MODEL 1
REMARK VINA RESULT:     -12.6      0.000      0.000
REMARK SMILES O=C(CCn1c(SCc2ccccn2)nc2ccccc2c1=O)NCCCCCCNC(=O)c1ccc(-c2c3nc(c(-c4c(F)c(F)c(F)c(F)c4F)c4ccc([nH]4)c(-c4c(F)c(F)c(F)c(F)c4F)c4nc(c(-c5c(F)c(F)c(F)c(F)c5F)c5ccc2[nH]5)C=C4)C=C3)cc1
REMARK SMILES IDX 26 1 25 2 24 3 1 4 2 5 3 7 4 8 5 9 6 10 22 11 15 12 21 13
REMARK SMILES IDX 23 14 16 15 20 16 17 17 19 18 18 19 7 20 8 21 9 22 10 23
REMARK SMILES IDX 14 24 11 25 13 26 12 27 27 28 28 29 29 30 30 31 31 32 32 33
REMARK SMILES IDX 33 35 34 36 35 37 96 38 36 39 95 40 37 41 38 42 39 43 89 44
REMARK SMILES IDX 40 45 94 46 88 47 90 48 41 49 93 50 87 51 86 52 42 54 74 55
REMARK SMILES IDX 54 56 73 57 55 58 58 59 72 60 91 61 56 62 57 63 71 65 92 66
REMARK SMILES IDX 59 67 43 68 44 69 52 70 45 71 46 72 50 73 53 74 47 75 48 76
REMARK SMILES IDX 51 77 49 78 75 79 76 80 84 81 77 82 78 83 82 84 85 85 79 86
REMARK SMILES IDX 80 87 83 88 81 89 60 90 61 91 69 92 62 93 63 94 67 95 70 96
REMARK SMILES IDX 64 97 65 98 68 99 66 100
REMARK H PARENT 24 6 31 34 90 53 58 64
REMARK Flexibility Score: inf
ROOT
ATOM      1  C   UNL A   1      35.643  23.345  23.658  1.00  0.00     0.021 C 
ENDROOT
BRANCH   1   2
ATOM      2  C   UNL A   1      35.062  23.681  25.033  1.00  0.00     0.116 C 
BRANCH   2   3
ATOM      3  N   UNL A   1      34.778  25.096  25.122  1.00  0.00    -0.356 N 
ATOM      4  O   UNL A   1      32.959  24.907  26.495  1.00  0.00    -0.275 OA
ATOM      5  C   UNL A   1      33.678  25.585  25.768  1.00  0.00     0.221 C 
ATOM      6  H   UNL A   1      35.401  25.731  24.701  1.00  0.00     0.163 HD
BRANCH   5   7
ATOM      7  C   UNL A   1      33.331  27.009  25.434  1.00  0.00     0.122 C 
BRANCH   7   8
ATOM      8  C   UNL A   1      31.856  27.381  25.531  1.00  0.00     0.138 C 
BRANCH   8   9
ATOM      9  N   UNL A   1      31.121  28.091  24.491  1.00  0.00    -0.287 N 
ATOM     10  C   UNL A   1      30.766  27.478  23.288  1.00  0.00     0.171 A 
ATOM     11  C   UNL A   1      30.940  29.470  24.594  1.00  0.00     0.262 A 
ATOM     12  N   UNL A   1      29.903  28.005  22.474  1.00  0.00    -0.224 NA
ATOM     13  C   UNL A   1      29.903  30.069  23.740  1.00  0.00     0.066 A 
ATOM     14  O   UNL A   1      31.539  30.201  25.376  1.00  0.00    -0.269 OA
ATOM     15  C   UNL A   1      29.348  29.251  22.769  1.00  0.00     0.079 A 
ATOM     16  C   UNL A   1      29.410  31.360  23.974  1.00  0.00     0.016 A 
ATOM     17  C   UNL A   1      28.225  29.703  22.073  1.00  0.00     0.029 A 
ATOM     18  C   UNL A   1      28.294  31.809  23.267  1.00  0.00     0.001 A 
ATOM     19  C   UNL A   1      27.686  30.969  22.333  1.00  0.00     0.002 A 
BRANCH  10  20
ATOM     20  S   UNL A   1      31.314  25.905  22.744  1.00  0.00    -0.081 SA
BRANCH  20  21
ATOM     21  C   UNL A   1      30.479  24.506  23.501  1.00  0.00     0.134 C 
BRANCH  21  22
ATOM     22  C   UNL A   1      31.222  23.236  23.856  1.00  0.00     0.051 A 
ATOM     23  C   UNL A   1      32.040  22.633  22.889  1.00  0.00     0.025 A 
ATOM     24  N   UNL A   1      31.126  22.740  25.108  1.00  0.00    -0.260 NA
ATOM     25  C   UNL A   1      32.657  21.419  23.168  1.00  0.00     0.003 A 
ATOM     26  C   UNL A   1      31.800  21.595  25.376  1.00  0.00     0.111 A 
ATOM     27  C   UNL A   1      32.540  20.888  24.441  1.00  0.00     0.020 A 
ENDBRANCH  21  22
ENDBRANCH  20  21
ENDBRANCH  10  20
ENDBRANCH   8   9
ENDBRANCH   7   8
ENDBRANCH   5   7
ENDBRANCH   2   3
ENDBRANCH   1   2
BRANCH   1  28
ATOM     28  C   UNL A   1      36.734  22.267  23.685  1.00  0.00     0.002 C 
BRANCH  28  29
ATOM     29  C   UNL A   1      37.341  21.986  25.063  1.00  0.00     0.002 C 
BRANCH  29  30
ATOM     30  C   UNL A   1      38.044  20.643  25.191  1.00  0.00     0.021 C 
BRANCH  30  31
ATOM     31  C   UNL A   1      39.310  20.687  26.031  1.00  0.00     0.116 C 
BRANCH  31  32
ATOM     32  N   UNL A   1      40.079  19.448  25.991  1.00  0.00    -0.352 N 
ATOM     33  C   UNL A   1      41.440  19.291  26.128  1.00  0.00     0.251 C 
ATOM     34  H   UNL A   1      39.561  18.623  25.848  1.00  0.00     0.163 HD
ATOM     35  O   UNL A   1      41.976  18.198  25.975  1.00  0.00    -0.269 OA
BRANCH  33  36
ATOM     36  C   UNL A   1      42.252  20.494  26.404  1.00  0.00     0.039 A 
ATOM     37  C   UNL A   1      42.291  21.013  27.699  1.00  0.00     0.014 A 
ATOM     38  C   UNL A   1      42.832  21.186  25.339  1.00  0.00     0.014 A 
ATOM     39  C   UNL A   1      42.709  22.323  27.888  1.00  0.00     0.010 A 
ATOM     40  C   UNL A   1      43.350  22.465  25.557  1.00  0.00     0.010 A 
ATOM     41  C   UNL A   1      43.226  23.073  26.817  1.00  0.00    -0.014 A 
BRANCH  41  42
ATOM     42  C   UNL A   1      43.592  24.497  27.035  1.00  0.00     0.031 A 
ATOM     43  C   UNL A   1      42.601  25.471  27.620  1.00  0.00     0.074 A 
ATOM     44  C   UNL A   1      44.851  24.897  26.773  1.00  0.00     0.049 A 
ATOM     45  N   UNL A   1      42.751  26.747  27.877  1.00  0.00    -0.248 NA
ATOM     46  C   UNL A   1      41.268  24.949  27.961  1.00  0.00     0.031 C 
ATOM     47  C   UNL A   1      45.908  24.042  26.232  1.00  0.00     0.029 A 
ATOM     48  N   UNL A   1      45.464  26.111  26.953  1.00  0.00    -0.354 N 
ATOM     49  C   UNL A   1      41.532  27.182  28.383  1.00  0.00     0.074 A 
ATOM     50  C   UNL A   1      40.641  26.043  28.373  1.00  0.00     0.031 C 
ATOM     51  C   UNL A   1      47.053  24.735  26.184  1.00  0.00     0.029 A 
ATOM     52  C   UNL A   1      46.795  26.106  26.614  1.00  0.00     0.049 A 
ATOM     53  H   UNL A   1      44.997  26.908  27.293  1.00  0.00     0.167 HD
ATOM     54  C   UNL A   1      41.193  28.417  28.826  1.00  0.00     0.037 A 
ATOM     55  C   UNL A   1      47.705  27.097  26.627  1.00  0.00     0.037 A 
ATOM     56  C   UNL A   1      42.093  29.542  28.864  1.00  0.00     0.049 A 
ATOM     57  C   UNL A   1      47.288  28.468  27.074  1.00  0.00     0.074 A 
ATOM     58  C   UNL A   1      41.847  30.828  29.313  1.00  0.00     0.029 A 
ATOM     59  N   UNL A   1      43.414  29.513  28.445  1.00  0.00    -0.354 N 
ATOM     60  N   UNL A   1      46.128  28.868  27.535  1.00  0.00    -0.248 NA
ATOM     61  C   UNL A   1      48.300  29.529  26.986  1.00  0.00     0.031 C 
ATOM     62  C   UNL A   1      43.004  31.588  29.124  1.00  0.00     0.029 A 
ATOM     63  C   UNL A   1      43.989  30.764  28.604  1.00  0.00     0.049 A 
ATOM     64  H   UNL A   1      43.877  28.720  28.087  1.00  0.00     0.167 HD
ATOM     65  C   UNL A   1      46.272  30.222  27.801  1.00  0.00     0.074 A 
ATOM     66  C   UNL A   1      47.638  30.570  27.473  1.00  0.00     0.031 C 
ATOM     67  C   UNL A   1      45.349  31.097  28.270  1.00  0.00     0.037 A 
BRANCH  54  68
ATOM     68  C   UNL A   1      39.786  28.634  29.305  1.00  0.00     0.064 A 
ATOM     69  C   UNL A   1      39.424  28.427  30.644  1.00  0.00     0.173 A 
ATOM     70  C   UNL A   1      38.808  29.134  28.431  1.00  0.00     0.173 A 
ATOM     71  F   UNL A   1      40.318  27.940  31.518  1.00  0.00    -0.203 F 
ATOM     72  C   UNL A   1      38.131  28.700  31.087  1.00  0.00     0.198 A 
ATOM     73  C   UNL A   1      37.524  29.432  28.883  1.00  0.00     0.198 A 
ATOM     74  F   UNL A   1      39.104  29.359  27.142  1.00  0.00    -0.203 F 
ATOM     75  F   UNL A   1      37.799  28.466  32.365  1.00  0.00    -0.200 F 
ATOM     76  C   UNL A   1      37.186  29.212  30.210  1.00  0.00     0.200 A 
ATOM     77  F   UNL A   1      36.618  29.941  28.037  1.00  0.00    -0.200 F 
ATOM     78  F   UNL A   1      35.950  29.491  30.643  1.00  0.00    -0.200 F 
ENDBRANCH  54  68
BRANCH  55  79
ATOM     79  C   UNL A   1      49.098  26.815  26.198  1.00  0.00     0.064 A 
ATOM     80  C   UNL A   1      50.044  26.324  27.106  1.00  0.00     0.173 A 
ATOM     81  C   UNL A   1      49.499  26.990  24.865  1.00  0.00     0.173 A 
ATOM     82  F   UNL A   1      49.713  26.158  28.395  1.00  0.00    -0.203 F 
ATOM     83  C   UNL A   1      51.341  26.018  26.697  1.00  0.00     0.198 A 
ATOM     84  C   UNL A   1      50.786  26.657  24.452  1.00  0.00     0.198 A 
ATOM     85  F   UNL A   1      48.628  27.454  23.957  1.00  0.00    -0.203 F 
ATOM     86  F   UNL A   1      52.236  25.576  27.590  1.00  0.00    -0.200 F 
ATOM     87  C   UNL A   1      51.708  26.175  25.369  1.00  0.00     0.200 A 
ATOM     88  F   UNL A   1      51.130  26.791  23.163  1.00  0.00    -0.200 F 
ATOM     89  F   UNL A   1      52.949  25.863  24.973  1.00  0.00    -0.200 F 
ENDBRANCH  55  79
BRANCH  67  90
ATOM     90  C   UNL A   1      45.786  32.518  28.468  1.00  0.00     0.064 A 
ATOM     91  C   UNL A   1      45.622  33.479  27.460  1.00  0.00     0.173 A 
ATOM     92  C   UNL A   1      46.314  32.938  29.698  1.00  0.00     0.173 A 
ATOM     93  F   UNL A   1      45.136  33.123  26.261  1.00  0.00    -0.203 F 
ATOM     94  C   UNL A   1      45.985  34.806  27.671  1.00  0.00     0.198 A 
ATOM     95  C   UNL A   1      46.649  34.271  29.916  1.00  0.00     0.198 A 
ATOM     96  F   UNL A   1      46.484  32.057  30.696  1.00  0.00    -0.203 F 
ATOM     97  F   UNL A   1      45.854  35.701  26.682  1.00  0.00    -0.200 F 
ATOM     98  C   UNL A   1      46.488  35.203  28.901  1.00  0.00     0.200 A 
ATOM     99  F   UNL A   1      47.122  34.655  31.109  1.00  0.00    -0.200 F 
ATOM    100  F   UNL A   1      46.824  36.484  29.108  1.00  0.00    -0.200 F 
ENDBRANCH  67  90
ENDBRANCH  41  42
ENDBRANCH  33  36
ENDBRANCH  31  32
ENDBRANCH  30  31
ENDBRANCH  29  30
ENDBRANCH  28  29
ENDBRANCH   1  28
TORSDOF 18
ENDMDL
MODEL 2
REMARK VINA RESULT:     -12.5      4.549      8.717
REMARK SMILES O=C(CCn1c(SCc2ccccn2)nc2ccccc2c1=O)NCCCCCCNC(=O)c1ccc(-c2c3nc(c(-c4c(F)c(F)c(F)c(F)c4F)c4ccc([nH]4)c(-c4c(F)c(F)c(F)c(F)c4F)c4nc(c(-c5c(F)c(F)c(F)c(F)c5F)c5ccc2[nH]5)C=C4)C=C3)cc1
REMARK SMILES IDX 26 1 25 2 24 3 1 4 2 5 3 7 4 8 5 9 6 10 22 11 15 12 21 13
REMARK SMILES IDX 23 14 16 15 20 16 17 17 19 18 18 19 7 20 8 21 9 22 10 23
REMARK SMILES IDX 14 24 11 25 13 26 12 27 27 28 28 29 29 30 30 31 31 32 32 33
REMARK SMILES IDX 33 35 34 36 35 37 96 38 36 39 95 40 37 41 38 42 39 43 89 44
REMARK SMILES IDX 40 45 94 46 88 47 90 48 41 49 93 50 87 51 86 52 42 54 74 55
REMARK SMILES IDX 54 56 73 57 55 58 58 59 72 60 91 61 56 62 57 63 71 65 92 66
REMARK SMILES IDX 59 67 43 68 44 69 52 70 45 71 46 72 50 73 53 74 47 75 48 76
REMARK SMILES IDX 51 77 49 78 75 79 76 80 84 81 77 82 78 83 82 84 85 85 79 86
REMARK SMILES IDX 80 87 83 88 81 89 60 90 61 91 69 92 62 93 63 94 67 95 70 96
REMARK SMILES IDX 64 97 65 98 68 99 66 100
REMARK H PARENT 24 6 31 34 90 53 58 64
REMARK Flexibility Score: inf
ROOT
ATOM      1  C   UNL A   1      30.176  27.883  22.662  1.00  0.00     0.021 C 
ENDROOT
BRANCH   1   2
ATOM      2  C   UNL A   1      29.330  27.384  23.836  1.00  0.00     0.116 C 
BRANCH   2   3
ATOM      3  N   UNL A   1      29.620  25.993  24.103  1.00  0.00    -0.356 N 
ATOM      4  O   UNL A   1      30.787  26.342  26.039  1.00  0.00    -0.275 OA
ATOM      5  C   UNL A   1      30.420  25.596  25.137  1.00  0.00     0.221 C 
ATOM      6  H   UNL A   1      29.226  25.307  23.519  1.00  0.00     0.163 HD
BRANCH   5   7
ATOM      7  C   UNL A   1      30.926  24.184  25.036  1.00  0.00     0.122 C 
BRANCH   7   8
ATOM      8  C   UNL A   1      32.240  23.994  24.286  1.00  0.00     0.138 C 
BRANCH   8   9
ATOM      9  N   UNL A   1      33.401  23.301  24.832  1.00  0.00    -0.287 N 
ATOM     10  C   UNL A   1      33.471  21.908  24.887  1.00  0.00     0.171 A 
ATOM     11  C   UNL A   1      34.382  24.027  25.507  1.00  0.00     0.262 A 
ATOM     12  N   UNL A   1      34.584  21.283  25.126  1.00  0.00    -0.224 NA
ATOM     13  C   UNL A   1      35.679  23.362  25.709  1.00  0.00     0.066 A 
ATOM     14  O   UNL A   1      34.260  25.185  25.892  1.00  0.00    -0.269 OA
ATOM     15  C   UNL A   1      35.741  22.013  25.397  1.00  0.00     0.079 A 
ATOM     16  C   UNL A   1      36.826  24.079  26.076  1.00  0.00     0.016 A 
ATOM     17  C   UNL A   1      36.990  21.388  25.374  1.00  0.00     0.029 A 
ATOM     18  C   UNL A   1      38.068  23.444  26.061  1.00  0.00     0.001 A 
ATOM     19  C   UNL A   1      38.152  22.103  25.686  1.00  0.00     0.002 A 
BRANCH  10  20
ATOM     20  S   UNL A   1      32.153  20.806  24.544  1.00  0.00    -0.081 SA
BRANCH  20  21
ATOM     21  C   UNL A   1      32.593  19.384  23.539  1.00  0.00     0.134 C 
BRANCH  21  22
ATOM     22  C   UNL A   1      32.916  18.043  24.161  1.00  0.00     0.051 A 
ATOM     23  C   UNL A   1      33.979  17.288  23.642  1.00  0.00     0.025 A 
ATOM     24  N   UNL A   1      32.212  17.625  25.235  1.00  0.00    -0.260 NA
ATOM     25  C   UNL A   1      34.230  16.016  24.142  1.00  0.00     0.003 A 
ATOM     26  C   UNL A   1      32.529  16.412  25.752  1.00  0.00     0.111 A 
ATOM     27  C   UNL A   1      33.493  15.567  25.225  1.00  0.00     0.020 A 
ENDBRANCH  21  22
ENDBRANCH  20  21
ENDBRANCH  10  20
ENDBRANCH   8   9
ENDBRANCH   7   8
ENDBRANCH   5   7
ENDBRANCH   2   3
ENDBRANCH   1   2
BRANCH   1  28
ATOM     28  C   UNL A   1      31.167  28.994  23.031  1.00  0.00     0.002 C 
BRANCH  28  29
ATOM     29  C   UNL A   1      31.162  29.410  24.505  1.00  0.00     0.002 C 
BRANCH  29  30
ATOM     30  C   UNL A   1      32.537  29.685  25.098  1.00  0.00     0.021 C 
BRANCH  30  31
ATOM     31  C   UNL A   1      32.521  29.958  26.593  1.00  0.00     0.116 C 
BRANCH  31  32
ATOM     32  N   UNL A   1      32.362  31.369  26.926  1.00  0.00    -0.352 N 
ATOM     33  C   UNL A   1      33.279  32.208  27.520  1.00  0.00     0.251 C 
ATOM     34  H   UNL A   1      31.493  31.771  26.699  1.00  0.00     0.163 HD
ATOM     35  O   UNL A   1      32.984  33.355  27.837  1.00  0.00    -0.269 OA
BRANCH  33  36
ATOM     36  C   UNL A   1      34.619  31.665  27.823  1.00  0.00     0.039 A 
ATOM     37  C   UNL A   1      34.761  30.307  28.110  1.00  0.00     0.014 A 
ATOM     38  C   UNL A   1      35.693  32.543  27.979  1.00  0.00     0.014 A 
ATOM     39  C   UNL A   1      35.904  29.871  28.766  1.00  0.00     0.010 A 
ATOM     40  C   UNL A   1      36.883  32.075  28.542  1.00  0.00     0.010 A 
ATOM     41  C   UNL A   1      36.972  30.752  29.007  1.00  0.00    -0.014 A 
BRANCH  41  42
ATOM     42  C   UNL A   1      38.149  30.276  29.780  1.00  0.00     0.031 A 
ATOM     43  C   UNL A   1      38.352  30.688  31.215  1.00  0.00     0.074 A 
ATOM     44  C   UNL A   1      39.000  29.404  29.205  1.00  0.00     0.049 A 
ATOM     45  N   UNL A   1      39.321  30.367  32.038  1.00  0.00    -0.248 NA
ATOM     46  C   UNL A   1      37.340  31.577  31.809  1.00  0.00     0.031 C 
ATOM     47  C   UNL A   1      38.894  28.908  27.833  1.00  0.00     0.029 A 
ATOM     48  N   UNL A   1      40.101  28.759  29.708  1.00  0.00    -0.354 N 
ATOM     49  C   UNL A   1      39.048  31.029  33.228  1.00  0.00     0.074 A 
ATOM     50  C   UNL A   1      37.839  31.794  33.018  1.00  0.00     0.031 C 
ATOM     51  C   UNL A   1      39.846  27.990  27.622  1.00  0.00     0.029 A 
ATOM     52  C   UNL A   1      40.680  27.890  28.816  1.00  0.00     0.049 A 
ATOM     53  H   UNL A   1      40.442  28.902  30.620  1.00  0.00     0.167 HD
ATOM     54  C   UNL A   1      39.740  30.992  34.393  1.00  0.00     0.037 A 
ATOM     55  C   UNL A   1      41.773  27.114  28.934  1.00  0.00     0.037 A 
ATOM     56  C   UNL A   1      40.926  30.203  34.609  1.00  0.00     0.049 A 
ATOM     57  C   UNL A   1      42.548  27.132  30.218  1.00  0.00     0.074 A 
ATOM     58  C   UNL A   1      41.686  30.087  35.761  1.00  0.00     0.029 A 
ATOM     59  N   UNL A   1      41.521  29.392  33.655  1.00  0.00    -0.354 N 
ATOM     60  N   UNL A   1      42.288  27.776  31.330  1.00  0.00    -0.248 NA
ATOM     61  C   UNL A   1      43.779  26.331  30.260  1.00  0.00     0.031 C 
ATOM     62  C   UNL A   1      42.764  29.240  35.491  1.00  0.00     0.029 A 
ATOM     63  C   UNL A   1      42.651  28.788  34.186  1.00  0.00     0.049 A 
ATOM     64  H   UNL A   1      41.191  29.262  32.737  1.00  0.00     0.167 HD
ATOM     65  C   UNL A   1      43.314  27.450  32.206  1.00  0.00     0.074 A 
ATOM     66  C   UNL A   1      44.188  26.534  31.505  1.00  0.00     0.031 C 
ATOM     67  C   UNL A   1      43.513  27.881  33.476  1.00  0.00     0.037 A 
BRANCH  54  68
ATOM     68  C   UNL A   1      39.242  31.830  35.536  1.00  0.00     0.064 A 
ATOM     69  C   UNL A   1      38.326  31.330  36.472  1.00  0.00     0.173 A 
ATOM     70  C   UNL A   1      39.753  33.121  35.745  1.00  0.00     0.173 A 
ATOM     71  F   UNL A   1      37.799  30.106  36.314  1.00  0.00    -0.203 F 
ATOM     72  C   UNL A   1      37.928  32.096  37.566  1.00  0.00     0.198 A 
ATOM     73  C   UNL A   1      39.374  33.874  36.854  1.00  0.00     0.198 A 
ATOM     74  F   UNL A   1      40.640  33.645  34.885  1.00  0.00    -0.203 F 
ATOM     75  F   UNL A   1      37.028  31.608  38.432  1.00  0.00    -0.200 F 
ATOM     76  C   UNL A   1      38.460  33.361  37.762  1.00  0.00     0.200 A 
ATOM     77  F   UNL A   1      39.902  35.090  37.049  1.00  0.00    -0.200 F 
ATOM     78  F   UNL A   1      38.091  34.088  38.825  1.00  0.00    -0.200 F 
ENDBRANCH  54  68
BRANCH  55  79
ATOM     79  C   UNL A   1      42.188  26.260  27.792  1.00  0.00     0.064 A 
ATOM     80  C   UNL A   1      43.181  26.685  26.901  1.00  0.00     0.173 A 
ATOM     81  C   UNL A   1      41.631  24.987  27.594  1.00  0.00     0.173 A 
ATOM     82  F   UNL A   1      43.729  27.902  27.039  1.00  0.00    -0.203 F 
ATOM     83  C   UNL A   1      43.603  25.869  25.853  1.00  0.00     0.198 A 
ATOM     84  C   UNL A   1      42.074  24.161  26.564  1.00  0.00     0.198 A 
ATOM     85  F   UNL A   1      40.680  24.533  28.423  1.00  0.00    -0.203 F 
ATOM     86  F   UNL A   1      44.535  26.309  24.998  1.00  0.00    -0.200 F 
ATOM     87  C   UNL A   1      43.057  24.604  25.692  1.00  0.00     0.200 A 
ATOM     88  F   UNL A   1      41.558  22.932  26.425  1.00  0.00    -0.200 F 
ATOM     89  F   UNL A   1      43.476  23.813  24.695  1.00  0.00    -0.200 F 
ENDBRANCH  55  79
BRANCH  67  90
ATOM     90  C   UNL A   1      44.720  27.359  34.198  1.00  0.00     0.064 A 
ATOM     91  C   UNL A   1      45.934  28.060  34.193  1.00  0.00     0.173 A 
ATOM     92  C   UNL A   1      44.643  26.179  34.955  1.00  0.00     0.173 A 
ATOM     93  F   UNL A   1      46.061  29.185  33.472  1.00  0.00    -0.203 F 
ATOM     94  C   UNL A   1      47.033  27.592  34.908  1.00  0.00     0.198 A 
ATOM     95  C   UNL A   1      45.735  25.729  35.691  1.00  0.00     0.198 A 
ATOM     96  F   UNL A   1      43.502  25.476  34.997  1.00  0.00    -0.203 F 
ATOM     97  F   UNL A   1      48.195  28.259  34.860  1.00  0.00    -0.200 F 
ATOM     98  C   UNL A   1      46.930  26.434  35.663  1.00  0.00     0.200 A 
ATOM     99  F   UNL A   1      45.630  24.618  36.431  1.00  0.00    -0.200 F 
ATOM    100  F   UNL A   1      47.985  25.992  36.362  1.00  0.00    -0.200 F 
ENDBRANCH  67  90
ENDBRANCH  41  42
ENDBRANCH  33  36
ENDBRANCH  31  32
ENDBRANCH  30  31
ENDBRANCH  29  30
ENDBRANCH  28  29
ENDBRANCH   1  28
TORSDOF 18
ENDMDL
MODEL 3
REMARK VINA RESULT:     -12.5      0.223      7.124
REMARK SMILES O=C(CCn1c(SCc2ccccn2)nc2ccccc2c1=O)NCCCCCCNC(=O)c1ccc(-c2c3nc(c(-c4c(F)c(F)c(F)c(F)c4F)c4ccc([nH]4)c(-c4c(F)c(F)c(F)c(F)c4F)c4nc(c(-c5c(F)c(F)c(F)c(F)c5F)c5ccc2[nH]5)C=C4)C=C3)cc1
REMARK SMILES IDX 26 1 25 2 24 3 1 4 2 5 3 7 4 8 5 9 6 10 22 11 15 12 21 13
REMARK SMILES IDX 23 14 16 15 20 16 17 17 19 18 18 19 7 20 8 21 9 22 10 23
REMARK SMILES IDX 14 24 11 25 13 26 12 27 27 28 28 29 29 30 30 31 31 32 32 33
REMARK SMILES IDX 33 35 34 36 35 37 96 38 36 39 95 40 37 41 38 42 39 43 89 44
REMARK SMILES IDX 40 45 94 46 88 47 90 48 41 49 93 50 87 51 86 52 42 54 74 55
REMARK SMILES IDX 54 56 73 57 55 58 58 59 72 60 91 61 56 62 57 63 71 65 92 66
REMARK SMILES IDX 59 67 43 68 44 69 52 70 45 71 46 72 50 73 53 74 47 75 48 76
REMARK SMILES IDX 51 77 49 78 75 79 76 80 84 81 77 82 78 83 82 84 85 85 79 86
REMARK SMILES IDX 80 87 83 88 81 89 60 90 61 91 69 92 62 93 63 94 67 95 70 96
REMARK SMILES IDX 64 97 65 98 68 99 66 100
REMARK H PARENT 24 6 31 34 90 53 58 64
REMARK Flexibility Score: inf
ROOT
ATOM      1  C   UNL A   1      35.682  23.298  23.488  1.00  0.00     0.021 C 
ENDROOT
BRANCH   1   2
ATOM      2  C   UNL A   1      35.034  23.598  24.841  1.00  0.00     0.116 C 
BRANCH   2   3
ATOM      3  N   UNL A   1      34.784  25.016  24.972  1.00  0.00    -0.356 N 
ATOM      4  O   UNL A   1      33.132  24.842  26.543  1.00  0.00    -0.275 OA
ATOM      5  C   UNL A   1      33.773  25.516  25.743  1.00  0.00     0.221 C 
ATOM      6  H   UNL A   1      35.365  25.645  24.487  1.00  0.00     0.163 HD
BRANCH   5   7
ATOM      7  C   UNL A   1      33.414  26.948  25.461  1.00  0.00     0.122 C 
BRANCH   7   8
ATOM      8  C   UNL A   1      31.940  27.311  25.607  1.00  0.00     0.138 C 
BRANCH   8   9
ATOM      9  N   UNL A   1      31.158  27.987  24.578  1.00  0.00    -0.287 N 
ATOM     10  C   UNL A   1      30.725  27.328  23.427  1.00  0.00     0.171 A 
ATOM     11  C   UNL A   1      31.006  29.373  24.628  1.00  0.00     0.262 A 
ATOM     12  N   UNL A   1      29.825  27.834  22.640  1.00  0.00    -0.224 NA
ATOM     13  C   UNL A   1      29.932  29.953  23.807  1.00  0.00     0.066 A 
ATOM     14  O   UNL A   1      31.661  30.126  25.340  1.00  0.00    -0.269 OA
ATOM     15  C   UNL A   1      29.309  29.102  22.908  1.00  0.00     0.079 A 
ATOM     16  C   UNL A   1      29.474  31.261  24.009  1.00  0.00     0.016 A 
ATOM     17  C   UNL A   1      28.155  29.544  22.256  1.00  0.00     0.029 A 
ATOM     18  C   UNL A   1      28.327  31.699  23.347  1.00  0.00     0.001 A 
ATOM     19  C   UNL A   1      27.653  30.830  22.488  1.00  0.00     0.002 A 
BRANCH  10  20
ATOM     20  S   UNL A   1      31.215  25.721  22.926  1.00  0.00    -0.081 SA
BRANCH  20  21
ATOM     21  C   UNL A   1      30.665  24.390  23.999  1.00  0.00     0.134 C 
BRANCH  21  22
ATOM     22  C   UNL A   1      31.378  23.056  24.035  1.00  0.00     0.051 A 
ATOM     23  C   UNL A   1      31.951  22.557  22.856  1.00  0.00     0.025 A 
ATOM     24  N   UNL A   1      31.493  22.399  25.209  1.00  0.00    -0.260 NA
ATOM     25  C   UNL A   1      32.529  21.292  22.852  1.00  0.00     0.003 A 
ATOM     26  C   UNL A   1      32.130  21.202  25.191  1.00  0.00     0.111 A 
ATOM     27  C   UNL A   1      32.626  20.599  24.046  1.00  0.00     0.020 A 
ENDBRANCH  21  22
ENDBRANCH  20  21
ENDBRANCH  10  20
ENDBRANCH   8   9
ENDBRANCH   7   8
ENDBRANCH   5   7
ENDBRANCH   2   3
ENDBRANCH   1   2
BRANCH   1  28
ATOM     28  C   UNL A   1      36.810  22.261  23.549  1.00  0.00     0.002 C 
BRANCH  28  29
ATOM     29  C   UNL A   1      37.340  21.954  24.953  1.00  0.00     0.002 C 
BRANCH  29  30
ATOM     30  C   UNL A   1      38.015  20.598  25.101  1.00  0.00     0.021 C 
BRANCH  30  31
ATOM     31  C   UNL A   1      39.284  20.628  25.937  1.00  0.00     0.116 C 
BRANCH  31  32
ATOM     32  N   UNL A   1      40.040  19.381  25.894  1.00  0.00    -0.352 N 
ATOM     33  C   UNL A   1      41.394  19.205  26.073  1.00  0.00     0.251 C 
ATOM     34  H   UNL A   1      39.518  18.566  25.715  1.00  0.00     0.163 HD
ATOM     35  O   UNL A   1      41.922  18.110  25.912  1.00  0.00    -0.269 OA
BRANCH  33  36
ATOM     36  C   UNL A   1      42.209  20.392  26.404  1.00  0.00     0.039 A 
ATOM     37  C   UNL A   1      42.230  20.865  27.717  1.00  0.00     0.014 A 
ATOM     38  C   UNL A   1      42.811  21.116  25.374  1.00  0.00     0.014 A 
ATOM     39  C   UNL A   1      42.653  22.165  27.958  1.00  0.00     0.010 A 
ATOM     40  C   UNL A   1      43.335  22.383  25.645  1.00  0.00     0.010 A 
ATOM     41  C   UNL A   1      43.194  22.947  26.923  1.00  0.00    -0.014 A 
BRANCH  41  42
ATOM     42  C   UNL A   1      43.566  24.361  27.196  1.00  0.00     0.031 A 
ATOM     43  C   UNL A   1      44.941  24.879  26.862  1.00  0.00     0.074 A 
ATOM     44  C   UNL A   1      42.631  25.201  27.679  1.00  0.00     0.049 A 
ATOM     45  N   UNL A   1      45.434  26.081  27.032  1.00  0.00    -0.248 NA
ATOM     46  C   UNL A   1      45.889  23.928  26.260  1.00  0.00     0.031 C 
ATOM     47  C   UNL A   1      41.256  24.825  28.014  1.00  0.00     0.029 A 
ATOM     48  N   UNL A   1      42.681  26.546  27.943  1.00  0.00    -0.354 N 
ATOM     49  C   UNL A   1      46.748  26.024  26.584  1.00  0.00     0.074 A 
ATOM     50  C   UNL A   1      46.989  24.663  26.158  1.00  0.00     0.031 C 
ATOM     51  C   UNL A   1      40.577  25.922  28.377  1.00  0.00     0.029 A 
ATOM     52  C   UNL A   1      41.486  27.063  28.377  1.00  0.00     0.049 A 
ATOM     53  H   UNL A   1      43.495  27.089  27.831  1.00  0.00     0.167 HD
ATOM     54  C   UNL A   1      47.664  27.020  26.523  1.00  0.00     0.037 A 
ATOM     55  C   UNL A   1      41.158  28.313  28.755  1.00  0.00     0.037 A 
ATOM     56  C   UNL A   1      47.411  28.383  26.918  1.00  0.00     0.049 A 
ATOM     57  C   UNL A   1      42.208  29.384  28.727  1.00  0.00     0.074 A 
ATOM     58  C   UNL A   1      48.271  29.467  26.876  1.00  0.00     0.029 A 
ATOM     59  N   UNL A   1      46.206  28.850  27.421  1.00  0.00    -0.354 N 
ATOM     60  N   UNL A   1      43.451  29.312  28.315  1.00  0.00    -0.248 NA
ATOM     61  C   UNL A   1      41.817  30.707  29.231  1.00  0.00     0.031 C 
ATOM     62  C   UNL A   1      47.601  30.579  27.394  1.00  0.00     0.029 A 
ATOM     63  C   UNL A   1      46.307  30.201  27.713  1.00  0.00     0.049 A 
ATOM     64  H   UNL A   1      45.398  28.303  27.551  1.00  0.00     0.167 HD
ATOM     65  C   UNL A   1      43.986  30.579  28.501  1.00  0.00     0.074 A 
ATOM     66  C   UNL A   1      42.928  31.406  29.040  1.00  0.00     0.031 C 
ATOM     67  C   UNL A   1      45.246  31.011  28.252  1.00  0.00     0.037 A 
BRANCH  54  68
ATOM     68  C   UNL A   1      49.038  26.686  26.015  1.00  0.00     0.064 A 
ATOM     69  C   UNL A   1      49.420  26.954  24.693  1.00  0.00     0.173 A 
ATOM     70  C   UNL A   1      50.010  26.167  26.886  1.00  0.00     0.173 A 
ATOM     71  F   UNL A   1      48.527  27.441  23.818  1.00  0.00    -0.203 F 
ATOM     72  C   UNL A   1      50.720  26.703  24.258  1.00  0.00     0.198 A 
ATOM     73  C   UNL A   1      51.315  25.942  26.454  1.00  0.00     0.198 A 
ATOM     74  F   UNL A   1      49.700  25.901  28.164  1.00  0.00    -0.203 F 
ATOM     75  F   UNL A   1      51.054  26.939  22.980  1.00  0.00    -0.200 F 
ATOM     76  C   UNL A   1      51.668  26.208  25.140  1.00  0.00     0.200 A 
ATOM     77  F   UNL A   1      52.234  25.479  27.313  1.00  0.00    -0.200 F 
ATOM     78  F   UNL A   1      52.921  25.985  24.723  1.00  0.00    -0.200 F 
ENDBRANCH  54  68
BRANCH  55  79
ATOM     79  C   UNL A   1      39.770  28.602  29.195  1.00  0.00     0.064 A 
ATOM     80  C   UNL A   1      39.381  28.403  30.525  1.00  0.00     0.173 A 
ATOM     81  C   UNL A   1      38.817  29.121  28.304  1.00  0.00     0.173 A 
ATOM     82  F   UNL A   1      40.251  27.892  31.408  1.00  0.00    -0.203 F 
ATOM     83  C   UNL A   1      38.091  28.713  30.950  1.00  0.00     0.198 A 
ATOM     84  C   UNL A   1      37.537  29.457  28.737  1.00  0.00     0.198 A 
ATOM     85  F   UNL A   1      39.143  29.332  27.021  1.00  0.00    -0.203 F 
ATOM     86  F   UNL A   1      37.734  28.489  32.222  1.00  0.00    -0.200 F 
ATOM     87  C   UNL A   1      37.173  29.249  30.059  1.00  0.00     0.200 A 
ATOM     88  F   UNL A   1      36.661  29.994  27.876  1.00  0.00    -0.200 F 
ATOM     89  F   UNL A   1      35.938  29.565  30.472  1.00  0.00    -0.200 F 
ENDBRANCH  55  79
BRANCH  67  90
ATOM     90  C   UNL A   1      45.552  32.449  28.549  1.00  0.00     0.064 A 
ATOM     91  C   UNL A   1      46.122  32.837  29.770  1.00  0.00     0.173 A 
ATOM     92  C   UNL A   1      45.332  33.440  27.580  1.00  0.00     0.173 A 
ATOM     93  F   UNL A   1      46.337  31.929  30.733  1.00  0.00    -0.203 F 
ATOM     94  C   UNL A   1      46.448  34.168  30.016  1.00  0.00     0.198 A 
ATOM     95  C   UNL A   1      45.685  34.765  27.818  1.00  0.00     0.198 A 
ATOM     96  F   UNL A   1      44.796  33.118  26.393  1.00  0.00    -0.203 F 
ATOM     97  F   UNL A   1      46.958  34.523  31.203  1.00  0.00    -0.200 F 
ATOM     98  C   UNL A   1      46.239  35.128  29.038  1.00  0.00     0.200 A 
ATOM     99  F   UNL A   1      45.496  35.689  26.867  1.00  0.00    -0.200 F 
ATOM    100  F   UNL A   1      46.566  36.407  29.271  1.00  0.00    -0.200 F 
ENDBRANCH  67  90
ENDBRANCH  41  42
ENDBRANCH  33  36
ENDBRANCH  31  32
ENDBRANCH  30  31
ENDBRANCH  29  30
ENDBRANCH  28  29
ENDBRANCH   1  28
TORSDOF 18
ENDMDL
