MODEL 1
REMARK VINA RESULT:     -12.5      0.000      0.000
REMARK SMILES CS(=O)(=O)c1ccc(C2=NN(c3ccc(C(=O)NCCCCCCNC(=O)c4ccc(-c5c6nc(c(-c7c(F)c(F)c(F)c(F)c7F)c7ccc([nH]7)c(-c7c(F)c(F)c(F)c(F)c7F)c7nc(c(-c8c(F)c(F)c(F)c(F)c8F)c8ccc5[nH]8)C=C7)C=C6)cc4)cc3)[C@H](c3ccc(Cl)cc3)C2)cc1
REMARK SMILES IDX 21 1 20 2 19 3 18 4 16 5 17 6 15 8 12 9 13 10 92 11 14 12
REMARK SMILES IDX 91 13 11 14 9 15 10 16 101 17 93 18 8 19 5 20 6 21 103 22
REMARK SMILES IDX 7 23 102 24 2 25 1 26 3 27 4 28 94 29 95 30 100 31 96 32
REMARK SMILES IDX 99 33 97 34 98 35 22 36 23 37 24 38 25 39 26 40 27 42 28 43
REMARK SMILES IDX 29 44 90 45 30 46 89 47 31 48 32 49 33 50 83 51 34 52 88 53
REMARK SMILES IDX 82 54 84 55 35 56 87 57 81 58 80 59 36 61 68 62 48 63 67 64
REMARK SMILES IDX 49 65 52 66 66 67 85 68 50 69 51 70 65 72 86 73 53 74 37 75
REMARK SMILES IDX 38 76 46 77 39 78 40 79 44 80 47 81 41 82 42 83 45 84 43 85
REMARK SMILES IDX 69 86 70 87 78 88 71 89 72 90 76 91 79 92 73 93 74 94 77 95
REMARK SMILES IDX 75 96 54 97 55 98 63 99 56 100 57 101 61 102 64 103 58 104
REMARK SMILES IDX 59 105 62 106 60 107
REMARK H PARENT 18 7 25 41 84 60 52 71
REMARK Flexibility Score: inf
ROOT
ATOM      1  C   UNL A   1      37.356  30.058  30.101  1.00  0.00     0.002 C 
ENDROOT
BRANCH   1   2
ATOM      2  C   UNL A   1      37.001  29.223  28.865  1.00  0.00     0.021 C 
BRANCH   2   3
ATOM      3  C   UNL A   1      36.749  30.066  27.614  1.00  0.00     0.116 C 
BRANCH   3   4
ATOM      4  N   UNL A   1      35.534  30.846  27.768  1.00  0.00    -0.352 N 
ATOM      5  C   UNL A   1      34.248  30.602  27.358  1.00  0.00     0.251 C 
ATOM      6  O   UNL A   1      33.368  31.406  27.662  1.00  0.00    -0.269 OA
ATOM      7  H   UNL A   1      35.654  31.695  28.251  1.00  0.00     0.163 HD
BRANCH   5   8
ATOM      8  C   UNL A   1      33.884  29.362  26.631  1.00  0.00     0.039 A 
ATOM      9  C   UNL A   1      33.084  27.145  25.096  1.00  0.00     0.060 A 
ATOM     10  C   UNL A   1      33.788  28.199  24.505  1.00  0.00     0.029 A 
ATOM     11  C   UNL A   1      32.862  27.177  26.476  1.00  0.00     0.029 A 
ATOM     12  C   UNL A   1      34.192  29.298  25.267  1.00  0.00     0.016 A 
ATOM     13  C   UNL A   1      33.269  28.269  27.245  1.00  0.00     0.016 A 
BRANCH   9  14
ATOM     14  N   UNL A   1      32.591  26.092  24.350  1.00  0.00    -0.257 N 
ATOM     15  C   UNL A   1      32.627  24.074  23.710  1.00  0.00     0.071 C 
ATOM     16  N   UNL A   1      32.841  24.825  24.744  1.00  0.00    -0.176 NA
ATOM     17  C   UNL A   1      32.238  24.799  22.447  1.00  0.00     0.091 C 
ATOM     18  C   UNL A   1      32.036  26.220  23.005  1.00  0.00     0.144 C 
BRANCH  15  19
ATOM     19  C   UNL A   1      32.800  22.613  23.770  1.00  0.00    -0.002 A 
ATOM     20  C   UNL A   1      32.902  19.837  23.901  1.00  0.00     0.067 A 
ATOM     21  C   UNL A   1      32.228  20.451  22.843  1.00  0.00     0.021 A 
ATOM     22  C   UNL A   1      33.529  20.601  24.892  1.00  0.00     0.021 A 
ATOM     23  C   UNL A   1      32.168  21.840  22.788  1.00  0.00     0.011 A 
ATOM     24  C   UNL A   1      33.490  21.998  24.819  1.00  0.00     0.011 A 
BRANCH  20  25
ATOM     25  S   UNL A   1      32.917  18.061  24.005  1.00  0.00     0.175 S 
ATOM     26  C   UNL A   1      34.615  17.639  24.286  1.00  0.00     0.163 C 
ATOM     27  O   UNL A   1      32.562  17.545  22.695  1.00  0.00    -0.224 OA
ATOM     28  O   UNL A   1      32.155  17.707  25.184  1.00  0.00    -0.224 OA
ENDBRANCH  20  25
ENDBRANCH  15  19
BRANCH  18  29
ATOM     29  C   UNL A   1      30.608  26.760  23.100  1.00  0.00    -0.023 A 
ATOM     30  C   UNL A   1      29.563  26.104  23.768  1.00  0.00     0.007 A 
ATOM     31  C   UNL A   1      30.341  28.035  22.556  1.00  0.00     0.007 A 
ATOM     32  C   UNL A   1      28.297  26.694  23.877  1.00  0.00     0.021 A 
ATOM     33  C   UNL A   1      29.086  28.636  22.685  1.00  0.00     0.021 A 
ATOM     34  C   UNL A   1      28.067  27.960  23.344  1.00  0.00     0.041 A 
ATOM     35  Cl  UNL A   1      26.523  28.698  23.516  1.00  0.00    -0.084 Cl
ENDBRANCH  18  29
ENDBRANCH   9  14
ENDBRANCH   5   8
ENDBRANCH   3   4
ENDBRANCH   2   3
ENDBRANCH   1   2
BRANCH   1  36
ATOM     36  C   UNL A   1      36.276  30.087  31.191  1.00  0.00     0.002 C 
BRANCH  36  37
ATOM     37  C   UNL A   1      35.744  31.480  31.537  1.00  0.00     0.021 C 
BRANCH  37  38
ATOM     38  C   UNL A   1      35.948  31.889  32.993  1.00  0.00     0.116 C 
BRANCH  38  39
ATOM     39  N   UNL A   1      36.270  33.302  33.118  1.00  0.00    -0.352 N 
ATOM     40  C   UNL A   1      37.449  33.951  32.854  1.00  0.00     0.251 C 
ATOM     41  H   UNL A   1      35.538  33.875  33.440  1.00  0.00     0.163 HD
ATOM     42  O   UNL A   1      37.613  35.111  33.220  1.00  0.00    -0.269 OA
BRANCH  40  43
ATOM     43  C   UNL A   1      38.533  33.249  32.136  1.00  0.00     0.039 A 
ATOM     44  C   UNL A   1      38.658  33.428  30.756  1.00  0.00     0.014 A 
ATOM     45  C   UNL A   1      39.411  32.401  32.817  1.00  0.00     0.014 A 
ATOM     46  C   UNL A   1      39.696  32.798  30.067  1.00  0.00     0.010 A 
ATOM     47  C   UNL A   1      40.484  31.827  32.142  1.00  0.00     0.010 A 
ATOM     48  C   UNL A   1      40.635  32.016  30.760  1.00  0.00    -0.014 A 
BRANCH  48  49
ATOM     49  C   UNL A   1      41.778  31.384  30.054  1.00  0.00     0.031 A 
ATOM     50  C   UNL A   1      43.022  32.179  29.772  1.00  0.00     0.074 A 
ATOM     51  C   UNL A   1      41.670  30.116  29.614  1.00  0.00     0.049 A 
ATOM     52  N   UNL A   1      44.097  31.829  29.110  1.00  0.00    -0.248 NA
ATOM     53  C   UNL A   1      43.054  33.559  30.281  1.00  0.00     0.031 C 
ATOM     54  C   UNL A   1      40.498  29.258  29.789  1.00  0.00     0.029 A 
ATOM     55  N   UNL A   1      42.556  29.331  28.920  1.00  0.00    -0.354 N 
ATOM     56  C   UNL A   1      44.921  32.946  29.109  1.00  0.00     0.074 A 
ATOM     57  C   UNL A   1      44.205  34.001  29.794  1.00  0.00     0.031 C 
ATOM     58  C   UNL A   1      40.744  28.059  29.236  1.00  0.00     0.029 A 
ATOM     59  C   UNL A   1      42.075  28.076  28.637  1.00  0.00     0.049 A 
ATOM     60  H   UNL A   1      43.452  29.639  28.650  1.00  0.00     0.167 HD
ATOM     61  C   UNL A   1      46.171  33.073  28.604  1.00  0.00     0.037 A 
ATOM     62  C   UNL A   1      42.642  27.058  27.962  1.00  0.00     0.037 A 
ATOM     63  C   UNL A   1      46.890  32.013  27.947  1.00  0.00     0.049 A 
ATOM     64  C   UNL A   1      44.030  27.228  27.406  1.00  0.00     0.074 A 
ATOM     65  C   UNL A   1      48.183  32.024  27.453  1.00  0.00     0.029 A 
ATOM     66  N   UNL A   1      46.376  30.751  27.694  1.00  0.00    -0.354 N 
ATOM     67  N   UNL A   1      44.825  28.268  27.468  1.00  0.00    -0.248 NA
ATOM     68  C   UNL A   1      44.601  26.077  26.691  1.00  0.00     0.031 C 
ATOM     69  C   UNL A   1      48.435  30.783  26.859  1.00  0.00     0.029 A 
ATOM     70  C   UNL A   1      47.319  29.980  27.030  1.00  0.00     0.049 A 
ATOM     71  H   UNL A   1      45.475  30.445  27.947  1.00  0.00     0.167 HD
ATOM     72  C   UNL A   1      45.998  27.890  26.829  1.00  0.00     0.074 A 
ATOM     73  C   UNL A   1      45.816  26.519  26.398  1.00  0.00     0.031 C 
ATOM     74  C   UNL A   1      47.125  28.614  26.618  1.00  0.00     0.037 A 
BRANCH  61  75
ATOM     75  C   UNL A   1      46.846  34.406  28.746  1.00  0.00     0.064 A 
ATOM     76  C   UNL A   1      47.649  34.710  29.856  1.00  0.00     0.173 A 
ATOM     77  C   UNL A   1      46.725  35.377  27.740  1.00  0.00     0.173 A 
ATOM     78  F   UNL A   1      47.789  33.821  30.851  1.00  0.00    -0.203 F 
ATOM     79  C   UNL A   1      48.282  35.945  29.967  1.00  0.00     0.198 A 
ATOM     80  C   UNL A   1      47.384  36.600  27.840  1.00  0.00     0.198 A 
ATOM     81  F   UNL A   1      45.975  35.136  26.653  1.00  0.00    -0.203 F 
ATOM     82  F   UNL A   1      49.006  36.229  31.059  1.00  0.00    -0.200 F 
ATOM     83  C   UNL A   1      48.157  36.886  28.956  1.00  0.00     0.200 A 
ATOM     84  F   UNL A   1      47.273  37.502  26.855  1.00  0.00    -0.200 F 
ATOM     85  F   UNL A   1      48.774  38.070  29.059  1.00  0.00    -0.200 F 
ENDBRANCH  61  75
BRANCH  62  86
ATOM     86  C   UNL A   1      41.909  25.775  27.800  1.00  0.00     0.064 A 
ATOM     87  C   UNL A   1      42.272  24.642  28.542  1.00  0.00     0.173 A 
ATOM     88  C   UNL A   1      40.840  25.651  26.902  1.00  0.00     0.173 A 
ATOM     89  F   UNL A   1      43.303  24.706  29.398  1.00  0.00    -0.203 F 
ATOM     90  C   UNL A   1      41.608  23.430  28.376  1.00  0.00     0.198 A 
ATOM     91  C   UNL A   1      40.157  24.445  26.758  1.00  0.00     0.198 A 
ATOM     92  F   UNL A   1      40.450  26.707  26.172  1.00  0.00    -0.203 F 
ATOM     93  F   UNL A   1      42.006  22.351  29.064  1.00  0.00    -0.200 F 
ATOM     94  C   UNL A   1      40.548  23.333  27.490  1.00  0.00     0.200 A 
ATOM     95  F   UNL A   1      39.124  24.359  25.909  1.00  0.00    -0.200 F 
ATOM     96  F   UNL A   1      39.907  22.167  27.333  1.00  0.00    -0.200 F 
ENDBRANCH  62  86
BRANCH  74  97
ATOM     97  C   UNL A   1      48.264  27.926  25.923  1.00  0.00     0.064 A 
ATOM     98  C   UNL A   1      49.350  27.398  26.636  1.00  0.00     0.173 A 
ATOM     99  C   UNL A   1      48.246  27.757  24.530  1.00  0.00     0.173 A 
ATOM    100  F   UNL A   1      49.421  27.547  27.967  1.00  0.00    -0.203 F 
ATOM    101  C   UNL A   1      50.390  26.749  25.976  1.00  0.00     0.198 A 
ATOM    102  C   UNL A   1      49.272  27.081  23.877  1.00  0.00     0.198 A 
ATOM    103  F   UNL A   1      47.226  28.237  23.803  1.00  0.00    -0.203 F 
ATOM    104  F   UNL A   1      51.442  26.294  26.670  1.00  0.00    -0.200 F 
ATOM    105  C   UNL A   1      50.346  26.584  24.599  1.00  0.00     0.200 A 
ATOM    106  F   UNL A   1      49.221  26.910  22.549  1.00  0.00    -0.200 F 
ATOM    107  F   UNL A   1      51.344  25.951  23.967  1.00  0.00    -0.200 F 
ENDBRANCH  74  97
ENDBRANCH  48  49
ENDBRANCH  40  43
ENDBRANCH  38  39
ENDBRANCH  37  38
ENDBRANCH  36  37
ENDBRANCH   1  36
TORSDOF 17
ENDMDL
MODEL 2
REMARK VINA RESULT:     -12.3      5.757      9.260
REMARK SMILES CS(=O)(=O)c1ccc(C2=NN(c3ccc(C(=O)NCCCCCCNC(=O)c4ccc(-c5c6nc(c(-c7c(F)c(F)c(F)c(F)c7F)c7ccc([nH]7)c(-c7c(F)c(F)c(F)c(F)c7F)c7nc(c(-c8c(F)c(F)c(F)c(F)c8F)c8ccc5[nH]8)C=C7)C=C6)cc4)cc3)[C@H](c3ccc(Cl)cc3)C2)cc1
REMARK SMILES IDX 21 1 20 2 19 3 18 4 16 5 17 6 15 8 12 9 13 10 92 11 14 12
REMARK SMILES IDX 91 13 11 14 9 15 10 16 101 17 93 18 8 19 5 20 6 21 103 22
REMARK SMILES IDX 7 23 102 24 2 25 1 26 3 27 4 28 94 29 95 30 100 31 96 32
REMARK SMILES IDX 99 33 97 34 98 35 22 36 23 37 24 38 25 39 26 40 27 42 28 43
REMARK SMILES IDX 29 44 90 45 30 46 89 47 31 48 32 49 33 50 83 51 34 52 88 53
REMARK SMILES IDX 82 54 84 55 35 56 87 57 81 58 80 59 36 61 68 62 48 63 67 64
REMARK SMILES IDX 49 65 52 66 66 67 85 68 50 69 51 70 65 72 86 73 53 74 37 75
REMARK SMILES IDX 38 76 46 77 39 78 40 79 44 80 47 81 41 82 42 83 45 84 43 85
REMARK SMILES IDX 69 86 70 87 78 88 71 89 72 90 76 91 79 92 73 93 74 94 77 95
REMARK SMILES IDX 75 96 54 97 55 98 63 99 56 100 57 101 61 102 64 103 58 104
REMARK SMILES IDX 59 105 62 106 60 107
REMARK H PARENT 18 7 25 41 84 60 52 71
REMARK Flexibility Score: inf
ROOT
ATOM      1  C   UNL A   1      33.278  34.890  29.442  1.00  0.00     0.002 C 
ENDROOT
BRANCH   1   2
ATOM      2  C   UNL A   1      33.595  36.065  30.374  1.00  0.00     0.021 C 
BRANCH   2   3
ATOM      3  C   UNL A   1      34.170  35.632  31.724  1.00  0.00     0.116 C 
BRANCH   3   4
ATOM      4  N   UNL A   1      33.316  34.630  32.337  1.00  0.00    -0.352 N 
ATOM      5  C   UNL A   1      33.616  33.562  33.144  1.00  0.00     0.251 C 
ATOM      6  O   UNL A   1      32.695  32.878  33.588  1.00  0.00    -0.269 OA
ATOM      7  H   UNL A   1      32.358  34.737  32.141  1.00  0.00     0.163 HD
BRANCH   5   8
ATOM      8  C   UNL A   1      35.010  33.262  33.554  1.00  0.00     0.039 A 
ATOM      9  C   UNL A   1      37.592  32.466  34.333  1.00  0.00     0.060 A 
ATOM     10  C   UNL A   1      36.996  31.917  33.193  1.00  0.00     0.029 A 
ATOM     11  C   UNL A   1      36.916  33.476  35.024  1.00  0.00     0.029 A 
ATOM     12  C   UNL A   1      35.715  32.315  32.801  1.00  0.00     0.016 A 
ATOM     13  C   UNL A   1      35.640  33.884  34.633  1.00  0.00     0.016 A 
BRANCH   9  14
ATOM     14  N   UNL A   1      38.817  32.024  34.796  1.00  0.00    -0.257 N 
ATOM     15  C   UNL A   1      40.251  30.505  35.138  1.00  0.00     0.071 C 
ATOM     16  N   UNL A   1      39.347  30.890  34.293  1.00  0.00    -0.176 NA
ATOM     17  C   UNL A   1      40.393  31.357  36.373  1.00  0.00     0.091 C 
ATOM     18  C   UNL A   1      39.483  32.538  35.991  1.00  0.00     0.144 C 
BRANCH  15  19
ATOM     19  C   UNL A   1      41.048  29.287  34.912  1.00  0.00    -0.002 A 
ATOM     20  C   UNL A   1      42.733  27.102  34.563  1.00  0.00     0.067 A 
ATOM     21  C   UNL A   1      42.539  27.623  35.844  1.00  0.00     0.021 A 
ATOM     22  C   UNL A   1      42.087  27.665  33.455  1.00  0.00     0.021 A 
ATOM     23  C   UNL A   1      41.705  28.724  36.014  1.00  0.00     0.011 A 
ATOM     24  C   UNL A   1      41.229  28.755  33.632  1.00  0.00     0.011 A 
BRANCH  20  25
ATOM     25  S   UNL A   1      43.853  25.739  34.342  1.00  0.00     0.175 S 
ATOM     26  C   UNL A   1      45.080  25.954  35.603  1.00  0.00     0.163 C 
ATOM     27  O   UNL A   1      44.518  25.923  33.065  1.00  0.00    -0.224 OA
ATOM     28  O   UNL A   1      43.104  24.534  34.633  1.00  0.00    -0.224 OA
ENDBRANCH  20  25
ENDBRANCH  15  19
BRANCH  18  29
ATOM     29  C   UNL A   1      40.142  33.878  35.661  1.00  0.00    -0.023 A 
ATOM     30  C   UNL A   1      40.473  34.848  36.620  1.00  0.00     0.007 A 
ATOM     31  C   UNL A   1      40.516  34.125  34.322  1.00  0.00     0.007 A 
ATOM     32  C   UNL A   1      41.141  36.024  36.253  1.00  0.00     0.021 A 
ATOM     33  C   UNL A   1      41.206  35.285  33.958  1.00  0.00     0.021 A 
ATOM     34  C   UNL A   1      41.512  36.232  34.927  1.00  0.00     0.041 A 
ATOM     35  Cl  UNL A   1      42.369  37.658  34.487  1.00  0.00    -0.084 Cl
ENDBRANCH  18  29
ENDBRANCH   9  14
ENDBRANCH   5   8
ENDBRANCH   3   4
ENDBRANCH   2   3
ENDBRANCH   1   2
BRANCH   1  36
ATOM     36  C   UNL A   1      34.280  34.685  28.298  1.00  0.00     0.002 C 
BRANCH  36  37
ATOM     37  C   UNL A   1      35.582  33.985  28.696  1.00  0.00     0.021 C 
BRANCH  37  38
ATOM     38  C   UNL A   1      35.393  32.756  29.581  1.00  0.00     0.116 C 
BRANCH  38  39
ATOM     39  N   UNL A   1      34.590  31.736  28.925  1.00  0.00    -0.352 N 
ATOM     40  C   UNL A   1      34.983  30.545  28.369  1.00  0.00     0.251 C 
ATOM     41  H   UNL A   1      33.626  31.928  28.870  1.00  0.00     0.163 HD
ATOM     42  O   UNL A   1      34.208  29.904  27.666  1.00  0.00    -0.269 OA
BRANCH  40  43
ATOM     43  C   UNL A   1      36.349  30.035  28.608  1.00  0.00     0.039 A 
ATOM     44  C   UNL A   1      37.301  30.148  27.590  1.00  0.00     0.014 A 
ATOM     45  C   UNL A   1      36.686  29.429  29.821  1.00  0.00     0.014 A 
ATOM     46  C   UNL A   1      38.605  29.702  27.810  1.00  0.00     0.010 A 
ATOM     47  C   UNL A   1      38.002  29.046  30.063  1.00  0.00     0.010 A 
ATOM     48  C   UNL A   1      38.973  29.173  29.058  1.00  0.00    -0.014 A 
BRANCH  48  49
ATOM     49  C   UNL A   1      40.369  28.746  29.330  1.00  0.00     0.031 A 
ATOM     50  C   UNL A   1      41.298  29.647  30.095  1.00  0.00     0.074 A 
ATOM     51  C   UNL A   1      40.815  27.577  28.833  1.00  0.00     0.049 A 
ATOM     52  N   UNL A   1      42.568  29.483  30.373  1.00  0.00    -0.248 NA
ATOM     53  C   UNL A   1      40.732  30.909  30.595  1.00  0.00     0.031 C 
ATOM     54  C   UNL A   1      40.022  26.638  28.039  1.00  0.00     0.029 A 
ATOM     55  N   UNL A   1      42.050  26.983  28.915  1.00  0.00    -0.354 N 
ATOM     56  C   UNL A   1      42.953  30.625  31.062  1.00  0.00     0.074 A 
ATOM     57  C   UNL A   1      41.798  31.496  31.119  1.00  0.00     0.031 C 
ATOM     58  C   UNL A   1      40.782  25.577  27.724  1.00  0.00     0.029 A 
ATOM     59  C   UNL A   1      42.124  25.777  28.262  1.00  0.00     0.049 A 
ATOM     60  H   UNL A   1      42.810  27.383  29.396  1.00  0.00     0.167 HD
ATOM     61  C   UNL A   1      44.155  30.911  31.617  1.00  0.00     0.037 A 
ATOM     62  C   UNL A   1      43.162  24.932  28.108  1.00  0.00     0.037 A 
ATOM     63  C   UNL A   1      45.293  30.031  31.580  1.00  0.00     0.049 A 
ATOM     64  C   UNL A   1      44.488  25.277  28.731  1.00  0.00     0.074 A 
ATOM     65  C   UNL A   1      46.537  30.204  32.163  1.00  0.00     0.029 A 
ATOM     66  N   UNL A   1      45.326  28.810  30.923  1.00  0.00    -0.354 N 
ATOM     67  N   UNL A   1      44.823  26.330  29.435  1.00  0.00    -0.248 NA
ATOM     68  C   UNL A   1      45.579  24.311  28.539  1.00  0.00     0.031 C 
ATOM     69  C   UNL A   1      47.336  29.109  31.820  1.00  0.00     0.029 A 
ATOM     70  C   UNL A   1      46.576  28.228  31.068  1.00  0.00     0.049 A 
ATOM     71  H   UNL A   1      44.573  28.415  30.427  1.00  0.00     0.167 HD
ATOM     72  C   UNL A   1      46.150  26.141  29.797  1.00  0.00     0.074 A 
ATOM     73  C   UNL A   1      46.555  24.865  29.245  1.00  0.00     0.031 C 
ATOM     74  C   UNL A   1      46.959  26.953  30.521  1.00  0.00     0.037 A 
BRANCH  61  75
ATOM     75  C   UNL A   1      44.301  32.231  32.318  1.00  0.00     0.064 A 
ATOM     76  C   UNL A   1      44.007  32.375  33.683  1.00  0.00     0.173 A 
ATOM     77  C   UNL A   1      44.780  33.355  31.628  1.00  0.00     0.173 A 
ATOM     78  F   UNL A   1      43.536  31.334  34.386  1.00  0.00    -0.203 F 
ATOM     79  C   UNL A   1      44.163  33.601  34.324  1.00  0.00     0.198 A 
ATOM     80  C   UNL A   1      44.963  34.572  32.280  1.00  0.00     0.198 A 
ATOM     81  F   UNL A   1      45.082  33.271  30.324  1.00  0.00    -0.203 F 
ATOM     82  F   UNL A   1      43.832  33.726  35.617  1.00  0.00    -0.200 F 
ATOM     83  C   UNL A   1      44.648  34.696  33.625  1.00  0.00     0.200 A 
ATOM     84  F   UNL A   1      45.444  35.626  31.606  1.00  0.00    -0.200 F 
ATOM     85  F   UNL A   1      44.806  35.874  34.245  1.00  0.00    -0.200 F 
ENDBRANCH  61  75
BRANCH  62  86
ATOM     86  C   UNL A   1      42.981  23.663  27.357  1.00  0.00     0.064 A 
ATOM     87  C   UNL A   1      42.437  22.531  27.980  1.00  0.00     0.173 A 
ATOM     88  C   UNL A   1      43.351  23.551  26.009  1.00  0.00     0.173 A 
ATOM     89  F   UNL A   1      42.089  22.582  29.274  1.00  0.00    -0.203 F 
ATOM     90  C   UNL A   1      42.290  21.331  27.290  1.00  0.00     0.198 A 
ATOM     91  C   UNL A   1      43.177  22.357  25.311  1.00  0.00     0.198 A 
ATOM     92  F   UNL A   1      43.872  24.606  25.366  1.00  0.00    -0.203 F 
ATOM     93  F   UNL A   1      41.811  20.251  27.923  1.00  0.00    -0.200 F 
ATOM     94  C   UNL A   1      42.654  21.245  25.955  1.00  0.00     0.200 A 
ATOM     95  F   UNL A   1      43.517  22.283  24.018  1.00  0.00    -0.200 F 
ATOM     96  F   UNL A   1      42.509  20.091  25.291  1.00  0.00    -0.200 F 
ENDBRANCH  62  86
BRANCH  74  97
ATOM     97  C   UNL A   1      48.354  26.467  30.792  1.00  0.00     0.064 A 
ATOM     98  C   UNL A   1      49.431  26.821  29.965  1.00  0.00     0.173 A 
ATOM     99  C   UNL A   1      48.622  25.672  31.917  1.00  0.00     0.173 A 
ATOM    100  F   UNL A   1      49.223  27.567  28.869  1.00  0.00    -0.203 F 
ATOM    101  C   UNL A   1      50.719  26.375  30.241  1.00  0.00     0.198 A 
ATOM    102  C   UNL A   1      49.917  25.254  32.206  1.00  0.00     0.198 A 
ATOM    103  F   UNL A   1      47.628  25.313  32.743  1.00  0.00    -0.203 F 
ATOM    104  F   UNL A   1      51.726  26.684  29.411  1.00  0.00    -0.200 F 
ATOM    105  C   UNL A   1      50.963  25.599  31.364  1.00  0.00     0.200 A 
ATOM    106  F   UNL A   1      50.152  24.516  33.299  1.00  0.00    -0.200 F 
ATOM    107  F   UNL A   1      52.207  25.177  31.632  1.00  0.00    -0.200 F 
ENDBRANCH  74  97
ENDBRANCH  48  49
ENDBRANCH  40  43
ENDBRANCH  38  39
ENDBRANCH  37  38
ENDBRANCH  36  37
ENDBRANCH   1  36
TORSDOF 17
ENDMDL
MODEL 3
REMARK VINA RESULT:     -12.2      5.594     10.392
REMARK SMILES CS(=O)(=O)c1ccc(C2=NN(c3ccc(C(=O)NCCCCCCNC(=O)c4ccc(-c5c6nc(c(-c7c(F)c(F)c(F)c(F)c7F)c7ccc([nH]7)c(-c7c(F)c(F)c(F)c(F)c7F)c7nc(c(-c8c(F)c(F)c(F)c(F)c8F)c8ccc5[nH]8)C=C7)C=C6)cc4)cc3)[C@H](c3ccc(Cl)cc3)C2)cc1
REMARK SMILES IDX 21 1 20 2 19 3 18 4 16 5 17 6 15 8 12 9 13 10 92 11 14 12
REMARK SMILES IDX 91 13 11 14 9 15 10 16 101 17 93 18 8 19 5 20 6 21 103 22
REMARK SMILES IDX 7 23 102 24 2 25 1 26 3 27 4 28 94 29 95 30 100 31 96 32
REMARK SMILES IDX 99 33 97 34 98 35 22 36 23 37 24 38 25 39 26 40 27 42 28 43
REMARK SMILES IDX 29 44 90 45 30 46 89 47 31 48 32 49 33 50 83 51 34 52 88 53
REMARK SMILES IDX 82 54 84 55 35 56 87 57 81 58 80 59 36 61 68 62 48 63 67 64
REMARK SMILES IDX 49 65 52 66 66 67 85 68 50 69 51 70 65 72 86 73 53 74 37 75
REMARK SMILES IDX 38 76 46 77 39 78 40 79 44 80 47 81 41 82 42 83 45 84 43 85
REMARK SMILES IDX 69 86 70 87 78 88 71 89 72 90 76 91 79 92 73 93 74 94 77 95
REMARK SMILES IDX 75 96 54 97 55 98 63 99 56 100 57 101 61 102 64 103 58 104
REMARK SMILES IDX 59 105 62 106 60 107
REMARK H PARENT 18 7 25 41 84 60 52 71
REMARK Flexibility Score: inf
ROOT
ATOM      1  C   UNL A   1      41.352  25.155  26.343  1.00  0.00     0.002 C 
ENDROOT
BRANCH   1   2
ATOM      2  C   UNL A   1      40.486  25.354  27.593  1.00  0.00     0.021 C 
BRANCH   2   3
ATOM      3  C   UNL A   1      39.162  24.590  27.543  1.00  0.00     0.116 C 
BRANCH   3   4
ATOM      4  N   UNL A   1      39.350  23.296  26.911  1.00  0.00    -0.352 N 
ATOM      5  C   UNL A   1      38.503  22.534  26.148  1.00  0.00     0.251 C 
ATOM      6  O   UNL A   1      38.921  21.479  25.673  1.00  0.00    -0.269 OA
ATOM      7  H   UNL A   1      40.239  22.898  27.054  1.00  0.00     0.163 HD
BRANCH   5   8
ATOM      8  C   UNL A   1      37.129  22.987  25.818  1.00  0.00     0.039 A 
ATOM      9  C   UNL A   1      34.449  23.641  25.274  1.00  0.00     0.060 A 
ATOM     10  C   UNL A   1      34.832  23.233  26.556  1.00  0.00     0.029 A 
ATOM     11  C   UNL A   1      35.436  23.799  24.297  1.00  0.00     0.029 A 
ATOM     12  C   UNL A   1      36.164  22.913  26.830  1.00  0.00     0.016 A 
ATOM     13  C   UNL A   1      36.770  23.489  24.566  1.00  0.00     0.016 A 
BRANCH   9  14
ATOM     14  N   UNL A   1      33.126  23.873  24.951  1.00  0.00    -0.257 N 
ATOM     15  C   UNL A   1      31.471  25.158  24.648  1.00  0.00     0.071 C 
ATOM     16  N   UNL A   1      32.756  25.090  24.498  1.00  0.00    -0.176 NA
ATOM     17  C   UNL A   1      30.824  23.957  25.288  1.00  0.00     0.091 C 
ATOM     18  C   UNL A   1      32.020  22.987  25.308  1.00  0.00     0.144 C 
BRANCH  15  19
ATOM     19  C   UNL A   1      30.713  26.358  24.253  1.00  0.00    -0.002 A 
ATOM     20  C   UNL A   1      29.238  28.519  23.311  1.00  0.00     0.067 A 
ATOM     21  C   UNL A   1      28.616  27.278  23.466  1.00  0.00     0.021 A 
ATOM     22  C   UNL A   1      30.591  28.687  23.627  1.00  0.00     0.021 A 
ATOM     23  C   UNL A   1      29.360  26.195  23.926  1.00  0.00     0.011 A 
ATOM     24  C   UNL A   1      31.330  27.604  24.115  1.00  0.00     0.011 A 
BRANCH  20  25
ATOM     25  S   UNL A   1      28.300  29.882  22.658  1.00  0.00     0.175 S 
ATOM     26  C   UNL A   1      29.048  31.325  23.364  1.00  0.00     0.163 C 
ATOM     27  O   UNL A   1      26.958  29.789  23.203  1.00  0.00    -0.224 OA
ATOM     28  O   UNL A   1      28.531  29.898  21.228  1.00  0.00    -0.224 OA
ENDBRANCH  20  25
ENDBRANCH  15  19
BRANCH  18  29
ATOM     29  C   UNL A   1      31.999  21.798  24.347  1.00  0.00    -0.023 A 
ATOM     30  C   UNL A   1      31.828  21.912  22.959  1.00  0.00     0.007 A 
ATOM     31  C   UNL A   1      32.249  20.512  24.873  1.00  0.00     0.007 A 
ATOM     32  C   UNL A   1      31.893  20.784  22.131  1.00  0.00     0.021 A 
ATOM     33  C   UNL A   1      32.339  19.389  24.046  1.00  0.00     0.021 A 
ATOM     34  C   UNL A   1      32.156  19.531  22.676  1.00  0.00     0.041 A 
ATOM     35  Cl  UNL A   1      32.276  18.154  21.651  1.00  0.00    -0.084 Cl
ENDBRANCH  18  29
ENDBRANCH   9  14
ENDBRANCH   5   8
ENDBRANCH   3   4
ENDBRANCH   2   3
ENDBRANCH   1   2
BRANCH   1  36
ATOM     36  C   UNL A   1      42.263  23.921  26.379  1.00  0.00     0.002 C 
BRANCH  36  37
ATOM     37  C   UNL A   1      43.110  23.704  25.122  1.00  0.00     0.021 C 
BRANCH  37  38
ATOM     38  C   UNL A   1      44.328  24.616  25.016  1.00  0.00     0.116 C 
BRANCH  38  39
ATOM     39  N   UNL A   1      45.498  24.033  25.655  1.00  0.00    -0.352 N 
ATOM     40  C   UNL A   1      46.085  24.354  26.853  1.00  0.00     0.251 C 
ATOM     41  H   UNL A   1      45.932  23.305  25.155  1.00  0.00     0.163 HD
ATOM     42  O   UNL A   1      47.192  23.908  27.138  1.00  0.00    -0.269 OA
BRANCH  40  43
ATOM     43  C   UNL A   1      45.388  25.249  27.799  1.00  0.00     0.039 A 
ATOM     44  C   UNL A   1      44.562  24.688  28.778  1.00  0.00     0.014 A 
ATOM     45  C   UNL A   1      45.531  26.636  27.711  1.00  0.00     0.014 A 
ATOM     46  C   UNL A   1      43.922  25.517  29.701  1.00  0.00     0.010 A 
ATOM     47  C   UNL A   1      44.947  27.456  28.673  1.00  0.00     0.010 A 
ATOM     48  C   UNL A   1      44.133  26.905  29.673  1.00  0.00    -0.014 A 
BRANCH  48  49
ATOM     49  C   UNL A   1      43.506  27.797  30.681  1.00  0.00     0.031 A 
ATOM     50  C   UNL A   1      44.130  27.955  32.040  1.00  0.00     0.074 A 
ATOM     51  C   UNL A   1      42.344  28.413  30.394  1.00  0.00     0.049 A 
ATOM     52  N   UNL A   1      43.699  28.630  33.076  1.00  0.00    -0.248 NA
ATOM     53  C   UNL A   1      45.394  27.240  32.274  1.00  0.00     0.031 C 
ATOM     54  C   UNL A   1      41.621  28.304  29.127  1.00  0.00     0.029 A 
ATOM     55  N   UNL A   1      41.562  29.248  31.153  1.00  0.00    -0.354 N 
ATOM     56  C   UNL A   1      44.626  28.408  34.085  1.00  0.00     0.074 A 
ATOM     57  C   UNL A   1      45.619  27.497  33.554  1.00  0.00     0.031 C 
ATOM     58  C   UNL A   1      40.512  29.059  29.187  1.00  0.00     0.029 A 
ATOM     59  C   UNL A   1      40.427  29.675  30.508  1.00  0.00     0.049 A 
ATOM     60  H   UNL A   1      41.793  29.514  32.072  1.00  0.00     0.167 HD
ATOM     61  C   UNL A   1      44.660  28.934  35.332  1.00  0.00     0.037 A 
ATOM     62  C   UNL A   1      39.428  30.470  30.937  1.00  0.00     0.037 A 
ATOM     63  C   UNL A   1      43.686  29.860  35.847  1.00  0.00     0.049 A 
ATOM     64  C   UNL A   1      39.488  31.036  32.330  1.00  0.00     0.074 A 
ATOM     65  C   UNL A   1      43.664  30.495  37.076  1.00  0.00     0.029 A 
ATOM     66  N   UNL A   1      42.559  30.283  35.158  1.00  0.00    -0.354 N 
ATOM     67  N   UNL A   1      40.404  30.871  33.253  1.00  0.00    -0.248 NA
ATOM     68  C   UNL A   1      38.375  31.906  32.739  1.00  0.00     0.031 C 
ATOM     69  C   UNL A   1      42.500  31.267  37.149  1.00  0.00     0.029 A 
ATOM     70  C   UNL A   1      41.822  31.155  35.945  1.00  0.00     0.049 A 
ATOM     71  H   UNL A   1      42.317  30.005  34.245  1.00  0.00     0.167 HD
ATOM     72  C   UNL A   1      39.996  31.636  34.337  1.00  0.00     0.074 A 
ATOM     73  C   UNL A   1      38.756  32.278  33.953  1.00  0.00     0.031 C 
ATOM     74  C   UNL A   1      40.596  31.793  35.543  1.00  0.00     0.037 A 
BRANCH  61  75
ATOM     75  C   UNL A   1      45.793  28.525  36.229  1.00  0.00     0.064 A 
ATOM     76  C   UNL A   1      46.940  29.321  36.375  1.00  0.00     0.173 A 
ATOM     77  C   UNL A   1      45.713  27.345  36.984  1.00  0.00     0.173 A 
ATOM     78  F   UNL A   1      47.070  30.454  35.668  1.00  0.00    -0.203 F 
ATOM     79  C   UNL A   1      47.975  28.937  37.223  1.00  0.00     0.198 A 
ATOM     80  C   UNL A   1      46.738  26.980  37.853  1.00  0.00     0.198 A 
ATOM     81  F   UNL A   1      44.637  26.550  36.887  1.00  0.00    -0.203 F 
ATOM     82  F   UNL A   1      49.080  29.691  37.311  1.00  0.00    -0.200 F 
ATOM     83  C   UNL A   1      47.871  27.772  37.968  1.00  0.00     0.200 A 
ATOM     84  F   UNL A   1      46.630  25.860  38.582  1.00  0.00    -0.200 F 
ATOM     85  F   UNL A   1      48.864  27.409  38.790  1.00  0.00    -0.200 F 
ENDBRANCH  61  75
BRANCH  62  86
ATOM     86  C   UNL A   1      38.299  30.801  30.029  1.00  0.00     0.064 A 
ATOM     87  C   UNL A   1      37.304  29.855  29.748  1.00  0.00     0.173 A 
ATOM     88  C   UNL A   1      38.193  32.059  29.421  1.00  0.00     0.173 A 
ATOM     89  F   UNL A   1      37.374  28.629  30.289  1.00  0.00    -0.203 F 
ATOM     90  C   UNL A   1      36.258  30.148  28.878  1.00  0.00     0.198 A 
ATOM     91  C   UNL A   1      37.130  32.362  28.573  1.00  0.00     0.198 A 
ATOM     92  F   UNL A   1      39.117  33.001  29.661  1.00  0.00    -0.203 F 
ATOM     93  F   UNL A   1      35.345  29.209  28.590  1.00  0.00    -0.200 F 
ATOM     94  C   UNL A   1      36.167  31.402  28.295  1.00  0.00     0.200 A 
ATOM     95  F   UNL A   1      37.040  33.580  28.022  1.00  0.00    -0.200 F 
ATOM     96  F   UNL A   1      35.159  31.685  27.460  1.00  0.00    -0.200 F 
ENDBRANCH  62  86
BRANCH  74  97
ATOM     97  C   UNL A   1      39.940  32.724  36.521  1.00  0.00     0.064 A 
ATOM     98  C   UNL A   1      38.837  32.325  37.291  1.00  0.00     0.173 A 
ATOM     99  C   UNL A   1      40.448  34.017  36.718  1.00  0.00     0.173 A 
ATOM    100  F   UNL A   1      38.306  31.104  37.128  1.00  0.00    -0.203 F 
ATOM    101  C   UNL A   1      38.252  33.197  38.204  1.00  0.00     0.198 A 
ATOM    102  C   UNL A   1      39.879  34.875  37.654  1.00  0.00     0.198 A 
ATOM    103  F   UNL A   1      41.505  34.444  36.012  1.00  0.00    -0.203 F 
ATOM    104  F   UNL A   1      37.169  32.813  38.895  1.00  0.00    -0.200 F 
ATOM    105  C   UNL A   1      38.777  34.467  38.391  1.00  0.00     0.200 A 
ATOM    106  F   UNL A   1      40.396  36.096  37.844  1.00  0.00    -0.200 F 
ATOM    107  F   UNL A   1      38.216  35.302  39.277  1.00  0.00    -0.200 F 
ENDBRANCH  74  97
ENDBRANCH  48  49
ENDBRANCH  40  43
ENDBRANCH  38  39
ENDBRANCH  37  38
ENDBRANCH  36  37
ENDBRANCH   1  36
TORSDOF 17
ENDMDL
