MODEL 1
REMARK VINA RESULT:     -11.6      0.000      0.000
REMARK SMILES C[NH2+][C@](C)(C(=O)NCCCCCCNC(=O)c1ccc(-c2c3nc(c(-c4c(F)c(F)c(F)c(F)c4F)c4ccc([nH]4)c(-c4c(F)c(F)c(F)c(F)c4F)c4nc(c(-c5c(F)c(F)c(F)c(F)c5F)c5ccc2[nH]5)C=C4)C=C3)cc1)c1cccc(Cl)c1
REMARK SMILES IDX 11 1 10 2 9 3 8 4 7 5 5 6 6 7 3 9 4 10 2 11 1 12 80 15 81 16
REMARK SMILES IDX 86 17 82 18 84 19 83 20 85 21 12 22 13 23 14 24 15 25 16 27
REMARK SMILES IDX 17 28 18 29 79 30 19 31 78 32 20 33 21 34 22 35 72 36 23 37
REMARK SMILES IDX 77 38 71 39 73 40 24 41 76 42 70 43 69 44 25 46 57 47 37 48
REMARK SMILES IDX 56 49 38 50 41 51 55 52 74 53 39 54 40 55 54 57 75 58 42 59
REMARK SMILES IDX 26 60 27 61 35 62 28 63 29 64 33 65 36 66 30 67 31 68 34 69
REMARK SMILES IDX 32 70 58 71 59 72 67 73 60 74 61 75 65 76 68 77 62 78 63 79
REMARK SMILES IDX 66 80 64 81 43 82 44 83 52 84 45 85 46 86 50 87 53 88 47 89
REMARK SMILES IDX 48 90 51 91 49 92
REMARK H PARENT 7 8 2 13 2 14 14 26 73 45 41 56
REMARK Flexibility Score: inf
ROOT
ATOM      1  C   UNL A   1      31.731  30.678  26.047  1.00  0.00     0.002 C 
ENDROOT
BRANCH   1   2
ATOM      2  C   UNL A   1      32.049  29.620  27.108  1.00  0.00     0.002 C 
BRANCH   2   3
ATOM      3  C   UNL A   1      31.829  28.175  26.655  1.00  0.00     0.021 C 
BRANCH   3   4
ATOM      4  C   UNL A   1      33.095  27.488  26.141  1.00  0.00     0.116 C 
BRANCH   4   5
ATOM      5  N   UNL A   1      32.922  26.052  26.139  1.00  0.00    -0.350 N 
ATOM      6  C   UNL A   1      32.419  25.217  25.177  1.00  0.00     0.285 C 
ATOM      7  O   UNL A   1      32.143  24.082  25.579  1.00  0.00    -0.267 OA
ATOM      8  H   UNL A   1      33.214  25.602  26.963  1.00  0.00     0.163 HD
BRANCH   6   9
ATOM      9  C   UNL A   1      32.198  25.718  23.676  1.00  0.00     0.198 C 
ATOM     10  C   UNL A   1      33.442  26.598  23.355  1.00  0.00     0.096 C 
BRANCH   9  11
ATOM     11  N   UNL A   1      31.977  24.483  22.866  1.00  0.00    -0.332 N 
ATOM     12  C   UNL A   1      33.113  23.785  22.303  1.00  0.00     0.332 C 
ATOM     13  H   UNL A   1      31.488  23.819  23.467  1.00  0.00     0.347 HD
ATOM     14  H   UNL A   1      31.476  24.823  22.046  1.00  0.00     0.347 HD
ENDBRANCH   9  11
BRANCH   9  15
ATOM     15  C   UNL A   1      30.923  26.607  23.510  1.00  0.00     0.023 A 
ATOM     16  C   UNL A   1      29.680  26.186  24.028  1.00  0.00     0.011 A 
ATOM     17  C   UNL A   1      30.954  27.864  22.873  1.00  0.00     0.031 A 
ATOM     18  C   UNL A   1      28.508  26.917  23.801  1.00  0.00     0.002 A 
ATOM     19  C   UNL A   1      29.780  28.583  22.632  1.00  0.00     0.041 A 
ATOM     20  C   UNL A   1      28.555  28.104  23.079  1.00  0.00     0.020 A 
ATOM     21  Cl  UNL A   1      29.848  30.065  21.758  1.00  0.00    -0.084 Cl
ENDBRANCH   9  15
ENDBRANCH   6   9
ENDBRANCH   4   5
ENDBRANCH   3   4
ENDBRANCH   2   3
ENDBRANCH   1   2
BRANCH   1  22
ATOM     22  C   UNL A   1      31.437  32.073  26.599  1.00  0.00     0.021 C 
BRANCH  22  23
ATOM     23  C   UNL A   1      32.613  32.732  27.312  1.00  0.00     0.116 C 
BRANCH  23  24
ATOM     24  N   UNL A   1      32.362  34.131  27.607  1.00  0.00    -0.352 N 
ATOM     25  C   UNL A   1      32.949  34.940  28.548  1.00  0.00     0.251 C 
ATOM     26  H   UNL A   1      31.672  34.562  27.052  1.00  0.00     0.163 HD
ATOM     27  O   UNL A   1      32.490  36.046  28.793  1.00  0.00    -0.269 OA
BRANCH  25  28
ATOM     28  C   UNL A   1      34.133  34.449  29.286  1.00  0.00     0.039 A 
ATOM     29  C   UNL A   1      33.945  33.835  30.525  1.00  0.00     0.014 A 
ATOM     30  C   UNL A   1      35.416  34.583  28.750  1.00  0.00     0.014 A 
ATOM     31  C   UNL A   1      35.042  33.297  31.199  1.00  0.00     0.010 A 
ATOM     32  C   UNL A   1      36.495  33.979  29.385  1.00  0.00     0.010 A 
ATOM     33  C   UNL A   1      36.320  33.331  30.616  1.00  0.00    -0.014 A 
BRANCH  33  34
ATOM     34  C   UNL A   1      37.481  32.682  31.275  1.00  0.00     0.031 A 
ATOM     35  C   UNL A   1      38.194  31.543  30.600  1.00  0.00     0.074 A 
ATOM     36  C   UNL A   1      37.852  33.076  32.508  1.00  0.00     0.049 A 
ATOM     37  N   UNL A   1      39.178  30.803  31.044  1.00  0.00    -0.248 NA
ATOM     38  C   UNL A   1      37.720  31.170  29.258  1.00  0.00     0.031 C 
ATOM     39  C   UNL A   1      37.213  34.141  33.282  1.00  0.00     0.029 A 
ATOM     40  N   UNL A   1      38.850  32.620  33.333  1.00  0.00    -0.354 N 
ATOM     41  C   UNL A   1      39.432  29.874  30.043  1.00  0.00     0.074 A 
ATOM     42  C   UNL A   1      38.463  30.106  28.995  1.00  0.00     0.031 C 
ATOM     43  C   UNL A   1      37.847  34.272  34.458  1.00  0.00     0.029 A 
ATOM     44  C   UNL A   1      38.906  33.271  34.541  1.00  0.00     0.049 A 
ATOM     45  H   UNL A   1      39.466  31.895  33.083  1.00  0.00     0.167 HD
ATOM     46  C   UNL A   1      40.402  28.930  29.995  1.00  0.00     0.037 A 
ATOM     47  C   UNL A   1      39.711  33.074  35.603  1.00  0.00     0.037 A 
ATOM     48  C   UNL A   1      41.374  28.715  31.036  1.00  0.00     0.049 A 
ATOM     49  C   UNL A   1      40.760  31.996  35.534  1.00  0.00     0.074 A 
ATOM     50  C   UNL A   1      42.429  27.822  31.058  1.00  0.00     0.029 A 
ATOM     51  N   UNL A   1      41.401  29.397  32.245  1.00  0.00    -0.354 N 
ATOM     52  N   UNL A   1      41.038  31.171  34.555  1.00  0.00    -0.248 NA
ATOM     53  C   UNL A   1      41.613  31.827  36.720  1.00  0.00     0.031 C 
ATOM     54  C   UNL A   1      43.059  27.920  32.304  1.00  0.00     0.029 A 
ATOM     55  C   UNL A   1      42.437  28.921  33.033  1.00  0.00     0.049 A 
ATOM     56  H   UNL A   1      40.776  30.113  32.504  1.00  0.00     0.167 HD
ATOM     57  C   UNL A   1      42.113  30.408  34.992  1.00  0.00     0.074 A 
ATOM     58  C   UNL A   1      42.447  30.879  36.319  1.00  0.00     0.031 C 
ATOM     59  C   UNL A   1      42.763  29.405  34.351  1.00  0.00     0.037 A 
BRANCH  46  60
ATOM     60  C   UNL A   1      40.458  28.052  28.777  1.00  0.00     0.064 A 
ATOM     61  C   UNL A   1      41.222  28.399  27.652  1.00  0.00     0.173 A 
ATOM     62  C   UNL A   1      39.774  26.826  28.751  1.00  0.00     0.173 A 
ATOM     63  F   UNL A   1      41.889  29.562  27.620  1.00  0.00    -0.203 F 
ATOM     64  C   UNL A   1      41.271  27.569  26.534  1.00  0.00     0.198 A 
ATOM     65  C   UNL A   1      39.854  25.983  27.645  1.00  0.00     0.198 A 
ATOM     66  F   UNL A   1      39.035  26.441  29.802  1.00  0.00    -0.203 F 
ATOM     67  F   UNL A   1      41.963  27.947  25.451  1.00  0.00    -0.200 F 
ATOM     68  C   UNL A   1      40.595  26.358  26.535  1.00  0.00     0.200 A 
ATOM     69  F   UNL A   1      39.211  24.807  27.655  1.00  0.00    -0.200 F 
ATOM     70  F   UNL A   1      40.650  25.556  25.464  1.00  0.00    -0.200 F 
ENDBRANCH  46  60
BRANCH  47  71
ATOM     71  C   UNL A   1      39.564  33.920  36.816  1.00  0.00     0.064 A 
ATOM     72  C   UNL A   1      38.799  33.489  37.909  1.00  0.00     0.173 A 
ATOM     73  C   UNL A   1      40.173  35.181  36.906  1.00  0.00     0.173 A 
ATOM     74  F   UNL A   1      38.181  32.300  37.864  1.00  0.00    -0.203 F 
ATOM     75  C   UNL A   1      38.630  34.294  39.033  1.00  0.00     0.198 A 
ATOM     76  C   UNL A   1      40.031  35.972  38.044  1.00  0.00     0.198 A 
ATOM     77  F   UNL A   1      40.920  35.640  35.890  1.00  0.00    -0.203 F 
ATOM     78  F   UNL A   1      37.851  33.879  40.041  1.00  0.00    -0.200 F 
ATOM     79  C   UNL A   1      39.251  35.533  39.103  1.00  0.00     0.200 A 
ATOM     80  F   UNL A   1      40.646  37.160  38.113  1.00  0.00    -0.200 F 
ATOM     81  F   UNL A   1      39.090  36.306  40.185  1.00  0.00    -0.200 F 
ENDBRANCH  47  71
BRANCH  59  82
ATOM     82  C   UNL A   1      43.928  28.773  35.058  1.00  0.00     0.064 A 
ATOM     83  C   UNL A   1      45.230  29.279  34.934  1.00  0.00     0.173 A 
ATOM     84  C   UNL A   1      43.729  27.673  35.907  1.00  0.00     0.173 A 
ATOM     85  F   UNL A   1      45.476  30.320  34.125  1.00  0.00    -0.203 F 
ATOM     86  C   UNL A   1      46.294  28.693  35.615  1.00  0.00     0.198 A 
ATOM     87  C   UNL A   1      44.789  27.110  36.612  1.00  0.00     0.198 A 
ATOM     88  F   UNL A   1      42.503  27.153  36.066  1.00  0.00    -0.203 F 
ATOM     89  F   UNL A   1      47.537  29.162  35.443  1.00  0.00    -0.200 F 
ATOM     90  C   UNL A   1      46.071  27.615  36.460  1.00  0.00     0.200 A 
ATOM     91  F   UNL A   1      44.568  26.081  37.441  1.00  0.00    -0.200 F 
ATOM     92  F   UNL A   1      47.094  27.059  37.123  1.00  0.00    -0.200 F 
ENDBRANCH  59  82
ENDBRANCH  33  34
ENDBRANCH  25  28
ENDBRANCH  23  24
ENDBRANCH  22  23
ENDBRANCH   1  22
TORSDOF 15
ENDMDL
MODEL 2
REMARK VINA RESULT:     -11.6      5.950     11.309
REMARK SMILES C[NH2+][C@](C)(C(=O)NCCCCCCNC(=O)c1ccc(-c2c3nc(c(-c4c(F)c(F)c(F)c(F)c4F)c4ccc([nH]4)c(-c4c(F)c(F)c(F)c(F)c4F)c4nc(c(-c5c(F)c(F)c(F)c(F)c5F)c5ccc2[nH]5)C=C4)C=C3)cc1)c1cccc(Cl)c1
REMARK SMILES IDX 11 1 10 2 9 3 8 4 7 5 5 6 6 7 3 9 4 10 2 11 1 12 80 15 81 16
REMARK SMILES IDX 86 17 82 18 84 19 83 20 85 21 12 22 13 23 14 24 15 25 16 27
REMARK SMILES IDX 17 28 18 29 79 30 19 31 78 32 20 33 21 34 22 35 72 36 23 37
REMARK SMILES IDX 77 38 71 39 73 40 24 41 76 42 70 43 69 44 25 46 57 47 37 48
REMARK SMILES IDX 56 49 38 50 41 51 55 52 74 53 39 54 40 55 54 57 75 58 42 59
REMARK SMILES IDX 26 60 27 61 35 62 28 63 29 64 33 65 36 66 30 67 31 68 34 69
REMARK SMILES IDX 32 70 58 71 59 72 67 73 60 74 61 75 65 76 68 77 62 78 63 79
REMARK SMILES IDX 66 80 64 81 43 82 44 83 52 84 45 85 46 86 50 87 53 88 47 89
REMARK SMILES IDX 48 90 51 91 49 92
REMARK H PARENT 7 8 2 13 2 14 14 26 73 45 41 56
REMARK Flexibility Score: inf
ROOT
ATOM      1  C   UNL A   1      36.750  20.499  25.047  1.00  0.00     0.002 C 
ENDROOT
BRANCH   1   2
ATOM      2  C   UNL A   1      36.686  22.029  25.042  1.00  0.00     0.002 C 
BRANCH   2   3
ATOM      3  C   UNL A   1      36.683  22.663  23.648  1.00  0.00     0.021 C 
BRANCH   3   4
ATOM      4  C   UNL A   1      35.314  23.179  23.206  1.00  0.00     0.116 C 
BRANCH   4   5
ATOM      5  N   UNL A   1      34.776  24.087  24.194  1.00  0.00    -0.350 N 
ATOM      6  C   UNL A   1      33.479  24.390  24.514  1.00  0.00     0.285 C 
ATOM      7  O   UNL A   1      33.347  25.406  25.205  1.00  0.00    -0.267 OA
ATOM      8  H   UNL A   1      35.453  24.565  24.725  1.00  0.00     0.163 HD
BRANCH   6   9
ATOM      9  C   UNL A   1      32.265  23.493  23.992  1.00  0.00     0.198 C 
ATOM     10  C   UNL A   1      31.027  23.974  24.806  1.00  0.00     0.096 C 
BRANCH   9  11
ATOM     11  N   UNL A   1      32.245  23.664  22.508  1.00  0.00    -0.332 N 
ATOM     12  C   UNL A   1      32.237  24.996  21.942  1.00  0.00     0.332 C 
ATOM     13  H   UNL A   1      33.073  23.192  22.145  1.00  0.00     0.347 HD
ATOM     14  H   UNL A   1      31.338  23.284  22.237  1.00  0.00     0.347 HD
ENDBRANCH   9  11
BRANCH   9  15
ATOM     15  C   UNL A   1      32.465  21.969  24.274  1.00  0.00     0.023 A 
ATOM     16  C   UNL A   1      32.861  21.520  25.552  1.00  0.00     0.011 A 
ATOM     17  C   UNL A   1      32.238  20.981  23.295  1.00  0.00     0.031 A 
ATOM     18  C   UNL A   1      33.146  20.172  25.797  1.00  0.00     0.002 A 
ATOM     19  C   UNL A   1      32.540  19.639  23.537  1.00  0.00     0.041 A 
ATOM     20  C   UNL A   1      33.010  19.234  24.780  1.00  0.00     0.020 A 
ATOM     21  Cl  UNL A   1      32.348  18.478  22.280  1.00  0.00    -0.084 Cl
ENDBRANCH   9  15
ENDBRANCH   6   9
ENDBRANCH   4   5
ENDBRANCH   3   4
ENDBRANCH   2   3
ENDBRANCH   1   2
BRANCH   1  22
ATOM     22  C   UNL A   1      38.129  19.912  24.744  1.00  0.00     0.021 C 
BRANCH  22  23
ATOM     23  C   UNL A   1      39.190  20.216  25.796  1.00  0.00     0.116 C 
BRANCH  23  24
ATOM     24  N   UNL A   1      40.159  19.141  25.924  1.00  0.00    -0.352 N 
ATOM     25  C   UNL A   1      41.516  19.213  26.113  1.00  0.00     0.251 C 
ATOM     26  H   UNL A   1      39.788  18.231  25.868  1.00  0.00     0.163 HD
ATOM     27  O   UNL A   1      42.213  18.214  26.013  1.00  0.00    -0.269 OA
BRANCH  25  28
ATOM     28  C   UNL A   1      42.136  20.521  26.415  1.00  0.00     0.039 A 
ATOM     29  C   UNL A   1      42.559  21.325  25.356  1.00  0.00     0.014 A 
ATOM     30  C   UNL A   1      42.284  20.954  27.736  1.00  0.00     0.014 A 
ATOM     31  C   UNL A   1      43.076  22.594  25.620  1.00  0.00     0.010 A 
ATOM     32  C   UNL A   1      42.725  22.248  27.992  1.00  0.00     0.010 A 
ATOM     33  C   UNL A   1      43.126  23.081  26.937  1.00  0.00    -0.014 A 
BRANCH  33  34
ATOM     34  C   UNL A   1      43.584  24.463  27.228  1.00  0.00     0.031 A 
ATOM     35  C   UNL A   1      42.614  25.487  27.744  1.00  0.00     0.074 A 
ATOM     36  C   UNL A   1      44.859  24.809  26.965  1.00  0.00     0.049 A 
ATOM     37  N   UNL A   1      42.804  26.759  27.987  1.00  0.00    -0.248 NA
ATOM     38  C   UNL A   1      41.239  25.027  27.995  1.00  0.00     0.031 C 
ATOM     39  C   UNL A   1      45.884  23.915  26.424  1.00  0.00     0.029 A 
ATOM     40  N   UNL A   1      45.509  26.010  27.107  1.00  0.00    -0.354 N 
ATOM     41  C   UNL A   1      41.576  27.251  28.409  1.00  0.00     0.074 A 
ATOM     42  C   UNL A   1      40.634  26.156  28.333  1.00  0.00     0.031 C 
ATOM     43  C   UNL A   1      47.037  24.590  26.301  1.00  0.00     0.029 A 
ATOM     44  C   UNL A   1      46.823  25.975  26.710  1.00  0.00     0.049 A 
ATOM     45  H   UNL A   1      45.074  26.819  27.460  1.00  0.00     0.167 HD
ATOM     46  C   UNL A   1      41.269  28.497  28.842  1.00  0.00     0.037 A 
ATOM     47  C   UNL A   1      47.748  26.954  26.665  1.00  0.00     0.037 A 
ATOM     48  C   UNL A   1      42.216  29.579  28.929  1.00  0.00     0.049 A 
ATOM     49  C   UNL A   1      47.371  28.337  27.123  1.00  0.00     0.074 A 
ATOM     50  C   UNL A   1      42.018  30.861  29.405  1.00  0.00     0.029 A 
ATOM     51  N   UNL A   1      43.540  29.504  28.519  1.00  0.00    -0.354 N 
ATOM     52  N   UNL A   1      46.226  28.774  27.587  1.00  0.00    -0.248 NA
ATOM     53  C   UNL A   1      48.420  29.365  27.056  1.00  0.00     0.031 C 
ATOM     54  C   UNL A   1      43.203  31.582  29.229  1.00  0.00     0.029 A 
ATOM     55  C   UNL A   1      44.162  30.730  28.704  1.00  0.00     0.049 A 
ATOM     56  H   UNL A   1      43.974  28.701  28.152  1.00  0.00     0.167 HD
ATOM     57  C   UNL A   1      46.423  30.113  27.894  1.00  0.00     0.074 A 
ATOM     58  C   UNL A   1      47.804  30.414  27.579  1.00  0.00     0.031 C 
ATOM     59  C   UNL A   1      45.539  31.013  28.392  1.00  0.00     0.037 A 
BRANCH  46  60
ATOM     60  C   UNL A   1      39.848  28.762  29.251  1.00  0.00     0.064 A 
ATOM     61  C   UNL A   1      38.893  29.236  28.338  1.00  0.00     0.173 A 
ATOM     62  C   UNL A   1      39.423  28.499  30.563  1.00  0.00     0.173 A 
ATOM     63  F   UNL A   1      39.246  29.512  27.073  1.00  0.00    -0.203 F 
ATOM     64  C   UNL A   1      37.577  29.468  28.731  1.00  0.00     0.198 A 
ATOM     65  C   UNL A   1      38.099  28.698  30.942  1.00  0.00     0.198 A 
ATOM     66  F   UNL A   1      40.292  28.038  31.475  1.00  0.00    -0.203 F 
ATOM     67  F   UNL A   1      36.697  29.971  27.854  1.00  0.00    -0.200 F 
ATOM     68  C   UNL A   1      37.179  29.190  30.029  1.00  0.00     0.200 A 
ATOM     69  F   UNL A   1      37.714  28.416  32.194  1.00  0.00    -0.200 F 
ATOM     70  F   UNL A   1      35.911  29.405  30.404  1.00  0.00    -0.200 F 
ENDBRANCH  46  60
BRANCH  47  71
ATOM     71  C   UNL A   1      49.121  26.658  26.179  1.00  0.00     0.064 A 
ATOM     72  C   UNL A   1      49.490  26.923  24.853  1.00  0.00     0.173 A 
ATOM     73  C   UNL A   1      50.090  26.094  27.023  1.00  0.00     0.173 A 
ATOM     74  F   UNL A   1      48.595  27.444  24.001  1.00  0.00    -0.203 F 
ATOM     75  C   UNL A   1      50.766  26.615  24.383  1.00  0.00     0.198 A 
ATOM     76  C   UNL A   1      51.375  25.816  26.562  1.00  0.00     0.198 A 
ATOM     77  F   UNL A   1      49.792  25.824  28.303  1.00  0.00    -0.203 F 
ATOM     78  F   UNL A   1      51.074  26.831  23.098  1.00  0.00    -0.200 F 
ATOM     79  C   UNL A   1      51.709  26.067  25.240  1.00  0.00     0.200 A 
ATOM     80  F   UNL A   1      52.288  25.303  27.397  1.00  0.00    -0.200 F 
ATOM     81  F   UNL A   1      52.936  25.773  24.789  1.00  0.00    -0.200 F 
ENDBRANCH  47  71
BRANCH  59  82
ATOM     82  C   UNL A   1      46.046  32.401  28.665  1.00  0.00     0.064 A 
ATOM     83  C   UNL A   1      45.958  33.422  27.708  1.00  0.00     0.173 A 
ATOM     84  C   UNL A   1      46.585  32.723  29.921  1.00  0.00     0.173 A 
ATOM     85  F   UNL A   1      45.465  33.163  26.487  1.00  0.00    -0.203 F 
ATOM     86  C   UNL A   1      46.414  34.708  27.988  1.00  0.00     0.198 A 
ATOM     87  C   UNL A   1      47.007  34.018  30.209  1.00  0.00     0.198 A 
ATOM     88  F   UNL A   1      46.686  31.786  30.876  1.00  0.00    -0.203 F 
ATOM     89  F   UNL A   1      46.366  35.655  27.041  1.00  0.00    -0.200 F 
ATOM     90  C   UNL A   1      46.929  35.007  29.241  1.00  0.00     0.200 A 
ATOM     91  F   UNL A   1      47.488  34.308  31.426  1.00  0.00    -0.200 F 
ATOM     92  F   UNL A   1      47.357  36.247  29.513  1.00  0.00    -0.200 F 
ENDBRANCH  59  82
ENDBRANCH  33  34
ENDBRANCH  25  28
ENDBRANCH  23  24
ENDBRANCH  22  23
ENDBRANCH   1  22
TORSDOF 15
ENDMDL
MODEL 3
REMARK VINA RESULT:     -11.5      5.795     11.278
REMARK SMILES C[NH2+][C@](C)(C(=O)NCCCCCCNC(=O)c1ccc(-c2c3nc(c(-c4c(F)c(F)c(F)c(F)c4F)c4ccc([nH]4)c(-c4c(F)c(F)c(F)c(F)c4F)c4nc(c(-c5c(F)c(F)c(F)c(F)c5F)c5ccc2[nH]5)C=C4)C=C3)cc1)c1cccc(Cl)c1
REMARK SMILES IDX 11 1 10 2 9 3 8 4 7 5 5 6 6 7 3 9 4 10 2 11 1 12 80 15 81 16
REMARK SMILES IDX 86 17 82 18 84 19 83 20 85 21 12 22 13 23 14 24 15 25 16 27
REMARK SMILES IDX 17 28 18 29 79 30 19 31 78 32 20 33 21 34 22 35 72 36 23 37
REMARK SMILES IDX 77 38 71 39 73 40 24 41 76 42 70 43 69 44 25 46 57 47 37 48
REMARK SMILES IDX 56 49 38 50 41 51 55 52 74 53 39 54 40 55 54 57 75 58 42 59
REMARK SMILES IDX 26 60 27 61 35 62 28 63 29 64 33 65 36 66 30 67 31 68 34 69
REMARK SMILES IDX 32 70 58 71 59 72 67 73 60 74 61 75 65 76 68 77 62 78 63 79
REMARK SMILES IDX 66 80 64 81 43 82 44 83 52 84 45 85 46 86 50 87 53 88 47 89
REMARK SMILES IDX 48 90 51 91 49 92
REMARK H PARENT 7 8 2 13 2 14 14 26 73 45 41 56
REMARK Flexibility Score: inf
ROOT
ATOM      1  C   UNL A   1      36.712  20.721  25.051  1.00  0.00     0.002 C 
ENDROOT
BRANCH   1   2
ATOM      2  C   UNL A   1      35.314  20.101  24.973  1.00  0.00     0.002 C 
BRANCH   2   3
ATOM      3  C   UNL A   1      34.316  20.646  25.997  1.00  0.00     0.021 C 
BRANCH   3   4
ATOM      4  C   UNL A   1      32.957  21.013  25.401  1.00  0.00     0.116 C 
BRANCH   4   5
ATOM      5  N   UNL A   1      32.146  21.699  26.383  1.00  0.00    -0.350 N 
ATOM      6  C   UNL A   1      31.858  23.029  26.528  1.00  0.00     0.285 C 
ATOM      7  O   UNL A   1      31.370  23.330  27.623  1.00  0.00    -0.267 OA
ATOM      8  H   UNL A   1      31.734  21.112  27.057  1.00  0.00     0.163 HD
BRANCH   6   9
ATOM      9  C   UNL A   1      32.168  24.077  25.363  1.00  0.00     0.198 C 
ATOM     10  C   UNL A   1      31.201  23.692  24.204  1.00  0.00     0.096 C 
BRANCH   9  11
ATOM     11  N   UNL A   1      32.024  25.427  25.985  1.00  0.00    -0.332 N 
ATOM     12  C   UNL A   1      30.825  26.201  25.743  1.00  0.00     0.332 C 
ATOM     13  H   UNL A   1      32.095  25.297  26.994  1.00  0.00     0.347 HD
ATOM     14  H   UNL A   1      32.757  25.976  25.534  1.00  0.00     0.347 HD
ENDBRANCH   9  11
BRANCH   9  15
ATOM     15  C   UNL A   1      33.631  23.976  24.823  1.00  0.00     0.023 A 
ATOM     16  C   UNL A   1      33.879  23.687  23.464  1.00  0.00     0.011 A 
ATOM     17  C   UNL A   1      34.757  24.191  25.643  1.00  0.00     0.031 A 
ATOM     18  C   UNL A   1      35.178  23.490  22.984  1.00  0.00     0.002 A 
ATOM     19  C   UNL A   1      36.052  23.976  25.165  1.00  0.00     0.041 A 
ATOM     20  C   UNL A   1      36.265  23.609  23.842  1.00  0.00     0.020 A 
ATOM     21  Cl  UNL A   1      37.396  24.149  26.227  1.00  0.00    -0.084 Cl
ENDBRANCH   9  15
ENDBRANCH   6   9
ENDBRANCH   4   5
ENDBRANCH   3   4
ENDBRANCH   2   3
ENDBRANCH   1   2
BRANCH   1  22
ATOM     22  C   UNL A   1      37.865  19.717  24.997  1.00  0.00     0.021 C 
BRANCH  22  23
ATOM     23  C   UNL A   1      39.139  20.179  25.695  1.00  0.00     0.116 C 
BRANCH  23  24
ATOM     24  N   UNL A   1      40.102  19.103  25.849  1.00  0.00    -0.352 N 
ATOM     25  C   UNL A   1      41.454  19.173  26.072  1.00  0.00     0.251 C 
ATOM     26  H   UNL A   1      39.731  18.193  25.783  1.00  0.00     0.163 HD
ATOM     27  O   UNL A   1      42.151  18.172  25.990  1.00  0.00    -0.269 OA
BRANCH  25  28
ATOM     28  C   UNL A   1      42.069  20.480  26.389  1.00  0.00     0.039 A 
ATOM     29  C   UNL A   1      42.502  21.290  25.340  1.00  0.00     0.014 A 
ATOM     30  C   UNL A   1      42.201  20.905  27.714  1.00  0.00     0.014 A 
ATOM     31  C   UNL A   1      43.014  22.558  25.617  1.00  0.00     0.010 A 
ATOM     32  C   UNL A   1      42.636  22.198  27.983  1.00  0.00     0.010 A 
ATOM     33  C   UNL A   1      43.048  23.037  26.938  1.00  0.00    -0.014 A 
BRANCH  33  34
ATOM     34  C   UNL A   1      43.501  24.418  27.242  1.00  0.00     0.031 A 
ATOM     35  C   UNL A   1      42.527  25.434  27.770  1.00  0.00     0.074 A 
ATOM     36  C   UNL A   1      44.774  24.773  26.982  1.00  0.00     0.049 A 
ATOM     37  N   UNL A   1      42.712  26.704  28.026  1.00  0.00    -0.248 NA
ATOM     38  C   UNL A   1      41.154  24.965  28.018  1.00  0.00     0.031 C 
ATOM     39  C   UNL A   1      45.802  23.889  26.431  1.00  0.00     0.029 A 
ATOM     40  N   UNL A   1      45.419  25.975  27.136  1.00  0.00    -0.354 N 
ATOM     41  C   UNL A   1      41.482  27.186  28.454  1.00  0.00     0.074 A 
ATOM     42  C   UNL A   1      40.545  26.088  28.368  1.00  0.00     0.031 C 
ATOM     43  C   UNL A   1      46.952  24.570  26.314  1.00  0.00     0.029 A 
ATOM     44  C   UNL A   1      46.733  25.950  26.736  1.00  0.00     0.049 A 
ATOM     45  H   UNL A   1      44.981  26.779  27.497  1.00  0.00     0.167 HD
ATOM     46  C   UNL A   1      41.171  28.426  28.900  1.00  0.00     0.037 A 
ATOM     47  C   UNL A   1      47.654  26.932  26.701  1.00  0.00     0.037 A 
ATOM     48  C   UNL A   1      42.113  29.511  28.997  1.00  0.00     0.049 A 
ATOM     49  C   UNL A   1      47.271  28.310  27.173  1.00  0.00     0.074 A 
ATOM     50  C   UNL A   1      41.910  30.787  29.487  1.00  0.00     0.029 A 
ATOM     51  N   UNL A   1      43.437  29.446  28.585  1.00  0.00    -0.354 N 
ATOM     52  N   UNL A   1      46.125  28.737  27.643  1.00  0.00    -0.248 NA
ATOM     53  C   UNL A   1      48.316  29.342  27.116  1.00  0.00     0.031 C 
ATOM     54  C   UNL A   1      43.092  31.515  29.317  1.00  0.00     0.029 A 
ATOM     55  C   UNL A   1      44.054  30.672  28.782  1.00  0.00     0.049 A 
ATOM     56  H   UNL A   1      43.874  28.648  28.210  1.00  0.00     0.167 HD
ATOM     57  C   UNL A   1      46.317  30.074  27.964  1.00  0.00     0.074 A 
ATOM     58  C   UNL A   1      47.696  30.383  27.651  1.00  0.00     0.031 C 
ATOM     59  C   UNL A   1      45.430  30.965  28.471  1.00  0.00     0.037 A 
BRANCH  46  60
ATOM     60  C   UNL A   1      39.749  28.681  29.313  1.00  0.00     0.064 A 
ATOM     61  C   UNL A   1      39.310  28.452  30.627  1.00  0.00     0.173 A 
ATOM     62  C   UNL A   1      38.822  29.199  28.395  1.00  0.00     0.173 A 
ATOM     63  F   UNL A   1      40.151  27.949  31.542  1.00  0.00    -0.203 F 
ATOM     64  C   UNL A   1      37.990  28.702  30.996  1.00  0.00     0.198 A 
ATOM     65  C   UNL A   1      37.513  29.481  28.778  1.00  0.00     0.198 A 
ATOM     66  F   UNL A   1      39.189  29.444  27.128  1.00  0.00    -0.203 F 
ATOM     67  F   UNL A   1      37.581  28.425  32.242  1.00  0.00    -0.200 F 
ATOM     68  C   UNL A   1      37.096  29.224  30.074  1.00  0.00     0.200 A 
ATOM     69  F   UNL A   1      36.655  29.999  27.888  1.00  0.00    -0.200 F 
ATOM     70  F   UNL A   1      35.829  29.472  30.433  1.00  0.00    -0.200 F 
ENDBRANCH  46  60
BRANCH  47  71
ATOM     71  C   UNL A   1      49.028  26.648  26.211  1.00  0.00     0.064 A 
ATOM     72  C   UNL A   1      49.389  26.913  24.882  1.00  0.00     0.173 A 
ATOM     73  C   UNL A   1      50.004  26.094  27.052  1.00  0.00     0.173 A 
ATOM     74  F   UNL A   1      48.486  27.423  24.033  1.00  0.00    -0.203 F 
ATOM     75  C   UNL A   1      50.666  26.615  24.409  1.00  0.00     0.198 A 
ATOM     76  C   UNL A   1      51.290  25.826  26.587  1.00  0.00     0.198 A 
ATOM     77  F   UNL A   1      49.713  25.825  28.334  1.00  0.00    -0.203 F 
ATOM     78  F   UNL A   1      50.967  26.830  23.122  1.00  0.00    -0.200 F 
ATOM     79  C   UNL A   1      51.617  26.077  25.263  1.00  0.00     0.200 A 
ATOM     80  F   UNL A   1      52.210  25.323  27.420  1.00  0.00    -0.200 F 
ATOM     81  F   UNL A   1      52.845  25.793  24.808  1.00  0.00    -0.200 F 
ENDBRANCH  47  71
BRANCH  59  82
ATOM     82  C   UNL A   1      45.931  32.352  28.758  1.00  0.00     0.064 A 
ATOM     83  C   UNL A   1      45.843  33.381  27.810  1.00  0.00     0.173 A 
ATOM     84  C   UNL A   1      46.464  32.665  30.019  1.00  0.00     0.173 A 
ATOM     85  F   UNL A   1      45.354  33.130  26.586  1.00  0.00    -0.203 F 
ATOM     86  C   UNL A   1      46.294  34.665  28.102  1.00  0.00     0.198 A 
ATOM     87  C   UNL A   1      46.882  33.958  30.320  1.00  0.00     0.198 A 
ATOM     88  F   UNL A   1      46.565  31.720  30.966  1.00  0.00    -0.203 F 
ATOM     89  F   UNL A   1      46.246  35.621  27.163  1.00  0.00    -0.200 F 
ATOM     90  C   UNL A   1      46.804  34.956  29.360  1.00  0.00     0.200 A 
ATOM     91  F   UNL A   1      47.358  34.240  31.540  1.00  0.00    -0.200 F 
ATOM     92  F   UNL A   1      47.226  36.195  29.644  1.00  0.00    -0.200 F 
ENDBRANCH  59  82
ENDBRANCH  33  34
ENDBRANCH  25  28
ENDBRANCH  23  24
ENDBRANCH  22  23
ENDBRANCH   1  22
TORSDOF 15
ENDMDL
