MODEL 1
REMARK VINA RESULT:     -11.8      0.000      0.000
REMARK SMILES CC(C)[NH2+][C@]1(C(=O)NCCCCCCNC(=O)c2ccc(-c3c4nc(c(-c5c(F)c(F)c(F)c(F)c5F)c5ccc([nH]5)c(-c5c(F)c(F)c(F)c(F)c5F)c5nc(c(-c6c(F)c(F)c(F)c(F)c6F)c6ccc3[nH]6)C=C5)C=C4)cc2)CC[C@H]([N@H+](C)C2CCCC2)C1
REMARK SMILES IDX 11 1 10 2 9 3 8 4 6 5 7 6 5 8 81 9 91 10 82 11 83 12 4 13
REMARK SMILES IDX 2 16 1 17 3 18 84 19 85 20 86 22 87 23 90 24 88 25 89 26
REMARK SMILES IDX 12 27 13 28 14 29 15 30 16 31 17 33 18 34 19 35 80 36 20 37
REMARK SMILES IDX 79 38 21 39 22 40 23 41 73 42 24 43 78 44 72 45 74 46 25 47
REMARK SMILES IDX 77 48 71 49 70 50 26 52 58 53 38 54 57 55 39 56 42 57 56 58
REMARK SMILES IDX 75 59 40 60 41 61 55 63 76 64 43 65 27 66 28 67 36 68 29 69
REMARK SMILES IDX 30 70 34 71 37 72 31 73 32 74 35 75 33 76 59 77 60 78 68 79
REMARK SMILES IDX 61 80 62 81 66 82 69 83 63 84 64 85 67 86 65 87 44 88 45 89
REMARK SMILES IDX 53 90 46 91 47 92 51 93 54 94 48 95 49 96 52 97 50 98
REMARK H PARENT 8 7 4 14 4 15 84 21 15 32 74 51 42 62
REMARK Flexibility Score: inf
ROOT
ATOM      1  C   UNL A   1      31.947  29.615  27.096  1.00  0.00     0.002 C 
ENDROOT
BRANCH   1   2
ATOM      2  C   UNL A   1      33.413  29.187  27.168  1.00  0.00     0.021 C 
BRANCH   2   3
ATOM      3  C   UNL A   1      33.846  28.108  26.179  1.00  0.00     0.116 C 
BRANCH   3   4
ATOM      4  N   UNL A   1      34.197  28.587  24.849  1.00  0.00    -0.351 N 
ATOM      5  C   UNL A   1      33.727  28.130  23.630  1.00  0.00     0.281 C 
ATOM      6  O   UNL A   1      33.958  28.812  22.630  1.00  0.00    -0.268 OA
ATOM      7  H   UNL A   1      34.849  29.324  24.813  1.00  0.00     0.163 HD
BRANCH   5   8
ATOM      8  C   UNL A   1      33.002  26.733  23.547  1.00  0.00     0.181 C 
ATOM      9  C   UNL A   1      32.854  26.163  22.124  1.00  0.00     0.085 C 
ATOM     10  C   UNL A   1      34.078  25.745  24.055  1.00  0.00     0.144 C 
ATOM     11  C   UNL A   1      32.857  24.628  22.309  1.00  0.00     0.072 C 
ATOM     12  C   UNL A   1      33.733  24.335  23.571  1.00  0.00     0.191 C 
BRANCH   8  13
ATOM     13  N   UNL A   1      31.674  26.923  24.182  1.00  0.00    -0.331 N 
ATOM     14  H   UNL A   1      31.483  26.062  24.695  1.00  0.00     0.347 HD
ATOM     15  H   UNL A   1      31.813  27.797  24.689  1.00  0.00     0.347 HD
BRANCH  13  16
ATOM     16  C   UNL A   1      30.470  27.214  23.425  1.00  0.00     0.176 C 
ATOM     17  C   UNL A   1      29.314  26.421  24.048  1.00  0.00     0.075 C 
ATOM     18  C   UNL A   1      30.114  28.701  23.433  1.00  0.00     0.075 C 
ENDBRANCH  13  16
ENDBRANCH   8  13
BRANCH  12  19
ATOM     19  N   UNL A   1      33.378  23.239  24.511  1.00  0.00    -0.332 N 
ATOM     20  C   UNL A   1      33.795  23.538  25.885  1.00  0.00     0.333 C 
ATOM     21  H   UNL A   1      32.364  23.273  24.401  1.00  0.00     0.348 HD
BRANCH  19  22
ATOM     22  C   UNL A   1      33.566  21.817  24.168  1.00  0.00     0.184 C 
ATOM     23  C   UNL A   1      34.056  20.908  25.314  1.00  0.00     0.065 C 
ATOM     24  C   UNL A   1      32.351  21.003  23.698  1.00  0.00     0.065 C 
ATOM     25  C   UNL A   1      33.960  19.509  24.712  1.00  0.00     0.006 C 
ATOM     26  C   UNL A   1      32.686  19.529  23.890  1.00  0.00     0.006 C 
ENDBRANCH  19  22
ENDBRANCH  12  19
ENDBRANCH   5   8
ENDBRANCH   3   4
ENDBRANCH   2   3
ENDBRANCH   1   2
BRANCH   1  27
ATOM     27  C   UNL A   1      31.623  30.740  26.110  1.00  0.00     0.002 C 
BRANCH  27  28
ATOM     28  C   UNL A   1      31.401  32.129  26.715  1.00  0.00     0.021 C 
BRANCH  28  29
ATOM     29  C   UNL A   1      32.657  32.856  27.188  1.00  0.00     0.116 C 
BRANCH  29  30
ATOM     30  N   UNL A   1      32.394  34.217  27.626  1.00  0.00    -0.352 N 
ATOM     31  C   UNL A   1      32.978  34.944  28.631  1.00  0.00     0.251 C 
ATOM     32  H   UNL A   1      31.689  34.689  27.125  1.00  0.00     0.163 HD
ATOM     33  O   UNL A   1      32.513  36.039  28.950  1.00  0.00    -0.269 OA
BRANCH  31  34
ATOM     34  C   UNL A   1      34.149  34.413  29.359  1.00  0.00     0.039 A 
ATOM     35  C   UNL A   1      33.944  33.727  30.560  1.00  0.00     0.014 A 
ATOM     36  C   UNL A   1      35.447  34.600  28.876  1.00  0.00     0.014 A 
ATOM     37  C   UNL A   1      35.031  33.175  31.240  1.00  0.00     0.010 A 
ATOM     38  C   UNL A   1      36.523  33.987  29.516  1.00  0.00     0.010 A 
ATOM     39  C   UNL A   1      36.327  33.269  30.706  1.00  0.00    -0.014 A 
BRANCH  39  40
ATOM     40  C   UNL A   1      37.483  32.619  31.375  1.00  0.00     0.031 A 
ATOM     41  C   UNL A   1      38.199  31.475  30.712  1.00  0.00     0.074 A 
ATOM     42  C   UNL A   1      37.850  33.018  32.609  1.00  0.00     0.049 A 
ATOM     43  N   UNL A   1      39.187  30.742  31.161  1.00  0.00    -0.248 NA
ATOM     44  C   UNL A   1      37.725  31.086  29.374  1.00  0.00     0.031 C 
ATOM     45  C   UNL A   1      37.208  34.087  33.376  1.00  0.00     0.029 A 
ATOM     46  N   UNL A   1      38.846  32.566  33.439  1.00  0.00    -0.354 N 
ATOM     47  C   UNL A   1      39.441  29.801  30.171  1.00  0.00     0.074 A 
ATOM     48  C   UNL A   1      38.470  30.020  29.121  1.00  0.00     0.031 C 
ATOM     49  C   UNL A   1      37.841  34.226  34.551  1.00  0.00     0.029 A 
ATOM     50  C   UNL A   1      38.905  33.230  34.640  1.00  0.00     0.049 A 
ATOM     51  H   UNL A   1      39.460  31.837  33.195  1.00  0.00     0.167 HD
ATOM     52  C   UNL A   1      40.411  28.855  30.133  1.00  0.00     0.037 A 
ATOM     53  C   UNL A   1      39.718  33.048  35.698  1.00  0.00     0.037 A 
ATOM     54  C   UNL A   1      41.388  28.656  31.172  1.00  0.00     0.049 A 
ATOM     55  C   UNL A   1      40.774  31.977  35.637  1.00  0.00     0.074 A 
ATOM     56  C   UNL A   1      42.449  27.767  31.199  1.00  0.00     0.029 A 
ATOM     57  N   UNL A   1      41.419  29.351  32.373  1.00  0.00    -0.354 N 
ATOM     58  N   UNL A   1      41.053  31.142  34.666  1.00  0.00    -0.248 NA
ATOM     59  C   UNL A   1      41.633  31.827  36.820  1.00  0.00     0.031 C 
ATOM     60  C   UNL A   1      43.086  27.883  32.438  1.00  0.00     0.029 A 
ATOM     61  C   UNL A   1      42.463  28.890  33.159  1.00  0.00     0.049 A 
ATOM     62  H   UNL A   1      40.793  30.067  32.627  1.00  0.00     0.167 HD
ATOM     63  C   UNL A   1      42.137  30.394  35.104  1.00  0.00     0.074 A 
ATOM     64  C   UNL A   1      42.474  30.882  36.425  1.00  0.00     0.031 C 
ATOM     65  C   UNL A   1      42.794  29.391  34.470  1.00  0.00     0.037 A 
BRANCH  52  66
ATOM     66  C   UNL A   1      40.461  27.957  28.930  1.00  0.00     0.064 A 
ATOM     67  C   UNL A   1      39.743  26.752  28.876  1.00  0.00     0.173 A 
ATOM     68  C   UNL A   1      41.208  28.324  27.799  1.00  0.00     0.173 A 
ATOM     69  F   UNL A   1      39.021  26.349  29.932  1.00  0.00    -0.203 F 
ATOM     70  C   UNL A   1      39.795  25.936  27.750  1.00  0.00     0.198 A 
ATOM     71  C   UNL A   1      41.230  27.521  26.662  1.00  0.00     0.198 A 
ATOM     72  F   UNL A   1      41.908  29.468  27.792  1.00  0.00    -0.203 F 
ATOM     73  F   UNL A   1      39.142  24.765  27.742  1.00  0.00    -0.200 F 
ATOM     74  C   UNL A   1      40.531  26.324  26.641  1.00  0.00     0.200 A 
ATOM     75  F   UNL A   1      41.930  27.905  25.585  1.00  0.00    -0.200 F 
ATOM     76  F   UNL A   1      40.573  25.541  25.554  1.00  0.00    -0.200 F 
ENDBRANCH  52  66
BRANCH  53  77
ATOM     77  C   UNL A   1      39.582  33.913  36.900  1.00  0.00     0.064 A 
ATOM     78  C   UNL A   1      38.808  33.505  37.996  1.00  0.00     0.173 A 
ATOM     79  C   UNL A   1      40.209  35.165  36.977  1.00  0.00     0.173 A 
ATOM     80  F   UNL A   1      38.170  32.325  37.963  1.00  0.00    -0.203 F 
ATOM     81  C   UNL A   1      38.646  34.325  39.111  1.00  0.00     0.198 A 
ATOM     82  C   UNL A   1      40.073  35.971  38.106  1.00  0.00     0.198 A 
ATOM     83  F   UNL A   1      40.965  35.601  35.959  1.00  0.00    -0.203 F 
ATOM     84  F   UNL A   1      37.857  33.932  40.120  1.00  0.00    -0.200 F 
ATOM     85  C   UNL A   1      39.284  35.555  39.167  1.00  0.00     0.200 A 
ATOM     86  F   UNL A   1      40.704  37.152  38.162  1.00  0.00    -0.200 F 
ATOM     87  F   UNL A   1      39.130  36.343  40.239  1.00  0.00    -0.200 F 
ENDBRANCH  53  77
BRANCH  65  88
ATOM     88  C   UNL A   1      43.971  28.782  35.175  1.00  0.00     0.064 A 
ATOM     89  C   UNL A   1      45.262  29.318  35.060  1.00  0.00     0.173 A 
ATOM     90  C   UNL A   1      43.796  27.668  36.011  1.00  0.00     0.173 A 
ATOM     91  F   UNL A   1      45.486  30.373  34.262  1.00  0.00    -0.203 F 
ATOM     92  C   UNL A   1      46.339  28.743  35.731  1.00  0.00     0.198 A 
ATOM     93  C   UNL A   1      44.869  27.118  36.708  1.00  0.00     0.198 A 
ATOM     94  F   UNL A   1      42.581  27.120  36.164  1.00  0.00    -0.203 F 
ATOM     95  F   UNL A   1      47.573  29.240  35.563  1.00  0.00    -0.200 F 
ATOM     96  C   UNL A   1      46.140  27.651  36.560  1.00  0.00     0.200 A 
ATOM     97  F   UNL A   1      44.671  26.072  37.522  1.00  0.00    -0.200 F 
ATOM     98  F   UNL A   1      47.176  27.105  37.212  1.00  0.00    -0.200 F 
ENDBRANCH  65  88
ENDBRANCH  39  40
ENDBRANCH  31  34
ENDBRANCH  29  30
ENDBRANCH  28  29
ENDBRANCH  27  28
ENDBRANCH   1  27
TORSDOF 17
ENDMDL
MODEL 2
REMARK VINA RESULT:     -11.7      0.686      2.082
REMARK SMILES CC(C)[NH2+][C@]1(C(=O)NCCCCCCNC(=O)c2ccc(-c3c4nc(c(-c5c(F)c(F)c(F)c(F)c5F)c5ccc([nH]5)c(-c5c(F)c(F)c(F)c(F)c5F)c5nc(c(-c6c(F)c(F)c(F)c(F)c6F)c6ccc3[nH]6)C=C5)C=C4)cc2)CC[C@H]([N@H+](C)C2CCCC2)C1
REMARK SMILES IDX 11 1 10 2 9 3 8 4 6 5 7 6 5 8 81 9 91 10 82 11 83 12 4 13
REMARK SMILES IDX 2 16 1 17 3 18 84 19 85 20 86 22 87 23 90 24 88 25 89 26
REMARK SMILES IDX 12 27 13 28 14 29 15 30 16 31 17 33 18 34 19 35 80 36 20 37
REMARK SMILES IDX 79 38 21 39 22 40 23 41 73 42 24 43 78 44 72 45 74 46 25 47
REMARK SMILES IDX 77 48 71 49 70 50 26 52 58 53 38 54 57 55 39 56 42 57 56 58
REMARK SMILES IDX 75 59 40 60 41 61 55 63 76 64 43 65 27 66 28 67 36 68 29 69
REMARK SMILES IDX 30 70 34 71 37 72 31 73 32 74 35 75 33 76 59 77 60 78 68 79
REMARK SMILES IDX 61 80 62 81 66 82 69 83 63 84 64 85 67 86 65 87 44 88 45 89
REMARK SMILES IDX 53 90 46 91 47 92 51 93 54 94 48 95 49 96 52 97 50 98
REMARK H PARENT 8 7 4 14 4 15 84 21 15 32 74 51 42 62
REMARK Flexibility Score: inf
ROOT
ATOM      1  C   UNL A   1      32.437  29.929  27.110  1.00  0.00     0.002 C 
ENDROOT
BRANCH   1   2
ATOM      2  C   UNL A   1      32.205  28.420  27.204  1.00  0.00     0.021 C 
BRANCH   2   3
ATOM      3  C   UNL A   1      33.233  27.539  26.499  1.00  0.00     0.116 C 
BRANCH   3   4
ATOM      4  N   UNL A   1      33.767  28.077  25.256  1.00  0.00    -0.351 N 
ATOM      5  C   UNL A   1      33.673  27.534  23.986  1.00  0.00     0.281 C 
ATOM      6  O   UNL A   1      33.981  28.247  23.029  1.00  0.00    -0.268 OA
ATOM      7  H   UNL A   1      34.254  28.930  25.327  1.00  0.00     0.163 HD
BRANCH   5   8
ATOM      8  C   UNL A   1      33.272  26.020  23.812  1.00  0.00     0.181 C 
ATOM      9  C   UNL A   1      33.653  25.399  22.455  1.00  0.00     0.085 C 
ATOM     10  C   UNL A   1      34.313  25.275  24.680  1.00  0.00     0.144 C 
ATOM     11  C   UNL A   1      33.881  23.900  22.754  1.00  0.00     0.072 C 
ATOM     12  C   UNL A   1      34.387  23.814  24.232  1.00  0.00     0.191 C 
BRANCH   8  13
ATOM     13  N   UNL A   1      31.805  25.959  24.029  1.00  0.00    -0.331 N 
ATOM     14  H   UNL A   1      31.520  26.902  24.294  1.00  0.00     0.347 HD
ATOM     15  H   UNL A   1      31.484  25.560  23.147  1.00  0.00     0.347 HD
BRANCH  13  16
ATOM     16  C   UNL A   1      31.184  25.068  24.993  1.00  0.00     0.176 C 
ATOM     17  C   UNL A   1      30.019  25.818  25.651  1.00  0.00     0.075 C 
ATOM     18  C   UNL A   1      30.653  23.786  24.353  1.00  0.00     0.075 C 
ENDBRANCH  13  16
ENDBRANCH   8  13
BRANCH  12  19
ATOM     19  N   UNL A   1      33.978  22.691  25.117  1.00  0.00    -0.332 N 
ATOM     20  C   UNL A   1      34.767  22.652  26.352  1.00  0.00     0.333 C 
ATOM     21  H   UNL A   1      33.014  22.980  25.285  1.00  0.00     0.348 HD
BRANCH  19  22
ATOM     22  C   UNL A   1      33.692  21.342  24.594  1.00  0.00     0.184 C 
ATOM     23  C   UNL A   1      34.689  20.238  25.002  1.00  0.00     0.065 C 
ATOM     24  C   UNL A   1      32.376  20.658  24.994  1.00  0.00     0.065 C 
ATOM     25  C   UNL A   1      34.025  18.964  24.487  1.00  0.00     0.006 C 
ATOM     26  C   UNL A   1      32.547  19.163  24.756  1.00  0.00     0.006 C 
ENDBRANCH  19  22
ENDBRANCH  12  19
ENDBRANCH   5   8
ENDBRANCH   3   4
ENDBRANCH   2   3
ENDBRANCH   1   2
BRANCH   1  27
ATOM     27  C   UNL A   1      31.437  30.711  26.255  1.00  0.00     0.002 C 
BRANCH  27  28
ATOM     28  C   UNL A   1      31.369  32.221  26.501  1.00  0.00     0.021 C 
BRANCH  28  29
ATOM     29  C   UNL A   1      32.559  32.827  27.239  1.00  0.00     0.116 C 
BRANCH  29  30
ATOM     30  N   UNL A   1      32.341  34.212  27.626  1.00  0.00    -0.352 N 
ATOM     31  C   UNL A   1      32.957  34.959  28.596  1.00  0.00     0.251 C 
ATOM     32  H   UNL A   1      31.646  34.684  27.114  1.00  0.00     0.163 HD
ATOM     33  O   UNL A   1      32.529  36.079  28.876  1.00  0.00    -0.269 OA
BRANCH  31  34
ATOM     34  C   UNL A   1      34.120  34.421  29.333  1.00  0.00     0.039 A 
ATOM     35  C   UNL A   1      33.908  33.792  30.563  1.00  0.00     0.014 A 
ATOM     36  C   UNL A   1      35.418  34.547  28.829  1.00  0.00     0.014 A 
ATOM     37  C   UNL A   1      34.985  33.234  31.255  1.00  0.00     0.010 A 
ATOM     38  C   UNL A   1      36.481  33.927  29.483  1.00  0.00     0.010 A 
ATOM     39  C   UNL A   1      36.277  33.266  30.704  1.00  0.00    -0.014 A 
BRANCH  39  40
ATOM     40  C   UNL A   1      37.420  32.607  31.387  1.00  0.00     0.031 A 
ATOM     41  C   UNL A   1      38.127  31.449  30.739  1.00  0.00     0.074 A 
ATOM     42  C   UNL A   1      37.783  33.013  32.620  1.00  0.00     0.049 A 
ATOM     43  N   UNL A   1      39.102  30.708  31.201  1.00  0.00    -0.248 NA
ATOM     44  C   UNL A   1      37.658  31.054  29.401  1.00  0.00     0.031 C 
ATOM     45  C   UNL A   1      37.149  34.096  33.373  1.00  0.00     0.029 A 
ATOM     46  N   UNL A   1      38.767  32.556  33.461  1.00  0.00    -0.354 N 
ATOM     47  C   UNL A   1      39.352  29.755  30.222  1.00  0.00     0.074 A 
ATOM     48  C   UNL A   1      38.392  29.977  29.163  1.00  0.00     0.031 C 
ATOM     49  C   UNL A   1      37.775  34.237  34.551  1.00  0.00     0.029 A 
ATOM     50  C   UNL A   1      38.825  33.229  34.657  1.00  0.00     0.049 A 
ATOM     51  H   UNL A   1      39.374  31.816  33.229  1.00  0.00     0.167 HD
ATOM     52  C   UNL A   1      40.310  28.797  30.199  1.00  0.00     0.037 A 
ATOM     53  C   UNL A   1      39.628  33.046  35.723  1.00  0.00     0.037 A 
ATOM     54  C   UNL A   1      41.277  28.595  31.247  1.00  0.00     0.049 A 
ATOM     55  C   UNL A   1      40.671  31.961  35.679  1.00  0.00     0.074 A 
ATOM     56  C   UNL A   1      42.327  27.693  31.290  1.00  0.00     0.029 A 
ATOM     57  N   UNL A   1      41.308  29.300  32.442  1.00  0.00    -0.354 N 
ATOM     58  N   UNL A   1      40.947  31.116  34.717  1.00  0.00    -0.248 NA
ATOM     59  C   UNL A   1      41.520  31.811  36.869  1.00  0.00     0.031 C 
ATOM     60  C   UNL A   1      42.956  27.812  32.533  1.00  0.00     0.029 A 
ATOM     61  C   UNL A   1      42.340  28.833  33.240  1.00  0.00     0.049 A 
ATOM     62  H   UNL A   1      40.689  30.025  32.686  1.00  0.00     0.167 HD
ATOM     63  C   UNL A   1      42.018  30.358  35.169  1.00  0.00     0.074 A 
ATOM     64  C   UNL A   1      42.352  30.853  36.489  1.00  0.00     0.031 C 
ATOM     65  C   UNL A   1      42.668  29.341  34.549  1.00  0.00     0.037 A 
BRANCH  52  66
ATOM     66  C   UNL A   1      40.359  27.888  29.004  1.00  0.00     0.064 A 
ATOM     67  C   UNL A   1      41.133  28.194  27.873  1.00  0.00     0.173 A 
ATOM     68  C   UNL A   1      39.653  26.675  29.003  1.00  0.00     0.173 A 
ATOM     69  F   UNL A   1      41.819  29.346  27.817  1.00  0.00    -0.203 F 
ATOM     70  C   UNL A   1      41.172  27.337  26.777  1.00  0.00     0.198 A 
ATOM     71  C   UNL A   1      39.723  25.804  27.919  1.00  0.00     0.198 A 
ATOM     72  F   UNL A   1      38.903  26.328  30.061  1.00  0.00    -0.203 F 
ATOM     73  F   UNL A   1      41.877  27.676  25.688  1.00  0.00    -0.200 F 
ATOM     74  C   UNL A   1      40.475  26.139  26.804  1.00  0.00     0.200 A 
ATOM     75  F   UNL A   1      39.060  24.640  27.953  1.00  0.00    -0.200 F 
ATOM     76  F   UNL A   1      40.521  25.311  25.752  1.00  0.00    -0.200 F 
ENDBRANCH  52  66
BRANCH  53  77
ATOM     77  C   UNL A   1      39.493  33.923  36.917  1.00  0.00     0.064 A 
ATOM     78  C   UNL A   1      40.133  35.170  36.969  1.00  0.00     0.173 A 
ATOM     79  C   UNL A   1      38.735  33.533  38.030  1.00  0.00     0.173 A 
ATOM     80  F   UNL A   1      40.887  35.580  35.937  1.00  0.00    -0.203 F 
ATOM     81  C   UNL A   1      40.041  35.982  38.098  1.00  0.00     0.198 A 
ATOM     82  C   UNL A   1      38.617  34.359  39.146  1.00  0.00     0.198 A 
ATOM     83  F   UNL A   1      38.099  32.353  38.030  1.00  0.00    -0.203 F 
ATOM     84  F   UNL A   1      40.706  37.143  38.141  1.00  0.00    -0.200 F 
ATOM     85  C   UNL A   1      39.278  35.577  39.183  1.00  0.00     0.200 A 
ATOM     86  F   UNL A   1      37.866  33.972  40.187  1.00  0.00    -0.200 F 
ATOM     87  F   UNL A   1      39.187  36.358  40.268  1.00  0.00    -0.200 F 
ENDBRANCH  53  77
BRANCH  65  88
ATOM     88  C   UNL A   1      43.832  28.724  35.268  1.00  0.00     0.064 A 
ATOM     89  C   UNL A   1      43.665  27.679  36.188  1.00  0.00     0.173 A 
ATOM     90  C   UNL A   1      45.140  29.161  35.004  1.00  0.00     0.173 A 
ATOM     91  F   UNL A   1      42.435  27.234  36.488  1.00  0.00    -0.203 F 
ATOM     92  C   UNL A   1      44.760  27.114  36.837  1.00  0.00     0.198 A 
ATOM     93  C   UNL A   1      46.234  28.570  35.629  1.00  0.00     0.198 A 
ATOM     94  F   UNL A   1      45.358  30.153  34.127  1.00  0.00    -0.203 F 
ATOM     95  F   UNL A   1      44.570  26.152  37.752  1.00  0.00    -0.200 F 
ATOM     96  C   UNL A   1      46.043  27.553  36.551  1.00  0.00     0.200 A 
ATOM     97  F   UNL A   1      47.475  28.986  35.338  1.00  0.00    -0.200 F 
ATOM     98  F   UNL A   1      47.095  27.001  37.170  1.00  0.00    -0.200 F 
ENDBRANCH  65  88
ENDBRANCH  39  40
ENDBRANCH  31  34
ENDBRANCH  29  30
ENDBRANCH  28  29
ENDBRANCH  27  28
ENDBRANCH   1  27
TORSDOF 17
ENDMDL
MODEL 3
REMARK VINA RESULT:     -11.6      1.445      8.046
REMARK SMILES CC(C)[NH2+][C@]1(C(=O)NCCCCCCNC(=O)c2ccc(-c3c4nc(c(-c5c(F)c(F)c(F)c(F)c5F)c5ccc([nH]5)c(-c5c(F)c(F)c(F)c(F)c5F)c5nc(c(-c6c(F)c(F)c(F)c(F)c6F)c6ccc3[nH]6)C=C5)C=C4)cc2)CC[C@H]([N@H+](C)C2CCCC2)C1
REMARK SMILES IDX 11 1 10 2 9 3 8 4 6 5 7 6 5 8 81 9 91 10 82 11 83 12 4 13
REMARK SMILES IDX 2 16 1 17 3 18 84 19 85 20 86 22 87 23 90 24 88 25 89 26
REMARK SMILES IDX 12 27 13 28 14 29 15 30 16 31 17 33 18 34 19 35 80 36 20 37
REMARK SMILES IDX 79 38 21 39 22 40 23 41 73 42 24 43 78 44 72 45 74 46 25 47
REMARK SMILES IDX 77 48 71 49 70 50 26 52 58 53 38 54 57 55 39 56 42 57 56 58
REMARK SMILES IDX 75 59 40 60 41 61 55 63 76 64 43 65 27 66 28 67 36 68 29 69
REMARK SMILES IDX 30 70 34 71 37 72 31 73 32 74 35 75 33 76 59 77 60 78 68 79
REMARK SMILES IDX 61 80 62 81 66 82 69 83 63 84 64 85 67 86 65 87 44 88 45 89
REMARK SMILES IDX 53 90 46 91 47 92 51 93 54 94 48 95 49 96 52 97 50 98
REMARK H PARENT 8 7 4 14 4 15 84 21 15 32 74 51 42 62
REMARK Flexibility Score: inf
ROOT
ATOM      1  C   UNL A   1      32.230  29.738  27.187  1.00  0.00     0.002 C 
ENDROOT
BRANCH   1   2
ATOM      2  C   UNL A   1      33.601  29.173  26.813  1.00  0.00     0.021 C 
BRANCH   2   3
ATOM      3  C   UNL A   1      33.596  27.828  26.091  1.00  0.00     0.116 C 
BRANCH   3   4
ATOM      4  N   UNL A   1      32.881  26.758  26.772  1.00  0.00    -0.351 N 
ATOM      5  C   UNL A   1      32.028  25.819  26.218  1.00  0.00     0.281 C 
ATOM      6  O   UNL A   1      31.705  24.853  26.910  1.00  0.00    -0.268 OA
ATOM      7  H   UNL A   1      33.021  26.694  27.745  1.00  0.00     0.163 HD
BRANCH   5   8
ATOM      8  C   UNL A   1      31.435  26.058  24.778  1.00  0.00     0.181 C 
ATOM      9  C   UNL A   1      30.203  25.201  24.433  1.00  0.00     0.085 C 
ATOM     10  C   UNL A   1      30.710  27.418  24.914  1.00  0.00     0.144 C 
ATOM     11  C   UNL A   1      29.391  26.056  23.432  1.00  0.00     0.072 C 
ATOM     12  C   UNL A   1      29.678  27.552  23.791  1.00  0.00     0.191 C 
BRANCH   8  13
ATOM     13  N   UNL A   1      32.546  25.794  23.829  1.00  0.00    -0.331 N 
ATOM     14  H   UNL A   1      32.207  26.085  22.912  1.00  0.00     0.347 HD
ATOM     15  H   UNL A   1      33.316  26.296  24.270  1.00  0.00     0.347 HD
BRANCH  13  16
ATOM     16  C   UNL A   1      33.128  24.477  23.641  1.00  0.00     0.176 C 
ATOM     17  C   UNL A   1      33.045  24.131  22.149  1.00  0.00     0.075 C 
ATOM     18  C   UNL A   1      34.589  24.411  24.087  1.00  0.00     0.075 C 
ENDBRANCH  13  16
ENDBRANCH   8  13
BRANCH  12  19
ATOM     19  N   UNL A   1      29.792  28.585  22.729  1.00  0.00    -0.332 N 
ATOM     20  C   UNL A   1      31.180  29.014  22.528  1.00  0.00     0.333 C 
ATOM     21  H   UNL A   1      29.443  28.031  21.946  1.00  0.00     0.348 HD
BRANCH  19  22
ATOM     22  C   UNL A   1      28.840  29.706  22.618  1.00  0.00     0.184 C 
ATOM     23  C   UNL A   1      29.016  30.842  23.647  1.00  0.00     0.065 C 
ATOM     24  C   UNL A   1      28.821  30.534  21.324  1.00  0.00     0.065 C 
ATOM     25  C   UNL A   1      28.043  31.909  23.154  1.00  0.00     0.006 C 
ATOM     26  C   UNL A   1      28.154  31.866  21.643  1.00  0.00     0.006 C 
ENDBRANCH  19  22
ENDBRANCH  12  19
ENDBRANCH   5   8
ENDBRANCH   3   4
ENDBRANCH   2   3
ENDBRANCH   1   2
BRANCH   1  27
ATOM     27  C   UNL A   1      31.629  30.748  26.206  1.00  0.00     0.002 C 
BRANCH  27  28
ATOM     28  C   UNL A   1      31.443  32.175  26.729  1.00  0.00     0.021 C 
BRANCH  28  29
ATOM     29  C   UNL A   1      32.725  32.923  27.085  1.00  0.00     0.116 C 
BRANCH  29  30
ATOM     30  N   UNL A   1      32.476  34.243  27.643  1.00  0.00    -0.352 N 
ATOM     31  C   UNL A   1      33.061  34.868  28.713  1.00  0.00     0.251 C 
ATOM     32  H   UNL A   1      31.781  34.767  27.182  1.00  0.00     0.163 HD
ATOM     33  O   UNL A   1      32.608  35.936  29.127  1.00  0.00    -0.269 OA
BRANCH  31  34
ATOM     34  C   UNL A   1      34.221  34.257  29.397  1.00  0.00     0.039 A 
ATOM     35  C   UNL A   1      33.991  33.332  30.420  1.00  0.00     0.014 A 
ATOM     36  C   UNL A   1      35.530  34.601  29.049  1.00  0.00     0.014 A 
ATOM     37  C   UNL A   1      35.070  32.707  31.048  1.00  0.00     0.010 A 
ATOM     38  C   UNL A   1      36.603  33.924  29.625  1.00  0.00     0.010 A 
ATOM     39  C   UNL A   1      36.385  32.971  30.632  1.00  0.00    -0.014 A 
BRANCH  39  40
ATOM     40  C   UNL A   1      37.540  32.255  31.233  1.00  0.00     0.031 A 
ATOM     41  C   UNL A   1      38.039  32.633  32.601  1.00  0.00     0.074 A 
ATOM     42  C   UNL A   1      38.179  31.305  30.522  1.00  0.00     0.049 A 
ATOM     43  N   UNL A   1      39.066  32.168  33.267  1.00  0.00    -0.248 NA
ATOM     44  C   UNL A   1      37.300  33.693  33.304  1.00  0.00     0.031 C 
ATOM     45  C   UNL A   1      37.819  30.879  29.169  1.00  0.00     0.029 A 
ATOM     46  N   UNL A   1      39.271  30.533  30.834  1.00  0.00    -0.354 N 
ATOM     47  C   UNL A   1      39.103  32.886  34.455  1.00  0.00     0.074 A 
ATOM     48  C   UNL A   1      38.030  33.854  34.397  1.00  0.00     0.031 C 
ATOM     49  C   UNL A   1      38.656  29.906  28.778  1.00  0.00     0.029 A 
ATOM     50  C   UNL A   1      39.638  29.669  29.832  1.00  0.00     0.049 A 
ATOM     51  H   UNL A   1      39.745  30.593  31.695  1.00  0.00     0.167 HD
ATOM     52  C   UNL A   1      39.943  32.736  35.508  1.00  0.00     0.037 A 
ATOM     53  C   UNL A   1      40.658  28.791  29.766  1.00  0.00     0.037 A 
ATOM     54  C   UNL A   1      40.997  31.755  35.568  1.00  0.00     0.049 A 
ATOM     55  C   UNL A   1      41.588  28.659  30.943  1.00  0.00     0.074 A 
ATOM     56  C   UNL A   1      41.861  31.481  36.615  1.00  0.00     0.029 A 
ATOM     57  N   UNL A   1      41.336  30.893  34.536  1.00  0.00    -0.354 N 
ATOM     58  N   UNL A   1      41.568  29.290  32.090  1.00  0.00    -0.248 NA
ATOM     59  C   UNL A   1      42.680  27.684  30.815  1.00  0.00     0.031 C 
ATOM     60  C   UNL A   1      42.758  30.495  36.195  1.00  0.00     0.029 A 
ATOM     61  C   UNL A   1      42.415  30.108  34.910  1.00  0.00     0.049 A 
ATOM     62  H   UNL A   1      40.877  30.846  33.666  1.00  0.00     0.167 HD
ATOM     63  C   UNL A   1      42.619  28.768  32.833  1.00  0.00     0.074 A 
ATOM     64  C   UNL A   1      43.249  27.757  32.009  1.00  0.00     0.031 C 
ATOM     65  C   UNL A   1      43.027  29.097  34.084  1.00  0.00     0.037 A 
BRANCH  52  66
ATOM     66  C   UNL A   1      39.762  33.655  36.681  1.00  0.00     0.064 A 
ATOM     67  C   UNL A   1      40.384  34.913  36.738  1.00  0.00     0.173 A 
ATOM     68  C   UNL A   1      38.923  33.293  37.747  1.00  0.00     0.173 A 
ATOM     69  F   UNL A   1      41.204  35.305  35.751  1.00  0.00    -0.203 F 
ATOM     70  C   UNL A   1      40.200  35.756  37.830  1.00  0.00     0.198 A 
ATOM     71  C   UNL A   1      38.714  34.154  38.821  1.00  0.00     0.198 A 
ATOM     72  F   UNL A   1      38.297  32.106  37.743  1.00  0.00    -0.203 F 
ATOM     73  F   UNL A   1      40.846  36.929  37.886  1.00  0.00    -0.200 F 
ATOM     74  C   UNL A   1      39.359  35.381  38.866  1.00  0.00     0.200 A 
ATOM     75  F   UNL A   1      37.889  33.796  39.815  1.00  0.00    -0.200 F 
ATOM     76  F   UNL A   1      39.175  36.198  39.912  1.00  0.00    -0.200 F 
ENDBRANCH  52  66
BRANCH  53  77
ATOM     77  C   UNL A   1      40.844  27.953  28.552  1.00  0.00     0.064 A 
ATOM     78  C   UNL A   1      40.182  26.724  28.418  1.00  0.00     0.173 A 
ATOM     79  C   UNL A   1      41.689  28.355  27.507  1.00  0.00     0.173 A 
ATOM     80  F   UNL A   1      39.378  26.286  29.399  1.00  0.00    -0.203 F 
ATOM     81  C   UNL A   1      40.379  25.917  27.299  1.00  0.00     0.198 A 
ATOM     82  C   UNL A   1      41.861  27.561  26.374  1.00  0.00     0.198 A 
ATOM     83  F   UNL A   1      42.342  29.524  27.582  1.00  0.00    -0.203 F 
ATOM     84  F   UNL A   1      39.776  24.723  27.223  1.00  0.00    -0.200 F 
ATOM     85  C   UNL A   1      41.214  26.339  26.276  1.00  0.00     0.200 A 
ATOM     86  F   UNL A   1      42.656  27.981  25.380  1.00  0.00    -0.200 F 
ATOM     87  F   UNL A   1      41.401  25.565  25.199  1.00  0.00    -0.200 F 
ENDBRANCH  53  77
BRANCH  65  88
ATOM     88  C   UNL A   1      44.182  28.329  34.658  1.00  0.00     0.064 A 
ATOM     89  C   UNL A   1      43.998  27.122  35.348  1.00  0.00     0.173 A 
ATOM     90  C   UNL A   1      45.496  28.789  34.481  1.00  0.00     0.173 A 
ATOM     91  F   UNL A   1      42.761  26.645  35.557  1.00  0.00    -0.203 F 
ATOM     92  C   UNL A   1      45.085  26.419  35.864  1.00  0.00     0.198 A 
ATOM     93  C   UNL A   1      46.582  28.067  34.968  1.00  0.00     0.198 A 
ATOM     94  F   UNL A   1      45.730  29.935  33.822  1.00  0.00    -0.203 F 
ATOM     95  F   UNL A   1      44.881  25.295  36.566  1.00  0.00    -0.200 F 
ATOM     96  C   UNL A   1      46.374  26.887  35.667  1.00  0.00     0.200 A 
ATOM     97  F   UNL A   1      47.829  28.512  34.761  1.00  0.00    -0.200 F 
ATOM     98  F   UNL A   1      47.419  26.205  36.156  1.00  0.00    -0.200 F 
ENDBRANCH  65  88
ENDBRANCH  39  40
ENDBRANCH  31  34
ENDBRANCH  29  30
ENDBRANCH  28  29
ENDBRANCH  27  28
ENDBRANCH   1  27
TORSDOF 17
ENDMDL
