MODEL 1
REMARK VINA RESULT:     -11.7      0.000      0.000
REMARK SMILES CCCn1cc(S(=O)(=O)N[C@H]2C=C[C@@H](C(=O)NCCCCCCNC(=O)c3ccc(-c4c5nc(c(-c6c(F)c(F)c(F)c(F)c6F)c6ccc([nH]6)c(-c6c(F)c(F)c(F)c(F)c6F)c6nc(c(-c7c(F)c(F)c(F)c(F)c7F)c7ccc4[nH]7)C=C6)C=C5)cc3)C2)nc1C
REMARK SMILES IDX 19 1 18 2 17 3 15 4 16 5 14 7 11 8 12 9 90 10 13 11 10 12
REMARK SMILES IDX 7 14 8 15 9 16 6 17 4 18 5 19 92 20 91 21 93 22 3 23 2 24
REMARK SMILES IDX 1 25 20 26 21 27 22 28 23 29 24 30 25 31 26 33 27 34 28 35
REMARK SMILES IDX 89 36 29 37 88 38 30 39 31 40 32 41 82 42 33 43 87 44 81 45
REMARK SMILES IDX 83 46 34 47 86 48 80 49 79 50 35 52 67 53 47 54 66 55 48 56
REMARK SMILES IDX 51 57 65 58 84 59 49 60 50 61 64 63 85 64 52 65 36 66 37 67
REMARK SMILES IDX 45 68 38 69 39 70 43 71 46 72 40 73 41 74 44 75 42 76 68 77
REMARK SMILES IDX 69 78 77 79 70 80 71 81 75 82 78 83 72 84 73 85 76 86 74 87
REMARK SMILES IDX 53 88 54 89 62 90 55 91 56 92 60 93 63 94 57 95 58 96 61 97
REMARK SMILES IDX 59 98
REMARK H PARENT 17 6 10 13 24 32 83 51 51 62
REMARK Flexibility Score: inf
ROOT
ATOM      1  C   UNL A   1      39.491  21.793  26.254  1.00  0.00     0.021 C 
ENDROOT
BRANCH   1   2
ATOM      2  C   UNL A   1      38.654  23.069  26.273  1.00  0.00     0.116 C 
BRANCH   2   3
ATOM      3  N   UNL A   1      37.879  23.219  25.058  1.00  0.00    -0.356 N 
ATOM      4  C   UNL A   1      36.669  22.707  24.708  1.00  0.00     0.226 C 
ATOM      5  O   UNL A   1      36.232  22.998  23.589  1.00  0.00    -0.274 OA
ATOM      6  H   UNL A   1      38.300  23.785  24.371  1.00  0.00     0.163 HD
BRANCH   4   7
ATOM      7  C   UNL A   1      35.858  21.800  25.635  1.00  0.00     0.103 C 
ATOM      8  C   UNL A   1      33.485  21.408  26.156  1.00  0.00     0.093 C 
ATOM      9  C   UNL A   1      34.047  20.354  25.256  1.00  0.00    -0.011 C 
ATOM     10  C   UNL A   1      34.611  22.455  26.232  1.00  0.00     0.042 C 
ATOM     11  C   UNL A   1      35.338  20.561  24.973  1.00  0.00    -0.016 C 
BRANCH   8  12
ATOM     12  N   UNL A   1      32.309  22.012  25.518  1.00  0.00    -0.203 NA
ATOM     13  H   UNL A   1      32.639  22.638  24.783  1.00  0.00     0.142 HD
BRANCH  12  14
ATOM     14  S   UNL A   1      31.283  22.903  26.537  1.00  0.00     0.260 S 
ATOM     15  O   UNL A   1      31.841  22.808  27.864  1.00  0.00    -0.205 OA
ATOM     16  O   UNL A   1      29.935  22.469  26.228  1.00  0.00    -0.205 OA
BRANCH  14  17
ATOM     17  C   UNL A   1      31.345  24.590  26.097  1.00  0.00     0.188 A 
ATOM     18  N   UNL A   1      31.543  26.438  24.943  1.00  0.00    -0.334 N 
ATOM     19  C   UNL A   1      31.287  25.096  24.815  1.00  0.00     0.129 A 
ATOM     20  C   UNL A   1      31.629  26.721  26.289  1.00  0.00     0.107 A 
ATOM     21  N   UNL A   1      31.530  25.614  27.002  1.00  0.00    -0.221 NA
ATOM     22  C   UNL A   1      31.805  28.075  26.873  1.00  0.00     0.088 C 
BRANCH  18  23
ATOM     23  C   UNL A   1      31.844  27.319  23.829  1.00  0.00     0.123 C 
BRANCH  23  24
ATOM     24  C   UNL A   1      33.317  27.676  23.662  1.00  0.00     0.018 C 
ATOM     25  C   UNL A   1      33.546  28.986  22.924  1.00  0.00     0.006 C 
ENDBRANCH  23  24
ENDBRANCH  18  23
ENDBRANCH  14  17
ENDBRANCH  12  14
ENDBRANCH   8  12
ENDBRANCH   4   7
ENDBRANCH   2   3
ENDBRANCH   1   2
BRANCH   1  26
ATOM     26  C   UNL A   1      40.955  21.990  26.660  1.00  0.00     0.002 C 
BRANCH  26  27
ATOM     27  C   UNL A   1      41.522  20.965  27.656  1.00  0.00     0.002 C 
BRANCH  27  28
ATOM     28  C   UNL A   1      42.329  19.798  27.065  1.00  0.00     0.021 C 
BRANCH  28  29
ATOM     29  C   UNL A   1      42.455  19.841  25.554  1.00  0.00     0.116 C 
BRANCH  29  30
ATOM     30  N   UNL A   1      43.828  19.625  25.081  1.00  0.00    -0.352 N 
ATOM     31  C   UNL A   1      44.750  20.581  24.681  1.00  0.00     0.251 C 
ATOM     32  H   UNL A   1      44.132  18.689  25.044  1.00  0.00     0.163 HD
ATOM     33  O   UNL A   1      45.713  20.297  23.980  1.00  0.00    -0.269 OA
BRANCH  31  34
ATOM     34  C   UNL A   1      44.548  21.960  25.151  1.00  0.00     0.039 A 
ATOM     35  C   UNL A   1      43.727  22.885  24.501  1.00  0.00     0.014 A 
ATOM     36  C   UNL A   1      45.170  22.279  26.348  1.00  0.00     0.014 A 
ATOM     37  C   UNL A   1      43.500  24.114  25.119  1.00  0.00     0.010 A 
ATOM     38  C   UNL A   1      44.712  23.335  27.071  1.00  0.00     0.010 A 
ATOM     39  C   UNL A   1      43.996  24.321  26.415  1.00  0.00    -0.014 A 
BRANCH  39  40
ATOM     40  C   UNL A   1      43.782  25.550  27.162  1.00  0.00     0.031 A 
ATOM     41  C   UNL A   1      44.738  26.647  26.857  1.00  0.00     0.074 A 
ATOM     42  C   UNL A   1      42.657  25.739  27.891  1.00  0.00     0.049 A 
ATOM     43  N   UNL A   1      45.584  27.201  27.659  1.00  0.00    -0.248 NA
ATOM     44  C   UNL A   1      44.855  27.099  25.461  1.00  0.00     0.031 C 
ATOM     45  C   UNL A   1      41.474  24.871  28.026  1.00  0.00     0.029 A 
ATOM     46  N   UNL A   1      42.293  26.827  28.616  1.00  0.00    -0.354 N 
ATOM     47  C   UNL A   1      46.232  28.188  26.920  1.00  0.00     0.074 A 
ATOM     48  C   UNL A   1      45.855  27.978  25.547  1.00  0.00     0.031 C 
ATOM     49  C   UNL A   1      40.454  25.563  28.581  1.00  0.00     0.029 A 
ATOM     50  C   UNL A   1      40.963  26.846  29.016  1.00  0.00     0.049 A 
ATOM     51  H   UNL A   1      42.924  27.548  28.841  1.00  0.00     0.167 HD
ATOM     52  C   UNL A   1      46.873  29.221  27.535  1.00  0.00     0.037 A 
ATOM     53  C   UNL A   1      40.332  27.868  29.647  1.00  0.00     0.037 A 
ATOM     54  C   UNL A   1      47.097  28.928  28.929  1.00  0.00     0.049 A 
ATOM     55  C   UNL A   1      41.390  28.727  30.236  1.00  0.00     0.074 A 
ATOM     56  C   UNL A   1      47.843  27.982  29.605  1.00  0.00     0.029 A 
ATOM     57  N   UNL A   1      46.187  29.404  29.841  1.00  0.00    -0.354 N 
ATOM     58  N   UNL A   1      42.171  28.338  31.205  1.00  0.00    -0.248 NA
ATOM     59  C   UNL A   1      41.900  29.812  29.411  1.00  0.00     0.031 C 
ATOM     60  C   UNL A   1      47.023  27.584  30.703  1.00  0.00     0.029 A 
ATOM     61  C   UNL A   1      45.866  28.367  30.682  1.00  0.00     0.049 A 
ATOM     62  H   UNL A   1      45.830  30.320  29.885  1.00  0.00     0.167 HD
ATOM     63  C   UNL A   1      43.425  28.822  30.863  1.00  0.00     0.074 A 
ATOM     64  C   UNL A   1      43.184  29.774  29.779  1.00  0.00     0.031 C 
ATOM     65  C   UNL A   1      44.563  28.192  31.279  1.00  0.00     0.037 A 
BRANCH  52  66
ATOM     66  C   UNL A   1      47.010  30.617  26.981  1.00  0.00     0.064 A 
ATOM     67  C   UNL A   1      48.271  31.249  27.011  1.00  0.00     0.173 A 
ATOM     68  C   UNL A   1      45.916  31.461  26.693  1.00  0.00     0.173 A 
ATOM     69  F   UNL A   1      49.382  30.547  27.282  1.00  0.00    -0.203 F 
ATOM     70  C   UNL A   1      48.410  32.630  26.853  1.00  0.00     0.198 A 
ATOM     71  C   UNL A   1      46.067  32.831  26.483  1.00  0.00     0.198 A 
ATOM     72  F   UNL A   1      44.654  31.021  26.711  1.00  0.00    -0.203 F 
ATOM     73  F   UNL A   1      49.613  33.200  27.014  1.00  0.00    -0.200 F 
ATOM     74  C   UNL A   1      47.307  33.422  26.597  1.00  0.00     0.200 A 
ATOM     75  F   UNL A   1      44.982  33.584  26.250  1.00  0.00    -0.200 F 
ATOM     76  F   UNL A   1      47.428  34.752  26.507  1.00  0.00    -0.200 F 
ENDBRANCH  52  66
BRANCH  53  77
ATOM     77  C   UNL A   1      38.946  28.344  29.443  1.00  0.00     0.064 A 
ATOM     78  C   UNL A   1      38.089  28.572  30.531  1.00  0.00     0.173 A 
ATOM     79  C   UNL A   1      38.543  28.873  28.202  1.00  0.00     0.173 A 
ATOM     80  F   UNL A   1      38.421  28.135  31.753  1.00  0.00    -0.203 F 
ATOM     81  C   UNL A   1      36.909  29.314  30.391  1.00  0.00     0.198 A 
ATOM     82  C   UNL A   1      37.372  29.616  28.067  1.00  0.00     0.198 A 
ATOM     83  F   UNL A   1      39.325  28.761  27.120  1.00  0.00    -0.203 F 
ATOM     84  F   UNL A   1      36.141  29.560  31.462  1.00  0.00    -0.200 F 
ATOM     85  C   UNL A   1      36.560  29.849  29.162  1.00  0.00     0.200 A 
ATOM     86  F   UNL A   1      37.072  30.158  26.880  1.00  0.00    -0.200 F 
ATOM     87  F   UNL A   1      35.468  30.616  29.041  1.00  0.00    -0.200 F 
ENDBRANCH  53  77
BRANCH  65  88
ATOM     88  C   UNL A   1      44.421  27.076  32.281  1.00  0.00     0.064 A 
ATOM     89  C   UNL A   1      44.345  25.712  31.939  1.00  0.00     0.173 A 
ATOM     90  C   UNL A   1      44.531  27.386  33.641  1.00  0.00     0.173 A 
ATOM     91  F   UNL A   1      44.333  25.320  30.662  1.00  0.00    -0.203 F 
ATOM     92  C   UNL A   1      44.345  24.715  32.915  1.00  0.00     0.198 A 
ATOM     93  C   UNL A   1      44.566  26.388  34.611  1.00  0.00     0.198 A 
ATOM     94  F   UNL A   1      44.660  28.665  34.028  1.00  0.00    -0.203 F 
ATOM     95  F   UNL A   1      44.269  23.424  32.558  1.00  0.00    -0.200 F 
ATOM     96  C   UNL A   1      44.465  25.054  34.250  1.00  0.00     0.200 A 
ATOM     97  F   UNL A   1      44.732  26.721  35.899  1.00  0.00    -0.200 F 
ATOM     98  F   UNL A   1      44.512  24.097  35.188  1.00  0.00    -0.200 F 
ENDBRANCH  65  88
ENDBRANCH  39  40
ENDBRANCH  31  34
ENDBRANCH  29  30
ENDBRANCH  28  29
ENDBRANCH  27  28
ENDBRANCH  26  27
ENDBRANCH   1  26
TORSDOF 18
ENDMDL
MODEL 2
REMARK VINA RESULT:     -11.5      2.708      3.890
REMARK SMILES CCCn1cc(S(=O)(=O)N[C@H]2C=C[C@@H](C(=O)NCCCCCCNC(=O)c3ccc(-c4c5nc(c(-c6c(F)c(F)c(F)c(F)c6F)c6ccc([nH]6)c(-c6c(F)c(F)c(F)c(F)c6F)c6nc(c(-c7c(F)c(F)c(F)c(F)c7F)c7ccc4[nH]7)C=C6)C=C5)cc3)C2)nc1C
REMARK SMILES IDX 19 1 18 2 17 3 15 4 16 5 14 7 11 8 12 9 90 10 13 11 10 12
REMARK SMILES IDX 7 14 8 15 9 16 6 17 4 18 5 19 92 20 91 21 93 22 3 23 2 24
REMARK SMILES IDX 1 25 20 26 21 27 22 28 23 29 24 30 25 31 26 33 27 34 28 35
REMARK SMILES IDX 89 36 29 37 88 38 30 39 31 40 32 41 82 42 33 43 87 44 81 45
REMARK SMILES IDX 83 46 34 47 86 48 80 49 79 50 35 52 67 53 47 54 66 55 48 56
REMARK SMILES IDX 51 57 65 58 84 59 49 60 50 61 64 63 85 64 52 65 36 66 37 67
REMARK SMILES IDX 45 68 38 69 39 70 43 71 46 72 40 73 41 74 44 75 42 76 68 77
REMARK SMILES IDX 69 78 77 79 70 80 71 81 75 82 78 83 72 84 73 85 76 86 74 87
REMARK SMILES IDX 53 88 54 89 62 90 55 91 56 92 60 93 63 94 57 95 58 96 61 97
REMARK SMILES IDX 59 98
REMARK H PARENT 17 6 10 13 24 32 83 51 51 62
REMARK Flexibility Score: inf
ROOT
ATOM      1  C   UNL A   1      35.899  21.955  24.251  1.00  0.00     0.021 C 
ENDROOT
BRANCH   1   2
ATOM      2  C   UNL A   1      35.190  21.259  25.408  1.00  0.00     0.116 C 
BRANCH   2   3
ATOM      3  N   UNL A   1      34.878  19.880  25.092  1.00  0.00    -0.356 N 
ATOM      4  C   UNL A   1      33.730  19.313  24.630  1.00  0.00     0.226 C 
ATOM      5  O   UNL A   1      33.737  18.091  24.445  1.00  0.00    -0.274 OA
ATOM      6  H   UNL A   1      35.619  19.248  25.236  1.00  0.00     0.163 HD
BRANCH   4   7
ATOM      7  C   UNL A   1      32.465  20.125  24.348  1.00  0.00     0.103 C 
ATOM      8  C   UNL A   1      31.675  22.425  24.721  1.00  0.00     0.093 C 
ATOM      9  C   UNL A   1      32.108  22.199  23.308  1.00  0.00    -0.011 C 
ATOM     10  C   UNL A   1      32.101  21.133  25.441  1.00  0.00     0.042 C 
ATOM     11  C   UNL A   1      32.536  20.949  23.100  1.00  0.00    -0.016 C 
BRANCH   8  12
ATOM     12  N   UNL A   1      32.423  23.557  25.282  1.00  0.00    -0.203 NA
ATOM     13  H   UNL A   1      32.955  23.214  26.083  1.00  0.00     0.142 HD
BRANCH  12  14
ATOM     14  S   UNL A   1      31.494  24.879  25.804  1.00  0.00     0.260 S 
ATOM     15  O   UNL A   1      31.413  24.782  27.241  1.00  0.00    -0.205 OA
ATOM     16  O   UNL A   1      30.316  24.901  24.960  1.00  0.00    -0.205 OA
BRANCH  14  17
ATOM     17  C   UNL A   1      32.346  26.362  25.459  1.00  0.00     0.188 A 
ATOM     18  N   UNL A   1      33.096  28.414  25.583  1.00  0.00    -0.334 N 
ATOM     19  C   UNL A   1      32.533  27.413  26.333  1.00  0.00     0.129 A 
ATOM     20  C   UNL A   1      33.340  27.907  24.325  1.00  0.00     0.107 A 
ATOM     21  N   UNL A   1      32.877  26.675  24.225  1.00  0.00    -0.221 NA
ATOM     22  C   UNL A   1      34.028  28.631  23.226  1.00  0.00     0.088 C 
BRANCH  18  23
ATOM     23  C   UNL A   1      33.220  29.791  26.026  1.00  0.00     0.123 C 
BRANCH  23  24
ATOM     24  C   UNL A   1      33.964  29.987  27.343  1.00  0.00     0.018 C 
ATOM     25  C   UNL A   1      35.338  29.335  27.367  1.00  0.00     0.006 C 
ENDBRANCH  23  24
ENDBRANCH  18  23
ENDBRANCH  14  17
ENDBRANCH  12  14
ENDBRANCH   8  12
ENDBRANCH   4   7
ENDBRANCH   2   3
ENDBRANCH   1   2
BRANCH   1  26
ATOM     26  C   UNL A   1      36.590  23.269  24.630  1.00  0.00     0.002 C 
BRANCH  26  27
ATOM     27  C   UNL A   1      37.554  23.203  25.825  1.00  0.00     0.002 C 
BRANCH  27  28
ATOM     28  C   UNL A   1      38.607  22.084  25.806  1.00  0.00     0.021 C 
BRANCH  28  29
ATOM     29  C   UNL A   1      39.758  22.307  26.768  1.00  0.00     0.116 C 
BRANCH  29  30
ATOM     30  N   UNL A   1      41.070  22.314  26.110  1.00  0.00    -0.352 N 
ATOM     31  C   UNL A   1      41.918  23.394  25.916  1.00  0.00     0.251 C 
ATOM     32  H   UNL A   1      41.386  21.448  25.763  1.00  0.00     0.163 HD
ATOM     33  O   UNL A   1      42.797  23.382  25.065  1.00  0.00    -0.269 OA
BRANCH  31  34
ATOM     34  C   UNL A   1      41.744  24.562  26.794  1.00  0.00     0.039 A 
ATOM     35  C   UNL A   1      42.347  24.681  28.050  1.00  0.00     0.014 A 
ATOM     36  C   UNL A   1      40.992  25.600  26.264  1.00  0.00     0.014 A 
ATOM     37  C   UNL A   1      42.225  25.893  28.727  1.00  0.00     0.010 A 
ATOM     38  C   UNL A   1      41.131  26.848  26.783  1.00  0.00     0.010 A 
ATOM     39  C   UNL A   1      41.617  26.976  28.072  1.00  0.00    -0.014 A 
BRANCH  39  40
ATOM     40  C   UNL A   1      41.475  28.292  28.674  1.00  0.00     0.031 A 
ATOM     41  C   UNL A   1      42.515  29.279  28.283  1.00  0.00     0.074 A 
ATOM     42  C   UNL A   1      40.350  28.637  29.343  1.00  0.00     0.049 A 
ATOM     43  N   UNL A   1      43.380  29.858  29.046  1.00  0.00    -0.248 NA
ATOM     44  C   UNL A   1      42.697  29.566  26.851  1.00  0.00     0.031 C 
ATOM     45  C   UNL A   1      39.104  27.874  29.534  1.00  0.00     0.029 A 
ATOM     46  N   UNL A   1      40.049  29.821  29.934  1.00  0.00    -0.354 N 
ATOM     47  C   UNL A   1      44.115  30.711  28.225  1.00  0.00     0.074 A 
ATOM     48  C   UNL A   1      43.756  30.377  26.872  1.00  0.00     0.031 C 
ATOM     49  C   UNL A   1      38.124  28.692  29.979  1.00  0.00     0.029 A 
ATOM     50  C   UNL A   1      38.715  29.977  30.289  1.00  0.00     0.049 A 
ATOM     51  H   UNL A   1      40.725  30.517  30.100  1.00  0.00     0.167 HD
ATOM     52  C   UNL A   1      44.815  31.758  28.746  1.00  0.00     0.037 A 
ATOM     53  C   UNL A   1      38.145  31.103  30.785  1.00  0.00     0.037 A 
ATOM     54  C   UNL A   1      44.984  31.604  30.169  1.00  0.00     0.049 A 
ATOM     55  C   UNL A   1      39.248  31.946  31.311  1.00  0.00     0.074 A 
ATOM     56  C   UNL A   1      45.643  30.689  30.966  1.00  0.00     0.029 A 
ATOM     57  N   UNL A   1      44.090  32.240  30.996  1.00  0.00    -0.354 N 
ATOM     58  N   UNL A   1      39.976  31.612  32.340  1.00  0.00    -0.248 NA
ATOM     59  C   UNL A   1      39.854  32.896  30.390  1.00  0.00     0.031 C 
ATOM     60  C   UNL A   1      44.771  30.473  32.075  1.00  0.00     0.029 A 
ATOM     61  C   UNL A   1      43.675  31.327  31.933  1.00  0.00     0.049 A 
ATOM     62  H   UNL A   1      43.799  33.179  30.929  1.00  0.00     0.167 HD
ATOM     63  C   UNL A   1      41.270  31.967  31.987  1.00  0.00     0.074 A 
ATOM     64  C   UNL A   1      41.124  32.809  30.799  1.00  0.00     0.031 C 
ATOM     65  C   UNL A   1      42.348  31.310  32.504  1.00  0.00     0.037 A 
BRANCH  52  66
ATOM     66  C   UNL A   1      45.066  33.071  28.048  1.00  0.00     0.064 A 
ATOM     67  C   UNL A   1      46.387  33.429  27.710  1.00  0.00     0.173 A 
ATOM     68  C   UNL A   1      44.115  34.111  27.962  1.00  0.00     0.173 A 
ATOM     69  F   UNL A   1      47.377  32.524  27.762  1.00  0.00    -0.203 F 
ATOM     70  C   UNL A   1      46.741  34.744  27.395  1.00  0.00     0.198 A 
ATOM     71  C   UNL A   1      44.464  35.411  27.596  1.00  0.00     0.198 A 
ATOM     72  F   UNL A   1      42.841  33.943  28.329  1.00  0.00    -0.203 F 
ATOM     73  F   UNL A   1      48.029  35.059  27.202  1.00  0.00    -0.200 F 
ATOM     74  C   UNL A   1      45.780  35.736  27.347  1.00  0.00     0.200 A 
ATOM     75  F   UNL A   1      43.518  36.362  27.568  1.00  0.00    -0.200 F 
ATOM     76  F   UNL A   1      46.124  37.007  27.107  1.00  0.00    -0.200 F 
ENDBRANCH  52  66
BRANCH  53  77
ATOM     77  C   UNL A   1      36.802  31.649  30.488  1.00  0.00     0.064 A 
ATOM     78  C   UNL A   1      35.892  31.939  31.516  1.00  0.00     0.173 A 
ATOM     79  C   UNL A   1      36.508  32.179  29.218  1.00  0.00     0.173 A 
ATOM     80  F   UNL A   1      36.123  31.504  32.762  1.00  0.00    -0.203 F 
ATOM     81  C   UNL A   1      34.765  32.741  31.293  1.00  0.00     0.198 A 
ATOM     82  C   UNL A   1      35.389  32.981  28.999  1.00  0.00     0.198 A 
ATOM     83  F   UNL A   1      37.349  32.009  28.188  1.00  0.00    -0.203 F 
ATOM     84  F   UNL A   1      33.946  33.043  32.309  1.00  0.00    -0.200 F 
ATOM     85  C   UNL A   1      34.524  33.274  30.038  1.00  0.00     0.200 A 
ATOM     86  F   UNL A   1      35.194  33.521  27.788  1.00  0.00    -0.200 F 
ATOM     87  F   UNL A   1      33.484  34.096  29.838  1.00  0.00    -0.200 F 
ENDBRANCH  53  77
BRANCH  65  88
ATOM     88  C   UNL A   1      42.103  30.323  33.616  1.00  0.00     0.064 A 
ATOM     89  C   UNL A   1      41.848  28.953  33.415  1.00  0.00     0.173 A 
ATOM     90  C   UNL A   1      42.294  30.748  34.936  1.00  0.00     0.173 A 
ATOM     91  F   UNL A   1      41.746  28.443  32.184  1.00  0.00    -0.203 F 
ATOM     92  C   UNL A   1      41.756  28.063  34.486  1.00  0.00     0.198 A 
ATOM     93  C   UNL A   1      42.237  29.852  36.000  1.00  0.00     0.198 A 
ATOM     94  F   UNL A   1      42.593  32.031  35.189  1.00  0.00    -0.203 F 
ATOM     95  F   UNL A   1      41.510  26.764  34.262  1.00  0.00    -0.200 F 
ATOM     96  C   UNL A   1      41.961  28.513  35.777  1.00  0.00     0.200 A 
ATOM     97  F   UNL A   1      42.485  30.285  37.245  1.00  0.00    -0.200 F 
ATOM     98  F   UNL A   1      41.920  27.654  36.805  1.00  0.00    -0.200 F 
ENDBRANCH  65  88
ENDBRANCH  39  40
ENDBRANCH  31  34
ENDBRANCH  29  30
ENDBRANCH  28  29
ENDBRANCH  27  28
ENDBRANCH  26  27
ENDBRANCH   1  26
TORSDOF 18
ENDMDL
MODEL 3
REMARK VINA RESULT:     -10.9      2.782      4.452
REMARK SMILES CCCn1cc(S(=O)(=O)N[C@H]2C=C[C@@H](C(=O)NCCCCCCNC(=O)c3ccc(-c4c5nc(c(-c6c(F)c(F)c(F)c(F)c6F)c6ccc([nH]6)c(-c6c(F)c(F)c(F)c(F)c6F)c6nc(c(-c7c(F)c(F)c(F)c(F)c7F)c7ccc4[nH]7)C=C6)C=C5)cc3)C2)nc1C
REMARK SMILES IDX 19 1 18 2 17 3 15 4 16 5 14 7 11 8 12 9 90 10 13 11 10 12
REMARK SMILES IDX 7 14 8 15 9 16 6 17 4 18 5 19 92 20 91 21 93 22 3 23 2 24
REMARK SMILES IDX 1 25 20 26 21 27 22 28 23 29 24 30 25 31 26 33 27 34 28 35
REMARK SMILES IDX 89 36 29 37 88 38 30 39 31 40 32 41 82 42 33 43 87 44 81 45
REMARK SMILES IDX 83 46 34 47 86 48 80 49 79 50 35 52 67 53 47 54 66 55 48 56
REMARK SMILES IDX 51 57 65 58 84 59 49 60 50 61 64 63 85 64 52 65 36 66 37 67
REMARK SMILES IDX 45 68 38 69 39 70 43 71 46 72 40 73 41 74 44 75 42 76 68 77
REMARK SMILES IDX 69 78 77 79 70 80 71 81 75 82 78 83 72 84 73 85 76 86 74 87
REMARK SMILES IDX 53 88 54 89 62 90 55 91 56 92 60 93 63 94 57 95 58 96 61 97
REMARK SMILES IDX 59 98
REMARK H PARENT 17 6 10 13 24 32 83 51 51 62
REMARK Flexibility Score: inf
ROOT
ATOM      1  C   UNL A   1      34.581  22.369  24.386  1.00  0.00     0.021 C 
ENDROOT
BRANCH   1   2
ATOM      2  C   UNL A   1      34.518  23.432  25.478  1.00  0.00     0.116 C 
BRANCH   2   3
ATOM      3  N   UNL A   1      33.866  22.934  26.673  1.00  0.00    -0.356 N 
ATOM      4  C   UNL A   1      32.587  23.079  27.112  1.00  0.00     0.226 C 
ATOM      5  O   UNL A   1      32.292  22.542  28.185  1.00  0.00    -0.274 OA
ATOM      6  H   UNL A   1      34.446  22.402  27.264  1.00  0.00     0.163 HD
BRANCH   4   7
ATOM      7  C   UNL A   1      31.534  23.873  26.337  1.00  0.00     0.103 C 
ATOM      8  C   UNL A   1      31.472  25.345  24.365  1.00  0.00     0.093 C 
ATOM      9  C   UNL A   1      30.976  23.968  24.058  1.00  0.00    -0.011 C 
ATOM     10  C   UNL A   1      32.025  25.218  25.796  1.00  0.00     0.042 C 
ATOM     11  C   UNL A   1      31.005  23.165  25.128  1.00  0.00    -0.016 C 
BRANCH   8  12
ATOM     12  N   UNL A   1      32.572  25.678  23.452  1.00  0.00    -0.203 NA
ATOM     13  H   UNL A   1      33.446  25.603  23.975  1.00  0.00     0.142 HD
BRANCH  12  14
ATOM     14  S   UNL A   1      32.518  27.224  22.752  1.00  0.00     0.260 S 
ATOM     15  O   UNL A   1      31.210  27.360  22.160  1.00  0.00    -0.205 OA
ATOM     16  O   UNL A   1      33.738  27.358  21.981  1.00  0.00    -0.205 OA
BRANCH  14  17
ATOM     17  C   UNL A   1      32.620  28.435  24.004  1.00  0.00     0.188 A 
ATOM     18  N   UNL A   1      33.239  29.550  25.782  1.00  0.00    -0.334 N 
ATOM     19  C   UNL A   1      33.669  28.608  24.882  1.00  0.00     0.129 A 
ATOM     20  C   UNL A   1      32.006  29.999  25.359  1.00  0.00     0.107 A 
ATOM     21  N   UNL A   1      31.607  29.325  24.297  1.00  0.00    -0.221 NA
ATOM     22  C   UNL A   1      31.225  31.090  25.996  1.00  0.00     0.088 C 
BRANCH  18  23
ATOM     23  C   UNL A   1      33.911  29.847  27.034  1.00  0.00     0.123 C 
BRANCH  23  24
ATOM     24  C   UNL A   1      35.234  29.120  27.250  1.00  0.00     0.018 C 
ATOM     25  C   UNL A   1      36.402  30.052  27.530  1.00  0.00     0.006 C 
ENDBRANCH  23  24
ENDBRANCH  18  23
ENDBRANCH  14  17
ENDBRANCH  12  14
ENDBRANCH   8  12
ENDBRANCH   4   7
ENDBRANCH   2   3
ENDBRANCH   1   2
BRANCH   1  26
ATOM     26  C   UNL A   1      35.170  21.030  24.838  1.00  0.00     0.002 C 
BRANCH  26  27
ATOM     27  C   UNL A   1      36.559  21.091  25.495  1.00  0.00     0.002 C 
BRANCH  27  28
ATOM     28  C   UNL A   1      37.571  22.074  24.886  1.00  0.00     0.021 C 
BRANCH  28  29
ATOM     29  C   UNL A   1      38.323  22.897  25.914  1.00  0.00     0.116 C 
BRANCH  29  30
ATOM     30  N   UNL A   1      39.466  22.187  26.501  1.00  0.00    -0.352 N 
ATOM     31  C   UNL A   1      40.659  22.726  26.958  1.00  0.00     0.251 C 
ATOM     32  H   UNL A   1      39.375  21.209  26.579  1.00  0.00     0.163 HD
ATOM     33  O   UNL A   1      41.668  22.046  27.091  1.00  0.00    -0.269 OA
BRANCH  31  34
ATOM     34  C   UNL A   1      40.669  24.155  27.308  1.00  0.00     0.039 A 
ATOM     35  C   UNL A   1      39.612  25.026  27.030  1.00  0.00     0.014 A 
ATOM     36  C   UNL A   1      41.780  24.587  28.017  1.00  0.00     0.014 A 
ATOM     37  C   UNL A   1      39.675  26.323  27.538  1.00  0.00     0.010 A 
ATOM     38  C   UNL A   1      41.695  25.732  28.745  1.00  0.00     0.010 A 
ATOM     39  C   UNL A   1      40.727  26.659  28.406  1.00  0.00    -0.014 A 
BRANCH  39  40
ATOM     40  C   UNL A   1      40.863  27.970  29.019  1.00  0.00     0.031 A 
ATOM     41  C   UNL A   1      42.011  28.778  28.530  1.00  0.00     0.074 A 
ATOM     42  C   UNL A   1      39.879  28.487  29.792  1.00  0.00     0.049 A 
ATOM     43  N   UNL A   1      43.028  29.193  29.207  1.00  0.00    -0.248 NA
ATOM     44  C   UNL A   1      42.103  29.053  27.087  1.00  0.00     0.031 C 
ATOM     45  C   UNL A   1      38.546  27.937  30.100  1.00  0.00     0.029 A 
ATOM     46  N   UNL A   1      39.835  29.694  30.409  1.00  0.00    -0.354 N 
ATOM     47  C   UNL A   1      43.814  29.925  28.320  1.00  0.00     0.074 A 
ATOM     48  C   UNL A   1      43.279  29.677  27.007  1.00  0.00     0.031 C 
ATOM     49  C   UNL A   1      37.763  28.899  30.637  1.00  0.00     0.029 A 
ATOM     50  C   UNL A   1      38.585  30.063  30.889  1.00  0.00     0.049 A 
ATOM     51  H   UNL A   1      40.631  30.266  30.509  1.00  0.00     0.167 HD
ATOM     52  C   UNL A   1      44.724  30.833  28.772  1.00  0.00     0.037 A 
ATOM     53  C   UNL A   1      38.260  31.260  31.438  1.00  0.00     0.037 A 
ATOM     54  C   UNL A   1      44.998  30.632  30.172  1.00  0.00     0.049 A 
ATOM     55  C   UNL A   1      39.532  31.900  31.856  1.00  0.00     0.074 A 
ATOM     56  C   UNL A   1      45.568  29.607  30.903  1.00  0.00     0.029 A 
ATOM     57  N   UNL A   1      44.304  31.393  31.081  1.00  0.00    -0.354 N 
ATOM     58  N   UNL A   1      40.288  31.434  32.811  1.00  0.00    -0.248 NA
ATOM     59  C   UNL A   1      40.199  32.751  30.881  1.00  0.00     0.031 C 
ATOM     60  C   UNL A   1      44.780  29.521  32.090  1.00  0.00     0.029 A 
ATOM     61  C   UNL A   1      43.833  30.546  32.053  1.00  0.00     0.049 A 
ATOM     62  H   UNL A   1      44.169  32.368  31.042  1.00  0.00     0.167 HD
ATOM     63  C   UNL A   1      41.584  31.576  32.336  1.00  0.00     0.074 A 
ATOM     64  C   UNL A   1      41.469  32.449  31.168  1.00  0.00     0.031 C 
ATOM     65  C   UNL A   1      42.582  30.741  32.748  1.00  0.00     0.037 A 
BRANCH  52  66
ATOM     66  C   UNL A   1      45.124  32.098  28.053  1.00  0.00     0.064 A 
ATOM     67  C   UNL A   1      44.139  33.065  27.761  1.00  0.00     0.173 A 
ATOM     68  C   UNL A   1      46.357  32.269  27.388  1.00  0.00     0.173 A 
ATOM     69  F   UNL A   1      42.925  32.999  28.330  1.00  0.00    -0.203 F 
ATOM     70  C   UNL A   1      44.347  34.070  26.814  1.00  0.00     0.198 A 
ATOM     71  C   UNL A   1      46.577  33.306  26.482  1.00  0.00     0.198 A 
ATOM     72  F   UNL A   1      47.355  31.388  27.502  1.00  0.00    -0.203 F 
ATOM     73  F   UNL A   1      43.339  34.888  26.480  1.00  0.00    -0.200 F 
ATOM     74  C   UNL A   1      45.563  34.184  26.168  1.00  0.00     0.200 A 
ATOM     75  F   UNL A   1      47.760  33.392  25.856  1.00  0.00    -0.200 F 
ATOM     76  F   UNL A   1      45.744  35.107  25.214  1.00  0.00    -0.200 F 
ENDBRANCH  52  66
BRANCH  53  77
ATOM     77  C   UNL A   1      37.005  32.026  31.270  1.00  0.00     0.064 A 
ATOM     78  C   UNL A   1      36.143  32.256  32.353  1.00  0.00     0.173 A 
ATOM     79  C   UNL A   1      36.785  32.801  30.115  1.00  0.00     0.173 A 
ATOM     80  F   UNL A   1      36.313  31.586  33.502  1.00  0.00    -0.203 F 
ATOM     81  C   UNL A   1      35.138  33.229  32.297  1.00  0.00     0.198 A 
ATOM     82  C   UNL A   1      35.788  33.772  30.063  1.00  0.00     0.198 A 
ATOM     83  F   UNL A   1      37.595  32.697  29.052  1.00  0.00    -0.203 F 
ATOM     84  F   UNL A   1      34.368  33.461  33.369  1.00  0.00    -0.200 F 
ATOM     85  C   UNL A   1      34.971  33.997  31.157  1.00  0.00     0.200 A 
ATOM     86  F   UNL A   1      35.668  34.532  28.966  1.00  0.00    -0.200 F 
ATOM     87  F   UNL A   1      34.054  34.974  31.124  1.00  0.00    -0.200 F 
ENDBRANCH  53  77
BRANCH  65  88
ATOM     88  C   UNL A   1      42.281  29.790  33.878  1.00  0.00     0.064 A 
ATOM     89  C   UNL A   1      41.786  28.484  33.702  1.00  0.00     0.173 A 
ATOM     90  C   UNL A   1      42.661  30.158  35.174  1.00  0.00     0.173 A 
ATOM     91  F   UNL A   1      41.487  28.017  32.486  1.00  0.00    -0.203 F 
ATOM     92  C   UNL A   1      41.649  27.605  34.777  1.00  0.00     0.198 A 
ATOM     93  C   UNL A   1      42.557  29.268  36.239  1.00  0.00     0.198 A 
ATOM     94  F   UNL A   1      43.190  31.371  35.398  1.00  0.00    -0.203 F 
ATOM     95  F   UNL A   1      41.172  26.368  34.578  1.00  0.00    -0.200 F 
ATOM     96  C   UNL A   1      42.044  27.995  36.044  1.00  0.00     0.200 A 
ATOM     97  F   UNL A   1      42.987  29.634  37.455  1.00  0.00    -0.200 F 
ATOM     98  F   UNL A   1      41.957  27.139  37.071  1.00  0.00    -0.200 F 
ENDBRANCH  65  88
ENDBRANCH  39  40
ENDBRANCH  31  34
ENDBRANCH  29  30
ENDBRANCH  28  29
ENDBRANCH  27  28
ENDBRANCH  26  27
ENDBRANCH   1  26
TORSDOF 18
ENDMDL
