MODEL 1
REMARK VINA RESULT:     -12.0      0.000      0.000
REMARK SMILES Cc1cc(C(=O)N2CC[NH2+]C[C@H]2C(=O)NCCCCCCNC(=O)c2ccc(-c3c4nc(c(-c5c(F)c(F)c(F)c(F)c5F)c5ccc([nH]5)c(-c5c(F)c(F)c(F)c(F)c5F)c5nc(c(-c6c(F)c(F)c(F)c(F)c6F)c6ccc3[nH]6)C=C5)C=C4)cc2)sc1Br
REMARK SMILES IDX 18 1 17 2 16 3 15 4 13 5 14 6 12 8 7 9 8 10 9 11 11 12 10 13
REMARK SMILES IDX 5 16 6 17 4 18 1 19 2 20 3 21 89 22 88 23 90 24 19 25 20 26
REMARK SMILES IDX 21 27 22 28 23 29 24 31 25 32 26 33 87 34 27 35 86 36 28 37
REMARK SMILES IDX 29 38 30 39 80 40 31 41 85 42 79 43 81 44 32 45 84 46 78 47
REMARK SMILES IDX 77 48 33 50 65 51 45 52 64 53 46 54 49 55 63 56 82 57 47 58
REMARK SMILES IDX 48 59 62 61 83 62 50 63 34 64 35 65 43 66 36 67 37 68 41 69
REMARK SMILES IDX 44 70 38 71 39 72 42 73 40 74 66 75 67 76 75 77 68 78 69 79
REMARK SMILES IDX 73 80 76 81 70 82 71 83 74 84 72 85 51 86 52 87 60 88 53 89
REMARK SMILES IDX 54 90 58 91 61 92 55 93 56 94 59 95 57 96
REMARK H PARENT 15 7 10 14 10 15 22 30 81 49 49 60
REMARK Flexibility Score: inf
ROOT
ATOM      1  C   UNL A   1      41.877  21.100  27.047  1.00  0.00     0.002 C 
ENDROOT
BRANCH   1   2
ATOM      2  C   UNL A   1      40.852  21.847  26.172  1.00  0.00     0.021 C 
BRANCH   2   3
ATOM      3  C   UNL A   1      39.338  22.107  26.476  1.00  0.00     0.116 C 
BRANCH   3   4
ATOM      4  N   UNL A   1      38.468  22.754  25.495  1.00  0.00    -0.354 N 
ATOM      5  C   UNL A   1      37.155  22.621  25.110  1.00  0.00     0.248 C 
ATOM      6  O   UNL A   1      36.768  23.463  24.283  1.00  0.00    -0.272 OA
ATOM      7  H   UNL A   1      38.937  23.453  24.986  1.00  0.00     0.163 HD
BRANCH   5   8
ATOM      8  C   UNL A   1      36.090  21.637  25.716  1.00  0.00     0.230 C 
ATOM      9  N   UNL A   1      34.618  21.941  25.882  1.00  0.00    -0.315 N 
ATOM     10  C   UNL A   1      33.717  20.784  25.800  1.00  0.00     0.182 C 
ATOM     11  C   UNL A   1      34.091  19.798  24.698  1.00  0.00     0.282 C 
ATOM     12  C   UNL A   1      36.407  20.299  24.955  1.00  0.00     0.296 C 
ATOM     13  N   UNL A   1      35.410  19.221  24.966  1.00  0.00    -0.343 N 
ATOM     14  H   UNL A   1      35.637  18.536  24.245  1.00  0.00     0.346 HD
ATOM     15  H   UNL A   1      35.409  18.759  25.874  1.00  0.00     0.346 HD
BRANCH   9  16
ATOM     16  C   UNL A   1      34.152  22.913  26.838  1.00  0.00     0.265 C 
ATOM     17  O   UNL A   1      34.210  22.679  28.044  1.00  0.00    -0.268 OA
BRANCH  16  18
ATOM     18  C   UNL A   1      33.527  24.113  26.313  1.00  0.00     0.093 A 
ATOM     19  C   UNL A   1      33.878  27.763  25.995  1.00  0.00     0.046 C 
ATOM     20  C   UNL A   1      33.373  26.369  25.826  1.00  0.00    -0.025 A 
ATOM     21  C   UNL A   1      34.170  25.204  25.794  1.00  0.00     0.030 A 
ATOM     22  C   UNL A   1      32.108  25.937  25.512  1.00  0.00     0.074 A 
ATOM     23  S   UNL A   1      31.854  24.311  25.990  1.00  0.00    -0.123 S 
ATOM     24  Br  UNL A   1      30.839  27.001  24.644  1.00  0.00    -0.039 Br
ENDBRANCH  16  18
ENDBRANCH   9  16
ENDBRANCH   5   8
ENDBRANCH   3   4
ENDBRANCH   2   3
ENDBRANCH   1   2
BRANCH   1  25
ATOM     25  C   UNL A   1      41.903  19.577  27.153  1.00  0.00     0.002 C 
BRANCH  25  26
ATOM     26  C   UNL A   1      43.089  18.886  26.475  1.00  0.00     0.021 C 
BRANCH  26  27
ATOM     27  C   UNL A   1      43.495  19.442  25.105  1.00  0.00     0.116 C 
BRANCH  27  28
ATOM     28  N   UNL A   1      44.935  19.609  24.947  1.00  0.00    -0.352 N 
ATOM     29  C   UNL A   1      45.630  20.795  24.810  1.00  0.00     0.251 C 
ATOM     30  H   UNL A   1      45.472  18.784  24.937  1.00  0.00     0.163 HD
ATOM     31  O   UNL A   1      46.685  20.839  24.199  1.00  0.00    -0.269 OA
BRANCH  29  32
ATOM     32  C   UNL A   1      45.101  22.015  25.447  1.00  0.00     0.039 A 
ATOM     33  C   UNL A   1      45.379  22.293  26.785  1.00  0.00     0.014 A 
ATOM     34  C   UNL A   1      44.261  22.851  24.706  1.00  0.00     0.014 A 
ATOM     35  C   UNL A   1      44.848  23.446  27.351  1.00  0.00     0.010 A 
ATOM     36  C   UNL A   1      43.798  24.037  25.241  1.00  0.00     0.010 A 
ATOM     37  C   UNL A   1      44.068  24.325  26.571  1.00  0.00    -0.014 A 
BRANCH  37  38
ATOM     38  C   UNL A   1      43.672  25.606  27.149  1.00  0.00     0.031 A 
ATOM     39  C   UNL A   1      44.576  26.726  26.775  1.00  0.00     0.074 A 
ATOM     40  C   UNL A   1      42.560  25.834  27.879  1.00  0.00     0.049 A 
ATOM     41  N   UNL A   1      45.425  27.319  27.545  1.00  0.00    -0.248 NA
ATOM     42  C   UNL A   1      44.676  27.120  25.361  1.00  0.00     0.031 C 
ATOM     43  C   UNL A   1      41.414  24.960  28.123  1.00  0.00     0.029 A 
ATOM     44  N   UNL A   1      42.210  26.977  28.536  1.00  0.00    -0.354 N 
ATOM     45  C   UNL A   1      46.057  28.281  26.768  1.00  0.00     0.074 A 
ATOM     46  C   UNL A   1      45.667  28.015  25.406  1.00  0.00     0.031 C 
ATOM     47  C   UNL A   1      40.411  25.675  28.688  1.00  0.00     0.029 A 
ATOM     48  C   UNL A   1      40.899  27.011  28.989  1.00  0.00     0.049 A 
ATOM     49  H   UNL A   1      42.840  27.720  28.678  1.00  0.00     0.167 HD
ATOM     50  C   UNL A   1      46.676  29.341  27.356  1.00  0.00     0.037 A 
ATOM     51  C   UNL A   1      40.262  28.072  29.550  1.00  0.00     0.037 A 
ATOM     52  C   UNL A   1      46.938  29.072  28.750  1.00  0.00     0.049 A 
ATOM     53  C   UNL A   1      41.305  28.993  30.073  1.00  0.00     0.074 A 
ATOM     54  C   UNL A   1      47.660  28.105  29.427  1.00  0.00     0.029 A 
ATOM     55  N   UNL A   1      46.093  29.617  29.687  1.00  0.00    -0.354 N 
ATOM     56  N   UNL A   1      42.065  28.714  31.094  1.00  0.00    -0.248 NA
ATOM     57  C   UNL A   1      41.826  30.004  29.165  1.00  0.00     0.031 C 
ATOM     58  C   UNL A   1      46.856  27.772  30.560  1.00  0.00     0.029 A 
ATOM     59  C   UNL A   1      45.743  28.612  30.553  1.00  0.00     0.049 A 
ATOM     60  H   UNL A   1      45.794  30.554  29.728  1.00  0.00     0.167 HD
ATOM     61  C   UNL A   1      43.327  29.143  30.715  1.00  0.00     0.074 A 
ATOM     62  C   UNL A   1      43.105  30.000  29.551  1.00  0.00     0.031 C 
ATOM     63  C   UNL A   1      44.453  28.536  31.194  1.00  0.00     0.037 A 
BRANCH  50  64
ATOM     64  C   UNL A   1      46.679  30.744  26.797  1.00  0.00     0.064 A 
ATOM     65  C   UNL A   1      47.883  31.479  26.813  1.00  0.00     0.173 A 
ATOM     66  C   UNL A   1      45.510  31.502  26.564  1.00  0.00     0.173 A 
ATOM     67  F   UNL A   1      49.057  30.863  27.019  1.00  0.00    -0.203 F 
ATOM     68  C   UNL A   1      47.898  32.873  26.727  1.00  0.00     0.198 A 
ATOM     69  C   UNL A   1      45.536  32.889  26.431  1.00  0.00     0.198 A 
ATOM     70  F   UNL A   1      44.289  30.958  26.569  1.00  0.00    -0.203 F 
ATOM     71  F   UNL A   1      49.051  33.535  26.896  1.00  0.00    -0.200 F 
ATOM     72  C   UNL A   1      46.724  33.577  26.552  1.00  0.00     0.200 A 
ATOM     73  F   UNL A   1      44.384  33.554  26.273  1.00  0.00    -0.200 F 
ATOM     74  F   UNL A   1      46.725  34.917  26.547  1.00  0.00    -0.200 F 
ENDBRANCH  50  64
BRANCH  51  75
ATOM     75  C   UNL A   1      38.850  28.498  29.387  1.00  0.00     0.064 A 
ATOM     76  C   UNL A   1      38.019  28.716  30.501  1.00  0.00     0.173 A 
ATOM     77  C   UNL A   1      38.381  28.991  28.155  1.00  0.00     0.173 A 
ATOM     78  F   UNL A   1      38.411  28.324  31.723  1.00  0.00    -0.203 F 
ATOM     79  C   UNL A   1      36.809  29.412  30.391  1.00  0.00     0.198 A 
ATOM     80  C   UNL A   1      37.172  29.681  28.046  1.00  0.00     0.198 A 
ATOM     81  F   UNL A   1      39.135  28.903  27.049  1.00  0.00    -0.203 F 
ATOM     82  F   UNL A   1      36.078  29.662  31.487  1.00  0.00    -0.200 F 
ATOM     83  C   UNL A   1      36.394  29.904  29.166  1.00  0.00     0.200 A 
ATOM     84  F   UNL A   1      36.805  30.192  26.862  1.00  0.00    -0.200 F 
ATOM     85  F   UNL A   1      35.272  30.632  29.072  1.00  0.00    -0.200 F 
ENDBRANCH  51  75
BRANCH  63  86
ATOM     86  C   UNL A   1      44.303  27.567  32.334  1.00  0.00     0.064 A 
ATOM     87  C   UNL A   1      44.145  26.176  32.184  1.00  0.00     0.173 A 
ATOM     88  C   UNL A   1      44.435  28.057  33.641  1.00  0.00     0.173 A 
ATOM     89  F   UNL A   1      44.123  25.608  30.972  1.00  0.00    -0.203 F 
ATOM     90  C   UNL A   1      44.060  25.333  33.292  1.00  0.00     0.198 A 
ATOM     91  C   UNL A   1      44.393  27.208  34.742  1.00  0.00     0.198 A 
ATOM     92  F   UNL A   1      44.647  29.366  33.848  1.00  0.00    -0.203 F 
ATOM     93  F   UNL A   1      43.881  24.015  33.121  1.00  0.00    -0.200 F 
ATOM     94  C   UNL A   1      44.188  25.850  34.570  1.00  0.00     0.200 A 
ATOM     95  F   UNL A   1      44.569  27.708  35.973  1.00  0.00    -0.200 F 
ATOM     96  F   UNL A   1      44.136  25.037  35.634  1.00  0.00    -0.200 F 
ENDBRANCH  63  86
ENDBRANCH  37  38
ENDBRANCH  29  32
ENDBRANCH  27  28
ENDBRANCH  26  27
ENDBRANCH  25  26
ENDBRANCH   1  25
TORSDOF 15
ENDMDL
MODEL 2
REMARK VINA RESULT:     -11.4      3.013      8.771
REMARK SMILES Cc1cc(C(=O)N2CC[NH2+]C[C@H]2C(=O)NCCCCCCNC(=O)c2ccc(-c3c4nc(c(-c5c(F)c(F)c(F)c(F)c5F)c5ccc([nH]5)c(-c5c(F)c(F)c(F)c(F)c5F)c5nc(c(-c6c(F)c(F)c(F)c(F)c6F)c6ccc3[nH]6)C=C5)C=C4)cc2)sc1Br
REMARK SMILES IDX 18 1 17 2 16 3 15 4 13 5 14 6 12 8 7 9 8 10 9 11 11 12 10 13
REMARK SMILES IDX 5 16 6 17 4 18 1 19 2 20 3 21 89 22 88 23 90 24 19 25 20 26
REMARK SMILES IDX 21 27 22 28 23 29 24 31 25 32 26 33 87 34 27 35 86 36 28 37
REMARK SMILES IDX 29 38 30 39 80 40 31 41 85 42 79 43 81 44 32 45 84 46 78 47
REMARK SMILES IDX 77 48 33 50 65 51 45 52 64 53 46 54 49 55 63 56 82 57 47 58
REMARK SMILES IDX 48 59 62 61 83 62 50 63 34 64 35 65 43 66 36 67 37 68 41 69
REMARK SMILES IDX 44 70 38 71 39 72 42 73 40 74 66 75 67 76 75 77 68 78 69 79
REMARK SMILES IDX 73 80 76 81 70 82 71 83 74 84 72 85 51 86 52 87 60 88 53 89
REMARK SMILES IDX 54 90 58 91 61 92 55 93 56 94 59 95 57 96
REMARK H PARENT 15 7 10 14 10 15 22 30 81 49 49 60
REMARK Flexibility Score: inf
ROOT
ATOM      1  C   UNL A   1      31.352  27.866  26.396  1.00  0.00     0.002 C 
ENDROOT
BRANCH   1   2
ATOM      2  C   UNL A   1      31.015  26.366  26.501  1.00  0.00     0.021 C 
BRANCH   2   3
ATOM      3  C   UNL A   1      32.010  25.158  26.521  1.00  0.00     0.116 C 
BRANCH   3   4
ATOM      4  N   UNL A   1      31.548  23.792  26.275  1.00  0.00    -0.354 N 
ATOM      5  C   UNL A   1      32.074  22.670  25.680  1.00  0.00     0.248 C 
ATOM      6  O   UNL A   1      31.370  21.652  25.776  1.00  0.00    -0.272 OA
ATOM      7  H   UNL A   1      30.639  23.640  26.620  1.00  0.00     0.163 HD
BRANCH   5   8
ATOM      8  C   UNL A   1      33.506  22.522  25.049  1.00  0.00     0.230 C 
ATOM      9  N   UNL A   1      34.230  23.595  24.269  1.00  0.00    -0.315 N 
ATOM     10  C   UNL A   1      35.696  23.565  24.356  1.00  0.00     0.182 C 
ATOM     11  C   UNL A   1      36.216  23.272  25.759  1.00  0.00     0.282 C 
ATOM     12  C   UNL A   1      34.326  21.900  26.237  1.00  0.00     0.296 C 
ATOM     13  N   UNL A   1      35.794  21.936  26.184  1.00  0.00    -0.343 N 
ATOM     14  H   UNL A   1      36.176  21.732  27.107  1.00  0.00     0.346 HD
ATOM     15  H   UNL A   1      36.133  21.238  25.522  1.00  0.00     0.346 HD
BRANCH   9  16
ATOM     16  C   UNL A   1      33.782  24.011  22.964  1.00  0.00     0.265 C 
ATOM     17  O   UNL A   1      34.027  23.325  21.973  1.00  0.00    -0.268 OA
BRANCH  16  18
ATOM     18  C   UNL A   1      33.132  25.305  22.867  1.00  0.00     0.093 A 
ATOM     19  C   UNL A   1      33.538  28.903  23.523  1.00  0.00     0.046 C 
ATOM     20  C   UNL A   1      32.980  27.607  23.040  1.00  0.00    -0.025 A 
ATOM     21  C   UNL A   1      33.738  26.502  22.595  1.00  0.00     0.030 A 
ATOM     22  C   UNL A   1      31.676  27.268  22.773  1.00  0.00     0.074 A 
ATOM     23  S   UNL A   1      31.438  25.572  22.813  1.00  0.00    -0.123 S 
ATOM     24  Br  UNL A   1      30.343  28.521  22.388  1.00  0.00    -0.039 Br
ENDBRANCH  16  18
ENDBRANCH   9  16
ENDBRANCH   5   8
ENDBRANCH   3   4
ENDBRANCH   2   3
ENDBRANCH   1   2
BRANCH   1  25
ATOM     25  C   UNL A   1      32.598  28.470  27.043  1.00  0.00     0.002 C 
BRANCH  25  26
ATOM     26  C   UNL A   1      32.568  29.986  27.253  1.00  0.00     0.021 C 
BRANCH  26  27
ATOM     27  C   UNL A   1      33.907  30.713  27.086  1.00  0.00     0.116 C 
BRANCH  27  28
ATOM     28  N   UNL A   1      34.055  31.871  27.960  1.00  0.00    -0.352 N 
ATOM     29  C   UNL A   1      34.899  31.996  29.047  1.00  0.00     0.251 C 
ATOM     30  H   UNL A   1      33.489  32.650  27.754  1.00  0.00     0.163 HD
ATOM     31  O   UNL A   1      34.617  32.728  29.981  1.00  0.00    -0.269 OA
BRANCH  29  32
ATOM     32  C   UNL A   1      36.176  31.259  29.052  1.00  0.00     0.039 A 
ATOM     33  C   UNL A   1      37.357  31.891  29.442  1.00  0.00     0.014 A 
ATOM     34  C   UNL A   1      36.193  29.939  28.595  1.00  0.00     0.014 A 
ATOM     35  C   UNL A   1      38.541  31.164  29.417  1.00  0.00     0.010 A 
ATOM     36  C   UNL A   1      37.353  29.190  28.645  1.00  0.00     0.010 A 
ATOM     37  C   UNL A   1      38.534  29.808  29.031  1.00  0.00    -0.014 A 
BRANCH  37  38
ATOM     38  C   UNL A   1      39.762  29.033  29.181  1.00  0.00     0.031 A 
ATOM     39  C   UNL A   1      40.130  28.780  30.601  1.00  0.00     0.074 A 
ATOM     40  C   UNL A   1      40.485  28.494  28.177  1.00  0.00     0.049 A 
ATOM     41  N   UNL A   1      41.101  29.326  31.252  1.00  0.00    -0.248 NA
ATOM     42  C   UNL A   1      39.231  27.971  31.437  1.00  0.00     0.031 C 
ATOM     43  C   UNL A   1      40.160  28.380  26.756  1.00  0.00     0.029 A 
ATOM     44  N   UNL A   1      41.695  27.869  28.258  1.00  0.00    -0.354 N 
ATOM     45  C   UNL A   1      41.051  28.809  32.540  1.00  0.00     0.074 A 
ATOM     46  C   UNL A   1      39.800  28.100  32.638  1.00  0.00     0.031 C 
ATOM     47  C   UNL A   1      41.040  27.543  26.156  1.00  0.00     0.029 A 
ATOM     48  C   UNL A   1      42.079  27.191  27.110  1.00  0.00     0.049 A 
ATOM     49  H   UNL A   1      42.252  27.896  29.070  1.00  0.00     0.167 HD
ATOM     50  C   UNL A   1      42.156  28.838  33.335  1.00  0.00     0.037 A 
ATOM     51  C   UNL A   1      43.163  26.384  26.969  1.00  0.00     0.037 A 
ATOM     52  C   UNL A   1      43.114  29.801  32.845  1.00  0.00     0.049 A 
ATOM     53  C   UNL A   1      44.131  26.747  28.037  1.00  0.00     0.074 A 
ATOM     54  C   UNL A   1      43.080  31.165  32.615  1.00  0.00     0.029 A 
ATOM     55  N   UNL A   1      44.191  29.339  32.129  1.00  0.00    -0.354 N 
ATOM     56  N   UNL A   1      44.784  27.875  28.063  1.00  0.00    -0.248 NA
ATOM     57  C   UNL A   1      44.006  26.068  29.318  1.00  0.00     0.031 C 
ATOM     58  C   UNL A   1      43.791  31.349  31.390  1.00  0.00     0.029 A 
ATOM     59  C   UNL A   1      44.287  30.107  30.996  1.00  0.00     0.049 A 
ATOM     60  H   UNL A   1      44.784  28.594  32.381  1.00  0.00     0.167 HD
ATOM     61  C   UNL A   1      44.735  28.273  29.390  1.00  0.00     0.074 A 
ATOM     62  C   UNL A   1      44.312  27.084  30.129  1.00  0.00     0.031 C 
ATOM     63  C   UNL A   1      44.756  29.595  29.732  1.00  0.00     0.037 A 
BRANCH  50  64
ATOM     64  C   UNL A   1      42.545  27.739  34.295  1.00  0.00     0.064 A 
ATOM     65  C   UNL A   1      43.110  26.555  33.779  1.00  0.00     0.173 A 
ATOM     66  C   UNL A   1      42.089  27.661  35.630  1.00  0.00     0.173 A 
ATOM     67  F   UNL A   1      43.583  26.513  32.523  1.00  0.00    -0.203 F 
ATOM     68  C   UNL A   1      43.104  25.358  34.499  1.00  0.00     0.198 A 
ATOM     69  C   UNL A   1      42.130  26.476  36.361  1.00  0.00     0.198 A 
ATOM     70  F   UNL A   1      41.485  28.684  36.243  1.00  0.00    -0.203 F 
ATOM     71  F   UNL A   1      43.517  24.227  33.910  1.00  0.00    -0.200 F 
ATOM     72  C   UNL A   1      42.599  25.316  35.783  1.00  0.00     0.200 A 
ATOM     73  F   UNL A   1      41.624  26.454  37.602  1.00  0.00    -0.200 F 
ATOM     74  F   UNL A   1      42.520  24.156  36.449  1.00  0.00    -0.200 F 
ENDBRANCH  50  64
BRANCH  51  75
ATOM     75  C   UNL A   1      43.287  25.126  26.192  1.00  0.00     0.064 A 
ATOM     76  C   UNL A   1      44.348  24.925  25.291  1.00  0.00     0.173 A 
ATOM     77  C   UNL A   1      42.543  23.983  26.543  1.00  0.00     0.173 A 
ATOM     78  F   UNL A   1      45.140  25.949  24.941  1.00  0.00    -0.203 F 
ATOM     79  C   UNL A   1      44.663  23.653  24.798  1.00  0.00     0.198 A 
ATOM     80  C   UNL A   1      42.856  22.716  26.046  1.00  0.00     0.198 A 
ATOM     81  F   UNL A   1      41.562  24.056  27.455  1.00  0.00    -0.203 F 
ATOM     82  F   UNL A   1      45.725  23.490  23.995  1.00  0.00    -0.200 F 
ATOM     83  C   UNL A   1      43.924  22.549  25.185  1.00  0.00     0.200 A 
ATOM     84  F   UNL A   1      42.160  21.650  26.466  1.00  0.00    -0.200 F 
ATOM     85  F   UNL A   1      44.268  21.321  24.770  1.00  0.00    -0.200 F 
ENDBRANCH  51  75
BRANCH  63  86
ATOM     86  C   UNL A   1      45.093  30.596  28.661  1.00  0.00     0.064 A 
ATOM     87  C   UNL A   1      44.184  31.069  27.697  1.00  0.00     0.173 A 
ATOM     88  C   UNL A   1      46.365  31.185  28.683  1.00  0.00     0.173 A 
ATOM     89  F   UNL A   1      42.914  30.645  27.675  1.00  0.00    -0.203 F 
ATOM     90  C   UNL A   1      44.556  32.036  26.763  1.00  0.00     0.198 A 
ATOM     91  C   UNL A   1      46.720  32.180  27.778  1.00  0.00     0.198 A 
ATOM     92  F   UNL A   1      47.258  30.819  29.616  1.00  0.00    -0.203 F 
ATOM     93  F   UNL A   1      43.679  32.449  25.836  1.00  0.00    -0.200 F 
ATOM     94  C   UNL A   1      45.823  32.593  26.807  1.00  0.00     0.200 A 
ATOM     95  F   UNL A   1      47.929  32.752  27.859  1.00  0.00    -0.200 F 
ATOM     96  F   UNL A   1      46.172  33.544  25.929  1.00  0.00    -0.200 F 
ENDBRANCH  63  86
ENDBRANCH  37  38
ENDBRANCH  29  32
ENDBRANCH  27  28
ENDBRANCH  26  27
ENDBRANCH  25  26
ENDBRANCH   1  25
TORSDOF 15
ENDMDL
MODEL 3
REMARK VINA RESULT:     -11.4      4.385     10.092
REMARK SMILES Cc1cc(C(=O)N2CC[NH2+]C[C@H]2C(=O)NCCCCCCNC(=O)c2ccc(-c3c4nc(c(-c5c(F)c(F)c(F)c(F)c5F)c5ccc([nH]5)c(-c5c(F)c(F)c(F)c(F)c5F)c5nc(c(-c6c(F)c(F)c(F)c(F)c6F)c6ccc3[nH]6)C=C5)C=C4)cc2)sc1Br
REMARK SMILES IDX 18 1 17 2 16 3 15 4 13 5 14 6 12 8 7 9 8 10 9 11 11 12 10 13
REMARK SMILES IDX 5 16 6 17 4 18 1 19 2 20 3 21 89 22 88 23 90 24 19 25 20 26
REMARK SMILES IDX 21 27 22 28 23 29 24 31 25 32 26 33 87 34 27 35 86 36 28 37
REMARK SMILES IDX 29 38 30 39 80 40 31 41 85 42 79 43 81 44 32 45 84 46 78 47
REMARK SMILES IDX 77 48 33 50 65 51 45 52 64 53 46 54 49 55 63 56 82 57 47 58
REMARK SMILES IDX 48 59 62 61 83 62 50 63 34 64 35 65 43 66 36 67 37 68 41 69
REMARK SMILES IDX 44 70 38 71 39 72 42 73 40 74 66 75 67 76 75 77 68 78 69 79
REMARK SMILES IDX 73 80 76 81 70 82 71 83 74 84 72 85 51 86 52 87 60 88 53 89
REMARK SMILES IDX 54 90 58 91 61 92 55 93 56 94 59 95 57 96
REMARK H PARENT 15 7 10 14 10 15 22 30 81 49 49 60
REMARK Flexibility Score: inf
ROOT
ATOM      1  C   UNL A   1      33.932  32.928  27.824  1.00  0.00     0.002 C 
ENDROOT
BRANCH   1   2
ATOM      2  C   UNL A   1      34.123  31.425  28.107  1.00  0.00     0.021 C 
BRANCH   2   3
ATOM      3  C   UNL A   1      34.691  30.332  27.142  1.00  0.00     0.116 C 
BRANCH   3   4
ATOM      4  N   UNL A   1      34.096  28.997  27.074  1.00  0.00    -0.354 N 
ATOM      5  C   UNL A   1      33.282  28.330  26.190  1.00  0.00     0.248 C 
ATOM      6  O   UNL A   1      33.087  27.134  26.464  1.00  0.00    -0.272 OA
ATOM      7  H   UNL A   1      34.337  28.443  27.851  1.00  0.00     0.163 HD
BRANCH   5   8
ATOM      8  C   UNL A   1      32.724  28.875  24.826  1.00  0.00     0.230 C 
ATOM      9  N   UNL A   1      32.335  28.022  23.640  1.00  0.00    -0.315 N 
ATOM     10  C   UNL A   1      31.263  28.563  22.793  1.00  0.00     0.182 C 
ATOM     11  C   UNL A   1      30.123  29.196  23.584  1.00  0.00     0.282 C 
ATOM     12  C   UNL A   1      31.621  29.888  25.304  1.00  0.00     0.296 C 
ATOM     13  N   UNL A   1      30.614  30.350  24.339  1.00  0.00    -0.343 N 
ATOM     14  H   UNL A   1      29.840  30.790  24.836  1.00  0.00     0.346 HD
ATOM     15  H   UNL A   1      31.030  31.030  23.703  1.00  0.00     0.346 HD
BRANCH   9  16
ATOM     16  C   UNL A   1      33.320  27.313  22.865  1.00  0.00     0.265 C 
ATOM     17  O   UNL A   1      33.998  27.905  22.026  1.00  0.00    -0.268 OA
BRANCH  16  18
ATOM     18  C   UNL A   1      33.398  25.875  23.047  1.00  0.00     0.093 A 
ATOM     19  C   UNL A   1      35.711  23.029  23.357  1.00  0.00     0.046 C 
ATOM     20  C   UNL A   1      34.460  23.843  23.351  1.00  0.00    -0.025 A 
ATOM     21  C   UNL A   1      34.358  25.194  23.746  1.00  0.00     0.030 A 
ATOM     22  C   UNL A   1      33.165  23.442  23.134  1.00  0.00     0.074 A 
ATOM     23  S   UNL A   1      32.167  24.748  22.650  1.00  0.00    -0.123 S 
ATOM     24  Br  UNL A   1      32.576  21.683  23.369  1.00  0.00    -0.039 Br
ENDBRANCH  16  18
ENDBRANCH   9  16
ENDBRANCH   5   8
ENDBRANCH   3   4
ENDBRANCH   2   3
ENDBRANCH   1   2
BRANCH   1  25
ATOM     25  C   UNL A   1      34.937  33.981  28.290  1.00  0.00     0.002 C 
BRANCH  25  26
ATOM     26  C   UNL A   1      34.334  35.296  28.791  1.00  0.00     0.021 C 
BRANCH  26  27
ATOM     27  C   UNL A   1      32.983  35.185  29.506  1.00  0.00     0.116 C 
BRANCH  27  28
ATOM     28  N   UNL A   1      32.965  35.816  30.821  1.00  0.00    -0.352 N 
ATOM     29  C   UNL A   1      33.478  35.309  31.999  1.00  0.00     0.251 C 
ATOM     30  H   UNL A   1      32.540  36.702  30.874  1.00  0.00     0.163 HD
ATOM     31  O   UNL A   1      33.001  35.620  33.078  1.00  0.00    -0.269 OA
BRANCH  29  32
ATOM     32  C   UNL A   1      34.644  34.408  31.946  1.00  0.00     0.039 A 
ATOM     33  C   UNL A   1      34.471  33.032  31.802  1.00  0.00     0.014 A 
ATOM     34  C   UNL A   1      35.921  34.952  32.108  1.00  0.00     0.014 A 
ATOM     35  C   UNL A   1      35.597  32.218  31.772  1.00  0.00     0.010 A 
ATOM     36  C   UNL A   1      37.045  34.156  31.998  1.00  0.00     0.010 A 
ATOM     37  C   UNL A   1      36.885  32.785  31.856  1.00  0.00    -0.014 A 
BRANCH  37  38
ATOM     38  C   UNL A   1      38.043  31.920  31.649  1.00  0.00     0.031 A 
ATOM     39  C   UNL A   1      38.777  31.606  32.905  1.00  0.00     0.074 A 
ATOM     40  C   UNL A   1      38.409  31.355  30.480  1.00  0.00     0.049 A 
ATOM     41  N   UNL A   1      39.931  32.064  33.256  1.00  0.00    -0.248 NA
ATOM     42  C   UNL A   1      38.092  30.843  33.959  1.00  0.00     0.031 C 
ATOM     43  C   UNL A   1      37.688  31.301  29.209  1.00  0.00     0.029 A 
ATOM     44  N   UNL A   1      39.541  30.643  30.212  1.00  0.00    -0.354 N 
ATOM     45  C   UNL A   1      40.208  31.520  34.503  1.00  0.00     0.074 A 
ATOM     46  C   UNL A   1      38.986  30.901  34.950  1.00  0.00     0.031 C 
ATOM     47  C   UNL A   1      38.296  30.417  28.381  1.00  0.00     0.029 A 
ATOM     48  C   UNL A   1      39.532  29.968  28.999  1.00  0.00     0.049 A 
ATOM     49  H   UNL A   1      40.305  30.610  30.832  1.00  0.00     0.167 HD
ATOM     50  C   UNL A   1      41.491  31.449  34.952  1.00  0.00     0.037 A 
ATOM     51  C   UNL A   1      40.467  29.088  28.554  1.00  0.00     0.037 A 
ATOM     52  C   UNL A   1      42.342  32.353  34.214  1.00  0.00     0.049 A 
ATOM     53  C   UNL A   1      41.723  29.354  29.304  1.00  0.00     0.074 A 
ATOM     54  C   UNL A   1      42.348  33.721  34.007  1.00  0.00     0.029 A 
ATOM     55  N   UNL A   1      43.134  31.832  33.220  1.00  0.00    -0.354 N 
ATOM     56  N   UNL A   1      42.440  30.431  29.148  1.00  0.00    -0.248 NA
ATOM     57  C   UNL A   1      41.913  28.654  30.566  1.00  0.00     0.031 C 
ATOM     58  C   UNL A   1      42.696  33.884  32.632  1.00  0.00     0.029 A 
ATOM     59  C   UNL A   1      42.964  32.619  32.109  1.00  0.00     0.049 A 
ATOM     60  H   UNL A   1      43.715  31.040  33.291  1.00  0.00     0.167 HD
ATOM     61  C   UNL A   1      42.799  30.798  30.435  1.00  0.00     0.074 A 
ATOM     62  C   UNL A   1      42.513  29.625  31.261  1.00  0.00     0.031 C 
ATOM     63  C   UNL A   1      43.017  32.106  30.762  1.00  0.00     0.037 A 
BRANCH  50  64
ATOM     64  C   UNL A   1      42.051  30.302  35.759  1.00  0.00     0.064 A 
ATOM     65  C   UNL A   1      42.971  30.582  36.790  1.00  0.00     0.173 A 
ATOM     66  C   UNL A   1      41.986  28.950  35.356  1.00  0.00     0.173 A 
ATOM     67  F   UNL A   1      43.114  31.832  37.259  1.00  0.00    -0.203 F 
ATOM     68  C   UNL A   1      43.843  29.610  37.287  1.00  0.00     0.198 A 
ATOM     69  C   UNL A   1      42.825  27.973  35.889  1.00  0.00     0.198 A 
ATOM     70  F   UNL A   1      41.200  28.535  34.358  1.00  0.00    -0.203 F 
ATOM     71  F   UNL A   1      44.799  29.959  38.159  1.00  0.00    -0.200 F 
ATOM     72  C   UNL A   1      43.779  28.310  36.825  1.00  0.00     0.200 A 
ATOM     73  F   UNL A   1      42.755  26.721  35.418  1.00  0.00    -0.200 F 
ATOM     74  F   UNL A   1      44.663  27.394  37.241  1.00  0.00    -0.200 F 
ENDBRANCH  50  64
BRANCH  51  75
ATOM     75  C   UNL A   1      40.270  27.844  27.769  1.00  0.00     0.064 A 
ATOM     76  C   UNL A   1      41.021  27.586  26.608  1.00  0.00     0.173 A 
ATOM     77  C   UNL A   1      39.564  26.753  28.310  1.00  0.00     0.173 A 
ATOM     78  F   UNL A   1      41.764  28.556  26.055  1.00  0.00    -0.203 F 
ATOM     79  C   UNL A   1      41.084  26.307  26.043  1.00  0.00     0.198 A 
ATOM     80  C   UNL A   1      39.625  25.478  27.742  1.00  0.00     0.198 A 
ATOM     81  F   UNL A   1      38.883  26.877  29.459  1.00  0.00    -0.203 F 
ATOM     82  F   UNL A   1      41.866  26.084  24.976  1.00  0.00    -0.200 F 
ATOM     83  C   UNL A   1      40.396  25.253  26.618  1.00  0.00     0.200 A 
ATOM     84  F   UNL A   1      38.990  24.458  28.336  1.00  0.00    -0.200 F 
ATOM     85  F   UNL A   1      40.512  24.013  26.119  1.00  0.00    -0.200 F 
ENDBRANCH  51  75
BRANCH  63  86
ATOM     86  C   UNL A   1      43.112  33.107  29.643  1.00  0.00     0.064 A 
ATOM     87  C   UNL A   1      42.067  33.961  29.246  1.00  0.00     0.173 A 
ATOM     88  C   UNL A   1      44.355  33.284  29.020  1.00  0.00     0.173 A 
ATOM     89  F   UNL A   1      40.880  33.939  29.864  1.00  0.00    -0.203 F 
ATOM     90  C   UNL A   1      42.245  34.899  28.228  1.00  0.00     0.198 A 
ATOM     91  C   UNL A   1      44.541  34.250  28.035  1.00  0.00     0.198 A 
ATOM     92  F   UNL A   1      45.407  32.541  29.395  1.00  0.00    -0.203 F 
ATOM     93  F   UNL A   1      41.224  35.682  27.849  1.00  0.00    -0.200 F 
ATOM     94  C   UNL A   1      43.484  35.045  27.627  1.00  0.00     0.200 A 
ATOM     95  F   UNL A   1      45.755  34.422  27.494  1.00  0.00    -0.200 F 
ATOM     96  F   UNL A   1      43.665  35.967  26.671  1.00  0.00    -0.200 F 
ENDBRANCH  63  86
ENDBRANCH  37  38
ENDBRANCH  29  32
ENDBRANCH  27  28
ENDBRANCH  26  27
ENDBRANCH  25  26
ENDBRANCH   1  25
TORSDOF 15
ENDMDL
