MODEL 1
REMARK VINA RESULT:     -12.1      0.000      0.000
REMARK SMILES O=C(NCCCCCCNC(=O)c1ccc(C(F)(F)F)nc1NC[C@@H]1CCOC1)c1ccc(-c2c3nc(c(-c4c(F)c(F)c(F)c(F)c4F)c4ccc([nH]4)c(-c4c(F)c(F)c(F)c(F)c4F)c4nc(c(-c5c(F)c(F)c(F)c(F)c5F)c5ccc2[nH]5)C=C4)C=C3)cc1
REMARK SMILES IDX 7 1 6 2 5 3 4 4 3 5 1 6 2 7 30 9 31 10 92 11 32 12 91 13
REMARK SMILES IDX 33 14 34 15 35 16 85 17 36 18 90 19 84 20 86 21 37 22 89 23
REMARK SMILES IDX 83 24 82 25 38 27 70 28 50 29 69 30 51 31 54 32 68 33 87 34
REMARK SMILES IDX 52 35 53 36 67 38 88 39 55 40 39 41 40 42 48 43 41 44 42 45
REMARK SMILES IDX 46 46 49 47 43 48 44 49 47 50 45 51 71 52 72 53 80 54 73 55
REMARK SMILES IDX 74 56 78 57 81 58 75 59 76 60 79 61 77 62 56 63 57 64 65 65
REMARK SMILES IDX 58 66 59 67 63 68 66 69 60 70 61 71 64 72 62 73 8 74 9 75
REMARK SMILES IDX 10 76 11 77 12 79 13 80 14 81 22 82 15 83 21 84 16 85 23 86
REMARK SMILES IDX 24 88 25 89 26 90 29 91 27 92 28 93 17 94 18 95 19 96 20 97
REMARK H PARENT 3 8 86 26 54 37 10 78 23 87
REMARK Flexibility Score: inf
ROOT
ATOM      1  C   UNL A   1      32.542  29.764  26.944  1.00  0.00     0.002 C 
ENDROOT
BRANCH   1   2
ATOM      2  C   UNL A   1      31.645  30.623  26.045  1.00  0.00     0.002 C 
BRANCH   2   3
ATOM      3  C   UNL A   1      31.400  32.044  26.551  1.00  0.00     0.021 C 
BRANCH   3   4
ATOM      4  C   UNL A   1      32.577  32.655  27.294  1.00  0.00     0.116 C 
BRANCH   4   5
ATOM      5  N   UNL A   1      32.353  34.054  27.618  1.00  0.00    -0.352 N 
ATOM      6  O   UNL A   1      32.535  35.928  28.868  1.00  0.00    -0.269 OA
ATOM      7  C   UNL A   1      32.964  34.814  28.581  1.00  0.00     0.251 C 
ATOM      8  H   UNL A   1      31.673  34.515  27.075  1.00  0.00     0.163 HD
BRANCH   7   9
ATOM      9  C   UNL A   1      34.147  34.274  29.281  1.00  0.00     0.039 A 
ATOM     10  C   UNL A   1      33.990  33.534  30.457  1.00  0.00     0.014 A 
ATOM     11  C   UNL A   1      35.419  34.493  28.748  1.00  0.00     0.014 A 
ATOM     12  C   UNL A   1      35.109  33.101  31.156  1.00  0.00     0.010 A 
ATOM     13  C   UNL A   1      36.539  33.980  29.404  1.00  0.00     0.010 A 
ATOM     14  C   UNL A   1      36.391  33.280  30.613  1.00  0.00    -0.014 A 
BRANCH  14  15
ATOM     15  C   UNL A   1      37.544  32.596  31.244  1.00  0.00     0.031 A 
ATOM     16  C   UNL A   1      38.236  31.446  30.576  1.00  0.00     0.074 A 
ATOM     17  C   UNL A   1      37.940  33.026  32.459  1.00  0.00     0.049 A 
ATOM     18  N   UNL A   1      39.225  30.714  31.024  1.00  0.00    -0.248 NA
ATOM     19  C   UNL A   1      37.761  31.059  29.240  1.00  0.00     0.031 C 
ATOM     20  C   UNL A   1      37.320  34.127  33.203  1.00  0.00     0.029 A 
ATOM     21  N   UNL A   1      38.946  32.597  33.285  1.00  0.00    -0.354 N 
ATOM     22  C   UNL A   1      39.475  29.768  30.040  1.00  0.00     0.074 A 
ATOM     23  C   UNL A   1      38.529  30.010  28.971  1.00  0.00     0.031 C 
ATOM     24  C   UNL A   1      37.967  34.297  34.363  1.00  0.00     0.029 A 
ATOM     25  C   UNL A   1      38.996  33.273  34.480  1.00  0.00     0.049 A 
ATOM     26  H   UNL A   1      39.571  31.875  33.045  1.00  0.00     0.167 HD
ATOM     27  C   UNL A   1      40.413  28.790  30.040  1.00  0.00     0.037 A 
ATOM     28  C   UNL A   1      39.753  33.061  35.571  1.00  0.00     0.037 A 
ATOM     29  C   UNL A   1      41.359  28.577  31.106  1.00  0.00     0.049 A 
ATOM     30  C   UNL A   1      40.750  31.939  35.551  1.00  0.00     0.074 A 
ATOM     31  C   UNL A   1      42.402  27.669  31.161  1.00  0.00     0.029 A 
ATOM     32  N   UNL A   1      41.366  29.266  32.310  1.00  0.00    -0.354 N 
ATOM     33  N   UNL A   1      41.035  31.105  34.580  1.00  0.00    -0.248 NA
ATOM     34  C   UNL A   1      41.526  31.721  36.778  1.00  0.00     0.031 C 
ATOM     35  C   UNL A   1      42.993  27.757  32.425  1.00  0.00     0.029 A 
ATOM     36  C   UNL A   1      42.362  28.764  33.135  1.00  0.00     0.049 A 
ATOM     37  H   UNL A   1      40.757  30.002  32.544  1.00  0.00     0.167 HD
ATOM     38  C   UNL A   1      42.028  30.273  35.074  1.00  0.00     0.074 A 
ATOM     39  C   UNL A   1      42.320  30.722  36.419  1.00  0.00     0.031 C 
ATOM     40  C   UNL A   1      42.635  29.222  34.472  1.00  0.00     0.037 A 
BRANCH  27  41
ATOM     41  C   UNL A   1      40.465  27.846  28.874  1.00  0.00     0.064 A 
ATOM     42  C   UNL A   1      39.678  26.688  28.821  1.00  0.00     0.173 A 
ATOM     43  C   UNL A   1      41.231  28.172  27.743  1.00  0.00     0.173 A 
ATOM     44  F   UNL A   1      38.932  26.329  29.876  1.00  0.00    -0.203 F 
ATOM     45  C   UNL A   1      39.659  25.887  27.681  1.00  0.00     0.198 A 
ATOM     46  C   UNL A   1      41.189  27.384  26.595  1.00  0.00     0.198 A 
ATOM     47  F   UNL A   1      41.995  29.275  27.738  1.00  0.00    -0.203 F 
ATOM     48  F   UNL A   1      38.913  24.774  27.658  1.00  0.00    -0.200 F 
ATOM     49  C   UNL A   1      40.405  26.243  26.565  1.00  0.00     0.200 A 
ATOM     50  F   UNL A   1      41.898  27.739  25.515  1.00  0.00    -0.200 F 
ATOM     51  F   UNL A   1      40.364  25.484  25.461  1.00  0.00    -0.200 F 
ENDBRANCH  27  41
BRANCH  28  52
ATOM     52  C   UNL A   1      39.554  33.891  36.789  1.00  0.00     0.064 A 
ATOM     53  C   UNL A   1      38.763  33.439  37.854  1.00  0.00     0.173 A 
ATOM     54  C   UNL A   1      40.131  35.166  36.901  1.00  0.00     0.173 A 
ATOM     55  F   UNL A   1      38.177  32.236  37.789  1.00  0.00    -0.203 F 
ATOM     56  C   UNL A   1      38.529  34.245  38.967  1.00  0.00     0.198 A 
ATOM     57  C   UNL A   1      39.929  35.953  38.031  1.00  0.00     0.198 A 
ATOM     58  F   UNL A   1      40.903  35.644  35.914  1.00  0.00    -0.203 F 
ATOM     59  F   UNL A   1      37.715  33.815  39.940  1.00  0.00    -0.200 F 
ATOM     60  C   UNL A   1      39.116  35.499  39.056  1.00  0.00     0.200 A 
ATOM     61  F   UNL A   1      40.515  37.155  38.121  1.00  0.00    -0.200 F 
ATOM     62  F   UNL A   1      38.886  36.273  40.126  1.00  0.00    -0.200 F 
ENDBRANCH  28  52
BRANCH  40  63
ATOM     63  C   UNL A   1      43.682  28.493  35.263  1.00  0.00     0.064 A 
ATOM     64  C   UNL A   1      43.345  27.437  36.122  1.00  0.00     0.173 A 
ATOM     65  C   UNL A   1      45.038  28.825  35.127  1.00  0.00     0.173 A 
ATOM     66  F   UNL A   1      42.060  27.096  36.301  1.00  0.00    -0.203 F 
ATOM     67  C   UNL A   1      44.327  26.753  36.832  1.00  0.00     0.198 A 
ATOM     68  C   UNL A   1      46.020  28.116  35.813  1.00  0.00     0.198 A 
ATOM     69  F   UNL A   1      45.412  29.825  34.315  1.00  0.00    -0.203 F 
ATOM     70  F   UNL A   1      43.978  25.779  37.684  1.00  0.00    -0.200 F 
ATOM     71  C   UNL A   1      45.663  27.086  36.669  1.00  0.00     0.200 A 
ATOM     72  F   UNL A   1      47.311  28.429  35.642  1.00  0.00    -0.200 F 
ATOM     73  F   UNL A   1      46.608  26.416  37.343  1.00  0.00    -0.200 F 
ENDBRANCH  40  63
ENDBRANCH  14  15
ENDBRANCH   7   9
ENDBRANCH   4   5
ENDBRANCH   3   4
ENDBRANCH   2   3
ENDBRANCH   1   2
BRANCH   1  74
ATOM     74  C   UNL A   1      33.560  28.888  26.206  1.00  0.00     0.021 C 
BRANCH  74  75
ATOM     75  C   UNL A   1      33.145  27.427  26.045  1.00  0.00     0.116 C 
BRANCH  75  76
ATOM     76  N   UNL A   1      33.627  26.878  24.791  1.00  0.00    -0.352 N 
ATOM     77  C   UNL A   1      32.940  26.688  23.622  1.00  0.00     0.255 C 
ATOM     78  H   UNL A   1      34.572  26.605  24.781  1.00  0.00     0.163 HD
ATOM     79  O   UNL A   1      33.397  25.933  22.767  1.00  0.00    -0.269 OA
BRANCH  77  80
ATOM     80  C   UNL A   1      31.654  27.380  23.400  1.00  0.00     0.082 A 
ATOM     81  C   UNL A   1      31.653  28.674  22.871  1.00  0.00     0.020 A 
ATOM     82  C   UNL A   1      30.440  26.729  23.655  1.00  0.00     0.139 A 
ATOM     83  C   UNL A   1      30.445  29.330  22.690  1.00  0.00     0.034 A 
ATOM     84  N   UNL A   1      29.265  27.377  23.482  1.00  0.00    -0.226 NA
ATOM     85  C   UNL A   1      29.265  28.666  23.021  1.00  0.00     0.146 A 
BRANCH  82  86
ATOM     86  N   UNL A   1      30.424  25.441  24.158  1.00  0.00    -0.369 N 
ATOM     87  H   UNL A   1      30.519  24.692  23.526  1.00  0.00     0.162 HD
BRANCH  86  88
ATOM     88  C   UNL A   1      30.276  25.135  25.565  1.00  0.00     0.120 C 
BRANCH  88  89
ATOM     89  C   UNL A   1      30.822  23.752  25.974  1.00  0.00     0.036 C 
ATOM     90  C   UNL A   1      32.030  23.731  26.892  1.00  0.00     0.036 C 
ATOM     91  C   UNL A   1      31.311  22.923  24.794  1.00  0.00     0.165 C 
ATOM     92  C   UNL A   1      33.202  23.653  25.937  1.00  0.00     0.160 C 
ATOM     93  O   UNL A   1      32.742  22.967  24.768  1.00  0.00    -0.381 OA
ENDBRANCH  88  89
ENDBRANCH  86  88
ENDBRANCH  82  86
BRANCH  85  94
ATOM     94  C   UNL A   1      27.934  29.393  22.872  1.00  0.00     0.433 C 
ATOM     95  F   UNL A   1      26.867  28.656  23.290  1.00  0.00    -0.165 F 
ATOM     96  F   UNL A   1      27.882  30.567  23.564  1.00  0.00    -0.165 F 
ATOM     97  F   UNL A   1      27.655  29.732  21.576  1.00  0.00    -0.165 F 
ENDBRANCH  85  94
ENDBRANCH  77  80
ENDBRANCH  75  76
ENDBRANCH  74  75
ENDBRANCH   1  74
TORSDOF 17
ENDMDL
MODEL 2
REMARK VINA RESULT:     -11.9      5.883     11.296
REMARK SMILES O=C(NCCCCCCNC(=O)c1ccc(C(F)(F)F)nc1NC[C@@H]1CCOC1)c1ccc(-c2c3nc(c(-c4c(F)c(F)c(F)c(F)c4F)c4ccc([nH]4)c(-c4c(F)c(F)c(F)c(F)c4F)c4nc(c(-c5c(F)c(F)c(F)c(F)c5F)c5ccc2[nH]5)C=C4)C=C3)cc1
REMARK SMILES IDX 7 1 6 2 5 3 4 4 3 5 1 6 2 7 30 9 31 10 92 11 32 12 91 13
REMARK SMILES IDX 33 14 34 15 35 16 85 17 36 18 90 19 84 20 86 21 37 22 89 23
REMARK SMILES IDX 83 24 82 25 38 27 70 28 50 29 69 30 51 31 54 32 68 33 87 34
REMARK SMILES IDX 52 35 53 36 67 38 88 39 55 40 39 41 40 42 48 43 41 44 42 45
REMARK SMILES IDX 46 46 49 47 43 48 44 49 47 50 45 51 71 52 72 53 80 54 73 55
REMARK SMILES IDX 74 56 78 57 81 58 75 59 76 60 79 61 77 62 56 63 57 64 65 65
REMARK SMILES IDX 58 66 59 67 63 68 66 69 60 70 61 71 64 72 62 73 8 74 9 75
REMARK SMILES IDX 10 76 11 77 12 79 13 80 14 81 22 82 15 83 21 84 16 85 23 86
REMARK SMILES IDX 24 88 25 89 26 90 29 91 27 92 28 93 17 94 18 95 19 96 20 97
REMARK H PARENT 3 8 86 26 54 37 10 78 23 87
REMARK Flexibility Score: inf
ROOT
ATOM      1  C   UNL A   1      37.151  22.167  24.578  1.00  0.00     0.002 C 
ENDROOT
BRANCH   1   2
ATOM      2  C   UNL A   1      36.825  20.727  24.992  1.00  0.00     0.002 C 
BRANCH   2   3
ATOM      3  C   UNL A   1      38.011  19.764  24.957  1.00  0.00     0.021 C 
BRANCH   3   4
ATOM      4  C   UNL A   1      39.203  20.211  25.788  1.00  0.00     0.116 C 
BRANCH   4   5
ATOM      5  N   UNL A   1      40.208  19.168  25.907  1.00  0.00    -0.352 N 
ATOM      6  O   UNL A   1      42.309  18.337  25.980  1.00  0.00    -0.269 OA
ATOM      7  C   UNL A   1      41.560  19.304  26.091  1.00  0.00     0.251 C 
ATOM      8  H   UNL A   1      39.875  18.244  25.849  1.00  0.00     0.163 HD
BRANCH   7   9
ATOM      9  C   UNL A   1      42.112  20.634  26.418  1.00  0.00     0.039 A 
ATOM     10  C   UNL A   1      42.442  21.529  25.394  1.00  0.00     0.014 A 
ATOM     11  C   UNL A   1      42.283  20.996  27.756  1.00  0.00     0.014 A 
ATOM     12  C   UNL A   1      43.037  22.744  25.704  1.00  0.00     0.010 A 
ATOM     13  C   UNL A   1      42.800  22.255  28.068  1.00  0.00     0.010 A 
ATOM     14  C   UNL A   1      43.181  23.137  27.044  1.00  0.00    -0.014 A 
BRANCH  14  15
ATOM     15  C   UNL A   1      43.584  24.530  27.347  1.00  0.00     0.031 A 
ATOM     16  C   UNL A   1      42.600  25.539  27.856  1.00  0.00     0.074 A 
ATOM     17  C   UNL A   1      44.869  24.873  27.127  1.00  0.00     0.049 A 
ATOM     18  N   UNL A   1      42.789  26.808  28.120  1.00  0.00    -0.248 NA
ATOM     19  C   UNL A   1      41.225  25.077  28.097  1.00  0.00     0.031 C 
ATOM     20  C   UNL A   1      45.903  23.968  26.615  1.00  0.00     0.029 A 
ATOM     21  N   UNL A   1      45.529  26.062  27.298  1.00  0.00    -0.354 N 
ATOM     22  C   UNL A   1      41.560  27.300  28.534  1.00  0.00     0.074 A 
ATOM     23  C   UNL A   1      40.623  26.196  28.480  1.00  0.00     0.031 C 
ATOM     24  C   UNL A   1      47.066  24.627  26.529  1.00  0.00     0.029 A 
ATOM     25  C   UNL A   1      46.845  26.017  26.907  1.00  0.00     0.049 A 
ATOM     26  H   UNL A   1      45.101  26.870  27.664  1.00  0.00     0.167 HD
ATOM     27  C   UNL A   1      41.251  28.561  28.921  1.00  0.00     0.037 A 
ATOM     28  C   UNL A   1      47.762  26.996  26.813  1.00  0.00     0.037 A 
ATOM     29  C   UNL A   1      42.203  29.641  28.986  1.00  0.00     0.049 A 
ATOM     30  C   UNL A   1      47.370  28.391  27.209  1.00  0.00     0.074 A 
ATOM     31  C   UNL A   1      42.008  30.932  29.448  1.00  0.00     0.029 A 
ATOM     32  N   UNL A   1      43.521  29.566  28.562  1.00  0.00    -0.354 N 
ATOM     33  N   UNL A   1      46.227  28.825  27.680  1.00  0.00    -0.248 NA
ATOM     34  C   UNL A   1      48.392  29.434  27.055  1.00  0.00     0.031 C 
ATOM     35  C   UNL A   1      43.183  31.656  29.234  1.00  0.00     0.029 A 
ATOM     36  C   UNL A   1      44.133  30.802  28.700  1.00  0.00     0.049 A 
ATOM     37  H   UNL A   1      43.957  28.755  28.215  1.00  0.00     0.167 HD
ATOM     38  C   UNL A   1      46.393  30.186  27.887  1.00  0.00     0.074 A 
ATOM     39  C   UNL A   1      47.759  30.500  27.522  1.00  0.00     0.031 C 
ATOM     40  C   UNL A   1      45.493  31.096  28.329  1.00  0.00     0.037 A 
BRANCH  27  41
ATOM     41  C   UNL A   1      39.829  28.872  29.285  1.00  0.00     0.064 A 
ATOM     42  C   UNL A   1      38.887  29.268  28.324  1.00  0.00     0.173 A 
ATOM     43  C   UNL A   1      39.378  28.658  30.597  1.00  0.00     0.173 A 
ATOM     44  F   UNL A   1      39.267  29.491  27.057  1.00  0.00    -0.203 F 
ATOM     45  C   UNL A   1      37.548  29.442  28.665  1.00  0.00     0.198 A 
ATOM     46  C   UNL A   1      38.034  28.807  30.929  1.00  0.00     0.198 A 
ATOM     47  F   UNL A   1      40.237  28.270  31.552  1.00  0.00    -0.203 F 
ATOM     48  F   UNL A   1      36.667  29.838  27.736  1.00  0.00    -0.200 F 
ATOM     49  C   UNL A   1      37.121  29.200  29.964  1.00  0.00     0.200 A 
ATOM     50  F   UNL A   1      37.622  28.557  32.179  1.00  0.00    -0.200 F 
ATOM     51  F   UNL A   1      35.827  29.344  30.282  1.00  0.00    -0.200 F 
ENDBRANCH  27  41
BRANCH  28  52
ATOM     52  C   UNL A   1      49.115  26.702  26.271  1.00  0.00     0.064 A 
ATOM     53  C   UNL A   1      49.427  26.944  24.926  1.00  0.00     0.173 A 
ATOM     54  C   UNL A   1      50.118  26.148  27.083  1.00  0.00     0.173 A 
ATOM     55  F   UNL A   1      48.499  27.456  24.106  1.00  0.00    -0.203 F 
ATOM     56  C   UNL A   1      50.676  26.610  24.407  1.00  0.00     0.198 A 
ATOM     57  C   UNL A   1      51.378  25.852  26.572  1.00  0.00     0.198 A 
ATOM     58  F   UNL A   1      49.875  25.904  28.379  1.00  0.00    -0.203 F 
ATOM     59  F   UNL A   1      50.925  26.789  23.103  1.00  0.00    -0.200 F 
ATOM     60  C   UNL A   1      51.652  26.068  25.232  1.00  0.00     0.200 A 
ATOM     61  F   UNL A   1      52.324  25.349  27.378  1.00  0.00    -0.200 F 
ATOM     62  F   UNL A   1      52.851  25.745  24.730  1.00  0.00    -0.200 F 
ENDBRANCH  28  52
BRANCH  40  63
ATOM     63  C   UNL A   1      45.961  32.517  28.449  1.00  0.00     0.064 A 
ATOM     64  C   UNL A   1      45.791  33.433  27.400  1.00  0.00     0.173 A 
ATOM     65  C   UNL A   1      46.545  32.978  29.638  1.00  0.00     0.173 A 
ATOM     66  F   UNL A   1      45.256  33.036  26.236  1.00  0.00    -0.203 F 
ATOM     67  C   UNL A   1      46.207  34.755  27.532  1.00  0.00     0.198 A 
ATOM     68  C   UNL A   1      46.929  34.308  29.777  1.00  0.00     0.198 A 
ATOM     69  F   UNL A   1      46.727  32.141  30.671  1.00  0.00    -0.203 F 
ATOM     70  F   UNL A   1      46.078  35.601  26.500  1.00  0.00    -0.200 F 
ATOM     71  C   UNL A   1      46.765  35.193  28.723  1.00  0.00     0.200 A 
ATOM     72  F   UNL A   1      47.454  34.734  30.934  1.00  0.00    -0.200 F 
ATOM     73  F   UNL A   1      47.153  36.470  28.853  1.00  0.00    -0.200 F 
ENDBRANCH  40  63
ENDBRANCH  14  15
ENDBRANCH   7   9
ENDBRANCH   4   5
ENDBRANCH   3   4
ENDBRANCH   2   3
ENDBRANCH   1   2
BRANCH   1  74
ATOM     74  C   UNL A   1      36.584  23.255  25.496  1.00  0.00     0.021 C 
BRANCH  74  75
ATOM     75  C   UNL A   1      35.515  24.137  24.853  1.00  0.00     0.116 C 
BRANCH  75  76
ATOM     76  N   UNL A   1      34.439  24.425  25.783  1.00  0.00    -0.352 N 
ATOM     77  C   UNL A   1      33.245  23.773  25.935  1.00  0.00     0.255 C 
ATOM     78  H   UNL A   1      34.589  25.189  26.384  1.00  0.00     0.163 HD
ATOM     79  O   UNL A   1      32.326  24.324  26.538  1.00  0.00    -0.269 OA
BRANCH  77  80
ATOM     80  C   UNL A   1      33.063  22.421  25.366  1.00  0.00     0.082 A 
ATOM     81  C   UNL A   1      33.431  21.304  26.121  1.00  0.00     0.020 A 
ATOM     82  C   UNL A   1      32.469  22.250  24.108  1.00  0.00     0.139 A 
ATOM     83  C   UNL A   1      33.284  20.038  25.572  1.00  0.00     0.034 A 
ATOM     84  N   UNL A   1      32.335  21.013  23.576  1.00  0.00    -0.226 NA
ATOM     85  C   UNL A   1      32.751  19.921  24.290  1.00  0.00     0.146 A 
BRANCH  82  86
ATOM     86  N   UNL A   1      32.081  23.345  23.359  1.00  0.00    -0.369 N 
ATOM     87  H   UNL A   1      31.217  23.769  23.567  1.00  0.00     0.162 HD
BRANCH  86  88
ATOM     88  C   UNL A   1      32.876  23.901  22.286  1.00  0.00     0.120 C 
BRANCH  88  89
ATOM     89  C   UNL A   1      32.562  25.376  21.962  1.00  0.00     0.036 C 
ATOM     90  C   UNL A   1      33.583  26.411  22.397  1.00  0.00     0.036 C 
ATOM     91  C   UNL A   1      31.294  25.885  22.634  1.00  0.00     0.165 C 
ATOM     92  C   UNL A   1      33.089  26.847  23.761  1.00  0.00     0.160 C 
ATOM     93  O   UNL A   1      31.666  26.691  23.757  1.00  0.00    -0.381 OA
ENDBRANCH  88  89
ENDBRANCH  86  88
ENDBRANCH  82  86
BRANCH  85  94
ATOM     94  C   UNL A   1      32.629  18.540  23.657  1.00  0.00     0.433 C 
ATOM     95  F   UNL A   1      31.822  17.696  24.358  1.00  0.00    -0.165 F 
ATOM     96  F   UNL A   1      32.136  18.573  22.386  1.00  0.00    -0.165 F 
ATOM     97  F   UNL A   1      33.830  17.893  23.556  1.00  0.00    -0.165 F 
ENDBRANCH  85  94
ENDBRANCH  77  80
ENDBRANCH  75  76
ENDBRANCH  74  75
ENDBRANCH   1  74
TORSDOF 17
ENDMDL
MODEL 3
REMARK VINA RESULT:     -11.8      0.532      7.226
REMARK SMILES O=C(NCCCCCCNC(=O)c1ccc(C(F)(F)F)nc1NC[C@@H]1CCOC1)c1ccc(-c2c3nc(c(-c4c(F)c(F)c(F)c(F)c4F)c4ccc([nH]4)c(-c4c(F)c(F)c(F)c(F)c4F)c4nc(c(-c5c(F)c(F)c(F)c(F)c5F)c5ccc2[nH]5)C=C4)C=C3)cc1
REMARK SMILES IDX 7 1 6 2 5 3 4 4 3 5 1 6 2 7 30 9 31 10 92 11 32 12 91 13
REMARK SMILES IDX 33 14 34 15 35 16 85 17 36 18 90 19 84 20 86 21 37 22 89 23
REMARK SMILES IDX 83 24 82 25 38 27 70 28 50 29 69 30 51 31 54 32 68 33 87 34
REMARK SMILES IDX 52 35 53 36 67 38 88 39 55 40 39 41 40 42 48 43 41 44 42 45
REMARK SMILES IDX 46 46 49 47 43 48 44 49 47 50 45 51 71 52 72 53 80 54 73 55
REMARK SMILES IDX 74 56 78 57 81 58 75 59 76 60 79 61 77 62 56 63 57 64 65 65
REMARK SMILES IDX 58 66 59 67 63 68 66 69 60 70 61 71 64 72 62 73 8 74 9 75
REMARK SMILES IDX 10 76 11 77 12 79 13 80 14 81 22 82 15 83 21 84 16 85 23 86
REMARK SMILES IDX 24 88 25 89 26 90 29 91 27 92 28 93 17 94 18 95 19 96 20 97
REMARK H PARENT 3 8 86 26 54 37 10 78 23 87
REMARK Flexibility Score: inf
ROOT
ATOM      1  C   UNL A   1      32.430  29.923  26.955  1.00  0.00     0.002 C 
ENDROOT
BRANCH   1   2
ATOM      2  C   UNL A   1      31.587  30.801  26.025  1.00  0.00     0.002 C 
BRANCH   2   3
ATOM      3  C   UNL A   1      31.383  32.237  26.506  1.00  0.00     0.021 C 
BRANCH   3   4
ATOM      4  C   UNL A   1      32.561  32.811  27.278  1.00  0.00     0.116 C 
BRANCH   4   5
ATOM      5  N   UNL A   1      32.361  34.208  27.623  1.00  0.00    -0.352 N 
ATOM      6  O   UNL A   1      32.532  36.049  28.923  1.00  0.00    -0.269 OA
ATOM      7  C   UNL A   1      32.943  34.929  28.633  1.00  0.00     0.251 C 
ATOM      8  H   UNL A   1      31.724  34.702  27.057  1.00  0.00     0.163 HD
BRANCH   7   9
ATOM      9  C   UNL A   1      34.072  34.339  29.380  1.00  0.00     0.039 A 
ATOM     10  C   UNL A   1      33.843  33.672  30.588  1.00  0.00     0.014 A 
ATOM     11  C   UNL A   1      35.365  34.437  28.860  1.00  0.00     0.014 A 
ATOM     12  C   UNL A   1      34.916  33.193  31.327  1.00  0.00     0.010 A 
ATOM     13  C   UNL A   1      36.434  33.875  29.561  1.00  0.00     0.010 A 
ATOM     14  C   UNL A   1      36.216  33.250  30.800  1.00  0.00    -0.014 A 
BRANCH  14  15
ATOM     15  C   UNL A   1      37.305  32.514  31.484  1.00  0.00     0.031 A 
ATOM     16  C   UNL A   1      37.813  32.936  32.829  1.00  0.00     0.074 A 
ATOM     17  C   UNL A   1      37.847  31.458  30.844  1.00  0.00     0.049 A 
ATOM     18  N   UNL A   1      38.793  32.425  33.533  1.00  0.00    -0.248 NA
ATOM     19  C   UNL A   1      37.148  34.079  33.472  1.00  0.00     0.031 C 
ATOM     20  C   UNL A   1      37.435  30.977  29.521  1.00  0.00     0.029 A 
ATOM     21  N   UNL A   1      38.855  30.602  31.206  1.00  0.00    -0.354 N 
ATOM     22  C   UNL A   1      38.878  33.193  34.685  1.00  0.00     0.074 A 
ATOM     23  C   UNL A   1      37.856  34.215  34.587  1.00  0.00     0.031 C 
ATOM     24  C   UNL A   1      38.169  29.907  29.192  1.00  0.00     0.029 A 
ATOM     25  C   UNL A   1      39.151  29.671  30.241  1.00  0.00     0.049 A 
ATOM     26  H   UNL A   1      39.321  30.652  32.072  1.00  0.00     0.167 HD
ATOM     27  C   UNL A   1      39.736  33.051  35.723  1.00  0.00     0.037 A 
ATOM     28  C   UNL A   1      40.138  28.759  30.183  1.00  0.00     0.037 A 
ATOM     29  C   UNL A   1      40.733  32.014  35.810  1.00  0.00     0.049 A 
ATOM     30  C   UNL A   1      41.098  28.660  31.334  1.00  0.00     0.074 A 
ATOM     31  C   UNL A   1      41.592  31.734  36.860  1.00  0.00     0.029 A 
ATOM     32  N   UNL A   1      41.021  31.102  34.806  1.00  0.00    -0.354 N 
ATOM     33  N   UNL A   1      41.113  29.337  32.455  1.00  0.00    -0.248 NA
ATOM     34  C   UNL A   1      42.181  27.677  31.210  1.00  0.00     0.031 C 
ATOM     35  C   UNL A   1      42.447  30.702  36.462  1.00  0.00     0.029 A 
ATOM     36  C   UNL A   1      42.080  30.294  35.191  1.00  0.00     0.049 A 
ATOM     37  H   UNL A   1      40.543  31.037  33.948  1.00  0.00     0.167 HD
ATOM     38  C   UNL A   1      42.198  28.857  33.174  1.00  0.00     0.074 A 
ATOM     39  C   UNL A   1      42.796  27.807  32.376  1.00  0.00     0.031 C 
ATOM     40  C   UNL A   1      42.664  29.257  34.381  1.00  0.00     0.037 A 
BRANCH  27  41
ATOM     41  C   UNL A   1      39.670  34.040  36.849  1.00  0.00     0.064 A 
ATOM     42  C   UNL A   1      38.880  33.818  37.986  1.00  0.00     0.173 A 
ATOM     43  C   UNL A   1      40.500  35.173  36.837  1.00  0.00     0.173 A 
ATOM     44  F   UNL A   1      38.065  32.755  38.046  1.00  0.00    -0.203 F 
ATOM     45  C   UNL A   1      38.921  34.695  39.068  1.00  0.00     0.198 A 
ATOM     46  C   UNL A   1      40.559  36.033  37.931  1.00  0.00     0.198 A 
ATOM     47  F   UNL A   1      41.282  35.426  35.777  1.00  0.00    -0.203 F 
ATOM     48  F   UNL A   1      38.145  34.474  40.138  1.00  0.00    -0.200 F 
ATOM     49  C   UNL A   1      39.769  35.794  39.044  1.00  0.00     0.200 A 
ATOM     50  F   UNL A   1      41.390  37.083  37.912  1.00  0.00    -0.200 F 
ATOM     51  F   UNL A   1      39.825  36.622  40.097  1.00  0.00    -0.200 F 
ENDBRANCH  27  41
BRANCH  28  52
ATOM     52  C   UNL A   1      40.301  27.912  28.972  1.00  0.00     0.064 A 
ATOM     53  C   UNL A   1      41.081  28.336  27.888  1.00  0.00     0.173 A 
ATOM     54  C   UNL A   1      39.656  26.669  28.863  1.00  0.00     0.173 A 
ATOM     55  F   UNL A   1      41.703  29.523  27.936  1.00  0.00    -0.203 F 
ATOM     56  C   UNL A   1      41.181  27.568  26.730  1.00  0.00     0.198 A 
ATOM     57  C   UNL A   1      39.789  25.885  27.721  1.00  0.00     0.198 A 
ATOM     58  F   UNL A   1      38.903  26.211  29.873  1.00  0.00    -0.203 F 
ATOM     59  F   UNL A   1      41.879  28.029  25.683  1.00  0.00    -0.200 F 
ATOM     60  C   UNL A   1      40.539  26.341  26.649  1.00  0.00     0.200 A 
ATOM     61  F   UNL A   1      39.184  24.690  27.657  1.00  0.00    -0.200 F 
ATOM     62  F   UNL A   1      40.634  25.605  25.533  1.00  0.00    -0.200 F 
ENDBRANCH  28  52
BRANCH  40  63
ATOM     63  C   UNL A   1      43.876  28.550  34.914  1.00  0.00     0.064 A 
ATOM     64  C   UNL A   1      43.761  27.378  35.678  1.00  0.00     0.173 A 
ATOM     65  C   UNL A   1      45.164  29.023  34.623  1.00  0.00     0.173 A 
ATOM     66  F   UNL A   1      42.551  26.898  36.000  1.00  0.00    -0.203 F 
ATOM     67  C   UNL A   1      44.893  26.718  36.147  1.00  0.00     0.198 A 
ATOM     68  C   UNL A   1      46.293  28.341  35.065  1.00  0.00     0.198 A 
ATOM     69  F   UNL A   1      45.326  30.138  33.895  1.00  0.00    -0.203 F 
ATOM     70  F   UNL A   1      44.759  25.628  36.914  1.00  0.00    -0.200 F 
ATOM     71  C   UNL A   1      46.157  27.194  35.831  1.00  0.00     0.200 A 
ATOM     72  F   UNL A   1      47.513  28.793  34.747  1.00  0.00    -0.200 F 
ATOM     73  F   UNL A   1      47.246  26.549  36.272  1.00  0.00    -0.200 F 
ENDBRANCH  40  63
ENDBRANCH  14  15
ENDBRANCH   7   9
ENDBRANCH   4   5
ENDBRANCH   3   4
ENDBRANCH   2   3
ENDBRANCH   1   2
BRANCH   1  74
ATOM     74  C   UNL A   1      33.493  29.065  26.259  1.00  0.00     0.021 C 
BRANCH  74  75
ATOM     75  C   UNL A   1      33.143  27.582  26.152  1.00  0.00     0.116 C 
BRANCH  75  76
ATOM     76  N   UNL A   1      33.670  27.003  24.930  1.00  0.00    -0.352 N 
ATOM     77  C   UNL A   1      33.021  26.768  23.748  1.00  0.00     0.255 C 
ATOM     78  H   UNL A   1      34.619  26.746  24.956  1.00  0.00     0.163 HD
ATOM     79  O   UNL A   1      33.514  25.996  22.929  1.00  0.00    -0.269 OA
BRANCH  77  80
ATOM     80  C   UNL A   1      31.731  27.433  23.468  1.00  0.00     0.082 A 
ATOM     81  C   UNL A   1      31.727  28.700  22.877  1.00  0.00     0.020 A 
ATOM     82  C   UNL A   1      30.520  26.780  23.731  1.00  0.00     0.139 A 
ATOM     83  C   UNL A   1      30.515  29.332  22.641  1.00  0.00     0.034 A 
ATOM     84  N   UNL A   1      29.341  27.405  23.505  1.00  0.00    -0.226 NA
ATOM     85  C   UNL A   1      29.336  28.670  22.982  1.00  0.00     0.146 A 
BRANCH  82  86
ATOM     86  N   UNL A   1      30.509  25.518  24.296  1.00  0.00    -0.369 N 
ATOM     87  H   UNL A   1      30.731  24.749  23.723  1.00  0.00     0.162 HD
BRANCH  86  88
ATOM     88  C   UNL A   1      30.190  25.268  25.685  1.00  0.00     0.120 C 
BRANCH  88  89
ATOM     89  C   UNL A   1      31.096  24.222  26.365  1.00  0.00     0.036 C 
ATOM     90  C   UNL A   1      32.242  23.662  25.542  1.00  0.00     0.036 C 
ATOM     91  C   UNL A   1      30.356  22.955  26.772  1.00  0.00     0.165 C 
ATOM     92  C   UNL A   1      31.656  22.411  24.921  1.00  0.00     0.160 C 
ATOM     93  O   UNL A   1      30.659  21.925  25.825  1.00  0.00    -0.381 OA
ENDBRANCH  88  89
ENDBRANCH  86  88
ENDBRANCH  82  86
BRANCH  85  94
ATOM     94  C   UNL A   1      28.000  29.373  22.772  1.00  0.00     0.433 C 
ATOM     95  F   UNL A   1      27.854  30.492  23.535  1.00  0.00    -0.165 F 
ATOM     96  F   UNL A   1      27.793  29.760  21.481  1.00  0.00    -0.165 F 
ATOM     97  F   UNL A   1      26.928  28.582  23.082  1.00  0.00    -0.165 F 
ENDBRANCH  85  94
ENDBRANCH  77  80
ENDBRANCH  75  76
ENDBRANCH  74  75
ENDBRANCH   1  74
TORSDOF 17
ENDMDL
