MODEL 1
REMARK VINA RESULT:     -12.3      0.000      0.000
REMARK SMILES Cc1cc(C)cc(-c2cccc(Cl)c2C(=O)NCCCCCCNC(=O)c2ccc(-c3c4nc(c(-c5c(F)c(F)c(F)c(F)c5F)c5ccc([nH]5)c(-c5c(F)c(F)c(F)c(F)c5F)c5nc(c(-c6c(F)c(F)c(F)c(F)c6F)c6ccc3[nH]6)C=C5)C=C4)cc2)c1
REMARK SMILES IDX 21 1 20 2 19 3 18 4 17 5 15 6 16 7 14 9 8 10 9 11 10 12
REMARK SMILES IDX 12 13 11 14 13 15 7 16 1 17 2 18 3 19 90 20 4 21 5 22 6 23
REMARK SMILES IDX 22 24 23 25 24 26 25 27 26 29 27 30 28 31 89 32 29 33 88 34
REMARK SMILES IDX 30 35 31 36 32 37 82 38 33 39 87 40 81 41 83 42 34 43 86 44
REMARK SMILES IDX 80 45 79 46 35 48 67 49 47 50 66 51 48 52 51 53 65 54 84 55
REMARK SMILES IDX 49 56 50 57 64 59 85 60 52 61 36 62 37 63 45 64 38 65 39 66
REMARK SMILES IDX 43 67 46 68 40 69 41 70 44 71 42 72 68 73 69 74 77 75 70 76
REMARK SMILES IDX 71 77 75 78 78 79 72 80 73 81 76 82 74 83 53 84 54 85 62 86
REMARK SMILES IDX 55 87 56 88 60 89 63 90 57 91 58 92 61 93 59 94
REMARK H PARENT 17 8 24 28 83 47 51 58
REMARK Flexibility Score: inf
ROOT
ATOM      1  C   UNL A   1      32.103  27.870  27.244  1.00  0.00     0.002 C 
ENDROOT
BRANCH   1   2
ATOM      2  C   UNL A   1      32.446  26.607  26.446  1.00  0.00     0.002 C 
BRANCH   2   3
ATOM      3  C   UNL A   1      33.694  26.644  25.557  1.00  0.00     0.021 C 
BRANCH   3   4
ATOM      4  C   UNL A   1      33.477  26.639  24.045  1.00  0.00     0.116 C 
BRANCH   4   5
ATOM      5  N   UNL A   1      34.037  25.507  23.331  1.00  0.00    -0.352 N 
ATOM      6  C   UNL A   1      33.727  24.160  23.405  1.00  0.00     0.253 C 
ATOM      7  O   UNL A   1      34.114  23.433  22.493  1.00  0.00    -0.269 OA
ATOM      8  H   UNL A   1      34.752  25.733  22.692  1.00  0.00     0.163 HD
BRANCH   6   9
ATOM      9  C   UNL A   1      33.015  23.570  24.578  1.00  0.00     0.066 A 
ATOM     10  C   UNL A   1      33.770  23.032  25.656  1.00  0.00    -0.004 A 
ATOM     11  C   UNL A   1      33.089  22.593  26.815  1.00  0.00     0.009 A 
ATOM     12  C   UNL A   1      31.702  22.632  26.902  1.00  0.00     0.002 A 
ATOM     13  C   UNL A   1      31.615  23.458  24.627  1.00  0.00     0.054 A 
ATOM     14  C   UNL A   1      30.966  23.037  25.797  1.00  0.00     0.021 A 
ATOM     15  Cl  UNL A   1      30.595  23.643  23.238  1.00  0.00    -0.083 Cl
BRANCH  10  16
ATOM     16  C   UNL A   1      35.220  22.765  25.610  1.00  0.00    -0.017 A 
ATOM     17  C   UNL A   1      37.491  19.803  24.742  1.00  0.00     0.044 C 
ATOM     18  C   UNL A   1      37.028  21.159  25.188  1.00  0.00    -0.050 A 
ATOM     19  C   UNL A   1      37.958  22.124  25.586  1.00  0.00     0.006 A 
ATOM     20  C   UNL A   1      35.669  21.490  25.203  1.00  0.00     0.012 A 
ATOM     21  C   UNL A   1      37.542  23.398  25.996  1.00  0.00    -0.050 A 
ATOM     22  C   UNL A   1      38.571  24.413  26.398  1.00  0.00     0.044 C 
ATOM     23  C   UNL A   1      36.172  23.710  26.010  1.00  0.00     0.012 A 
ENDBRANCH  10  16
ENDBRANCH   6   9
ENDBRANCH   4   5
ENDBRANCH   3   4
ENDBRANCH   2   3
ENDBRANCH   1   2
BRANCH   1  24
ATOM     24  C   UNL A   1      31.756  29.127  26.444  1.00  0.00     0.021 C 
BRANCH  24  25
ATOM     25  C   UNL A   1      32.924  30.030  26.064  1.00  0.00     0.116 C 
BRANCH  25  26
ATOM     26  N   UNL A   1      32.747  31.409  26.488  1.00  0.00    -0.352 N 
ATOM     27  C   UNL A   1      33.471  32.153  27.385  1.00  0.00     0.251 C 
ATOM     28  H   UNL A   1      31.992  31.881  26.067  1.00  0.00     0.163 HD
ATOM     29  O   UNL A   1      33.081  33.276  27.706  1.00  0.00    -0.269 OA
BRANCH  27  30
ATOM     30  C   UNL A   1      34.705  31.610  27.997  1.00  0.00     0.039 A 
ATOM     31  C   UNL A   1      35.813  32.453  28.130  1.00  0.00     0.014 A 
ATOM     32  C   UNL A   1      34.786  30.281  28.421  1.00  0.00     0.014 A 
ATOM     33  C   UNL A   1      36.977  31.981  28.744  1.00  0.00     0.010 A 
ATOM     34  C   UNL A   1      35.919  29.835  29.102  1.00  0.00     0.010 A 
ATOM     35  C   UNL A   1      37.027  30.680  29.269  1.00  0.00    -0.014 A 
BRANCH  35  36
ATOM     36  C   UNL A   1      38.227  30.199  30.003  1.00  0.00     0.031 A 
ATOM     37  C   UNL A   1      38.503  30.664  31.406  1.00  0.00     0.074 A 
ATOM     38  C   UNL A   1      39.097  29.374  29.386  1.00  0.00     0.049 A 
ATOM     39  N   UNL A   1      39.509  30.373  32.193  1.00  0.00    -0.248 NA
ATOM     40  C   UNL A   1      37.536  31.603  31.996  1.00  0.00     0.031 C 
ATOM     41  C   UNL A   1      38.970  28.892  28.009  1.00  0.00     0.029 A 
ATOM     42  N   UNL A   1      40.261  28.798  29.832  1.00  0.00    -0.354 N 
ATOM     43  C   UNL A   1      39.298  31.093  33.362  1.00  0.00     0.074 A 
ATOM     44  C   UNL A   1      38.103  31.884  33.160  1.00  0.00     0.031 C 
ATOM     45  C   UNL A   1      39.995  28.072  27.734  1.00  0.00     0.029 A 
ATOM     46  C   UNL A   1      40.874  28.000  28.897  1.00  0.00     0.049 A 
ATOM     47  H   UNL A   1      40.622  28.944  30.736  1.00  0.00     0.167 HD
ATOM     48  C   UNL A   1      40.021  31.078  34.508  1.00  0.00     0.037 A 
ATOM     49  C   UNL A   1      42.018  27.293  28.967  1.00  0.00     0.037 A 
ATOM     50  C   UNL A   1      41.201  30.278  34.711  1.00  0.00     0.049 A 
ATOM     51  C   UNL A   1      42.810  27.304  30.248  1.00  0.00     0.074 A 
ATOM     52  C   UNL A   1      41.970  30.148  35.854  1.00  0.00     0.029 A 
ATOM     53  N   UNL A   1      41.788  29.476  33.742  1.00  0.00    -0.354 N 
ATOM     54  N   UNL A   1      42.557  27.928  31.373  1.00  0.00    -0.248 NA
ATOM     55  C   UNL A   1      44.043  26.506  30.270  1.00  0.00     0.031 C 
ATOM     56  C   UNL A   1      43.055  29.315  35.561  1.00  0.00     0.029 A 
ATOM     57  C   UNL A   1      42.927  28.873  34.254  1.00  0.00     0.049 A 
ATOM     58  H   UNL A   1      41.447  29.354  32.827  1.00  0.00     0.167 HD
ATOM     59  C   UNL A   1      43.579  27.575  32.244  1.00  0.00     0.074 A 
ATOM     60  C   UNL A   1      44.446  26.668  31.522  1.00  0.00     0.031 C 
ATOM     61  C   UNL A   1      43.780  27.966  33.526  1.00  0.00     0.037 A 
BRANCH  48  62
ATOM     62  C   UNL A   1      39.556  31.954  35.637  1.00  0.00     0.064 A 
ATOM     63  C   UNL A   1      40.037  33.262  35.803  1.00  0.00     0.173 A 
ATOM     64  C   UNL A   1      38.583  31.497  36.540  1.00  0.00     0.173 A 
ATOM     65  F   UNL A   1      40.973  33.748  34.974  1.00  0.00    -0.203 F 
ATOM     66  C   UNL A   1      39.589  34.065  36.849  1.00  0.00     0.198 A 
ATOM     67  C   UNL A   1      38.112  32.316  37.564  1.00  0.00     0.198 A 
ATOM     68  F   UNL A   1      38.082  30.258  36.425  1.00  0.00    -0.203 F 
ATOM     69  F   UNL A   1      40.104  35.291  37.018  1.00  0.00    -0.200 F 
ATOM     70  C   UNL A   1      38.621  33.594  37.723  1.00  0.00     0.200 A 
ATOM     71  F   UNL A   1      37.166  31.864  38.399  1.00  0.00    -0.200 F 
ATOM     72  F   UNL A   1      38.184  34.372  38.723  1.00  0.00    -0.200 F 
ENDBRANCH  48  62
BRANCH  49  73
ATOM     73  C   UNL A   1      42.472  26.496  27.797  1.00  0.00     0.064 A 
ATOM     74  C   UNL A   1      43.359  27.036  26.855  1.00  0.00     0.173 A 
ATOM     75  C   UNL A   1      42.025  25.183  27.591  1.00  0.00     0.173 A 
ATOM     76  F   UNL A   1      43.800  28.296  26.996  1.00  0.00    -0.203 F 
ATOM     77  C   UNL A   1      43.762  26.303  25.740  1.00  0.00     0.198 A 
ATOM     78  C   UNL A   1      42.454  24.439  26.493  1.00  0.00     0.198 A 
ATOM     79  F   UNL A   1      41.180  24.615  28.464  1.00  0.00    -0.203 F 
ATOM     80  F   UNL A   1      44.569  26.864  24.829  1.00  0.00    -0.200 F 
ATOM     81  C   UNL A   1      43.314  25.004  25.563  1.00  0.00     0.200 A 
ATOM     82  F   UNL A   1      42.031  23.178  26.334  1.00  0.00    -0.200 F 
ATOM     83  F   UNL A   1      43.703  24.298  24.493  1.00  0.00    -0.200 F 
ENDBRANCH  49  73
BRANCH  61  84
ATOM     84  C   UNL A   1      44.964  27.388  34.247  1.00  0.00     0.064 A 
ATOM     85  C   UNL A   1      44.885  26.172  34.943  1.00  0.00     0.173 A 
ATOM     86  C   UNL A   1      46.206  28.042  34.209  1.00  0.00     0.173 A 
ATOM     87  F   UNL A   1      43.719  25.514  35.022  1.00  0.00    -0.203 F 
ATOM     88  C   UNL A   1      45.997  25.648  35.596  1.00  0.00     0.198 A 
ATOM     89  C   UNL A   1      47.323  27.497  34.835  1.00  0.00     0.198 A 
ATOM     90  F   UNL A   1      46.339  29.204  33.552  1.00  0.00    -0.203 F 
ATOM     91  F   UNL A   1      45.885  24.512  36.298  1.00  0.00    -0.200 F 
ATOM     92  C   UNL A   1      47.216  26.306  35.535  1.00  0.00     0.200 A 
ATOM     93  F   UNL A   1      48.504  28.126  34.760  1.00  0.00    -0.200 F 
ATOM     94  F   UNL A   1      48.287  25.795  36.157  1.00  0.00    -0.200 F 
ENDBRANCH  61  84
ENDBRANCH  35  36
ENDBRANCH  27  30
ENDBRANCH  25  26
ENDBRANCH  24  25
ENDBRANCH   1  24
TORSDOF 14
ENDMDL
MODEL 2
REMARK VINA RESULT:     -12.2      2.119      7.903
REMARK SMILES Cc1cc(C)cc(-c2cccc(Cl)c2C(=O)NCCCCCCNC(=O)c2ccc(-c3c4nc(c(-c5c(F)c(F)c(F)c(F)c5F)c5ccc([nH]5)c(-c5c(F)c(F)c(F)c(F)c5F)c5nc(c(-c6c(F)c(F)c(F)c(F)c6F)c6ccc3[nH]6)C=C5)C=C4)cc2)c1
REMARK SMILES IDX 21 1 20 2 19 3 18 4 17 5 15 6 16 7 14 9 8 10 9 11 10 12
REMARK SMILES IDX 12 13 11 14 13 15 7 16 1 17 2 18 3 19 90 20 4 21 5 22 6 23
REMARK SMILES IDX 22 24 23 25 24 26 25 27 26 29 27 30 28 31 89 32 29 33 88 34
REMARK SMILES IDX 30 35 31 36 32 37 82 38 33 39 87 40 81 41 83 42 34 43 86 44
REMARK SMILES IDX 80 45 79 46 35 48 67 49 47 50 66 51 48 52 51 53 65 54 84 55
REMARK SMILES IDX 49 56 50 57 64 59 85 60 52 61 36 62 37 63 45 64 38 65 39 66
REMARK SMILES IDX 43 67 46 68 40 69 41 70 44 71 42 72 68 73 69 74 77 75 70 76
REMARK SMILES IDX 71 77 75 78 78 79 72 80 73 81 76 82 74 83 53 84 54 85 62 86
REMARK SMILES IDX 55 87 56 88 60 89 63 90 57 91 58 92 61 93 59 94
REMARK H PARENT 17 8 24 28 83 47 51 58
REMARK Flexibility Score: inf
ROOT
ATOM      1  C   UNL A   1      31.454  30.946  26.240  1.00  0.00     0.002 C 
ENDROOT
BRANCH   1   2
ATOM      2  C   UNL A   1      32.371  30.099  27.128  1.00  0.00     0.002 C 
BRANCH   2   3
ATOM      3  C   UNL A   1      33.444  29.249  26.438  1.00  0.00     0.021 C 
BRANCH   3   4
ATOM      4  C   UNL A   1      33.350  27.733  26.605  1.00  0.00     0.116 C 
BRANCH   4   5
ATOM      5  N   UNL A   1      32.010  27.195  26.744  1.00  0.00    -0.352 N 
ATOM      6  C   UNL A   1      31.283  26.375  25.897  1.00  0.00     0.253 C 
ATOM      7  O   UNL A   1      30.299  25.803  26.361  1.00  0.00    -0.269 OA
ATOM      8  H   UNL A   1      31.543  27.453  27.571  1.00  0.00     0.163 HD
BRANCH   6   9
ATOM      9  C   UNL A   1      31.616  26.231  24.448  1.00  0.00     0.066 A 
ATOM     10  C   UNL A   1      32.547  25.237  24.040  1.00  0.00    -0.004 A 
ATOM     11  C   UNL A   1      32.758  25.024  22.659  1.00  0.00     0.009 A 
ATOM     12  C   UNL A   1      32.112  25.793  21.697  1.00  0.00     0.002 A 
ATOM     13  C   UNL A   1      31.094  27.094  23.468  1.00  0.00     0.054 A 
ATOM     14  C   UNL A   1      31.304  26.846  22.104  1.00  0.00     0.021 A 
ATOM     15  Cl  UNL A   1      30.324  28.601  23.839  1.00  0.00    -0.083 Cl
BRANCH  10  16
ATOM     16  C   UNL A   1      33.427  24.489  24.959  1.00  0.00    -0.017 A 
ATOM     17  C   UNL A   1      37.189  23.864  25.333  1.00  0.00     0.044 C 
ATOM     18  C   UNL A   1      35.707  23.802  25.557  1.00  0.00    -0.050 A 
ATOM     19  C   UNL A   1      35.184  23.018  26.589  1.00  0.00     0.006 A 
ATOM     20  C   UNL A   1      34.823  24.530  24.753  1.00  0.00     0.012 A 
ATOM     21  C   UNL A   1      33.802  22.957  26.817  1.00  0.00    -0.050 A 
ATOM     22  C   UNL A   1      33.280  22.120  27.946  1.00  0.00     0.044 C 
ATOM     23  C   UNL A   1      32.930  23.692  25.995  1.00  0.00     0.012 A 
ENDBRANCH  10  16
ENDBRANCH   6   9
ENDBRANCH   4   5
ENDBRANCH   3   4
ENDBRANCH   2   3
ENDBRANCH   1   2
BRANCH   1  24
ATOM     24  C   UNL A   1      31.393  32.446  26.533  1.00  0.00     0.021 C 
BRANCH  24  25
ATOM     25  C   UNL A   1      32.579  33.037  27.287  1.00  0.00     0.116 C 
BRANCH  25  26
ATOM     26  N   UNL A   1      32.354  34.400  27.737  1.00  0.00    -0.352 N 
ATOM     27  C   UNL A   1      32.978  35.114  28.730  1.00  0.00     0.251 C 
ATOM     28  H   UNL A   1      31.645  34.887  27.257  1.00  0.00     0.163 HD
ATOM     29  O   UNL A   1      32.554  36.224  29.046  1.00  0.00    -0.269 OA
BRANCH  27  30
ATOM     30  C   UNL A   1      34.144  34.549  29.448  1.00  0.00     0.039 A 
ATOM     31  C   UNL A   1      33.936  33.946  30.692  1.00  0.00     0.014 A 
ATOM     32  C   UNL A   1      35.435  34.625  28.918  1.00  0.00     0.014 A 
ATOM     33  C   UNL A   1      35.009  33.365  31.373  1.00  0.00     0.010 A 
ATOM     34  C   UNL A   1      36.491  33.978  29.562  1.00  0.00     0.010 A 
ATOM     35  C   UNL A   1      36.289  33.343  30.797  1.00  0.00    -0.014 A 
BRANCH  35  36
ATOM     36  C   UNL A   1      37.418  32.650  31.471  1.00  0.00     0.031 A 
ATOM     37  C   UNL A   1      38.093  31.475  30.819  1.00  0.00     0.074 A 
ATOM     38  C   UNL A   1      37.808  33.053  32.697  1.00  0.00     0.049 A 
ATOM     39  N   UNL A   1      39.076  30.731  31.265  1.00  0.00    -0.248 NA
ATOM     40  C   UNL A   1      37.582  31.062  29.504  1.00  0.00     0.031 C 
ATOM     41  C   UNL A   1      37.199  34.145  33.458  1.00  0.00     0.029 A 
ATOM     42  N   UNL A   1      38.802  32.589  33.522  1.00  0.00    -0.354 N 
ATOM     43  C   UNL A   1      39.292  29.764  30.291  1.00  0.00     0.074 A 
ATOM     44  C   UNL A   1      38.301  29.976  29.259  1.00  0.00     0.031 C 
ATOM     45  C   UNL A   1      37.852  34.288  34.622  1.00  0.00     0.029 A 
ATOM     46  C   UNL A   1      38.897  33.273  34.709  1.00  0.00     0.049 A 
ATOM     47  H   UNL A   1      39.392  31.837  33.285  1.00  0.00     0.167 HD
ATOM     48  C   UNL A   1      40.247  28.803  30.250  1.00  0.00     0.037 A 
ATOM     49  C   UNL A   1      39.730  33.100  35.754  1.00  0.00     0.037 A 
ATOM     50  C   UNL A   1      41.243  28.606  31.272  1.00  0.00     0.049 A 
ATOM     51  C   UNL A   1      40.773  32.015  35.688  1.00  0.00     0.074 A 
ATOM     52  C   UNL A   1      42.288  27.700  31.295  1.00  0.00     0.029 A 
ATOM     53  N   UNL A   1      41.310  29.324  32.458  1.00  0.00    -0.354 N 
ATOM     54  N   UNL A   1      41.019  31.159  34.727  1.00  0.00    -0.248 NA
ATOM     55  C   UNL A   1      41.660  31.880  36.851  1.00  0.00     0.031 C 
ATOM     56  C   UNL A   1      42.952  27.828  32.519  1.00  0.00     0.029 A 
ATOM     57  C   UNL A   1      42.363  28.859  33.232  1.00  0.00     0.049 A 
ATOM     58  H   UNL A   1      40.702  30.055  32.712  1.00  0.00     0.167 HD
ATOM     59  C   UNL A   1      42.104  30.405  35.153  1.00  0.00     0.074 A 
ATOM     60  C   UNL A   1      42.480  30.918  36.454  1.00  0.00     0.031 C 
ATOM     61  C   UNL A   1      42.731  29.382  34.524  1.00  0.00     0.037 A 
BRANCH  48  62
ATOM     62  C   UNL A   1      40.264  27.889  29.057  1.00  0.00     0.064 A 
ATOM     63  C   UNL A   1      41.019  28.184  27.911  1.00  0.00     0.173 A 
ATOM     64  C   UNL A   1      39.551  26.680  29.076  1.00  0.00     0.173 A 
ATOM     65  F   UNL A   1      41.713  29.329  27.837  1.00  0.00    -0.203 F 
ATOM     66  C   UNL A   1      41.031  27.322  26.818  1.00  0.00     0.198 A 
ATOM     67  C   UNL A   1      39.594  25.804  27.994  1.00  0.00     0.198 A 
ATOM     68  F   UNL A   1      38.818  26.343  30.148  1.00  0.00    -0.203 F 
ATOM     69  F   UNL A   1      41.717  27.652  25.714  1.00  0.00    -0.200 F 
ATOM     70  C   UNL A   1      40.326  26.129  26.863  1.00  0.00     0.200 A 
ATOM     71  F   UNL A   1      38.923  24.645  28.046  1.00  0.00    -0.200 F 
ATOM     72  F   UNL A   1      40.347  25.296  25.814  1.00  0.00    -0.200 F 
ENDBRANCH  48  62
BRANCH  49  73
ATOM     73  C   UNL A   1      39.628  33.988  36.942  1.00  0.00     0.064 A 
ATOM     74  C   UNL A   1      38.865  33.616  38.058  1.00  0.00     0.173 A 
ATOM     75  C   UNL A   1      40.281  35.228  36.985  1.00  0.00     0.173 A 
ATOM     76  F   UNL A   1      38.204  32.449  38.059  1.00  0.00    -0.203 F 
ATOM     77  C   UNL A   1      38.741  34.460  39.161  1.00  0.00     0.198 A 
ATOM     78  C   UNL A   1      40.182  36.058  38.100  1.00  0.00     0.198 A 
ATOM     79  F   UNL A   1      41.027  35.631  35.946  1.00  0.00    -0.203 F 
ATOM     80  F   UNL A   1      37.963  34.101  40.191  1.00  0.00    -0.200 F 
ATOM     81  C   UNL A   1      39.404  35.677  39.183  1.00  0.00     0.200 A 
ATOM     82  F   UNL A   1      40.838  37.226  38.124  1.00  0.00    -0.200 F 
ATOM     83  F   UNL A   1      39.287  36.487  40.243  1.00  0.00    -0.200 F 
ENDBRANCH  49  73
BRANCH  61  84
ATOM     84  C   UNL A   1      43.916  28.769  35.215  1.00  0.00     0.064 A 
ATOM     85  C   UNL A   1      45.214  29.275  35.047  1.00  0.00     0.173 A 
ATOM     86  C   UNL A   1      43.744  27.684  36.089  1.00  0.00     0.173 A 
ATOM     87  F   UNL A   1      45.435  30.302  34.213  1.00  0.00    -0.203 F 
ATOM     88  C   UNL A   1      46.298  28.699  35.704  1.00  0.00     0.198 A 
ATOM     89  C   UNL A   1      44.825  27.133  36.770  1.00  0.00     0.198 A 
ATOM     90  F   UNL A   1      42.523  27.165  36.292  1.00  0.00    -0.203 F 
ATOM     91  F   UNL A   1      47.535  29.165  35.488  1.00  0.00    -0.200 F 
ATOM     92  C   UNL A   1      46.101  27.634  36.572  1.00  0.00     0.200 A 
ATOM     93  F   UNL A   1      44.631  26.115  37.621  1.00  0.00    -0.200 F 
ATOM     94  F   UNL A   1      47.144  27.087  37.210  1.00  0.00    -0.200 F 
ENDBRANCH  61  84
ENDBRANCH  35  36
ENDBRANCH  27  30
ENDBRANCH  25  26
ENDBRANCH  24  25
ENDBRANCH   1  24
TORSDOF 14
ENDMDL
MODEL 3
REMARK VINA RESULT:     -12.1      2.111      7.814
REMARK SMILES Cc1cc(C)cc(-c2cccc(Cl)c2C(=O)NCCCCCCNC(=O)c2ccc(-c3c4nc(c(-c5c(F)c(F)c(F)c(F)c5F)c5ccc([nH]5)c(-c5c(F)c(F)c(F)c(F)c5F)c5nc(c(-c6c(F)c(F)c(F)c(F)c6F)c6ccc3[nH]6)C=C5)C=C4)cc2)c1
REMARK SMILES IDX 21 1 20 2 19 3 18 4 17 5 15 6 16 7 14 9 8 10 9 11 10 12
REMARK SMILES IDX 12 13 11 14 13 15 7 16 1 17 2 18 3 19 90 20 4 21 5 22 6 23
REMARK SMILES IDX 22 24 23 25 24 26 25 27 26 29 27 30 28 31 89 32 29 33 88 34
REMARK SMILES IDX 30 35 31 36 32 37 82 38 33 39 87 40 81 41 83 42 34 43 86 44
REMARK SMILES IDX 80 45 79 46 35 48 67 49 47 50 66 51 48 52 51 53 65 54 84 55
REMARK SMILES IDX 49 56 50 57 64 59 85 60 52 61 36 62 37 63 45 64 38 65 39 66
REMARK SMILES IDX 43 67 46 68 40 69 41 70 44 71 42 72 68 73 69 74 77 75 70 76
REMARK SMILES IDX 71 77 75 78 78 79 72 80 73 81 76 82 74 83 53 84 54 85 62 86
REMARK SMILES IDX 55 87 56 88 60 89 63 90 57 91 58 92 61 93 59 94
REMARK H PARENT 17 8 24 28 83 47 51 58
REMARK Flexibility Score: inf
ROOT
ATOM      1  C   UNL A   1      31.527  30.883  26.181  1.00  0.00     0.002 C 
ENDROOT
BRANCH   1   2
ATOM      2  C   UNL A   1      32.357  29.992  27.111  1.00  0.00     0.002 C 
BRANCH   2   3
ATOM      3  C   UNL A   1      33.534  29.225  26.498  1.00  0.00     0.021 C 
BRANCH   3   4
ATOM      4  C   UNL A   1      33.453  27.700  26.500  1.00  0.00     0.116 C 
BRANCH   4   5
ATOM      5  N   UNL A   1      32.130  27.138  26.695  1.00  0.00    -0.352 N 
ATOM      6  C   UNL A   1      31.379  26.310  25.878  1.00  0.00     0.253 C 
ATOM      7  O   UNL A   1      30.426  25.720  26.382  1.00  0.00    -0.269 OA
ATOM      8  H   UNL A   1      31.696  27.385  27.544  1.00  0.00     0.163 HD
BRANCH   6   9
ATOM      9  C   UNL A   1      31.649  26.178  24.415  1.00  0.00     0.066 A 
ATOM     10  C   UNL A   1      32.563  25.190  23.959  1.00  0.00    -0.004 A 
ATOM     11  C   UNL A   1      32.714  24.988  22.568  1.00  0.00     0.009 A 
ATOM     12  C   UNL A   1      32.026  25.763  21.642  1.00  0.00     0.002 A 
ATOM     13  C   UNL A   1      31.084  27.048  23.466  1.00  0.00     0.054 A 
ATOM     14  C   UNL A   1      31.235  26.812  22.091  1.00  0.00     0.021 A 
ATOM     15  Cl  UNL A   1      30.328  28.551  23.882  1.00  0.00    -0.083 Cl
BRANCH  10  16
ATOM     16  C   UNL A   1      33.484  24.436  24.832  1.00  0.00    -0.017 A 
ATOM     17  C   UNL A   1      33.188  22.164  27.903  1.00  0.00     0.044 C 
ATOM     18  C   UNL A   1      33.772  22.979  26.787  1.00  0.00    -0.050 A 
ATOM     19  C   UNL A   1      35.157  23.046  26.614  1.00  0.00     0.006 A 
ATOM     20  C   UNL A   1      32.949  23.674  25.893  1.00  0.00     0.012 A 
ATOM     21  C   UNL A   1      35.717  23.797  25.571  1.00  0.00    -0.050 A 
ATOM     22  C   UNL A   1      37.207  23.829  25.406  1.00  0.00     0.044 C 
ATOM     23  C   UNL A   1      34.874  24.492  24.687  1.00  0.00     0.012 A 
ENDBRANCH  10  16
ENDBRANCH   6   9
ENDBRANCH   4   5
ENDBRANCH   3   4
ENDBRANCH   2   3
ENDBRANCH   1   2
BRANCH   1  24
ATOM     24  C   UNL A   1      31.403  32.360  26.560  1.00  0.00     0.021 C 
BRANCH  24  25
ATOM     25  C   UNL A   1      32.604  32.980  27.265  1.00  0.00     0.116 C 
BRANCH  25  26
ATOM     26  N   UNL A   1      32.374  34.349  27.698  1.00  0.00    -0.352 N 
ATOM     27  C   UNL A   1      32.990  35.074  28.687  1.00  0.00     0.251 C 
ATOM     28  H   UNL A   1      31.667  34.828  27.208  1.00  0.00     0.163 HD
ATOM     29  O   UNL A   1      32.561  36.187  28.988  1.00  0.00    -0.269 OA
BRANCH  27  30
ATOM     30  C   UNL A   1      34.152  34.520  29.418  1.00  0.00     0.039 A 
ATOM     31  C   UNL A   1      33.936  33.917  30.662  1.00  0.00     0.014 A 
ATOM     32  C   UNL A   1      35.448  34.605  28.903  1.00  0.00     0.014 A 
ATOM     33  C   UNL A   1      35.006  33.346  31.355  1.00  0.00     0.010 A 
ATOM     34  C   UNL A   1      36.502  33.968  29.559  1.00  0.00     0.010 A 
ATOM     35  C   UNL A   1      36.292  33.333  30.793  1.00  0.00    -0.014 A 
BRANCH  35  36
ATOM     36  C   UNL A   1      37.419  32.649  31.481  1.00  0.00     0.031 A 
ATOM     37  C   UNL A   1      38.113  31.482  30.836  1.00  0.00     0.074 A 
ATOM     38  C   UNL A   1      37.789  33.055  32.712  1.00  0.00     0.049 A 
ATOM     39  N   UNL A   1      39.097  30.747  31.293  1.00  0.00    -0.248 NA
ATOM     40  C   UNL A   1      37.623  31.066  29.513  1.00  0.00     0.031 C 
ATOM     41  C   UNL A   1      37.161  34.141  33.466  1.00  0.00     0.029 A 
ATOM     42  N   UNL A   1      38.778  32.600  33.549  1.00  0.00    -0.354 N 
ATOM     43  C   UNL A   1      39.335  29.784  30.321  1.00  0.00     0.074 A 
ATOM     44  C   UNL A   1      38.355  29.987  29.277  1.00  0.00     0.031 C 
ATOM     45  C   UNL A   1      37.798  34.288  34.638  1.00  0.00     0.029 A 
ATOM     46  C   UNL A   1      38.851  33.283  34.738  1.00  0.00     0.049 A 
ATOM     47  H   UNL A   1      39.378  31.854  33.318  1.00  0.00     0.167 HD
ATOM     48  C   UNL A   1      40.300  28.832  30.290  1.00  0.00     0.037 A 
ATOM     49  C   UNL A   1      39.672  33.116  35.793  1.00  0.00     0.037 A 
ATOM     50  C   UNL A   1      41.284  28.643  31.325  1.00  0.00     0.049 A 
ATOM     51  C   UNL A   1      40.727  32.042  35.739  1.00  0.00     0.074 A 
ATOM     52  C   UNL A   1      42.338  27.747  31.360  1.00  0.00     0.029 A 
ATOM     53  N   UNL A   1      41.330  29.360  32.513  1.00  0.00    -0.354 N 
ATOM     54  N   UNL A   1      40.992  31.189  34.779  1.00  0.00    -0.248 NA
ATOM     55  C   UNL A   1      41.600  31.913  36.913  1.00  0.00     0.031 C 
ATOM     56  C   UNL A   1      42.986  27.880  32.593  1.00  0.00     0.029 A 
ATOM     57  C   UNL A   1      42.377  28.904  33.299  1.00  0.00     0.049 A 
ATOM     58  H   UNL A   1      40.712  30.085  32.759  1.00  0.00     0.167 HD
ATOM     59  C   UNL A   1      42.079  30.445  35.219  1.00  0.00     0.074 A 
ATOM     60  C   UNL A   1      42.434  30.960  36.525  1.00  0.00     0.031 C 
ATOM     61  C   UNL A   1      42.724  29.429  34.597  1.00  0.00     0.037 A 
BRANCH  48  62
ATOM     62  C   UNL A   1      40.340  27.919  29.097  1.00  0.00     0.064 A 
ATOM     63  C   UNL A   1      39.610  26.721  29.059  1.00  0.00     0.173 A 
ATOM     64  C   UNL A   1      41.085  28.266  27.959  1.00  0.00     0.173 A 
ATOM     65  F   UNL A   1      38.888  26.337  30.122  1.00  0.00    -0.203 F 
ATOM     66  C   UNL A   1      39.651  25.891  27.943  1.00  0.00     0.198 A 
ATOM     67  C   UNL A   1      41.095  27.450  26.831  1.00  0.00     0.198 A 
ATOM     68  F   UNL A   1      41.796  29.404  27.936  1.00  0.00    -0.203 F 
ATOM     69  F   UNL A   1      38.987  24.725  27.952  1.00  0.00    -0.200 F 
ATOM     70  C   UNL A   1      40.386  26.259  26.826  1.00  0.00     0.200 A 
ATOM     71  F   UNL A   1      41.794  27.816  25.747  1.00  0.00    -0.200 F 
ATOM     72  F   UNL A   1      40.416  25.463  25.749  1.00  0.00    -0.200 F 
ENDBRANCH  48  62
BRANCH  49  73
ATOM     73  C   UNL A   1      39.547  34.002  36.980  1.00  0.00     0.064 A 
ATOM     74  C   UNL A   1      40.183  35.251  37.019  1.00  0.00     0.173 A 
ATOM     75  C   UNL A   1      38.798  33.618  38.102  1.00  0.00     0.173 A 
ATOM     76  F   UNL A   1      40.928  35.656  35.980  1.00  0.00    -0.203 F 
ATOM     77  C   UNL A   1      40.094  36.071  38.143  1.00  0.00     0.198 A 
ATOM     78  C   UNL A   1      38.684  34.452  39.213  1.00  0.00     0.198 A 
ATOM     79  F   UNL A   1      38.165  32.436  38.115  1.00  0.00    -0.203 F 
ATOM     80  F   UNL A   1      40.756  37.236  38.173  1.00  0.00    -0.200 F 
ATOM     81  C   UNL A   1      39.340  35.673  39.236  1.00  0.00     0.200 A 
ATOM     82  F   UNL A   1      37.940  34.071  40.260  1.00  0.00    -0.200 F 
ATOM     83  F   UNL A   1      39.253  36.462  40.315  1.00  0.00    -0.200 F 
ENDBRANCH  49  73
BRANCH  61  84
ATOM     84  C   UNL A   1      43.906  28.827  35.302  1.00  0.00     0.064 A 
ATOM     85  C   UNL A   1      43.762  27.782  36.227  1.00  0.00     0.173 A 
ATOM     86  C   UNL A   1      45.205  29.276  35.018  1.00  0.00     0.173 A 
ATOM     87  F   UNL A   1      42.542  27.325  36.545  1.00  0.00    -0.203 F 
ATOM     88  C   UNL A   1      44.872  27.231  36.863  1.00  0.00     0.198 A 
ATOM     89  C   UNL A   1      46.314  28.699  35.629  1.00  0.00     0.198 A 
ATOM     90  F   UNL A   1      45.401  30.268  34.135  1.00  0.00    -0.203 F 
ATOM     91  F   UNL A   1      44.706  26.270  37.782  1.00  0.00    -0.200 F 
ATOM     92  C   UNL A   1      46.147  27.684  36.557  1.00  0.00     0.200 A 
ATOM     93  F   UNL A   1      47.546  29.126  35.320  1.00  0.00    -0.200 F 
ATOM     94  F   UNL A   1      47.213  27.145  37.163  1.00  0.00    -0.200 F 
ENDBRANCH  61  84
ENDBRANCH  35  36
ENDBRANCH  27  30
ENDBRANCH  25  26
ENDBRANCH  24  25
ENDBRANCH   1  24
TORSDOF 14
ENDMDL
