MODEL 1
REMARK VINA RESULT:      -9.9      0.000      0.000
REMARK SMILES C[N@@H+]1CCC[C@@H](C[NH2+]CC(=O)NCCCCCCNC(=O)c2ccc(-c3c4nc(c(-c5c(F)c(F)c(F)c(F)c5F)c5ccc([nH]5)c(-c5c(F)c(F)c(F)c(F)c5F)c5nc(c(-c6c(F)c(F)c(F)c(F)c6F)c6ccc3[nH]6)C=C5)C=C4)cc2)C1
REMARK SMILES IDX 15 1 14 2 13 3 12 4 10 5 11 6 9 8 8 9 7 12 6 13 1 14 2 15
REMARK SMILES IDX 3 16 85 17 4 19 5 20 16 21 17 22 18 23 19 24 20 25 21 27
REMARK SMILES IDX 22 28 23 29 84 30 24 31 83 32 25 33 26 34 27 35 77 36 28 37
REMARK SMILES IDX 82 38 76 39 78 40 29 41 81 42 75 43 74 44 30 46 62 47 42 48
REMARK SMILES IDX 61 49 43 50 46 51 60 52 79 53 44 54 45 55 59 57 80 58 47 59
REMARK SMILES IDX 31 60 32 61 40 62 33 63 34 64 38 65 41 66 35 67 36 68 39 69
REMARK SMILES IDX 37 70 63 71 64 72 72 73 65 74 66 75 70 76 73 77 67 78 68 79
REMARK SMILES IDX 71 80 69 81 48 82 49 83 57 84 50 85 51 86 55 87 58 88 52 89
REMARK SMILES IDX 53 90 56 91 54 92
REMARK H PARENT 12 7 8 10 8 11 2 18 19 26 78 45 46 56
REMARK Flexibility Score: inf
ROOT
ATOM      1  C   UNL A   1      41.732  19.363  26.200  1.00  0.00     0.002 C 
ENDROOT
BRANCH   1   2
ATOM      2  C   UNL A   1      42.877  18.355  26.134  1.00  0.00     0.021 C 
BRANCH   2   3
ATOM      3  C   UNL A   1      44.132  18.818  25.390  1.00  0.00     0.116 C 
BRANCH   3   4
ATOM      4  N   UNL A   1      43.848  20.008  24.607  1.00  0.00    -0.351 N 
ATOM      5  C   UNL A   1      44.410  21.252  24.672  1.00  0.00     0.275 C 
ATOM      6  O   UNL A   1      43.836  22.174  24.086  1.00  0.00    -0.269 OA
ATOM      7  H   UNL A   1      43.143  19.903  23.928  1.00  0.00     0.163 HD
BRANCH   5   8
ATOM      8  C   UNL A   1      45.719  21.502  25.440  1.00  0.00     0.361 C 
BRANCH   8   9
ATOM      9  N   UNL A   1      45.503  22.267  26.690  1.00  0.00    -0.338 N 
ATOM     10  H   UNL A   1      44.502  22.311  26.881  1.00  0.00     0.346 HD
ATOM     11  H   UNL A   1      46.000  21.789  27.442  1.00  0.00     0.346 HD
BRANCH   9  12
ATOM     12  C   UNL A   1      46.027  23.628  26.592  1.00  0.00     0.270 C 
BRANCH  12  13
ATOM     13  C   UNL A   1      45.168  24.718  27.269  1.00  0.00     0.099 C 
ATOM     14  C   UNL A   1      46.659  27.816  25.712  1.00  0.00     0.332 C 
ATOM     15  N   UNL A   1      45.879  26.583  25.802  1.00  0.00    -0.337 N 
ATOM     16  C   UNL A   1      44.532  26.777  25.253  1.00  0.00     0.262 C 
ATOM     17  C   UNL A   1      45.800  26.119  27.196  1.00  0.00     0.271 C 
ATOM     18  H   UNL A   1      46.352  25.870  25.248  1.00  0.00     0.347 HD
ATOM     19  C   UNL A   1      43.737  25.470  25.272  1.00  0.00     0.062 C 
ATOM     20  C   UNL A   1      43.760  24.771  26.633  1.00  0.00     0.021 C 
ENDBRANCH  12  13
ENDBRANCH   9  12
ENDBRANCH   8   9
ENDBRANCH   5   8
ENDBRANCH   3   4
ENDBRANCH   2   3
ENDBRANCH   1   2
BRANCH   1  21
ATOM     21  C   UNL A   1      41.474  19.954  27.588  1.00  0.00     0.002 C 
BRANCH  21  22
ATOM     22  C   UNL A   1      41.112  21.445  27.631  1.00  0.00     0.021 C 
BRANCH  22  23
ATOM     23  C   UNL A   1      41.115  22.172  26.287  1.00  0.00     0.116 C 
BRANCH  23  24
ATOM     24  N   UNL A   1      39.773  22.461  25.807  1.00  0.00    -0.352 N 
ATOM     25  C   UNL A   1      38.920  23.487  26.120  1.00  0.00     0.251 C 
ATOM     26  H   UNL A   1      39.421  21.814  25.152  1.00  0.00     0.163 HD
ATOM     27  O   UNL A   1      37.748  23.444  25.745  1.00  0.00    -0.269 OA
BRANCH  25  28
ATOM     28  C   UNL A   1      39.380  24.644  26.920  1.00  0.00     0.039 A 
ATOM     29  C   UNL A   1      40.145  25.631  26.291  1.00  0.00     0.014 A 
ATOM     30  C   UNL A   1      39.109  24.740  28.286  1.00  0.00     0.014 A 
ATOM     31  C   UNL A   1      40.583  26.744  27.016  1.00  0.00     0.010 A 
ATOM     32  C   UNL A   1      39.491  25.881  28.995  1.00  0.00     0.010 A 
ATOM     33  C   UNL A   1      40.230  26.896  28.367  1.00  0.00    -0.014 A 
BRANCH  33  34
ATOM     34  C   UNL A   1      40.620  28.111  29.128  1.00  0.00     0.031 A 
ATOM     35  C   UNL A   1      42.004  28.240  29.706  1.00  0.00     0.074 A 
ATOM     36  C   UNL A   1      39.711  29.082  29.346  1.00  0.00     0.049 A 
ATOM     37  N   UNL A   1      42.506  29.194  30.449  1.00  0.00    -0.248 NA
ATOM     38  C   UNL A   1      42.941  27.141  29.428  1.00  0.00     0.031 C 
ATOM     39  C   UNL A   1      38.327  29.063  28.873  1.00  0.00     0.029 A 
ATOM     40  N   UNL A   1      39.810  30.269  30.030  1.00  0.00    -0.354 N 
ATOM     41  C   UNL A   1      43.808  28.806  30.736  1.00  0.00     0.074 A 
ATOM     42  C   UNL A   1      44.005  27.509  30.127  1.00  0.00     0.031 C 
ATOM     43  C   UNL A   1      37.712  30.190  29.264  1.00  0.00     0.029 A 
ATOM     44  C   UNL A   1      38.645  30.995  30.046  1.00  0.00     0.049 A 
ATOM     45  H   UNL A   1      40.639  30.570  30.467  1.00  0.00     0.167 HD
ATOM     46  C   UNL A   1      44.761  29.482  31.424  1.00  0.00     0.037 A 
ATOM     47  C   UNL A   1      38.357  32.173  30.634  1.00  0.00     0.037 A 
ATOM     48  C   UNL A   1      44.573  30.783  32.011  1.00  0.00     0.049 A 
ATOM     49  C   UNL A   1      39.430  32.894  31.404  1.00  0.00     0.074 A 
ATOM     50  C   UNL A   1      45.494  31.568  32.684  1.00  0.00     0.029 A 
ATOM     51  N   UNL A   1      43.381  31.492  31.994  1.00  0.00    -0.354 N 
ATOM     52  N   UNL A   1      40.676  32.544  31.616  1.00  0.00    -0.248 NA
ATOM     53  C   UNL A   1      39.057  34.179  32.015  1.00  0.00     0.031 C 
ATOM     54  C   UNL A   1      44.848  32.732  33.112  1.00  0.00     0.029 A 
ATOM     55  C   UNL A   1      43.538  32.696  32.664  1.00  0.00     0.049 A 
ATOM     56  H   UNL A   1      42.547  31.186  31.570  1.00  0.00     0.167 HD
ATOM     57  C   UNL A   1      41.241  33.575  32.354  1.00  0.00     0.074 A 
ATOM     58  C   UNL A   1      40.208  34.571  32.543  1.00  0.00     0.031 C 
ATOM     59  C   UNL A   1      42.504  33.684  32.833  1.00  0.00     0.037 A 
BRANCH  46  60
ATOM     60  C   UNL A   1      46.103  28.827  31.579  1.00  0.00     0.064 A 
ATOM     61  C   UNL A   1      46.378  27.962  32.650  1.00  0.00     0.173 A 
ATOM     62  C   UNL A   1      47.109  29.024  30.621  1.00  0.00     0.173 A 
ATOM     63  F   UNL A   1      45.454  27.747  33.597  1.00  0.00    -0.203 F 
ATOM     64  C   UNL A   1      47.618  27.338  32.767  1.00  0.00     0.198 A 
ATOM     65  C   UNL A   1      48.337  28.377  30.726  1.00  0.00     0.198 A 
ATOM     66  F   UNL A   1      46.896  29.836  29.573  1.00  0.00    -0.203 F 
ATOM     67  F   UNL A   1      47.872  26.551  33.821  1.00  0.00    -0.200 F 
ATOM     68  C   UNL A   1      48.593  27.539  31.802  1.00  0.00     0.200 A 
ATOM     69  F   UNL A   1      49.274  28.561  29.785  1.00  0.00    -0.200 F 
ATOM     70  F   UNL A   1      49.782  26.931  31.911  1.00  0.00    -0.200 F 
ENDBRANCH  46  60
BRANCH  47  71
ATOM     71  C   UNL A   1      36.997  32.758  30.501  1.00  0.00     0.064 A 
ATOM     72  C   UNL A   1      36.650  33.527  29.381  1.00  0.00     0.173 A 
ATOM     73  C   UNL A   1      36.024  32.579  31.495  1.00  0.00     0.173 A 
ATOM     74  F   UNL A   1      37.554  33.745  28.415  1.00  0.00    -0.203 F 
ATOM     75  C   UNL A   1      35.391  34.113  29.271  1.00  0.00     0.198 A 
ATOM     76  C   UNL A   1      34.756  33.140  31.371  1.00  0.00     0.198 A 
ATOM     77  F   UNL A   1      36.304  31.848  32.585  1.00  0.00    -0.203 F 
ATOM     78  F   UNL A   1      35.103  34.885  28.215  1.00  0.00    -0.200 F 
ATOM     79  C   UNL A   1      34.443  33.915  30.264  1.00  0.00     0.200 A 
ATOM     80  F   UNL A   1      33.838  32.936  32.326  1.00  0.00    -0.200 F 
ATOM     81  F   UNL A   1      33.232  34.479  30.159  1.00  0.00    -0.200 F 
ENDBRANCH  47  71
BRANCH  59  82
ATOM     82  C   UNL A   1      42.853  34.943  33.573  1.00  0.00     0.064 A 
ATOM     83  C   UNL A   1      42.781  35.018  34.972  1.00  0.00     0.173 A 
ATOM     84  C   UNL A   1      43.302  36.074  32.876  1.00  0.00     0.173 A 
ATOM     85  F   UNL A   1      42.342  33.969  35.683  1.00  0.00    -0.203 F 
ATOM     86  C   UNL A   1      43.123  36.189  35.644  1.00  0.00     0.198 A 
ATOM     87  C   UNL A   1      43.671  37.234  33.553  1.00  0.00     0.198 A 
ATOM     88  F   UNL A   1      43.395  36.052  31.538  1.00  0.00    -0.203 F 
ATOM     89  F   UNL A   1      43.001  36.255  36.976  1.00  0.00    -0.200 F 
ATOM     90  C   UNL A   1      43.574  37.293  34.935  1.00  0.00     0.200 A 
ATOM     91  F   UNL A   1      44.119  38.295  32.867  1.00  0.00    -0.200 F 
ATOM     92  F   UNL A   1      43.909  38.417  35.583  1.00  0.00    -0.200 F 
ENDBRANCH  59  82
ENDBRANCH  33  34
ENDBRANCH  25  28
ENDBRANCH  23  24
ENDBRANCH  22  23
ENDBRANCH  21  22
ENDBRANCH   1  21
TORSDOF 16
ENDMDL
MODEL 2
REMARK VINA RESULT:      -9.7      5.461     10.412
REMARK SMILES C[N@@H+]1CCC[C@@H](C[NH2+]CC(=O)NCCCCCCNC(=O)c2ccc(-c3c4nc(c(-c5c(F)c(F)c(F)c(F)c5F)c5ccc([nH]5)c(-c5c(F)c(F)c(F)c(F)c5F)c5nc(c(-c6c(F)c(F)c(F)c(F)c6F)c6ccc3[nH]6)C=C5)C=C4)cc2)C1
REMARK SMILES IDX 15 1 14 2 13 3 12 4 10 5 11 6 9 8 8 9 7 12 6 13 1 14 2 15
REMARK SMILES IDX 3 16 85 17 4 19 5 20 16 21 17 22 18 23 19 24 20 25 21 27
REMARK SMILES IDX 22 28 23 29 84 30 24 31 83 32 25 33 26 34 27 35 77 36 28 37
REMARK SMILES IDX 82 38 76 39 78 40 29 41 81 42 75 43 74 44 30 46 62 47 42 48
REMARK SMILES IDX 61 49 43 50 46 51 60 52 79 53 44 54 45 55 59 57 80 58 47 59
REMARK SMILES IDX 31 60 32 61 40 62 33 63 34 64 38 65 41 66 35 67 36 68 39 69
REMARK SMILES IDX 37 70 63 71 64 72 72 73 65 74 66 75 70 76 73 77 67 78 68 79
REMARK SMILES IDX 71 80 69 81 48 82 49 83 57 84 50 85 51 86 55 87 58 88 52 89
REMARK SMILES IDX 53 90 56 91 54 92
REMARK H PARENT 12 7 8 10 8 11 2 18 19 26 78 45 46 56
REMARK Flexibility Score: inf
ROOT
ATOM      1  C   UNL A   1      32.262  30.030  25.519  1.00  0.00     0.002 C 
ENDROOT
BRANCH   1   2
ATOM      2  C   UNL A   1      33.316  29.000  25.916  1.00  0.00     0.021 C 
BRANCH   2   3
ATOM      3  C   UNL A   1      34.051  28.316  24.760  1.00  0.00     0.116 C 
BRANCH   3   4
ATOM      4  N   UNL A   1      33.456  27.021  24.477  1.00  0.00    -0.351 N 
ATOM      5  C   UNL A   1      32.421  26.697  23.645  1.00  0.00     0.275 C 
ATOM      6  O   UNL A   1      31.924  25.573  23.758  1.00  0.00    -0.269 OA
ATOM      7  H   UNL A   1      33.859  26.262  24.958  1.00  0.00     0.163 HD
BRANCH   5   8
ATOM      8  C   UNL A   1      31.894  27.690  22.596  1.00  0.00     0.361 C 
BRANCH   8   9
ATOM      9  N   UNL A   1      30.466  28.022  22.800  1.00  0.00    -0.338 N 
ATOM     10  H   UNL A   1      29.900  27.447  22.176  1.00  0.00     0.346 HD
ATOM     11  H   UNL A   1      30.235  27.841  23.777  1.00  0.00     0.346 HD
BRANCH   9  12
ATOM     12  C   UNL A   1      30.190  29.431  22.523  1.00  0.00     0.270 C 
BRANCH  12  13
ATOM     13  C   UNL A   1      28.803  29.936  22.977  1.00  0.00     0.099 C 
ATOM     14  C   UNL A   1      29.520  33.620  23.369  1.00  0.00     0.332 C 
ATOM     15  N   UNL A   1      29.278  32.350  22.688  1.00  0.00    -0.337 N 
ATOM     16  C   UNL A   1      28.271  32.508  21.632  1.00  0.00     0.262 C 
ATOM     17  C   UNL A   1      28.852  31.319  23.648  1.00  0.00     0.271 C 
ATOM     18  H   UNL A   1      30.152  32.051  22.257  1.00  0.00     0.347 HD
ATOM     19  C   UNL A   1      28.069  31.201  20.864  1.00  0.00     0.062 C 
ATOM     20  C   UNL A   1      27.829  29.996  21.777  1.00  0.00     0.021 C 
ENDBRANCH  12  13
ENDBRANCH   9  12
ENDBRANCH   8   9
ENDBRANCH   5   8
ENDBRANCH   3   4
ENDBRANCH   2   3
ENDBRANCH   1   2
BRANCH   1  21
ATOM     21  C   UNL A   1      31.487  30.641  26.688  1.00  0.00     0.002 C 
BRANCH  21  22
ATOM     22  C   UNL A   1      31.410  32.174  26.720  1.00  0.00     0.021 C 
BRANCH  22  23
ATOM     23  C   UNL A   1      32.706  32.901  27.078  1.00  0.00     0.116 C 
BRANCH  23  24
ATOM     24  N   UNL A   1      32.471  34.248  27.572  1.00  0.00    -0.352 N 
ATOM     25  C   UNL A   1      33.034  34.919  28.627  1.00  0.00     0.251 C 
ATOM     26  H   UNL A   1      31.798  34.761  27.067  1.00  0.00     0.163 HD
ATOM     27  O   UNL A   1      32.556  35.991  28.994  1.00  0.00    -0.269 OA
BRANCH  25  28
ATOM     28  C   UNL A   1      34.202  34.364  29.346  1.00  0.00     0.039 A 
ATOM     29  C   UNL A   1      33.982  33.627  30.514  1.00  0.00     0.014 A 
ATOM     30  C   UNL A   1      35.508  34.603  28.912  1.00  0.00     0.014 A 
ATOM     31  C   UNL A   1      35.063  33.077  31.209  1.00  0.00     0.010 A 
ATOM     32  C   UNL A   1      36.583  34.001  29.569  1.00  0.00     0.010 A 
ATOM     33  C   UNL A   1      36.372  33.231  30.723  1.00  0.00    -0.014 A 
BRANCH  33  34
ATOM     34  C   UNL A   1      37.523  32.585  31.407  1.00  0.00     0.031 A 
ATOM     35  C   UNL A   1      38.247  31.434  30.761  1.00  0.00     0.074 A 
ATOM     36  C   UNL A   1      37.888  33.000  32.636  1.00  0.00     0.049 A 
ATOM     37  N   UNL A   1      39.230  30.707  31.230  1.00  0.00    -0.248 NA
ATOM     38  C   UNL A   1      37.793  31.036  29.421  1.00  0.00     0.031 C 
ATOM     39  C   UNL A   1      37.245  34.079  33.386  1.00  0.00     0.029 A 
ATOM     40  N   UNL A   1      38.880  32.557  33.476  1.00  0.00    -0.354 N 
ATOM     41  C   UNL A   1      39.503  29.761  30.250  1.00  0.00     0.074 A 
ATOM     42  C   UNL A   1      38.551  29.977  29.181  1.00  0.00     0.031 C 
ATOM     43  C   UNL A   1      37.869  34.228  34.566  1.00  0.00     0.029 A 
ATOM     44  C   UNL A   1      38.930  33.231  34.672  1.00  0.00     0.049 A 
ATOM     45  H   UNL A   1      39.496  31.826  33.243  1.00  0.00     0.167 HD
ATOM     46  C   UNL A   1      40.473  28.815  30.232  1.00  0.00     0.037 A 
ATOM     47  C   UNL A   1      39.736  33.060  35.738  1.00  0.00     0.037 A 
ATOM     48  C   UNL A   1      41.434  28.615  31.285  1.00  0.00     0.049 A 
ATOM     49  C   UNL A   1      40.795  31.991  35.697  1.00  0.00     0.074 A 
ATOM     50  C   UNL A   1      42.485  27.715  31.336  1.00  0.00     0.029 A 
ATOM     51  N   UNL A   1      41.461  29.327  32.476  1.00  0.00    -0.354 N 
ATOM     52  N   UNL A   1      41.081  31.145  34.738  1.00  0.00    -0.248 NA
ATOM     53  C   UNL A   1      41.648  31.858  36.888  1.00  0.00     0.031 C 
ATOM     54  C   UNL A   1      43.121  27.852  32.574  1.00  0.00     0.029 A 
ATOM     55  C   UNL A   1      42.498  28.872  33.275  1.00  0.00     0.049 A 
ATOM     56  H   UNL A   1      40.836  30.048  32.717  1.00  0.00     0.167 HD
ATOM     57  C   UNL A   1      42.162  30.403  35.196  1.00  0.00     0.074 A 
ATOM     58  C   UNL A   1      42.491  30.907  36.512  1.00  0.00     0.031 C 
ATOM     59  C   UNL A   1      42.822  29.392  34.578  1.00  0.00     0.037 A 
BRANCH  46  60
ATOM     60  C   UNL A   1      40.551  27.920  29.029  1.00  0.00     0.064 A 
ATOM     61  C   UNL A   1      41.399  28.213  27.950  1.00  0.00     0.173 A 
ATOM     62  C   UNL A   1      39.810  26.730  28.976  1.00  0.00     0.173 A 
ATOM     63  F   UNL A   1      42.121  29.343  27.948  1.00  0.00    -0.203 F 
ATOM     64  C   UNL A   1      41.484  27.360  26.852  1.00  0.00     0.198 A 
ATOM     65  C   UNL A   1      39.919  25.865  27.890  1.00  0.00     0.198 A 
ATOM     66  F   UNL A   1      38.989  26.397  29.984  1.00  0.00    -0.203 F 
ATOM     67  F   UNL A   1      42.267  27.683  25.815  1.00  0.00    -0.200 F 
ATOM     68  C   UNL A   1      40.750  26.184  26.826  1.00  0.00     0.200 A 
ATOM     69  F   UNL A   1      39.220  24.721  27.872  1.00  0.00    -0.200 F 
ATOM     70  F   UNL A   1      40.840  25.359  25.774  1.00  0.00    -0.200 F 
ENDBRANCH  46  60
BRANCH  47  71
ATOM     71  C   UNL A   1      39.587  33.933  36.932  1.00  0.00     0.064 A 
ATOM     72  C   UNL A   1      40.234  35.176  36.999  1.00  0.00     0.173 A 
ATOM     73  C   UNL A   1      38.814  33.539  38.034  1.00  0.00     0.173 A 
ATOM     74  F   UNL A   1      41.002  35.585  35.981  1.00  0.00    -0.203 F 
ATOM     75  C   UNL A   1      40.132  35.980  38.134  1.00  0.00     0.198 A 
ATOM     76  C   UNL A   1      38.689  34.357  39.154  1.00  0.00     0.198 A 
ATOM     77  F   UNL A   1      38.172  32.361  38.018  1.00  0.00    -0.203 F 
ATOM     78  F   UNL A   1      40.801  37.138  38.192  1.00  0.00    -0.200 F 
ATOM     79  C   UNL A   1      39.355  35.572  39.208  1.00  0.00     0.200 A 
ATOM     80  F   UNL A   1      37.927  33.965  40.185  1.00  0.00    -0.200 F 
ATOM     81  F   UNL A   1      39.258  36.345  40.298  1.00  0.00    -0.200 F 
ENDBRANCH  47  71
BRANCH  59  82
ATOM     82  C   UNL A   1      43.992  28.791  35.302  1.00  0.00     0.064 A 
ATOM     83  C   UNL A   1      45.301  29.249  35.092  1.00  0.00     0.173 A 
ATOM     84  C   UNL A   1      43.795  27.771  36.245  1.00  0.00     0.173 A 
ATOM     85  F   UNL A   1      45.544  30.210  34.189  1.00  0.00    -0.203 F 
ATOM     86  C   UNL A   1      46.374  28.690  35.783  1.00  0.00     0.198 A 
ATOM     87  C   UNL A   1      44.866  27.235  36.955  1.00  0.00     0.198 A 
ATOM     88  F   UNL A   1      42.562  27.303  36.487  1.00  0.00    -0.203 F 
ATOM     89  F   UNL A   1      47.621  29.109  35.533  1.00  0.00    -0.200 F 
ATOM     90  C   UNL A   1      46.154  27.689  36.719  1.00  0.00     0.200 A 
ATOM     91  F   UNL A   1      44.650  26.278  37.869  1.00  0.00    -0.200 F 
ATOM     92  F   UNL A   1      47.186  27.157  37.387  1.00  0.00    -0.200 F 
ENDBRANCH  59  82
ENDBRANCH  33  34
ENDBRANCH  25  28
ENDBRANCH  23  24
ENDBRANCH  22  23
ENDBRANCH  21  22
ENDBRANCH   1  21
TORSDOF 16
ENDMDL
MODEL 3
REMARK VINA RESULT:      -9.5      4.032      7.508
REMARK SMILES C[N@@H+]1CCC[C@@H](C[NH2+]CC(=O)NCCCCCCNC(=O)c2ccc(-c3c4nc(c(-c5c(F)c(F)c(F)c(F)c5F)c5ccc([nH]5)c(-c5c(F)c(F)c(F)c(F)c5F)c5nc(c(-c6c(F)c(F)c(F)c(F)c6F)c6ccc3[nH]6)C=C5)C=C4)cc2)C1
REMARK SMILES IDX 15 1 14 2 13 3 12 4 10 5 11 6 9 8 8 9 7 12 6 13 1 14 2 15
REMARK SMILES IDX 3 16 85 17 4 19 5 20 16 21 17 22 18 23 19 24 20 25 21 27
REMARK SMILES IDX 22 28 23 29 84 30 24 31 83 32 25 33 26 34 27 35 77 36 28 37
REMARK SMILES IDX 82 38 76 39 78 40 29 41 81 42 75 43 74 44 30 46 62 47 42 48
REMARK SMILES IDX 61 49 43 50 46 51 60 52 79 53 44 54 45 55 59 57 80 58 47 59
REMARK SMILES IDX 31 60 32 61 40 62 33 63 34 64 38 65 41 66 35 67 36 68 39 69
REMARK SMILES IDX 37 70 63 71 64 72 72 73 65 74 66 75 70 76 73 77 67 78 68 79
REMARK SMILES IDX 71 80 69 81 48 82 49 83 57 84 50 85 51 86 55 87 58 88 52 89
REMARK SMILES IDX 53 90 56 91 54 92
REMARK H PARENT 12 7 8 10 8 11 2 18 19 26 78 45 46 56
REMARK Flexibility Score: inf
ROOT
ATOM      1  C   UNL A   1      37.791  22.229  25.689  1.00  0.00     0.002 C 
ENDROOT
BRANCH   1   2
ATOM      2  C   UNL A   1      37.005  23.513  25.439  1.00  0.00     0.021 C 
BRANCH   2   3
ATOM      3  C   UNL A   1      35.503  23.342  25.201  1.00  0.00     0.116 C 
BRANCH   3   4
ATOM      4  N   UNL A   1      34.810  23.132  26.460  1.00  0.00    -0.351 N 
ATOM      5  C   UNL A   1      33.569  22.611  26.699  1.00  0.00     0.275 C 
ATOM      6  O   UNL A   1      33.089  22.764  27.826  1.00  0.00    -0.269 OA
ATOM      7  H   UNL A   1      35.310  23.407  27.263  1.00  0.00     0.163 HD
BRANCH   5   8
ATOM      8  C   UNL A   1      32.795  21.850  25.610  1.00  0.00     0.361 C 
BRANCH   8   9
ATOM      9  N   UNL A   1      32.683  20.403  25.903  1.00  0.00    -0.338 N 
ATOM     10  H   UNL A   1      32.476  20.282  26.895  1.00  0.00     0.346 HD
ATOM     11  H   UNL A   1      31.936  20.019  25.323  1.00  0.00     0.346 HD
BRANCH   9  12
ATOM     12  C   UNL A   1      33.918  19.687  25.586  1.00  0.00     0.270 C 
BRANCH  12  13
ATOM     13  C   UNL A   1      33.854  18.779  24.338  1.00  0.00     0.099 C 
ATOM     14  C   UNL A   1      35.895  15.840  25.538  1.00  0.00     0.332 C 
ATOM     15  N   UNL A   1      34.752  16.744  25.429  1.00  0.00    -0.337 N 
ATOM     16  C   UNL A   1      33.507  15.992  25.241  1.00  0.00     0.262 C 
ATOM     17  C   UNL A   1      34.945  17.695  24.323  1.00  0.00     0.271 C 
ATOM     18  H   UNL A   1      34.682  17.270  26.301  1.00  0.00     0.347 HD
ATOM     19  C   UNL A   1      32.298  16.928  25.205  1.00  0.00     0.062 C 
ATOM     20  C   UNL A   1      32.470  18.098  24.234  1.00  0.00     0.021 C 
ENDBRANCH  12  13
ENDBRANCH   9  12
ENDBRANCH   8   9
ENDBRANCH   5   8
ENDBRANCH   3   4
ENDBRANCH   2   3
ENDBRANCH   1   2
BRANCH   1  21
ATOM     21  C   UNL A   1      37.498  21.094  24.706  1.00  0.00     0.002 C 
BRANCH  21  22
ATOM     22  C   UNL A   1      38.321  19.811  24.890  1.00  0.00     0.021 C 
BRANCH  22  23
ATOM     23  C   UNL A   1      39.157  19.731  26.167  1.00  0.00     0.116 C 
BRANCH  23  24
ATOM     24  N   UNL A   1      40.337  18.896  26.009  1.00  0.00    -0.352 N 
ATOM     25  C   UNL A   1      41.665  19.234  25.968  1.00  0.00     0.251 C 
ATOM     26  H   UNL A   1      40.152  17.933  25.916  1.00  0.00     0.163 HD
ATOM     27  O   UNL A   1      42.499  18.394  25.634  1.00  0.00    -0.269 OA
BRANCH  25  28
ATOM     28  C   UNL A   1      42.114  20.604  26.304  1.00  0.00     0.039 A 
ATOM     29  C   UNL A   1      42.373  21.498  25.260  1.00  0.00     0.014 A 
ATOM     30  C   UNL A   1      42.327  20.999  27.626  1.00  0.00     0.014 A 
ATOM     31  C   UNL A   1      42.784  22.805  25.545  1.00  0.00     0.010 A 
ATOM     32  C   UNL A   1      42.676  22.321  27.913  1.00  0.00     0.010 A 
ATOM     33  C   UNL A   1      42.906  23.237  26.875  1.00  0.00    -0.014 A 
BRANCH  33  34
ATOM     34  C   UNL A   1      43.265  24.645  27.193  1.00  0.00     0.031 A 
ATOM     35  C   UNL A   1      44.666  25.145  26.970  1.00  0.00     0.074 A 
ATOM     36  C   UNL A   1      42.339  25.463  27.732  1.00  0.00     0.049 A 
ATOM     37  N   UNL A   1      45.180  26.318  27.245  1.00  0.00    -0.248 NA
ATOM     38  C   UNL A   1      45.621  24.195  26.380  1.00  0.00     0.031 C 
ATOM     39  C   UNL A   1      40.956  25.091  28.031  1.00  0.00     0.029 A 
ATOM     40  N   UNL A   1      42.424  26.774  28.134  1.00  0.00    -0.354 N 
ATOM     41  C   UNL A   1      46.516  26.243  26.872  1.00  0.00     0.074 A 
ATOM     42  C   UNL A   1      46.746  24.896  26.397  1.00  0.00     0.031 C 
ATOM     43  C   UNL A   1      40.318  26.151  28.552  1.00  0.00     0.029 A 
ATOM     44  C   UNL A   1      41.253  27.265  28.658  1.00  0.00     0.049 A 
ATOM     45  H   UNL A   1      43.246  27.308  28.054  1.00  0.00     0.167 HD
ATOM     46  C   UNL A   1      47.460  27.216  26.902  1.00  0.00     0.037 A 
ATOM     47  C   UNL A   1      40.969  28.477  29.174  1.00  0.00     0.037 A 
ATOM     48  C   UNL A   1      47.226  28.563  27.354  1.00  0.00     0.049 A 
ATOM     49  C   UNL A   1      42.040  29.534  29.209  1.00  0.00     0.074 A 
ATOM     50  C   UNL A   1      48.106  29.632  27.375  1.00  0.00     0.029 A 
ATOM     51  N   UNL A   1      46.022  29.027  27.866  1.00  0.00    -0.354 N 
ATOM     52  N   UNL A   1      43.283  29.468  28.797  1.00  0.00    -0.248 NA
ATOM     53  C   UNL A   1      41.666  30.838  29.777  1.00  0.00     0.031 C 
ATOM     54  C   UNL A   1      47.448  30.730  27.939  1.00  0.00     0.029 A 
ATOM     55  C   UNL A   1      46.144  30.361  28.224  1.00  0.00     0.049 A 
ATOM     56  H   UNL A   1      45.203  28.489  27.961  1.00  0.00     0.167 HD
ATOM     57  C   UNL A   1      43.827  30.724  29.026  1.00  0.00     0.074 A 
ATOM     58  C   UNL A   1      42.777  31.538  29.600  1.00  0.00     0.031 C 
ATOM     59  C   UNL A   1      45.087  31.162  28.783  1.00  0.00     0.037 A 
BRANCH  46  60
ATOM     60  C   UNL A   1      48.839  26.863  26.427  1.00  0.00     0.064 A 
ATOM     61  C   UNL A   1      49.225  27.050  25.091  1.00  0.00     0.173 A 
ATOM     62  C   UNL A   1      49.802  26.380  27.325  1.00  0.00     0.173 A 
ATOM     63  F   UNL A   1      48.339  27.500  24.190  1.00  0.00    -0.203 F 
ATOM     64  C   UNL A   1      50.516  26.745  24.667  1.00  0.00     0.198 A 
ATOM     65  C   UNL A   1      51.101  26.104  26.906  1.00  0.00     0.198 A 
ATOM     66  F   UNL A   1      49.489  26.190  28.617  1.00  0.00    -0.203 F 
ATOM     67  F   UNL A   1      50.849  26.891  23.378  1.00  0.00    -0.200 F 
ATOM     68  C   UNL A   1      51.455  26.280  25.576  1.00  0.00     0.200 A 
ATOM     69  F   UNL A   1      52.011  25.668  27.788  1.00  0.00    -0.200 F 
ATOM     70  F   UNL A   1      52.700  25.996  25.170  1.00  0.00    -0.200 F 
ENDBRANCH  46  60
BRANCH  47  71
ATOM     71  C   UNL A   1      39.603  28.766  29.686  1.00  0.00     0.064 A 
ATOM     72  C   UNL A   1      38.635  29.355  28.859  1.00  0.00     0.173 A 
ATOM     73  C   UNL A   1      39.243  28.480  31.010  1.00  0.00     0.173 A 
ATOM     74  F   UNL A   1      38.939  29.668  27.592  1.00  0.00    -0.203 F 
ATOM     75  C   UNL A   1      37.367  29.666  29.346  1.00  0.00     0.198 A 
ATOM     76  C   UNL A   1      37.966  28.764  31.487  1.00  0.00     0.198 A 
ATOM     77  F   UNL A   1      40.131  27.913  31.841  1.00  0.00    -0.203 F 
ATOM     78  F   UNL A   1      36.478  30.275  28.549  1.00  0.00    -0.200 F 
ATOM     79  C   UNL A   1      37.032  29.366  30.658  1.00  0.00     0.200 A 
ATOM     80  F   UNL A   1      37.641  28.461  32.751  1.00  0.00    -0.200 F 
ATOM     81  F   UNL A   1      35.812  29.666  31.124  1.00  0.00    -0.200 F 
ENDBRANCH  47  71
BRANCH  59  82
ATOM     82  C   UNL A   1      45.389  32.598  29.098  1.00  0.00     0.064 A 
ATOM     83  C   UNL A   1      45.175  33.619  28.161  1.00  0.00     0.173 A 
ATOM     84  C   UNL A   1      45.860  32.961  30.369  1.00  0.00     0.173 A 
ATOM     85  F   UNL A   1      44.741  33.322  26.926  1.00  0.00    -0.203 F 
ATOM     86  C   UNL A   1      45.446  34.949  28.475  1.00  0.00     0.198 A 
ATOM     87  C   UNL A   1      46.103  34.294  30.690  1.00  0.00     0.198 A 
ATOM     88  F   UNL A   1      46.075  32.024  31.304  1.00  0.00    -0.203 F 
ATOM     89  F   UNL A   1      45.280  35.902  27.549  1.00  0.00    -0.200 F 
ATOM     90  C   UNL A   1      45.903  35.286  29.741  1.00  0.00     0.200 A 
ATOM     91  F   UNL A   1      46.531  34.619  31.918  1.00  0.00    -0.200 F 
ATOM     92  F   UNL A   1      46.157  36.565  30.045  1.00  0.00    -0.200 F 
ENDBRANCH  59  82
ENDBRANCH  33  34
ENDBRANCH  25  28
ENDBRANCH  23  24
ENDBRANCH  22  23
ENDBRANCH  21  22
ENDBRANCH   1  21
TORSDOF 16
ENDMDL
