MODEL 1
REMARK VINA RESULT:     -11.3      0.000      0.000
REMARK SMILES C[C@H](CNC(=O)Cn1cccc1C(=O)NCCCCCCNC(=O)c1ccc(-c2c3nc(c(-c4c(F)c(F)c(F)c(F)c4F)c4ccc([nH]4)c(-c4c(F)c(F)c(F)c(F)c4F)c4nc(c(-c5c(F)c(F)c(F)c(F)c5F)c5ccc2[nH]5)C=C4)C=C3)cc1)[NH+](C)C
REMARK SMILES IDX 17 1 16 2 15 3 13 4 14 5 12 7 8 8 9 9 10 10 11 11 7 12 5 13
REMARK SMILES IDX 4 14 6 16 3 17 2 18 1 19 88 20 89 21 90 22 18 24 19 25 20 26
REMARK SMILES IDX 21 27 22 28 23 29 24 31 25 32 26 33 87 34 27 35 86 36 28 37
REMARK SMILES IDX 29 38 30 39 80 40 31 41 85 42 79 43 81 44 32 45 84 46 78 47
REMARK SMILES IDX 77 48 33 50 65 51 45 52 64 53 46 54 49 55 63 56 82 57 47 58
REMARK SMILES IDX 48 59 62 61 83 62 50 63 34 64 35 65 43 66 36 67 37 68 41 69
REMARK SMILES IDX 44 70 38 71 39 72 42 73 40 74 66 75 67 76 75 77 68 78 69 79
REMARK SMILES IDX 73 80 76 81 70 82 71 83 74 84 72 85 51 86 52 87 60 88 53 89
REMARK SMILES IDX 54 90 58 91 61 92 55 93 56 94 59 95 57 96
REMARK H PARENT 15 6 4 15 88 23 22 30 81 49 49 60
REMARK Flexibility Score: inf
ROOT
ATOM      1  C   UNL A   1      31.651  27.203  26.822  1.00  0.00     0.021 C 
ENDROOT
BRANCH   1   2
ATOM      2  C   UNL A   1      31.342  26.088  25.819  1.00  0.00     0.116 C 
BRANCH   2   3
ATOM      3  N   UNL A   1      30.732  24.971  26.482  1.00  0.00    -0.351 N 
ATOM      4  C   UNL A   1      30.771  23.618  26.358  1.00  0.00     0.267 C 
ATOM      5  O   UNL A   1      30.119  23.054  27.246  1.00  0.00    -0.268 OA
ATOM      6  H   UNL A   1      30.136  25.257  27.210  1.00  0.00     0.163 HD
BRANCH   4   7
ATOM      7  C   UNL A   1      31.470  22.826  25.348  1.00  0.00     0.107 A 
ATOM      8  N   UNL A   1      31.753  22.947  23.985  1.00  0.00    -0.334 N 
ATOM      9  C   UNL A   1      32.108  21.712  23.504  1.00  0.00     0.087 A 
ATOM     10  C   UNL A   1      32.372  20.871  24.547  1.00  0.00     0.020 A 
ATOM     11  C   UNL A   1      31.957  21.557  25.694  1.00  0.00     0.033 A 
BRANCH   8  12
ATOM     12  C   UNL A   1      31.737  24.141  23.146  1.00  0.00     0.222 C 
BRANCH  12  13
ATOM     13  C   UNL A   1      32.970  24.585  22.379  1.00  0.00     0.240 C 
ATOM     14  N   UNL A   1      34.142  24.887  23.010  1.00  0.00    -0.349 N 
ATOM     15  H   UNL A   1      34.751  25.470  22.502  1.00  0.00     0.163 HD
ATOM     16  O   UNL A   1      32.903  24.827  21.169  1.00  0.00    -0.273 OA
BRANCH  14  17
ATOM     17  C   UNL A   1      34.625  24.478  24.320  1.00  0.00     0.180 C 
BRANCH  17  18
ATOM     18  C   UNL A   1      35.395  23.109  24.315  1.00  0.00     0.199 C 
ATOM     19  C   UNL A   1      36.433  22.953  23.182  1.00  0.00     0.077 C 
BRANCH  18  20
ATOM     20  N   UNL A   1      35.937  22.756  25.651  1.00  0.00    -0.336 N 
ATOM     21  C   UNL A   1      36.237  21.322  25.744  1.00  0.00     0.332 C 
ATOM     22  C   UNL A   1      37.091  23.557  26.053  1.00  0.00     0.332 C 
ATOM     23  H   UNL A   1      35.196  22.981  26.313  1.00  0.00     0.347 HD
ENDBRANCH  18  20
ENDBRANCH  17  18
ENDBRANCH  14  17
ENDBRANCH  12  13
ENDBRANCH   8  12
ENDBRANCH   4   7
ENDBRANCH   2   3
ENDBRANCH   1   2
BRANCH   1  24
ATOM     24  C   UNL A   1      31.460  28.600  26.236  1.00  0.00     0.002 C 
BRANCH  24  25
ATOM     25  C   UNL A   1      32.736  29.450  26.237  1.00  0.00     0.002 C 
BRANCH  25  26
ATOM     26  C   UNL A   1      34.002  28.713  25.774  1.00  0.00     0.021 C 
BRANCH  26  27
ATOM     27  C   UNL A   1      35.072  28.657  26.859  1.00  0.00     0.116 C 
BRANCH  27  28
ATOM     28  N   UNL A   1      35.413  30.009  27.264  1.00  0.00    -0.352 N 
ATOM     29  C   UNL A   1      36.466  30.494  27.982  1.00  0.00     0.251 C 
ATOM     30  H   UNL A   1      34.772  30.695  26.969  1.00  0.00     0.163 HD
ATOM     31  O   UNL A   1      36.389  31.615  28.469  1.00  0.00    -0.269 OA
BRANCH  29  32
ATOM     32  C   UNL A   1      37.684  29.692  28.194  1.00  0.00     0.039 A 
ATOM     33  C   UNL A   1      38.641  29.714  27.174  1.00  0.00     0.014 A 
ATOM     34  C   UNL A   1      37.844  28.856  29.305  1.00  0.00     0.014 A 
ATOM     35  C   UNL A   1      39.776  28.928  27.284  1.00  0.00     0.010 A 
ATOM     36  C   UNL A   1      38.995  28.090  29.435  1.00  0.00     0.010 A 
ATOM     37  C   UNL A   1      39.960  28.135  28.426  1.00  0.00    -0.014 A 
BRANCH  37  38
ATOM     38  C   UNL A   1      41.279  27.500  28.610  1.00  0.00     0.031 A 
ATOM     39  C   UNL A   1      41.263  26.069  28.045  1.00  0.00     0.074 A 
ATOM     40  C   UNL A   1      42.223  28.216  29.297  1.00  0.00     0.049 A 
ATOM     41  N   UNL A   1      41.868  25.010  28.479  1.00  0.00    -0.248 NA
ATOM     42  C   UNL A   1      40.378  25.733  26.892  1.00  0.00     0.031 C 
ATOM     43  C   UNL A   1      42.054  29.621  29.724  1.00  0.00     0.029 A 
ATOM     44  N   UNL A   1      43.486  27.936  29.791  1.00  0.00    -0.354 N 
ATOM     45  C   UNL A   1      41.603  23.954  27.579  1.00  0.00     0.074 A 
ATOM     46  C   UNL A   1      40.580  24.425  26.699  1.00  0.00     0.031 C 
ATOM     47  C   UNL A   1      43.100  30.031  30.473  1.00  0.00     0.029 A 
ATOM     48  C   UNL A   1      44.060  28.953  30.609  1.00  0.00     0.049 A 
ATOM     49  H   UNL A   1      43.956  27.094  29.590  1.00  0.00     0.167 HD
ATOM     50  C   UNL A   1      42.370  22.820  27.545  1.00  0.00     0.037 A 
ATOM     51  C   UNL A   1      45.194  28.911  31.383  1.00  0.00     0.037 A 
ATOM     52  C   UNL A   1      43.409  22.938  28.510  1.00  0.00     0.049 A 
ATOM     53  C   UNL A   1      45.844  27.640  31.045  1.00  0.00     0.074 A 
ATOM     54  C   UNL A   1      43.381  22.909  29.879  1.00  0.00     0.029 A 
ATOM     55  N   UNL A   1      44.573  23.533  28.082  1.00  0.00    -0.354 N 
ATOM     56  N   UNL A   1      46.456  27.403  29.924  1.00  0.00    -0.248 NA
ATOM     57  C   UNL A   1      45.726  26.515  31.980  1.00  0.00     0.031 C 
ATOM     58  C   UNL A   1      44.269  23.944  30.221  1.00  0.00     0.029 A 
ATOM     59  C   UNL A   1      45.018  24.329  29.101  1.00  0.00     0.049 A 
ATOM     60  H   UNL A   1      45.004  23.411  27.205  1.00  0.00     0.167 HD
ATOM     61  C   UNL A   1      46.459  26.029  29.893  1.00  0.00     0.074 A 
ATOM     62  C   UNL A   1      46.342  25.578  31.264  1.00  0.00     0.031 C 
ATOM     63  C   UNL A   1      45.930  25.408  28.806  1.00  0.00     0.037 A 
BRANCH  50  64
ATOM     64  C   UNL A   1      42.513  21.680  26.576  1.00  0.00     0.064 A 
ATOM     65  C   UNL A   1      42.069  20.400  27.002  1.00  0.00     0.173 A 
ATOM     66  C   UNL A   1      43.390  21.703  25.490  1.00  0.00     0.173 A 
ATOM     67  F   UNL A   1      41.179  20.277  28.001  1.00  0.00    -0.203 F 
ATOM     68  C   UNL A   1      42.605  19.223  26.488  1.00  0.00     0.198 A 
ATOM     69  C   UNL A   1      43.886  20.515  24.940  1.00  0.00     0.198 A 
ATOM     70  F   UNL A   1      43.868  22.857  25.010  1.00  0.00    -0.203 F 
ATOM     71  F   UNL A   1      42.280  18.043  27.036  1.00  0.00    -0.200 F 
ATOM     72  C   UNL A   1      43.534  19.283  25.469  1.00  0.00     0.200 A 
ATOM     73  F   UNL A   1      44.780  20.571  23.942  1.00  0.00    -0.200 F 
ATOM     74  F   UNL A   1      44.114  18.161  25.022  1.00  0.00    -0.200 F 
ENDBRANCH  50  64
BRANCH  51  75
ATOM     75  C   UNL A   1      45.854  29.721  32.486  1.00  0.00     0.064 A 
ATOM     76  C   UNL A   1      45.351  29.938  33.773  1.00  0.00     0.173 A 
ATOM     77  C   UNL A   1      47.157  30.272  32.285  1.00  0.00     0.173 A 
ATOM     78  F   UNL A   1      44.088  29.628  34.081  1.00  0.00    -0.203 F 
ATOM     79  C   UNL A   1      46.132  30.515  34.796  1.00  0.00     0.198 A 
ATOM     80  C   UNL A   1      47.953  30.785  33.307  1.00  0.00     0.198 A 
ATOM     81  F   UNL A   1      47.719  30.336  31.070  1.00  0.00    -0.203 F 
ATOM     82  F   UNL A   1      45.604  30.693  36.016  1.00  0.00    -0.200 F 
ATOM     83  C   UNL A   1      47.447  30.889  34.576  1.00  0.00     0.200 A 
ATOM     84  F   UNL A   1      49.216  31.156  33.044  1.00  0.00    -0.200 F 
ATOM     85  F   UNL A   1      48.210  31.362  35.569  1.00  0.00    -0.200 F 
ENDBRANCH  51  75
BRANCH  63  86
ATOM     86  C   UNL A   1      46.040  26.203  27.515  1.00  0.00     0.064 A 
ATOM     87  C   UNL A   1      47.305  26.623  27.065  1.00  0.00     0.173 A 
ATOM     88  C   UNL A   1      44.945  26.669  26.771  1.00  0.00     0.173 A 
ATOM     89  F   UNL A   1      48.413  26.193  27.689  1.00  0.00    -0.203 F 
ATOM     90  C   UNL A   1      47.458  27.486  25.976  1.00  0.00     0.198 A 
ATOM     91  C   UNL A   1      45.093  27.530  25.677  1.00  0.00     0.198 A 
ATOM     92  F   UNL A   1      43.705  26.298  27.081  1.00  0.00    -0.203 F 
ATOM     93  F   UNL A   1      48.684  27.869  25.594  1.00  0.00    -0.200 F 
ATOM     94  C   UNL A   1      46.351  27.945  25.285  1.00  0.00     0.200 A 
ATOM     95  F   UNL A   1      44.010  27.948  25.001  1.00  0.00    -0.200 F 
ATOM     96  F   UNL A   1      46.495  28.765  24.234  1.00  0.00    -0.200 F 
ENDBRANCH  63  86
ENDBRANCH  37  38
ENDBRANCH  29  32
ENDBRANCH  27  28
ENDBRANCH  26  27
ENDBRANCH  25  26
ENDBRANCH  24  25
ENDBRANCH   1  24
TORSDOF 18
ENDMDL
MODEL 2
REMARK VINA RESULT:     -11.2      1.880      2.501
REMARK SMILES C[C@H](CNC(=O)Cn1cccc1C(=O)NCCCCCCNC(=O)c1ccc(-c2c3nc(c(-c4c(F)c(F)c(F)c(F)c4F)c4ccc([nH]4)c(-c4c(F)c(F)c(F)c(F)c4F)c4nc(c(-c5c(F)c(F)c(F)c(F)c5F)c5ccc2[nH]5)C=C4)C=C3)cc1)[NH+](C)C
REMARK SMILES IDX 17 1 16 2 15 3 13 4 14 5 12 7 8 8 9 9 10 10 11 11 7 12 5 13
REMARK SMILES IDX 4 14 6 16 3 17 2 18 1 19 88 20 89 21 90 22 18 24 19 25 20 26
REMARK SMILES IDX 21 27 22 28 23 29 24 31 25 32 26 33 87 34 27 35 86 36 28 37
REMARK SMILES IDX 29 38 30 39 80 40 31 41 85 42 79 43 81 44 32 45 84 46 78 47
REMARK SMILES IDX 77 48 33 50 65 51 45 52 64 53 46 54 49 55 63 56 82 57 47 58
REMARK SMILES IDX 48 59 62 61 83 62 50 63 34 64 35 65 43 66 36 67 37 68 41 69
REMARK SMILES IDX 44 70 38 71 39 72 42 73 40 74 66 75 67 76 75 77 68 78 69 79
REMARK SMILES IDX 73 80 76 81 70 82 71 83 74 84 72 85 51 86 52 87 60 88 53 89
REMARK SMILES IDX 54 90 58 91 61 92 55 93 56 94 59 95 57 96
REMARK H PARENT 15 6 4 15 88 23 22 30 81 49 49 60
REMARK Flexibility Score: inf
ROOT
ATOM      1  C   UNL A   1      34.167  25.807  25.384  1.00  0.00     0.021 C 
ENDROOT
BRANCH   1   2
ATOM      2  C   UNL A   1      33.612  25.563  23.979  1.00  0.00     0.116 C 
BRANCH   2   3
ATOM      3  N   UNL A   1      32.503  24.654  24.028  1.00  0.00    -0.351 N 
ATOM      4  C   UNL A   1      32.136  23.596  24.799  1.00  0.00     0.267 C 
ATOM      5  O   UNL A   1      31.011  23.174  24.500  1.00  0.00    -0.268 OA
ATOM      6  H   UNL A   1      31.840  24.846  23.327  1.00  0.00     0.163 HD
BRANCH   4   7
ATOM      7  C   UNL A   1      32.893  22.964  25.877  1.00  0.00     0.107 A 
ATOM      8  N   UNL A   1      33.992  22.107  25.975  1.00  0.00    -0.334 N 
ATOM      9  C   UNL A   1      34.003  21.556  27.231  1.00  0.00     0.087 A 
ATOM     10  C   UNL A   1      33.155  22.250  28.045  1.00  0.00     0.020 A 
ATOM     11  C   UNL A   1      32.450  23.114  27.200  1.00  0.00     0.033 A 
BRANCH   8  12
ATOM     12  C   UNL A   1      35.021  21.816  24.981  1.00  0.00     0.222 C 
BRANCH  12  13
ATOM     13  C   UNL A   1      35.753  20.486  24.968  1.00  0.00     0.240 C 
ATOM     14  N   UNL A   1      35.086  19.296  24.975  1.00  0.00    -0.349 N 
ATOM     15  H   UNL A   1      35.607  18.527  25.302  1.00  0.00     0.163 HD
ATOM     16  O   UNL A   1      36.981  20.444  25.100  1.00  0.00    -0.273 OA
BRANCH  14  17
ATOM     17  C   UNL A   1      33.721  18.993  24.572  1.00  0.00     0.180 C 
BRANCH  17  18
ATOM     18  C   UNL A   1      33.464  17.469  24.289  1.00  0.00     0.199 C 
ATOM     19  C   UNL A   1      34.070  16.943  22.969  1.00  0.00     0.077 C 
BRANCH  18  20
ATOM     20  N   UNL A   1      33.784  16.611  25.457  1.00  0.00    -0.336 N 
ATOM     21  C   UNL A   1      32.669  15.713  25.782  1.00  0.00     0.332 C 
ATOM     22  C   UNL A   1      35.032  15.864  25.319  1.00  0.00     0.332 C 
ATOM     23  H   UNL A   1      33.927  17.254  26.235  1.00  0.00     0.347 HD
ENDBRANCH  18  20
ENDBRANCH  17  18
ENDBRANCH  14  17
ENDBRANCH  12  13
ENDBRANCH   8  12
ENDBRANCH   4   7
ENDBRANCH   2   3
ENDBRANCH   1   2
BRANCH   1  24
ATOM     24  C   UNL A   1      33.426  26.912  26.134  1.00  0.00     0.002 C 
BRANCH  24  25
ATOM     25  C   UNL A   1      33.657  28.313  25.556  1.00  0.00     0.002 C 
BRANCH  25  26
ATOM     26  C   UNL A   1      33.875  29.415  26.605  1.00  0.00     0.021 C 
BRANCH  26  27
ATOM     27  C   UNL A   1      35.140  29.193  27.427  1.00  0.00     0.116 C 
BRANCH  27  28
ATOM     28  N   UNL A   1      35.315  30.305  28.345  1.00  0.00    -0.352 N 
ATOM     29  C   UNL A   1      36.228  30.517  29.335  1.00  0.00     0.251 C 
ATOM     30  H   UNL A   1      34.660  31.030  28.233  1.00  0.00     0.163 HD
ATOM     31  O   UNL A   1      35.999  31.370  30.183  1.00  0.00    -0.269 OA
BRANCH  29  32
ATOM     32  C   UNL A   1      37.474  29.734  29.411  1.00  0.00     0.039 A 
ATOM     33  C   UNL A   1      38.472  30.041  28.481  1.00  0.00     0.014 A 
ATOM     34  C   UNL A   1      37.626  28.657  30.292  1.00  0.00     0.014 A 
ATOM     35  C   UNL A   1      39.639  29.295  28.459  1.00  0.00     0.010 A 
ATOM     36  C   UNL A   1      38.807  27.925  30.294  1.00  0.00     0.010 A 
ATOM     37  C   UNL A   1      39.811  28.252  29.381  1.00  0.00    -0.014 A 
BRANCH  37  38
ATOM     38  C   UNL A   1      41.150  27.641  29.476  1.00  0.00     0.031 A 
ATOM     39  C   UNL A   1      41.177  26.299  28.726  1.00  0.00     0.074 A 
ATOM     40  C   UNL A   1      42.076  28.289  30.251  1.00  0.00     0.049 A 
ATOM     41  N   UNL A   1      41.817  25.211  29.015  1.00  0.00    -0.248 NA
ATOM     42  C   UNL A   1      40.296  26.090  27.540  1.00  0.00     0.031 C 
ATOM     43  C   UNL A   1      41.866  29.619  30.862  1.00  0.00     0.029 A 
ATOM     44  N   UNL A   1      43.350  27.986  30.701  1.00  0.00    -0.354 N 
ATOM     45  C   UNL A   1      41.580  24.275  27.982  1.00  0.00     0.074 A 
ATOM     46  C   UNL A   1      40.537  24.827  27.174  1.00  0.00     0.031 C 
ATOM     47  C   UNL A   1      42.903  29.959  31.657  1.00  0.00     0.029 A 
ATOM     48  C   UNL A   1      43.896  28.903  31.646  1.00  0.00     0.049 A 
ATOM     49  H   UNL A   1      43.845  27.194  30.389  1.00  0.00     0.167 HD
ATOM     50  C   UNL A   1      42.381  23.182  27.796  1.00  0.00     0.037 A 
ATOM     51  C   UNL A   1      45.036  28.795  32.406  1.00  0.00     0.037 A 
ATOM     52  C   UNL A   1      43.423  23.203  28.767  1.00  0.00     0.049 A 
ATOM     53  C   UNL A   1      45.724  27.601  31.901  1.00  0.00     0.074 A 
ATOM     54  C   UNL A   1      43.403  22.992  30.119  1.00  0.00     0.029 A 
ATOM     55  N   UNL A   1      44.564  23.887  28.419  1.00  0.00    -0.354 N 
ATOM     56  N   UNL A   1      46.336  27.535  30.757  1.00  0.00    -0.248 NA
ATOM     57  C   UNL A   1      45.647  26.358  32.678  1.00  0.00     0.031 C 
ATOM     58  C   UNL A   1      44.261  23.999  30.594  1.00  0.00     0.029 A 
ATOM     59  C   UNL A   1      44.990  24.554  29.535  1.00  0.00     0.049 A 
ATOM     60  H   UNL A   1      44.993  23.896  27.533  1.00  0.00     0.167 HD
ATOM     61  C   UNL A   1      46.382  26.179  30.543  1.00  0.00     0.074 A 
ATOM     62  C   UNL A   1      46.287  25.545  31.842  1.00  0.00     0.031 C 
ATOM     63  C   UNL A   1      45.866  25.691  29.384  1.00  0.00     0.037 A 
BRANCH  50  64
ATOM     64  C   UNL A   1      42.555  22.186  26.684  1.00  0.00     0.064 A 
ATOM     65  C   UNL A   1      42.100  20.860  26.916  1.00  0.00     0.173 A 
ATOM     66  C   UNL A   1      43.463  22.356  25.637  1.00  0.00     0.173 A 
ATOM     67  F   UNL A   1      41.183  20.603  27.863  1.00  0.00    -0.203 F 
ATOM     68  C   UNL A   1      42.653  19.764  26.260  1.00  0.00     0.198 A 
ATOM     69  C   UNL A   1      43.976  21.254  24.943  1.00  0.00     0.198 A 
ATOM     70  F   UNL A   1      43.952  23.564  25.335  1.00  0.00    -0.203 F 
ATOM     71  F   UNL A   1      42.315  18.521  26.631  1.00  0.00    -0.200 F 
ATOM     72  C   UNL A   1      43.611  19.962  25.287  1.00  0.00     0.200 A 
ATOM     73  F   UNL A   1      44.898  21.446  23.989  1.00  0.00    -0.200 F 
ATOM     74  F   UNL A   1      44.206  18.910  24.706  1.00  0.00    -0.200 F 
ENDBRANCH  50  64
BRANCH  51  75
ATOM     75  C   UNL A   1      45.677  29.472  33.606  1.00  0.00     0.064 A 
ATOM     76  C   UNL A   1      45.115  29.613  34.879  1.00  0.00     0.173 A 
ATOM     77  C   UNL A   1      47.018  29.958  33.519  1.00  0.00     0.173 A 
ATOM     78  F   UNL A   1      43.822  29.355  35.095  1.00  0.00    -0.203 F 
ATOM     79  C   UNL A   1      45.868  30.057  35.985  1.00  0.00     0.198 A 
ATOM     80  C   UNL A   1      47.783  30.338  34.620  1.00  0.00     0.198 A 
ATOM     81  F   UNL A   1      47.650  30.087  32.345  1.00  0.00    -0.203 F 
ATOM     82  F   UNL A   1      45.283  30.167  37.187  1.00  0.00    -0.200 F 
ATOM     83  C   UNL A   1      47.212  30.368  35.866  1.00  0.00     0.200 A 
ATOM     84  F   UNL A   1      49.077  30.653  34.454  1.00  0.00    -0.200 F 
ATOM     85  F   UNL A   1      47.944  30.713  36.933  1.00  0.00    -0.200 F 
ENDBRANCH  51  75
BRANCH  63  86
ATOM     86  C   UNL A   1      45.944  26.653  28.211  1.00  0.00     0.064 A 
ATOM     87  C   UNL A   1      47.199  27.119  27.777  1.00  0.00     0.173 A 
ATOM     88  C   UNL A   1      44.831  27.227  27.576  1.00  0.00     0.173 A 
ATOM     89  F   UNL A   1      48.321  26.597  28.297  1.00  0.00    -0.203 F 
ATOM     90  C   UNL A   1      47.326  28.121  26.811  1.00  0.00     0.198 A 
ATOM     91  C   UNL A   1      44.954  28.228  26.605  1.00  0.00     0.198 A 
ATOM     92  F   UNL A   1      43.597  26.829  27.876  1.00  0.00    -0.203 F 
ATOM     93  F   UNL A   1      48.544  28.541  26.441  1.00  0.00    -0.200 F 
ATOM     94  C   UNL A   1      46.203  28.681  26.229  1.00  0.00     0.200 A 
ATOM     95  F   UNL A   1      43.855  28.745  26.031  1.00  0.00    -0.200 F 
ATOM     96  F   UNL A   1      46.323  29.635  25.294  1.00  0.00    -0.200 F 
ENDBRANCH  63  86
ENDBRANCH  37  38
ENDBRANCH  29  32
ENDBRANCH  27  28
ENDBRANCH  26  27
ENDBRANCH  25  26
ENDBRANCH  24  25
ENDBRANCH   1  24
TORSDOF 18
ENDMDL
MODEL 3
REMARK VINA RESULT:     -11.2      1.458      2.751
REMARK SMILES C[C@H](CNC(=O)Cn1cccc1C(=O)NCCCCCCNC(=O)c1ccc(-c2c3nc(c(-c4c(F)c(F)c(F)c(F)c4F)c4ccc([nH]4)c(-c4c(F)c(F)c(F)c(F)c4F)c4nc(c(-c5c(F)c(F)c(F)c(F)c5F)c5ccc2[nH]5)C=C4)C=C3)cc1)[NH+](C)C
REMARK SMILES IDX 17 1 16 2 15 3 13 4 14 5 12 7 8 8 9 9 10 10 11 11 7 12 5 13
REMARK SMILES IDX 4 14 6 16 3 17 2 18 1 19 88 20 89 21 90 22 18 24 19 25 20 26
REMARK SMILES IDX 21 27 22 28 23 29 24 31 25 32 26 33 87 34 27 35 86 36 28 37
REMARK SMILES IDX 29 38 30 39 80 40 31 41 85 42 79 43 81 44 32 45 84 46 78 47
REMARK SMILES IDX 77 48 33 50 65 51 45 52 64 53 46 54 49 55 63 56 82 57 47 58
REMARK SMILES IDX 48 59 62 61 83 62 50 63 34 64 35 65 43 66 36 67 37 68 41 69
REMARK SMILES IDX 44 70 38 71 39 72 42 73 40 74 66 75 67 76 75 77 68 78 69 79
REMARK SMILES IDX 73 80 76 81 70 82 71 83 74 84 72 85 51 86 52 87 60 88 53 89
REMARK SMILES IDX 54 90 58 91 61 92 55 93 56 94 59 95 57 96
REMARK H PARENT 15 6 4 15 88 23 22 30 81 49 49 60
REMARK Flexibility Score: inf
ROOT
ATOM      1  C   UNL A   1      31.153  26.636  26.001  1.00  0.00     0.021 C 
ENDROOT
BRANCH   1   2
ATOM      2  C   UNL A   1      30.358  25.331  26.084  1.00  0.00     0.116 C 
BRANCH   2   3
ATOM      3  N   UNL A   1      30.108  24.811  24.770  1.00  0.00    -0.351 N 
ATOM      4  C   UNL A   1      30.809  24.099  23.849  1.00  0.00     0.267 C 
ATOM      5  O   UNL A   1      30.115  23.803  22.867  1.00  0.00    -0.268 OA
ATOM      6  H   UNL A   1      29.199  25.021  24.458  1.00  0.00     0.163 HD
BRANCH   4   7
ATOM      7  C   UNL A   1      32.207  23.677  23.911  1.00  0.00     0.107 A 
ATOM      8  N   UNL A   1      33.042  23.076  24.857  1.00  0.00    -0.334 N 
ATOM      9  C   UNL A   1      34.344  23.279  24.478  1.00  0.00     0.087 A 
ATOM     10  C   UNL A   1      34.385  23.704  23.181  1.00  0.00     0.020 A 
ATOM     11  C   UNL A   1      33.056  23.970  22.833  1.00  0.00     0.033 A 
BRANCH   8  12
ATOM     12  C   UNL A   1      32.680  22.314  26.048  1.00  0.00     0.222 C 
BRANCH  12  13
ATOM     13  C   UNL A   1      33.492  21.111  26.494  1.00  0.00     0.240 C 
ATOM     14  N   UNL A   1      33.300  19.872  25.954  1.00  0.00    -0.349 N 
ATOM     15  H   UNL A   1      33.604  19.121  26.513  1.00  0.00     0.163 HD
ATOM     16  O   UNL A   1      34.250  21.191  27.466  1.00  0.00    -0.273 OA
BRANCH  14  17
ATOM     17  C   UNL A   1      32.713  19.495  24.677  1.00  0.00     0.180 C 
BRANCH  17  18
ATOM     18  C   UNL A   1      32.706  17.947  24.412  1.00  0.00     0.199 C 
ATOM     19  C   UNL A   1      32.995  17.538  22.951  1.00  0.00     0.077 C 
BRANCH  18  20
ATOM     20  N   UNL A   1      33.524  17.196  25.397  1.00  0.00    -0.336 N 
ATOM     21  C   UNL A   1      32.817  16.004  25.880  1.00  0.00     0.332 C 
ATOM     22  C   UNL A   1      34.860  16.853  24.919  1.00  0.00     0.332 C 
ATOM     23  H   UNL A   1      33.662  17.836  26.179  1.00  0.00     0.347 HD
ENDBRANCH  18  20
ENDBRANCH  17  18
ENDBRANCH  14  17
ENDBRANCH  12  13
ENDBRANCH   8  12
ENDBRANCH   4   7
ENDBRANCH   2   3
ENDBRANCH   1   2
BRANCH   1  24
ATOM     24  C   UNL A   1      32.664  26.417  26.059  1.00  0.00     0.002 C 
BRANCH  24  25
ATOM     25  C   UNL A   1      33.476  27.543  25.410  1.00  0.00     0.002 C 
BRANCH  25  26
ATOM     26  C   UNL A   1      33.714  28.767  26.308  1.00  0.00     0.021 C 
BRANCH  26  27
ATOM     27  C   UNL A   1      35.091  28.750  26.963  1.00  0.00     0.116 C 
BRANCH  27  28
ATOM     28  N   UNL A   1      35.424  30.090  27.412  1.00  0.00    -0.352 N 
ATOM     29  C   UNL A   1      36.467  30.555  28.157  1.00  0.00     0.251 C 
ATOM     30  H   UNL A   1      34.785  30.783  27.129  1.00  0.00     0.163 HD
ATOM     31  O   UNL A   1      36.382  31.661  28.675  1.00  0.00    -0.269 OA
BRANCH  29  32
ATOM     32  C   UNL A   1      37.683  29.750  28.360  1.00  0.00     0.039 A 
ATOM     33  C   UNL A   1      38.636  29.772  27.336  1.00  0.00     0.014 A 
ATOM     34  C   UNL A   1      37.847  28.909  29.468  1.00  0.00     0.014 A 
ATOM     35  C   UNL A   1      39.770  28.983  27.439  1.00  0.00     0.010 A 
ATOM     36  C   UNL A   1      38.996  28.139  29.590  1.00  0.00     0.010 A 
ATOM     37  C   UNL A   1      39.957  28.185  28.576  1.00  0.00    -0.014 A 
BRANCH  37  38
ATOM     38  C   UNL A   1      41.274  27.546  28.752  1.00  0.00     0.031 A 
ATOM     39  C   UNL A   1      41.270  26.139  28.132  1.00  0.00     0.074 A 
ATOM     40  C   UNL A   1      42.208  28.237  29.479  1.00  0.00     0.049 A 
ATOM     41  N   UNL A   1      41.872  25.065  28.532  1.00  0.00    -0.248 NA
ATOM     42  C   UNL A   1      40.400  25.847  26.955  1.00  0.00     0.031 C 
ATOM     43  C   UNL A   1      42.030  29.624  29.959  1.00  0.00     0.029 A 
ATOM     44  N   UNL A   1      43.466  27.940  29.977  1.00  0.00    -0.354 N 
ATOM     45  C   UNL A   1      41.621  24.044  27.588  1.00  0.00     0.074 A 
ATOM     46  C   UNL A   1      40.608  24.547  26.713  1.00  0.00     0.031 C 
ATOM     47  C   UNL A   1      43.066  30.006  30.736  1.00  0.00     0.029 A 
ATOM     48  C   UNL A   1      44.026  28.926  30.842  1.00  0.00     0.049 A 
ATOM     49  H   UNL A   1      43.940  27.108  29.750  1.00  0.00     0.167 HD
ATOM     50  C   UNL A   1      42.391  22.915  27.518  1.00  0.00     0.037 A 
ATOM     51  C   UNL A   1      45.150  28.856  31.629  1.00  0.00     0.037 A 
ATOM     52  C   UNL A   1      43.418  22.997  28.501  1.00  0.00     0.049 A 
ATOM     53  C   UNL A   1      45.808  27.600  31.250  1.00  0.00     0.074 A 
ATOM     54  C   UNL A   1      43.372  22.914  29.867  1.00  0.00     0.029 A 
ATOM     55  N   UNL A   1      44.585  23.610  28.111  1.00  0.00    -0.354 N 
ATOM     56  N   UNL A   1      46.435  27.408  30.128  1.00  0.00    -0.248 NA
ATOM     57  C   UNL A   1      45.682  26.438  32.138  1.00  0.00     0.031 C 
ATOM     58  C   UNL A   1      44.253  23.936  30.260  1.00  0.00     0.029 A 
ATOM     59  C   UNL A   1      45.015  24.366  29.167  1.00  0.00     0.049 A 
ATOM     60  H   UNL A   1      45.027  23.524  27.236  1.00  0.00     0.167 HD
ATOM     61  C   UNL A   1      46.442  26.037  30.043  1.00  0.00     0.074 A 
ATOM     62  C   UNL A   1      46.309  25.532  31.393  1.00  0.00     0.031 C 
ATOM     63  C   UNL A   1      45.928  25.458  28.925  1.00  0.00     0.037 A 
BRANCH  50  64
ATOM     64  C   UNL A   1      42.550  21.814  26.508  1.00  0.00     0.064 A 
ATOM     65  C   UNL A   1      42.104  20.516  26.877  1.00  0.00     0.173 A 
ATOM     66  C   UNL A   1      43.439  21.881  25.434  1.00  0.00     0.173 A 
ATOM     67  F   UNL A   1      41.202  20.353  27.860  1.00  0.00    -0.203 F 
ATOM     68  C   UNL A   1      42.650  19.362  26.324  1.00  0.00     0.198 A 
ATOM     69  C   UNL A   1      43.946  20.717  24.843  1.00  0.00     0.198 A 
ATOM     70  F   UNL A   1      43.919  23.055  25.005  1.00  0.00    -0.203 F 
ATOM     71  F   UNL A   1      42.322  18.161  26.821  1.00  0.00    -0.200 F 
ATOM     72  C   UNL A   1      43.591  19.464  25.320  1.00  0.00     0.200 A 
ATOM     73  F   UNL A   1      44.851  20.815  23.860  1.00  0.00    -0.200 F 
ATOM     74  F   UNL A   1      44.180  18.362  24.836  1.00  0.00    -0.200 F 
ENDBRANCH  50  64
BRANCH  51  75
ATOM     75  C   UNL A   1      45.795  29.623  32.771  1.00  0.00     0.064 A 
ATOM     76  C   UNL A   1      47.126  30.046  32.841  1.00  0.00     0.173 A 
ATOM     77  C   UNL A   1      45.000  30.060  33.875  1.00  0.00     0.173 A 
ATOM     78  F   UNL A   1      48.039  29.597  31.976  1.00  0.00    -0.203 F 
ATOM     79  C   UNL A   1      47.577  30.939  33.836  1.00  0.00     0.198 A 
ATOM     80  C   UNL A   1      45.425  30.990  34.822  1.00  0.00     0.198 A 
ATOM     81  F   UNL A   1      43.760  29.596  34.084  1.00  0.00    -0.203 F 
ATOM     82  F   UNL A   1      48.862  31.320  33.853  1.00  0.00    -0.200 F 
ATOM     83  C   UNL A   1      46.715  31.450  34.791  1.00  0.00     0.200 A 
ATOM     84  F   UNL A   1      44.561  31.442  35.744  1.00  0.00    -0.200 F 
ATOM     85  F   UNL A   1      47.128  32.358  35.685  1.00  0.00    -0.200 F 
ENDBRANCH  51  75
BRANCH  63  86
ATOM     86  C   UNL A   1      46.053  26.303  27.669  1.00  0.00     0.064 A 
ATOM     87  C   UNL A   1      44.896  26.640  26.942  1.00  0.00     0.173 A 
ATOM     88  C   UNL A   1      47.270  26.690  27.086  1.00  0.00     0.173 A 
ATOM     89  F   UNL A   1      43.684  26.347  27.441  1.00  0.00    -0.203 F 
ATOM     90  C   UNL A   1      44.958  27.278  25.700  1.00  0.00     0.198 A 
ATOM     91  C   UNL A   1      47.337  27.332  25.844  1.00  0.00     0.198 A 
ATOM     92  F   UNL A   1      48.424  26.461  27.708  1.00  0.00    -0.203 F 
ATOM     93  F   UNL A   1      43.827  27.566  25.040  1.00  0.00    -0.200 F 
ATOM     94  C   UNL A   1      46.180  27.618  25.147  1.00  0.00     0.200 A 
ATOM     95  F   UNL A   1      48.529  27.679  25.332  1.00  0.00    -0.200 F 
ATOM     96  F   UNL A   1      46.241  28.239  23.960  1.00  0.00    -0.200 F 
ENDBRANCH  63  86
ENDBRANCH  37  38
ENDBRANCH  29  32
ENDBRANCH  27  28
ENDBRANCH  26  27
ENDBRANCH  25  26
ENDBRANCH  24  25
ENDBRANCH   1  24
TORSDOF 18
ENDMDL
