MODEL 1
REMARK VINA RESULT:     -12.6      0.000      0.000
REMARK SMILES CNC(=O)c1ccc(Cl)cc1NC(=O)[C@H]1[C@@H](C(=O)NCCCCCCNC(=O)c2ccc(-c3c4nc(c(-c5c(F)c(F)c(F)c(F)c5F)c5ccc([nH]5)c(-c5c(F)c(F)c(F)c(F)c5F)c5nc(c(-c6c(F)c(F)c(F)c(F)c6F)c6ccc3[nH]6)C=C5)C=C4)cc2)[C@H]2C=C[C@@H]1C2
REMARK SMILES IDX 22 1 21 2 20 3 19 4 17 5 18 6 16 8 15 9 95 10 92 11 94 12
REMARK SMILES IDX 96 13 93 14 13 15 12 16 14 18 11 19 5 20 6 21 7 22 10 23
REMARK SMILES IDX 8 24 9 25 3 26 1 27 2 28 4 30 23 31 24 32 25 33 26 34 27 35
REMARK SMILES IDX 28 37 29 38 30 39 91 40 31 41 90 42 32 43 33 44 34 45 84 46
REMARK SMILES IDX 35 47 89 48 83 49 85 50 36 51 88 52 82 53 81 54 37 56 69 57
REMARK SMILES IDX 49 58 68 59 50 60 53 61 67 62 86 63 51 64 52 65 66 67 87 68
REMARK SMILES IDX 54 69 38 70 39 71 47 72 40 73 41 74 45 75 48 76 42 77 43 78
REMARK SMILES IDX 46 79 44 80 70 81 71 82 79 83 72 84 73 85 77 86 80 87 74 88
REMARK SMILES IDX 75 89 78 90 76 91 55 92 56 93 64 94 57 95 58 96 62 97 65 98
REMARK SMILES IDX 59 99 60 100 63 101 61 102
REMARK H PARENT 19 7 12 17 2 29 26 36 85 55 53 66
REMARK Flexibility Score: inf
ROOT
ATOM      1  C   UNL A   1      32.956  29.978  27.262  1.00  0.00     0.002 C 
ENDROOT
BRANCH   1   2
ATOM      2  C   UNL A   1      34.085  29.369  26.438  1.00  0.00     0.021 C 
BRANCH   2   3
ATOM      3  C   UNL A   1      33.949  29.377  24.911  1.00  0.00     0.116 C 
BRANCH   3   4
ATOM      4  N   UNL A   1      34.234  28.147  24.184  1.00  0.00    -0.356 N 
ATOM      5  C   UNL A   1      33.454  27.543  23.229  1.00  0.00     0.224 C 
ATOM      6  O   UNL A   1      33.986  27.083  22.221  1.00  0.00    -0.275 OA
ATOM      7  H   UNL A   1      35.084  27.698  24.401  1.00  0.00     0.163 HD
BRANCH   5   8
ATOM      8  C   UNL A   1      31.967  27.561  23.403  1.00  0.00     0.098 C 
ATOM      9  C   UNL A   1      31.369  27.282  24.779  1.00  0.00     0.099 C 
ATOM     10  C   UNL A   1      29.910  26.828  24.409  1.00  0.00     0.025 C 
ATOM     11  C   UNL A   1      31.019  26.755  22.467  1.00  0.00     0.025 C 
ATOM     12  C   UNL A   1      30.009  25.378  24.047  1.00  0.00    -0.027 C 
ATOM     13  C   UNL A   1      29.696  27.365  22.983  1.00  0.00     0.017 C 
ATOM     14  C   UNL A   1      30.740  25.324  22.923  1.00  0.00    -0.027 C 
BRANCH   9  15
ATOM     15  C   UNL A   1      31.931  26.385  25.900  1.00  0.00     0.228 C 
ATOM     16  N   UNL A   1      32.734  25.301  25.962  1.00  0.00    -0.325 N 
ATOM     17  H   UNL A   1      32.972  25.185  26.910  1.00  0.00     0.169 HD
ATOM     18  O   UNL A   1      31.636  26.793  27.047  1.00  0.00    -0.274 OA
BRANCH  16  19
ATOM     19  C   UNL A   1      33.386  24.256  25.253  1.00  0.00     0.055 A 
ATOM     20  C   UNL A   1      32.767  22.968  25.247  1.00  0.00     0.063 A 
ATOM     21  C   UNL A   1      33.214  21.922  24.421  1.00  0.00     0.017 A 
ATOM     22  C   UNL A   1      34.414  22.049  23.750  1.00  0.00     0.021 A 
ATOM     23  C   UNL A   1      34.548  24.374  24.499  1.00  0.00     0.047 A 
ATOM     24  C   UNL A   1      35.096  23.258  23.830  1.00  0.00     0.043 A 
ATOM     25  Cl  UNL A   1      36.649  23.357  23.090  1.00  0.00    -0.084 Cl
BRANCH  20  26
ATOM     26  C   UNL A   1      31.662  22.626  26.179  1.00  0.00     0.253 C 
ATOM     27  C   UNL A   1      33.243  22.237  28.147  1.00  0.00     0.143 C 
ATOM     28  N   UNL A   1      31.960  22.226  27.465  1.00  0.00    -0.355 N 
ATOM     29  H   UNL A   1      31.201  21.887  27.992  1.00  0.00     0.163 HD
ATOM     30  O   UNL A   1      30.499  22.744  25.809  1.00  0.00    -0.269 OA
ENDBRANCH  20  26
ENDBRANCH  16  19
ENDBRANCH   9  15
ENDBRANCH   5   8
ENDBRANCH   3   4
ENDBRANCH   2   3
ENDBRANCH   1   2
BRANCH   1  31
ATOM     31  C   UNL A   1      31.781  30.561  26.494  1.00  0.00     0.002 C 
BRANCH  31  32
ATOM     32  C   UNL A   1      31.514  32.038  26.725  1.00  0.00     0.021 C 
BRANCH  32  33
ATOM     33  C   UNL A   1      32.674  32.786  27.365  1.00  0.00     0.116 C 
BRANCH  33  34
ATOM     34  N   UNL A   1      32.374  34.184  27.646  1.00  0.00    -0.352 N 
ATOM     35  C   UNL A   1      32.967  35.012  28.577  1.00  0.00     0.251 C 
ATOM     36  H   UNL A   1      31.659  34.588  27.103  1.00  0.00     0.163 HD
ATOM     37  O   UNL A   1      32.532  36.127  28.800  1.00  0.00    -0.269 OA
BRANCH  35  38
ATOM     38  C   UNL A   1      34.126  34.491  29.336  1.00  0.00     0.039 A 
ATOM     39  C   UNL A   1      33.906  33.807  30.532  1.00  0.00     0.014 A 
ATOM     40  C   UNL A   1      35.415  34.599  28.805  1.00  0.00     0.014 A 
ATOM     41  C   UNL A   1      34.973  33.154  31.154  1.00  0.00     0.010 A 
ATOM     42  C   UNL A   1      36.451  33.868  29.372  1.00  0.00     0.010 A 
ATOM     43  C   UNL A   1      36.243  33.140  30.553  1.00  0.00    -0.014 A 
BRANCH  43  44
ATOM     44  C   UNL A   1      37.373  32.377  31.145  1.00  0.00     0.031 A 
ATOM     45  C   UNL A   1      37.866  32.722  32.523  1.00  0.00     0.074 A 
ATOM     46  C   UNL A   1      38.001  31.431  30.418  1.00  0.00     0.049 A 
ATOM     47  N   UNL A   1      38.879  32.228  33.189  1.00  0.00    -0.248 NA
ATOM     48  C   UNL A   1      37.147  33.791  33.234  1.00  0.00     0.031 C 
ATOM     49  C   UNL A   1      37.656  31.046  29.050  1.00  0.00     0.029 A 
ATOM     50  N   UNL A   1      39.069  30.627  30.729  1.00  0.00    -0.354 N 
ATOM     51  C   UNL A   1      38.931  32.940  34.379  1.00  0.00     0.074 A 
ATOM     52  C   UNL A   1      37.888  33.940  34.321  1.00  0.00     0.031 C 
ATOM     53  C   UNL A   1      38.474  30.057  28.651  1.00  0.00     0.029 A 
ATOM     54  C   UNL A   1      39.424  29.765  29.719  1.00  0.00     0.049 A 
ATOM     55  H   UNL A   1      39.538  30.664  31.594  1.00  0.00     0.167 HD
ATOM     56  C   UNL A   1      39.754  32.759  35.439  1.00  0.00     0.037 A 
ATOM     57  C   UNL A   1      40.406  28.844  29.665  1.00  0.00     0.037 A 
ATOM     58  C   UNL A   1      40.764  31.736  35.509  1.00  0.00     0.049 A 
ATOM     59  C   UNL A   1      41.302  28.656  30.861  1.00  0.00     0.074 A 
ATOM     60  C   UNL A   1      41.595  31.416  36.568  1.00  0.00     0.029 A 
ATOM     61  N   UNL A   1      41.078  30.867  34.475  1.00  0.00    -0.354 N 
ATOM     62  N   UNL A   1      41.286  29.279  32.014  1.00  0.00    -0.248 NA
ATOM     63  C   UNL A   1      42.350  27.631  30.747  1.00  0.00     0.031 C 
ATOM     64  C   UNL A   1      42.448  30.386  36.157  1.00  0.00     0.029 A 
ATOM     65  C   UNL A   1      42.110  30.027  34.862  1.00  0.00     0.049 A 
ATOM     66  H   UNL A   1      40.634  30.850  33.597  1.00  0.00     0.167 HD
ATOM     67  C   UNL A   1      42.294  28.699  32.774  1.00  0.00     0.074 A 
ATOM     68  C   UNL A   1      42.893  27.667  31.955  1.00  0.00     0.031 C 
ATOM     69  C   UNL A   1      42.686  28.995  34.038  1.00  0.00     0.037 A 
BRANCH  56  70
ATOM     70  C   UNL A   1      39.594  33.686  36.609  1.00  0.00     0.064 A 
ATOM     71  C   UNL A   1      38.803  33.345  37.718  1.00  0.00     0.173 A 
ATOM     72  C   UNL A   1      40.261  34.920  36.635  1.00  0.00     0.173 A 
ATOM     73  F   UNL A   1      38.134  32.182  37.739  1.00  0.00    -0.203 F 
ATOM     74  C   UNL A   1      38.658  34.220  38.792  1.00  0.00     0.198 A 
ATOM     75  C   UNL A   1      40.140  35.778  37.726  1.00  0.00     0.198 A 
ATOM     76  F   UNL A   1      41.033  35.294  35.604  1.00  0.00    -0.203 F 
ATOM     77  F   UNL A   1      37.852  33.896  39.812  1.00  0.00    -0.200 F 
ATOM     78  C   UNL A   1      39.333  35.431  38.798  1.00  0.00     0.200 A 
ATOM     79  F   UNL A   1      40.804  36.942  37.737  1.00  0.00    -0.200 F 
ATOM     80  F   UNL A   1      39.197  36.269  39.835  1.00  0.00    -0.200 F 
ENDBRANCH  56  70
BRANCH  57  81
ATOM     81  C   UNL A   1      40.571  27.999  28.452  1.00  0.00     0.064 A 
ATOM     82  C   UNL A   1      41.345  28.444  27.370  1.00  0.00     0.173 A 
ATOM     83  C   UNL A   1      39.956  26.745  28.341  1.00  0.00     0.173 A 
ATOM     84  F   UNL A   1      41.938  29.646  27.420  1.00  0.00    -0.203 F 
ATOM     85  C   UNL A   1      41.478  27.677  26.214  1.00  0.00     0.198 A 
ATOM     86  C   UNL A   1      40.112  25.966  27.195  1.00  0.00     0.198 A 
ATOM     87  F   UNL A   1      39.209  26.271  29.348  1.00  0.00    -0.203 F 
ATOM     88  F   UNL A   1      42.183  28.148  25.177  1.00  0.00    -0.200 F 
ATOM     89  C   UNL A   1      40.865  26.435  26.130  1.00  0.00     0.200 A 
ATOM     90  F   UNL A   1      39.531  24.760  27.124  1.00  0.00    -0.200 F 
ATOM     91  F   UNL A   1      40.994  25.697  25.020  1.00  0.00    -0.200 F 
ENDBRANCH  57  81
BRANCH  69  92
ATOM     92  C   UNL A   1      43.787  28.164  34.630  1.00  0.00     0.064 A 
ATOM     93  C   UNL A   1      45.120  28.598  34.631  1.00  0.00     0.173 A 
ATOM     94  C   UNL A   1      43.494  26.935  35.243  1.00  0.00     0.173 A 
ATOM     95  F   UNL A   1      45.454  29.757  34.046  1.00  0.00    -0.203 F 
ATOM     96  C   UNL A   1      46.125  27.819  35.201  1.00  0.00     0.198 A 
ATOM     97  C   UNL A   1      44.495  26.175  35.839  1.00  0.00     0.198 A 
ATOM     98  F   UNL A   1      42.233  26.479  35.275  1.00  0.00    -0.203 F 
ATOM     99  F   UNL A   1      47.399  28.228  35.146  1.00  0.00    -0.200 F 
ATOM    100  C   UNL A   1      45.810  26.614  35.811  1.00  0.00     0.200 A 
ATOM    101  F   UNL A   1      44.188  25.018  36.442  1.00  0.00    -0.200 F 
ATOM    102  F   UNL A   1      46.778  25.869  36.367  1.00  0.00    -0.200 F 
ENDBRANCH  69  92
ENDBRANCH  43  44
ENDBRANCH  35  38
ENDBRANCH  33  34
ENDBRANCH  32  33
ENDBRANCH  31  32
ENDBRANCH   1  31
TORSDOF 16
ENDMDL
MODEL 2
REMARK VINA RESULT:     -12.5      1.294      2.265
REMARK SMILES CNC(=O)c1ccc(Cl)cc1NC(=O)[C@H]1[C@@H](C(=O)NCCCCCCNC(=O)c2ccc(-c3c4nc(c(-c5c(F)c(F)c(F)c(F)c5F)c5ccc([nH]5)c(-c5c(F)c(F)c(F)c(F)c5F)c5nc(c(-c6c(F)c(F)c(F)c(F)c6F)c6ccc3[nH]6)C=C5)C=C4)cc2)[C@H]2C=C[C@@H]1C2
REMARK SMILES IDX 22 1 21 2 20 3 19 4 17 5 18 6 16 8 15 9 95 10 92 11 94 12
REMARK SMILES IDX 96 13 93 14 13 15 12 16 14 18 11 19 5 20 6 21 7 22 10 23
REMARK SMILES IDX 8 24 9 25 3 26 1 27 2 28 4 30 23 31 24 32 25 33 26 34 27 35
REMARK SMILES IDX 28 37 29 38 30 39 91 40 31 41 90 42 32 43 33 44 34 45 84 46
REMARK SMILES IDX 35 47 89 48 83 49 85 50 36 51 88 52 82 53 81 54 37 56 69 57
REMARK SMILES IDX 49 58 68 59 50 60 53 61 67 62 86 63 51 64 52 65 66 67 87 68
REMARK SMILES IDX 54 69 38 70 39 71 47 72 40 73 41 74 45 75 48 76 42 77 43 78
REMARK SMILES IDX 46 79 44 80 70 81 71 82 79 83 72 84 73 85 77 86 80 87 74 88
REMARK SMILES IDX 75 89 78 90 76 91 55 92 56 93 64 94 57 95 58 96 62 97 65 98
REMARK SMILES IDX 59 99 60 100 63 101 61 102
REMARK H PARENT 19 7 12 17 2 29 26 36 85 55 53 66
REMARK Flexibility Score: inf
ROOT
ATOM      1  C   UNL A   1      33.129  30.280  27.221  1.00  0.00     0.002 C 
ENDROOT
BRANCH   1   2
ATOM      2  C   UNL A   1      33.222  28.766  27.379  1.00  0.00     0.021 C 
BRANCH   2   3
ATOM      3  C   UNL A   1      34.131  27.995  26.416  1.00  0.00     0.116 C 
BRANCH   3   4
ATOM      4  N   UNL A   1      33.789  27.984  24.999  1.00  0.00    -0.356 N 
ATOM      5  C   UNL A   1      32.566  27.707  24.439  1.00  0.00     0.224 C 
ATOM      6  O   UNL A   1      32.161  28.399  23.508  1.00  0.00    -0.275 OA
ATOM      7  H   UNL A   1      34.517  28.202  24.373  1.00  0.00     0.163 HD
BRANCH   5   8
ATOM      8  C   UNL A   1      31.723  26.634  25.055  1.00  0.00     0.098 C 
ATOM      9  C   UNL A   1      32.288  25.223  25.194  1.00  0.00     0.099 C 
ATOM     10  C   UNL A   1      30.977  24.363  25.305  1.00  0.00     0.025 C 
ATOM     11  C   UNL A   1      30.267  26.356  24.579  1.00  0.00     0.025 C 
ATOM     12  C   UNL A   1      30.508  24.144  23.899  1.00  0.00    -0.027 C 
ATOM     13  C   UNL A   1      29.892  25.374  25.712  1.00  0.00     0.017 C 
ATOM     14  C   UNL A   1      30.154  25.351  23.434  1.00  0.00    -0.027 C 
BRANCH   9  15
ATOM     15  C   UNL A   1      33.311  24.510  24.288  1.00  0.00     0.228 C 
ATOM     16  N   UNL A   1      33.598  23.230  23.972  1.00  0.00    -0.325 N 
ATOM     17  H   UNL A   1      34.210  23.263  23.202  1.00  0.00     0.169 HD
ATOM     18  O   UNL A   1      34.007  25.306  23.617  1.00  0.00    -0.274 OA
BRANCH  16  19
ATOM     19  C   UNL A   1      33.399  21.854  24.268  1.00  0.00     0.055 A 
ATOM     20  C   UNL A   1      33.797  21.385  25.558  1.00  0.00     0.063 A 
ATOM     21  C   UNL A   1      33.467  20.102  26.027  1.00  0.00     0.017 A 
ATOM     22  C   UNL A   1      32.935  19.173  25.155  1.00  0.00     0.021 A 
ATOM     23  C   UNL A   1      32.790  20.915  23.443  1.00  0.00     0.047 A 
ATOM     24  C   UNL A   1      32.642  19.572  23.856  1.00  0.00     0.043 A 
ATOM     25  Cl  UNL A   1      32.097  18.371  22.748  1.00  0.00    -0.084 Cl
BRANCH  20  26
ATOM     26  C   UNL A   1      34.659  22.198  26.454  1.00  0.00     0.253 C 
ATOM     27  C   UNL A   1      36.817  21.397  25.349  1.00  0.00     0.143 C 
ATOM     28  N   UNL A   1      36.031  22.092  26.353  1.00  0.00    -0.355 N 
ATOM     29  H   UNL A   1      36.546  22.550  27.056  1.00  0.00     0.163 HD
ATOM     30  O   UNL A   1      34.144  22.983  27.244  1.00  0.00    -0.269 OA
ENDBRANCH  20  26
ENDBRANCH  16  19
ENDBRANCH   9  15
ENDBRANCH   5   8
ENDBRANCH   3   4
ENDBRANCH   2   3
ENDBRANCH   1   2
BRANCH   1  31
ATOM     31  C   UNL A   1      31.880  30.825  26.545  1.00  0.00     0.002 C 
BRANCH  31  32
ATOM     32  C   UNL A   1      31.608  32.303  26.764  1.00  0.00     0.021 C 
BRANCH  32  33
ATOM     33  C   UNL A   1      32.745  33.049  27.449  1.00  0.00     0.116 C 
BRANCH  33  34
ATOM     34  N   UNL A   1      32.412  34.428  27.782  1.00  0.00    -0.352 N 
ATOM     35  C   UNL A   1      32.982  35.233  28.745  1.00  0.00     0.251 C 
ATOM     36  H   UNL A   1      31.689  34.836  27.252  1.00  0.00     0.163 HD
ATOM     37  O   UNL A   1      32.521  36.329  29.009  1.00  0.00    -0.269 OA
BRANCH  35  38
ATOM     38  C   UNL A   1      34.151  34.711  29.489  1.00  0.00     0.039 A 
ATOM     39  C   UNL A   1      33.956  34.125  30.741  1.00  0.00     0.014 A 
ATOM     40  C   UNL A   1      35.416  34.716  28.895  1.00  0.00     0.014 A 
ATOM     41  C   UNL A   1      35.019  33.466  31.362  1.00  0.00     0.010 A 
ATOM     42  C   UNL A   1      36.443  33.977  29.469  1.00  0.00     0.010 A 
ATOM     43  C   UNL A   1      36.258  33.346  30.708  1.00  0.00    -0.014 A 
BRANCH  43  44
ATOM     44  C   UNL A   1      37.377  32.572  31.304  1.00  0.00     0.031 A 
ATOM     45  C   UNL A   1      37.885  32.928  32.674  1.00  0.00     0.074 A 
ATOM     46  C   UNL A   1      37.985  31.605  30.587  1.00  0.00     0.049 A 
ATOM     47  N   UNL A   1      38.893  32.425  33.341  1.00  0.00    -0.248 NA
ATOM     48  C   UNL A   1      37.189  34.019  33.374  1.00  0.00     0.031 C 
ATOM     49  C   UNL A   1      37.625  31.206  29.226  1.00  0.00     0.029 A 
ATOM     50  N   UNL A   1      39.040  30.787  30.903  1.00  0.00    -0.354 N 
ATOM     51  C   UNL A   1      38.965  33.153  34.521  1.00  0.00     0.074 A 
ATOM     52  C   UNL A   1      37.940  34.171  34.454  1.00  0.00     0.031 C 
ATOM     53  C   UNL A   1      38.422  30.198  28.837  1.00  0.00     0.029 A 
ATOM     54  C   UNL A   1      39.374  29.904  29.904  1.00  0.00     0.049 A 
ATOM     55  H   UNL A   1      39.515  30.828  31.765  1.00  0.00     0.167 HD
ATOM     56  C   UNL A   1      39.791  32.973  35.578  1.00  0.00     0.037 A 
ATOM     57  C   UNL A   1      40.339  28.965  29.857  1.00  0.00     0.037 A 
ATOM     58  C   UNL A   1      40.783  31.933  35.657  1.00  0.00     0.049 A 
ATOM     59  C   UNL A   1      41.240  28.779  31.050  1.00  0.00     0.074 A 
ATOM     60  C   UNL A   1      41.615  31.614  36.715  1.00  0.00     0.029 A 
ATOM     61  N   UNL A   1      41.076  31.044  34.634  1.00  0.00    -0.354 N 
ATOM     62  N   UNL A   1      41.242  29.418  32.194  1.00  0.00    -0.248 NA
ATOM     63  C   UNL A   1      42.268  27.734  30.945  1.00  0.00     0.031 C 
ATOM     64  C   UNL A   1      42.447  30.564  36.314  1.00  0.00     0.029 A 
ATOM     65  C   UNL A   1      42.096  30.192  35.027  1.00  0.00     0.049 A 
ATOM     66  H   UNL A   1      40.627  31.023  33.758  1.00  0.00     0.167 HD
ATOM     67  C   UNL A   1      42.243  28.831  32.957  1.00  0.00     0.074 A 
ATOM     68  C   UNL A   1      42.820  27.778  32.149  1.00  0.00     0.031 C 
ATOM     69  C   UNL A   1      42.648  29.139  34.214  1.00  0.00     0.037 A 
BRANCH  56  70
ATOM     70  C   UNL A   1      39.655  33.919  36.736  1.00  0.00     0.064 A 
ATOM     71  C   UNL A   1      40.295  35.168  36.748  1.00  0.00     0.173 A 
ATOM     72  C   UNL A   1      38.852  33.584  37.836  1.00  0.00     0.173 A 
ATOM     73  F   UNL A   1      41.085  35.533  35.726  1.00  0.00    -0.203 F 
ATOM     74  C   UNL A   1      40.165  36.031  37.833  1.00  0.00     0.198 A 
ATOM     75  C   UNL A   1      38.696  34.464  38.905  1.00  0.00     0.198 A 
ATOM     76  F   UNL A   1      38.213  32.405  37.874  1.00  0.00    -0.203 F 
ATOM     77  F   UNL A   1      40.832  37.193  37.847  1.00  0.00    -0.200 F 
ATOM     78  C   UNL A   1      39.359  35.681  38.907  1.00  0.00     0.200 A 
ATOM     79  F   UNL A   1      37.907  34.131  39.935  1.00  0.00    -0.200 F 
ATOM     80  F   UNL A   1      39.230  36.516  39.948  1.00  0.00    -0.200 F 
ENDBRANCH  56  70
BRANCH  57  81
ATOM     81  C   UNL A   1      40.483  28.101  28.656  1.00  0.00     0.064 A 
ATOM     82  C   UNL A   1      41.273  28.508  27.571  1.00  0.00     0.173 A 
ATOM     83  C   UNL A   1      39.829  26.865  28.558  1.00  0.00     0.173 A 
ATOM     84  F   UNL A   1      41.902  29.692  27.608  1.00  0.00    -0.203 F 
ATOM     85  C   UNL A   1      41.386  27.723  26.425  1.00  0.00     0.198 A 
ATOM     86  C   UNL A   1      39.965  26.067  27.423  1.00  0.00     0.198 A 
ATOM     87  F   UNL A   1      39.065  26.426  29.568  1.00  0.00    -0.203 F 
ATOM     88  F   UNL A   1      42.109  28.159  25.385  1.00  0.00    -0.200 F 
ATOM     89  C   UNL A   1      40.736  26.499  26.354  1.00  0.00     0.200 A 
ATOM     90  F   UNL A   1      39.347  24.879  27.364  1.00  0.00    -0.200 F 
ATOM     91  F   UNL A   1      40.846  25.744  25.254  1.00  0.00    -0.200 F 
ENDBRANCH  57  81
BRANCH  69  92
ATOM     92  C   UNL A   1      43.739  28.297  34.811  1.00  0.00     0.064 A 
ATOM     93  C   UNL A   1      43.460  27.109  35.503  1.00  0.00     0.173 A 
ATOM     94  C   UNL A   1      45.084  28.664  34.650  1.00  0.00     0.173 A 
ATOM     95  F   UNL A   1      42.190  26.723  35.696  1.00  0.00    -0.203 F 
ATOM     96  C   UNL A   1      44.487  26.334  36.036  1.00  0.00     0.198 A 
ATOM     97  C   UNL A   1      46.109  27.871  35.155  1.00  0.00     0.198 A 
ATOM     98  F   UNL A   1      45.404  29.787  33.989  1.00  0.00    -0.203 F 
ATOM     99  F   UNL A   1      44.196  25.230  36.736  1.00  0.00    -0.200 F 
ATOM    100  C   UNL A   1      45.810  26.711  35.854  1.00  0.00     0.200 A 
ATOM    101  F   UNL A   1      47.387  28.228  34.966  1.00  0.00    -0.200 F 
ATOM    102  F   UNL A   1      46.798  25.958  36.360  1.00  0.00    -0.200 F 
ENDBRANCH  69  92
ENDBRANCH  43  44
ENDBRANCH  35  38
ENDBRANCH  33  34
ENDBRANCH  32  33
ENDBRANCH  31  32
ENDBRANCH   1  31
TORSDOF 16
ENDMDL
MODEL 3
REMARK VINA RESULT:     -12.4      5.305     10.820
REMARK SMILES CNC(=O)c1ccc(Cl)cc1NC(=O)[C@H]1[C@@H](C(=O)NCCCCCCNC(=O)c2ccc(-c3c4nc(c(-c5c(F)c(F)c(F)c(F)c5F)c5ccc([nH]5)c(-c5c(F)c(F)c(F)c(F)c5F)c5nc(c(-c6c(F)c(F)c(F)c(F)c6F)c6ccc3[nH]6)C=C5)C=C4)cc2)[C@H]2C=C[C@@H]1C2
REMARK SMILES IDX 22 1 21 2 20 3 19 4 17 5 18 6 16 8 15 9 95 10 92 11 94 12
REMARK SMILES IDX 96 13 93 14 13 15 12 16 14 18 11 19 5 20 6 21 7 22 10 23
REMARK SMILES IDX 8 24 9 25 3 26 1 27 2 28 4 30 23 31 24 32 25 33 26 34 27 35
REMARK SMILES IDX 28 37 29 38 30 39 91 40 31 41 90 42 32 43 33 44 34 45 84 46
REMARK SMILES IDX 35 47 89 48 83 49 85 50 36 51 88 52 82 53 81 54 37 56 69 57
REMARK SMILES IDX 49 58 68 59 50 60 53 61 67 62 86 63 51 64 52 65 66 67 87 68
REMARK SMILES IDX 54 69 38 70 39 71 47 72 40 73 41 74 45 75 48 76 42 77 43 78
REMARK SMILES IDX 46 79 44 80 70 81 71 82 79 83 72 84 73 85 77 86 80 87 74 88
REMARK SMILES IDX 75 89 78 90 76 91 55 92 56 93 64 94 57 95 58 96 62 97 65 98
REMARK SMILES IDX 59 99 60 100 63 101 61 102
REMARK H PARENT 19 7 12 17 2 29 26 36 85 55 53 66
REMARK Flexibility Score: inf
ROOT
ATOM      1  C   UNL A   1      37.371  22.149  24.589  1.00  0.00     0.002 C 
ENDROOT
BRANCH   1   2
ATOM      2  C   UNL A   1      37.479  23.197  25.691  1.00  0.00     0.021 C 
BRANCH   2   3
ATOM      3  C   UNL A   1      36.264  24.093  25.956  1.00  0.00     0.116 C 
BRANCH   3   4
ATOM      4  N   UNL A   1      35.028  23.466  26.407  1.00  0.00    -0.356 N 
ATOM      5  C   UNL A   1      34.095  22.815  25.637  1.00  0.00     0.224 C 
ATOM      6  O   UNL A   1      33.603  21.767  26.050  1.00  0.00    -0.275 OA
ATOM      7  H   UNL A   1      34.840  23.515  27.372  1.00  0.00     0.163 HD
BRANCH   5   8
ATOM      8  C   UNL A   1      33.790  23.353  24.274  1.00  0.00     0.098 C 
ATOM      9  C   UNL A   1      33.259  24.777  24.131  1.00  0.00     0.099 C 
ATOM     10  C   UNL A   1      32.553  24.717  22.727  1.00  0.00     0.025 C 
ATOM     11  C   UNL A   1      32.901  22.572  23.262  1.00  0.00     0.025 C 
ATOM     12  C   UNL A   1      31.197  24.130  22.973  1.00  0.00    -0.027 C 
ATOM     13  C   UNL A   1      33.172  23.485  22.044  1.00  0.00     0.017 C 
ATOM     14  C   UNL A   1      31.406  22.865  23.369  1.00  0.00    -0.027 C 
BRANCH   9  15
ATOM     15  C   UNL A   1      32.391  25.577  25.123  1.00  0.00     0.228 C 
ATOM     16  N   UNL A   1      31.462  26.552  25.028  1.00  0.00    -0.325 N 
ATOM     17  H   UNL A   1      31.040  26.621  25.915  1.00  0.00     0.169 HD
ATOM     18  O   UNL A   1      32.517  25.188  26.307  1.00  0.00    -0.274 OA
BRANCH  16  19
ATOM     19  C   UNL A   1      30.827  27.521  24.205  1.00  0.00     0.055 A 
ATOM     20  C   UNL A   1      31.649  28.516  23.593  1.00  0.00     0.063 A 
ATOM     21  C   UNL A   1      31.162  29.393  22.609  1.00  0.00     0.017 A 
ATOM     22  C   UNL A   1      29.804  29.461  22.368  1.00  0.00     0.021 A 
ATOM     23  C   UNL A   1      29.477  27.563  23.876  1.00  0.00     0.047 A 
ATOM     24  C   UNL A   1      28.965  28.577  23.037  1.00  0.00     0.043 A 
ATOM     25  Cl  UNL A   1      27.266  28.757  22.818  1.00  0.00    -0.084 Cl
BRANCH  20  26
ATOM     26  C   UNL A   1      33.053  28.743  24.020  1.00  0.00     0.253 C 
ATOM     27  C   UNL A   1      32.370  30.175  26.021  1.00  0.00     0.143 C 
ATOM     28  N   UNL A   1      33.311  29.575  25.090  1.00  0.00    -0.355 N 
ATOM     29  H   UNL A   1      34.259  29.791  25.243  1.00  0.00     0.163 HD
ATOM     30  O   UNL A   1      33.965  28.156  23.446  1.00  0.00    -0.269 OA
ENDBRANCH  20  26
ENDBRANCH  16  19
ENDBRANCH   9  15
ENDBRANCH   5   8
ENDBRANCH   3   4
ENDBRANCH   2   3
ENDBRANCH   1   2
BRANCH   1  31
ATOM     31  C   UNL A   1      37.057  20.726  25.024  1.00  0.00     0.002 C 
BRANCH  31  32
ATOM     32  C   UNL A   1      38.202  19.736  24.904  1.00  0.00     0.021 C 
BRANCH  32  33
ATOM     33  C   UNL A   1      39.410  20.075  25.766  1.00  0.00     0.116 C 
BRANCH  33  34
ATOM     34  N   UNL A   1      40.356  18.974  25.892  1.00  0.00    -0.352 N 
ATOM     35  C   UNL A   1      41.714  19.041  26.124  1.00  0.00     0.251 C 
ATOM     36  H   UNL A   1      39.979  18.070  25.799  1.00  0.00     0.163 HD
ATOM     37  O   UNL A   1      42.415  18.046  26.078  1.00  0.00    -0.269 OA
BRANCH  35  38
ATOM     38  C   UNL A   1      42.312  20.369  26.390  1.00  0.00     0.039 A 
ATOM     39  C   UNL A   1      42.768  21.138  25.318  1.00  0.00     0.014 A 
ATOM     40  C   UNL A   1      42.325  20.882  27.690  1.00  0.00     0.014 A 
ATOM     41  C   UNL A   1      43.158  22.461  25.541  1.00  0.00     0.010 A 
ATOM     42  C   UNL A   1      42.620  22.225  27.892  1.00  0.00     0.010 A 
ATOM     43  C   UNL A   1      43.042  23.028  26.822  1.00  0.00    -0.014 A 
BRANCH  43  44
ATOM     44  C   UNL A   1      43.362  24.458  27.069  1.00  0.00     0.031 A 
ATOM     45  C   UNL A   1      44.749  24.970  26.794  1.00  0.00     0.074 A 
ATOM     46  C   UNL A   1      42.434  25.273  27.608  1.00  0.00     0.049 A 
ATOM     47  N   UNL A   1      45.251  26.161  27.008  1.00  0.00    -0.248 NA
ATOM     48  C   UNL A   1      45.712  24.006  26.239  1.00  0.00     0.031 C 
ATOM     49  C   UNL A   1      41.072  24.882  27.975  1.00  0.00     0.029 A 
ATOM     50  N   UNL A   1      42.500  26.601  27.951  1.00  0.00    -0.354 N 
ATOM     51  C   UNL A   1      46.586  26.079  26.637  1.00  0.00     0.074 A 
ATOM     52  C   UNL A   1      46.834  24.710  26.243  1.00  0.00     0.031 C 
ATOM     53  C   UNL A   1      40.422  25.953  28.458  1.00  0.00     0.029 A 
ATOM     54  C   UNL A   1      41.329  27.096  28.473  1.00  0.00     0.049 A 
ATOM     55  H   UNL A   1      43.311  27.148  27.834  1.00  0.00     0.167 HD
ATOM     56  C   UNL A   1      47.516  27.062  26.601  1.00  0.00     0.037 A 
ATOM     57  C   UNL A   1      41.026  28.333  28.912  1.00  0.00     0.037 A 
ATOM     58  C   UNL A   1      47.255  28.432  26.956  1.00  0.00     0.049 A 
ATOM     59  C   UNL A   1      42.075  29.411  28.853  1.00  0.00     0.074 A 
ATOM     60  C   UNL A   1      48.105  29.520  26.876  1.00  0.00     0.029 A 
ATOM     61  N   UNL A   1      46.050  28.899  27.458  1.00  0.00    -0.354 N 
ATOM     62  N   UNL A   1      43.311  29.341  28.420  1.00  0.00    -0.248 NA
ATOM     63  C   UNL A   1      41.684  30.742  29.338  1.00  0.00     0.031 C 
ATOM     64  C   UNL A   1      47.430  30.638  27.379  1.00  0.00     0.029 A 
ATOM     65  C   UNL A   1      46.142  30.257  27.718  1.00  0.00     0.049 A 
ATOM     66  H   UNL A   1      45.248  28.348  27.608  1.00  0.00     0.167 HD
ATOM     67  C   UNL A   1      43.832  30.622  28.547  1.00  0.00     0.074 A 
ATOM     68  C   UNL A   1      42.775  31.451  29.086  1.00  0.00     0.031 C 
ATOM     69  C   UNL A   1      45.075  31.070  28.243  1.00  0.00     0.037 A 
BRANCH  56  70
ATOM     70  C   UNL A   1      48.902  26.691  26.159  1.00  0.00     0.064 A 
ATOM     71  C   UNL A   1      49.829  26.115  27.042  1.00  0.00     0.173 A 
ATOM     72  C   UNL A   1      49.301  26.889  24.828  1.00  0.00     0.173 A 
ATOM     73  F   UNL A   1      49.504  25.915  28.328  1.00  0.00    -0.203 F 
ATOM     74  C   UNL A   1      51.114  25.784  26.618  1.00  0.00     0.198 A 
ATOM     75  C   UNL A   1      50.575  26.525  24.399  1.00  0.00     0.198 A 
ATOM     76  F   UNL A   1      48.453  27.431  23.941  1.00  0.00    -0.203 F 
ATOM     77  F   UNL A   1      51.999  25.289  27.494  1.00  0.00    -0.200 F 
ATOM     78  C   UNL A   1      51.482  25.982  25.296  1.00  0.00     0.200 A 
ATOM     79  F   UNL A   1      50.926  26.704  23.119  1.00  0.00    -0.200 F 
ATOM     80  F   UNL A   1      52.717  25.657  24.888  1.00  0.00    -0.200 F 
ENDBRANCH  56  70
BRANCH  57  81
ATOM     81  C   UNL A   1      39.657  28.633  29.411  1.00  0.00     0.064 A 
ATOM     82  C   UNL A   1      38.670  29.123  28.544  1.00  0.00     0.173 A 
ATOM     83  C   UNL A   1      39.309  28.451  30.757  1.00  0.00     0.173 A 
ATOM     84  F   UNL A   1      38.960  29.334  27.251  1.00  0.00    -0.203 F 
ATOM     85  C   UNL A   1      37.395  29.442  29.007  1.00  0.00     0.198 A 
ATOM     86  C   UNL A   1      38.025  28.744  31.214  1.00  0.00     0.198 A 
ATOM     87  F   UNL A   1      40.213  27.980  31.627  1.00  0.00    -0.203 F 
ATOM     88  F   UNL A   1      36.487  29.954  28.165  1.00  0.00    -0.200 F 
ATOM     89  C   UNL A   1      37.071  29.247  30.341  1.00  0.00     0.200 A 
ATOM     90  F   UNL A   1      37.712  28.539  32.501  1.00  0.00    -0.200 F 
ATOM     91  F   UNL A   1      35.845  29.551  30.787  1.00  0.00    -0.200 F 
ENDBRANCH  57  81
BRANCH  69  92
ATOM     92  C   UNL A   1      45.348  32.533  28.444  1.00  0.00     0.064 A 
ATOM     93  C   UNL A   1      45.928  33.021  29.623  1.00  0.00     0.173 A 
ATOM     94  C   UNL A   1      45.062  33.452  27.422  1.00  0.00     0.173 A 
ATOM     95  F   UNL A   1      46.206  32.185  30.634  1.00  0.00    -0.203 F 
ATOM     96  C   UNL A   1      46.188  34.380  29.783  1.00  0.00     0.198 A 
ATOM     97  C   UNL A   1      45.354  34.805  27.572  1.00  0.00     0.198 A 
ATOM     98  F   UNL A   1      44.513  33.036  26.271  1.00  0.00    -0.203 F 
ATOM     99  F   UNL A   1      46.697  34.831  30.938  1.00  0.00    -0.200 F 
ATOM    100  C   UNL A   1      45.909  35.268  28.755  1.00  0.00     0.200 A 
ATOM    101  F   UNL A   1      45.097  35.660  26.573  1.00  0.00    -0.200 F 
ATOM    102  F   UNL A   1      46.168  36.575  28.908  1.00  0.00    -0.200 F 
ENDBRANCH  69  92
ENDBRANCH  43  44
ENDBRANCH  35  38
ENDBRANCH  33  34
ENDBRANCH  32  33
ENDBRANCH  31  32
ENDBRANCH   1  31
TORSDOF 16
ENDMDL
