MODEL 1
REMARK VINA RESULT:     -10.4      0.000      0.000
REMARK SMILES CN(C)S(=O)(=O)c1cccc(-c2cc(Cl)cc(C(=O)NCCCCCCNC(=O)c3ccc(-c4c5nc(c(-c6c(F)c(F)c(F)c(F)c6F)c6ccc([nH]6)c(-c6c(F)c(F)c(F)c(F)c6F)c6nc(c(-c7c(F)c(F)c(F)c(F)c7F)c7ccc4[nH]7)C=C6)C=C5)cc3)c2)c1
REMARK SMILES IDX 23 1 22 2 21 3 20 4 18 5 19 6 17 8 12 9 13 10 93 11 14 12
REMARK SMILES IDX 15 13 16 14 11 15 7 16 8 17 94 18 9 19 10 20 4 21 5 22 6 23
REMARK SMILES IDX 2 24 1 25 3 26 24 27 25 28 26 29 27 30 28 31 29 33 30 34
REMARK SMILES IDX 31 35 92 36 32 37 91 38 33 39 34 40 35 41 85 42 36 43 90 44
REMARK SMILES IDX 84 45 86 46 37 47 89 48 83 49 82 50 38 52 70 53 50 54 69 55
REMARK SMILES IDX 51 56 54 57 68 58 87 59 52 60 53 61 67 63 88 64 55 65 39 66
REMARK SMILES IDX 40 67 48 68 41 69 42 70 46 71 49 72 43 73 44 74 47 75 45 76
REMARK SMILES IDX 71 77 72 78 80 79 73 80 74 81 78 82 81 83 75 84 76 85 79 86
REMARK SMILES IDX 77 87 56 88 57 89 65 90 58 91 59 92 63 93 66 94 60 95 61 96
REMARK SMILES IDX 64 97 62 98
REMARK H PARENT 20 7 27 32 86 51 54 62
REMARK Flexibility Score: inf
ROOT
ATOM      1  C   UNL A   1      47.474  26.045  32.087  1.00  0.00     0.002 C 
ENDROOT
BRANCH   1   2
ATOM      2  C   UNL A   1      47.357  26.755  30.739  1.00  0.00     0.021 C 
BRANCH   2   3
ATOM      3  C   UNL A   1      48.524  27.646  30.323  1.00  0.00     0.116 C 
BRANCH   3   4
ATOM      4  N   UNL A   1      48.146  28.846  29.596  1.00  0.00    -0.352 N 
ATOM      5  C   UNL A   1      47.811  29.023  28.270  1.00  0.00     0.251 C 
ATOM      6  O   UNL A   1      47.548  30.155  27.867  1.00  0.00    -0.269 OA
ATOM      7  H   UNL A   1      48.126  29.667  30.138  1.00  0.00     0.163 HD
BRANCH   5   8
ATOM      8  C   UNL A   1      47.810  27.894  27.300  1.00  0.00     0.041 A 
ATOM      9  C   UNL A   1      46.980  25.709  26.590  1.00  0.00    -0.016 A 
ATOM     10  C   UNL A   1      48.024  25.636  25.661  1.00  0.00     0.029 A 
ATOM     11  C   UNL A   1      46.836  26.895  27.330  1.00  0.00     0.022 A 
ATOM     12  C   UNL A   1      48.927  26.695  25.532  1.00  0.00     0.042 A 
ATOM     13  Cl  UNL A   1      50.209  26.580  24.389  1.00  0.00    -0.084 Cl
ATOM     14  C   UNL A   1      48.841  27.812  26.362  1.00  0.00     0.034 A 
BRANCH   9  15
ATOM     15  C   UNL A   1      46.160  24.543  26.967  1.00  0.00    -0.017 A 
ATOM     16  C   UNL A   1      44.808  22.633  26.312  1.00  0.00     0.083 A 
ATOM     17  C   UNL A   1      44.153  22.647  27.547  1.00  0.00     0.022 A 
ATOM     18  C   UNL A   1      45.832  23.545  26.035  1.00  0.00     0.030 A 
ATOM     19  C   UNL A   1      44.525  23.578  28.510  1.00  0.00     0.002 A 
ATOM     20  C   UNL A   1      45.512  24.522  28.218  1.00  0.00     0.009 A 
BRANCH  16  21
ATOM     21  S   UNL A   1      44.236  21.488  25.081  1.00  0.00     0.242 S 
ATOM     22  O   UNL A   1      44.611  22.025  23.787  1.00  0.00    -0.207 OA
ATOM     23  O   UNL A   1      42.863  21.188  25.410  1.00  0.00    -0.207 OA
BRANCH  21  24
ATOM     24  N   UNL A   1      45.171  20.066  25.307  1.00  0.00    -0.204 NA
ATOM     25  C   UNL A   1      44.410  18.836  24.965  1.00  0.00     0.124 C 
ATOM     26  C   UNL A   1      46.497  20.062  24.646  1.00  0.00     0.124 C 
ENDBRANCH  21  24
ENDBRANCH  16  21
ENDBRANCH   9  15
ENDBRANCH   5   8
ENDBRANCH   3   4
ENDBRANCH   2   3
ENDBRANCH   1   2
BRANCH   1  27
ATOM     27  C   UNL A   1      48.866  25.975  32.717  1.00  0.00     0.002 C 
BRANCH  27  28
ATOM     28  C   UNL A   1      49.220  24.694  33.477  1.00  0.00     0.021 C 
BRANCH  28  29
ATOM     29  C   UNL A   1      48.129  24.106  34.366  1.00  0.00     0.116 C 
BRANCH  29  30
ATOM     30  N   UNL A   1      48.184  24.581  35.736  1.00  0.00    -0.352 N 
ATOM     31  C   UNL A   1      47.412  25.520  36.374  1.00  0.00     0.251 C 
ATOM     32  H   UNL A   1      48.882  24.166  36.294  1.00  0.00     0.163 HD
ATOM     33  O   UNL A   1      47.688  25.854  37.524  1.00  0.00    -0.269 OA
BRANCH  31  34
ATOM     34  C   UNL A   1      46.267  26.163  35.687  1.00  0.00     0.039 A 
ATOM     35  C   UNL A   1      46.445  27.441  35.148  1.00  0.00     0.014 A 
ATOM     36  C   UNL A   1      45.016  25.543  35.602  1.00  0.00     0.014 A 
ATOM     37  C   UNL A   1      45.391  28.074  34.482  1.00  0.00     0.010 A 
ATOM     38  C   UNL A   1      43.984  26.149  34.883  1.00  0.00     0.010 A 
ATOM     39  C   UNL A   1      44.158  27.423  34.323  1.00  0.00    -0.014 A 
BRANCH  39  40
ATOM     40  C   UNL A   1      43.035  28.072  33.597  1.00  0.00     0.031 A 
ATOM     41  C   UNL A   1      42.821  27.792  32.135  1.00  0.00     0.074 A 
ATOM     42  C   UNL A   1      42.241  28.951  34.236  1.00  0.00     0.049 A 
ATOM     43  N   UNL A   1      41.945  28.309  31.310  1.00  0.00    -0.248 NA
ATOM     44  C   UNL A   1      43.729  26.817  31.511  1.00  0.00     0.031 C 
ATOM     45  C   UNL A   1      42.368  29.340  35.641  1.00  0.00     0.029 A 
ATOM     46  N   UNL A   1      41.174  29.688  33.782  1.00  0.00    -0.354 N 
ATOM     47  C   UNL A   1      42.210  27.740  30.071  1.00  0.00     0.074 A 
ATOM     48  C   UNL A   1      43.354  26.871  30.241  1.00  0.00     0.031 C 
ATOM     49  C   UNL A   1      41.407  30.231  35.938  1.00  0.00     0.029 A 
ATOM     50  C   UNL A   1      40.617  30.498  34.740  1.00  0.00     0.049 A 
ATOM     51  H   UNL A   1      40.841  29.639  32.856  1.00  0.00     0.167 HD
ATOM     52  C   UNL A   1      41.547  27.911  28.902  1.00  0.00     0.037 A 
ATOM     53  C   UNL A   1      39.586  31.361  34.660  1.00  0.00     0.037 A 
ATOM     54  C   UNL A   1      40.388  28.750  28.739  1.00  0.00     0.049 A 
ATOM     55  C   UNL A   1      38.854  31.518  33.355  1.00  0.00     0.074 A 
ATOM     56  C   UNL A   1      39.618  28.952  27.607  1.00  0.00     0.029 A 
ATOM     57  N   UNL A   1      39.828  29.524  29.746  1.00  0.00    -0.354 N 
ATOM     58  N   UNL A   1      39.080  30.933  32.204  1.00  0.00    -0.248 NA
ATOM     59  C   UNL A   1      37.716  32.448  33.342  1.00  0.00     0.031 C 
ATOM     60  C   UNL A   1      38.612  29.872  27.920  1.00  0.00     0.029 A 
ATOM     61  C   UNL A   1      38.728  30.211  29.258  1.00  0.00     0.049 A 
ATOM     62  H   UNL A   1      40.163  29.578  30.670  1.00  0.00     0.167 HD
ATOM     63  C   UNL A   1      38.095  31.396  31.341  1.00  0.00     0.074 A 
ATOM     64  C   UNL A   1      37.265  32.304  32.103  1.00  0.00     0.031 C 
ATOM     65  C   UNL A   1      37.898  31.093  30.034  1.00  0.00     0.037 A 
BRANCH  52  66
ATOM     66  C   UNL A   1      42.058  27.168  27.703  1.00  0.00     0.064 A 
ATOM     67  C   UNL A   1      43.068  27.699  26.886  1.00  0.00     0.173 A 
ATOM     68  C   UNL A   1      41.556  25.897  27.384  1.00  0.00     0.173 A 
ATOM     69  F   UNL A   1      43.572  28.915  27.141  1.00  0.00    -0.203 F 
ATOM     70  C   UNL A   1      43.535  26.998  25.777  1.00  0.00     0.198 A 
ATOM     71  C   UNL A   1      42.045  25.187  26.291  1.00  0.00     0.198 A 
ATOM     72  F   UNL A   1      40.594  25.342  28.137  1.00  0.00    -0.203 F 
ATOM     73  F   UNL A   1      44.464  27.547  24.982  1.00  0.00    -0.200 F 
ATOM     74  C   UNL A   1      43.028  25.741  25.484  1.00  0.00     0.200 A 
ATOM     75  F   UNL A   1      41.563  23.967  26.015  1.00  0.00    -0.200 F 
ATOM     76  F   UNL A   1      43.480  25.066  24.418  1.00  0.00    -0.200 F 
ENDBRANCH  52  66
BRANCH  53  77
ATOM     77  C   UNL A   1      39.157  32.117  35.865  1.00  0.00     0.064 A 
ATOM     78  C   UNL A   1      39.621  33.419  36.097  1.00  0.00     0.173 A 
ATOM     79  C   UNL A   1      38.282  31.557  36.807  1.00  0.00     0.173 A 
ATOM     80  F   UNL A   1      40.476  33.988  35.233  1.00  0.00    -0.203 F 
ATOM     81  C   UNL A   1      39.242  34.126  37.235  1.00  0.00     0.198 A 
ATOM     82  C   UNL A   1      37.883  32.275  37.932  1.00  0.00     0.198 A 
ATOM     83  F   UNL A   1      37.808  30.316  36.628  1.00  0.00    -0.203 F 
ATOM     84  F   UNL A   1      39.734  35.353  37.455  1.00  0.00    -0.200 F 
ATOM     85  C   UNL A   1      38.369  33.555  38.150  1.00  0.00     0.200 A 
ATOM     86  F   UNL A   1      37.031  31.726  38.808  1.00  0.00    -0.200 F 
ATOM     87  F   UNL A   1      38.002  34.237  39.243  1.00  0.00    -0.200 F 
ENDBRANCH  53  77
BRANCH  65  88
ATOM     88  C   UNL A   1      36.708  31.709  29.359  1.00  0.00     0.064 A 
ATOM     89  C   UNL A   1      36.666  33.074  29.039  1.00  0.00     0.173 A 
ATOM     90  C   UNL A   1      35.612  30.913  28.996  1.00  0.00     0.173 A 
ATOM     91  F   UNL A   1      37.684  33.878  29.379  1.00  0.00    -0.203 F 
ATOM     92  C   UNL A   1      35.557  33.623  28.400  1.00  0.00     0.198 A 
ATOM     93  C   UNL A   1      34.517  31.460  28.335  1.00  0.00     0.198 A 
ATOM     94  F   UNL A   1      35.608  29.600  29.275  1.00  0.00    -0.203 F 
ATOM     95  F   UNL A   1      35.519  34.938  28.144  1.00  0.00    -0.200 F 
ATOM     96  C   UNL A   1      34.488  32.816  28.044  1.00  0.00     0.200 A 
ATOM     97  F   UNL A   1      33.489  30.677  27.982  1.00  0.00    -0.200 F 
ATOM     98  F   UNL A   1      33.423  33.346  27.426  1.00  0.00    -0.200 F 
ENDBRANCH  65  88
ENDBRANCH  39  40
ENDBRANCH  31  34
ENDBRANCH  29  30
ENDBRANCH  28  29
ENDBRANCH  27  28
ENDBRANCH   1  27
TORSDOF 16
ENDMDL
MODEL 2
REMARK VINA RESULT:     -10.2      5.406     12.930
REMARK SMILES CN(C)S(=O)(=O)c1cccc(-c2cc(Cl)cc(C(=O)NCCCCCCNC(=O)c3ccc(-c4c5nc(c(-c6c(F)c(F)c(F)c(F)c6F)c6ccc([nH]6)c(-c6c(F)c(F)c(F)c(F)c6F)c6nc(c(-c7c(F)c(F)c(F)c(F)c7F)c7ccc4[nH]7)C=C6)C=C5)cc3)c2)c1
REMARK SMILES IDX 23 1 22 2 21 3 20 4 18 5 19 6 17 8 12 9 13 10 93 11 14 12
REMARK SMILES IDX 15 13 16 14 11 15 7 16 8 17 94 18 9 19 10 20 4 21 5 22 6 23
REMARK SMILES IDX 2 24 1 25 3 26 24 27 25 28 26 29 27 30 28 31 29 33 30 34
REMARK SMILES IDX 31 35 92 36 32 37 91 38 33 39 34 40 35 41 85 42 36 43 90 44
REMARK SMILES IDX 84 45 86 46 37 47 89 48 83 49 82 50 38 52 70 53 50 54 69 55
REMARK SMILES IDX 51 56 54 57 68 58 87 59 52 60 53 61 67 63 88 64 55 65 39 66
REMARK SMILES IDX 40 67 48 68 41 69 42 70 46 71 49 72 43 73 44 74 47 75 45 76
REMARK SMILES IDX 71 77 72 78 80 79 73 80 74 81 78 82 81 83 75 84 76 85 79 86
REMARK SMILES IDX 77 87 56 88 57 89 65 90 58 91 59 92 63 93 66 94 60 95 61 96
REMARK SMILES IDX 64 97 62 98
REMARK H PARENT 20 7 27 32 86 51 54 62
REMARK Flexibility Score: inf
ROOT
ATOM      1  C   UNL A   1      35.021  32.755  28.007  1.00  0.00     0.002 C 
ENDROOT
BRANCH   1   2
ATOM      2  C   UNL A   1      35.175  31.257  28.263  1.00  0.00     0.021 C 
BRANCH   2   3
ATOM      3  C   UNL A   1      34.212  30.327  27.530  1.00  0.00     0.116 C 
BRANCH   3   4
ATOM      4  N   UNL A   1      32.955  30.939  27.136  1.00  0.00    -0.352 N 
ATOM      5  C   UNL A   1      32.016  30.543  26.207  1.00  0.00     0.251 C 
ATOM      6  O   UNL A   1      31.025  31.247  26.022  1.00  0.00    -0.269 OA
ATOM      7  H   UNL A   1      32.737  31.775  27.610  1.00  0.00     0.163 HD
BRANCH   5   8
ATOM      8  C   UNL A   1      32.193  29.316  25.384  1.00  0.00     0.041 A 
ATOM      9  C   UNL A   1      32.105  26.885  25.153  1.00  0.00    -0.016 A 
ATOM     10  C   UNL A   1      32.817  26.993  23.952  1.00  0.00     0.029 A 
ATOM     11  C   UNL A   1      31.718  28.072  25.799  1.00  0.00     0.022 A 
ATOM     12  C   UNL A   1      33.180  28.250  23.459  1.00  0.00     0.042 A 
ATOM     13  Cl  UNL A   1      34.063  28.359  21.986  1.00  0.00    -0.084 Cl
ATOM     14  C   UNL A   1      32.894  29.409  24.179  1.00  0.00     0.034 A 
BRANCH   9  15
ATOM     15  C   UNL A   1      31.921  25.606  25.863  1.00  0.00    -0.017 A 
ATOM     16  C   UNL A   1      32.772  23.419  26.491  1.00  0.00     0.083 A 
ATOM     17  C   UNL A   1      31.471  22.950  26.700  1.00  0.00     0.022 A 
ATOM     18  C   UNL A   1      33.003  24.746  26.115  1.00  0.00     0.030 A 
ATOM     19  C   UNL A   1      30.396  23.816  26.533  1.00  0.00     0.002 A 
ATOM     20  C   UNL A   1      30.619  25.127  26.109  1.00  0.00     0.009 A 
BRANCH  16  21
ATOM     21  S   UNL A   1      34.105  22.254  26.625  1.00  0.00     0.242 S 
ATOM     22  O   UNL A   1      33.664  21.194  27.512  1.00  0.00    -0.207 OA
ATOM     23  O   UNL A   1      35.295  23.026  26.897  1.00  0.00    -0.207 OA
BRANCH  21  24
ATOM     24  N   UNL A   1      34.260  21.551  25.066  1.00  0.00    -0.204 NA
ATOM     25  C   UNL A   1      35.422  22.098  24.319  1.00  0.00     0.124 C 
ATOM     26  C   UNL A   1      34.265  20.070  25.031  1.00  0.00     0.124 C 
ENDBRANCH  21  24
ENDBRANCH  16  21
ENDBRANCH   9  15
ENDBRANCH   5   8
ENDBRANCH   3   4
ENDBRANCH   2   3
ENDBRANCH   1   2
BRANCH   1  27
ATOM     27  C   UNL A   1      34.478  33.605  29.157  1.00  0.00     0.002 C 
BRANCH  27  28
ATOM     28  C   UNL A   1      33.230  34.443  28.871  1.00  0.00     0.021 C 
BRANCH  28  29
ATOM     29  C   UNL A   1      33.283  35.909  29.289  1.00  0.00     0.116 C 
BRANCH  29  30
ATOM     30  N   UNL A   1      32.481  36.203  30.462  1.00  0.00    -0.352 N 
ATOM     31  C   UNL A   1      32.675  35.844  31.774  1.00  0.00     0.251 C 
ATOM     32  H   UNL A   1      31.675  36.742  30.293  1.00  0.00     0.163 HD
ATOM     33  O   UNL A   1      31.817  36.114  32.610  1.00  0.00    -0.269 OA
BRANCH  31  34
ATOM     34  C   UNL A   1      33.893  35.110  32.193  1.00  0.00     0.039 A 
ATOM     35  C   UNL A   1      33.748  33.809  32.688  1.00  0.00     0.014 A 
ATOM     36  C   UNL A   1      35.161  35.695  32.143  1.00  0.00     0.014 A 
ATOM     37  C   UNL A   1      34.874  33.080  33.082  1.00  0.00     0.010 A 
ATOM     38  C   UNL A   1      36.290  34.945  32.477  1.00  0.00     0.010 A 
ATOM     39  C   UNL A   1      36.158  33.634  32.957  1.00  0.00    -0.014 A 
BRANCH  39  40
ATOM     40  C   UNL A   1      37.368  32.864  33.349  1.00  0.00     0.031 A 
ATOM     41  C   UNL A   1      38.057  33.158  34.653  1.00  0.00     0.074 A 
ATOM     42  C   UNL A   1      37.877  31.941  32.513  1.00  0.00     0.049 A 
ATOM     43  N   UNL A   1      39.161  32.648  35.142  1.00  0.00    -0.248 NA
ATOM     44  C   UNL A   1      37.437  34.179  35.512  1.00  0.00     0.031 C 
ATOM     45  C   UNL A   1      37.327  31.591  31.203  1.00  0.00     0.029 A 
ATOM     46  N   UNL A   1      38.982  31.134  32.636  1.00  0.00    -0.354 N 
ATOM     47  C   UNL A   1      39.376  33.299  36.350  1.00  0.00     0.074 A 
ATOM     48  C   UNL A   1      38.314  34.270  36.501  1.00  0.00     0.031 C 
ATOM     49  C   UNL A   1      38.086  30.631  30.650  1.00  0.00     0.029 A 
ATOM     50  C   UNL A   1      39.191  30.319  31.552  1.00  0.00     0.049 A 
ATOM     51  H   UNL A   1      39.568  31.141  33.427  1.00  0.00     0.167 HD
ATOM     52  C   UNL A   1      40.358  33.091  37.260  1.00  0.00     0.037 A 
ATOM     53  C   UNL A   1      40.167  29.422  31.311  1.00  0.00     0.037 A 
ATOM     54  C   UNL A   1      41.395  32.102  37.126  1.00  0.00     0.049 A 
ATOM     55  C   UNL A   1      41.235  29.197  32.346  1.00  0.00     0.074 A 
ATOM     56  C   UNL A   1      42.406  31.784  38.016  1.00  0.00     0.029 A 
ATOM     57  N   UNL A   1      41.549  31.266  36.030  1.00  0.00    -0.354 N 
ATOM     58  N   UNL A   1      41.396  29.779  33.509  1.00  0.00    -0.248 NA
ATOM     59  C   UNL A   1      42.251  28.179  32.040  1.00  0.00     0.031 C 
ATOM     60  C   UNL A   1      43.191  30.776  37.444  1.00  0.00     0.029 A 
ATOM     61  C   UNL A   1      42.644  30.438  36.218  1.00  0.00     0.049 A 
ATOM     62  H   UNL A   1      40.967  31.262  35.236  1.00  0.00     0.167 HD
ATOM     63  C   UNL A   1      42.507  29.178  34.087  1.00  0.00     0.074 A 
ATOM     64  C   UNL A   1      42.976  28.179  33.150  1.00  0.00     0.031 C 
ATOM     65  C   UNL A   1      43.084  29.433  35.286  1.00  0.00     0.037 A 
BRANCH  52  66
ATOM     66  C   UNL A   1      40.352  33.951  38.490  1.00  0.00     0.064 A 
ATOM     67  C   UNL A   1      41.089  35.143  38.556  1.00  0.00     0.173 A 
ATOM     68  C   UNL A   1      39.576  33.596  39.604  1.00  0.00     0.173 A 
ATOM     69  F   UNL A   1      41.856  35.520  37.522  1.00  0.00    -0.203 F 
ATOM     70  C   UNL A   1      41.074  35.932  39.704  1.00  0.00     0.198 A 
ATOM     71  C   UNL A   1      39.541  34.402  40.739  1.00  0.00     0.198 A 
ATOM     72  F   UNL A   1      38.848  32.469  39.591  1.00  0.00    -0.203 F 
ATOM     73  F   UNL A   1      41.826  37.040  39.763  1.00  0.00    -0.200 F 
ATOM     74  C   UNL A   1      40.296  35.565  40.791  1.00  0.00     0.200 A 
ATOM     75  F   UNL A   1      38.779  34.053  41.785  1.00  0.00    -0.200 F 
ATOM     76  F   UNL A   1      40.279  36.327  41.893  1.00  0.00    -0.200 F 
ENDBRANCH  52  66
BRANCH  53  77
ATOM     77  C   UNL A   1      40.159  28.638  30.049  1.00  0.00     0.064 A 
ATOM     78  C   UNL A   1      40.801  29.121  28.900  1.00  0.00     0.173 A 
ATOM     79  C   UNL A   1      39.509  27.398  29.962  1.00  0.00     0.173 A 
ATOM     80  F   UNL A   1      41.417  30.312  28.930  1.00  0.00    -0.203 F 
ATOM     81  C   UNL A   1      40.778  28.404  27.707  1.00  0.00     0.198 A 
ATOM     82  C   UNL A   1      39.509  26.669  28.775  1.00  0.00     0.198 A 
ATOM     83  F   UNL A   1      38.883  26.891  31.034  1.00  0.00    -0.203 F 
ATOM     84  F   UNL A   1      41.363  28.908  26.612  1.00  0.00    -0.200 F 
ATOM     85  C   UNL A   1      40.136  27.175  27.646  1.00  0.00     0.200 A 
ATOM     86  F   UNL A   1      38.899  25.478  28.722  1.00  0.00    -0.200 F 
ATOM     87  F   UNL A   1      40.117  26.484  26.499  1.00  0.00    -0.200 F 
ENDBRANCH  53  77
BRANCH  65  88
ATOM     88  C   UNL A   1      44.256  28.582  35.678  1.00  0.00     0.064 A 
ATOM     89  C   UNL A   1      45.572  28.946  35.358  1.00  0.00     0.173 A 
ATOM     90  C   UNL A   1      44.059  27.405  36.415  1.00  0.00     0.173 A 
ATOM     91  F   UNL A   1      45.810  30.055  34.642  1.00  0.00    -0.203 F 
ATOM     92  C   UNL A   1      46.647  28.148  35.743  1.00  0.00     0.198 A 
ATOM     93  C   UNL A   1      45.137  26.623  36.820  1.00  0.00     0.198 A 
ATOM     94  F   UNL A   1      42.819  27.017  36.751  1.00  0.00    -0.203 F 
ATOM     95  F   UNL A   1      47.893  28.492  35.388  1.00  0.00    -0.200 F 
ATOM     96  C   UNL A   1      46.429  26.993  36.478  1.00  0.00     0.200 A 
ATOM     97  F   UNL A   1      44.926  25.513  37.539  1.00  0.00    -0.200 F 
ATOM     98  F   UNL A   1      47.466  26.228  36.849  1.00  0.00    -0.200 F 
ENDBRANCH  65  88
ENDBRANCH  39  40
ENDBRANCH  31  34
ENDBRANCH  29  30
ENDBRANCH  28  29
ENDBRANCH  27  28
ENDBRANCH   1  27
TORSDOF 16
ENDMDL
MODEL 3
REMARK VINA RESULT:     -10.1      6.689     11.847
REMARK SMILES CN(C)S(=O)(=O)c1cccc(-c2cc(Cl)cc(C(=O)NCCCCCCNC(=O)c3ccc(-c4c5nc(c(-c6c(F)c(F)c(F)c(F)c6F)c6ccc([nH]6)c(-c6c(F)c(F)c(F)c(F)c6F)c6nc(c(-c7c(F)c(F)c(F)c(F)c7F)c7ccc4[nH]7)C=C6)C=C5)cc3)c2)c1
REMARK SMILES IDX 23 1 22 2 21 3 20 4 18 5 19 6 17 8 12 9 13 10 93 11 14 12
REMARK SMILES IDX 15 13 16 14 11 15 7 16 8 17 94 18 9 19 10 20 4 21 5 22 6 23
REMARK SMILES IDX 2 24 1 25 3 26 24 27 25 28 26 29 27 30 28 31 29 33 30 34
REMARK SMILES IDX 31 35 92 36 32 37 91 38 33 39 34 40 35 41 85 42 36 43 90 44
REMARK SMILES IDX 84 45 86 46 37 47 89 48 83 49 82 50 38 52 70 53 50 54 69 55
REMARK SMILES IDX 51 56 54 57 68 58 87 59 52 60 53 61 67 63 88 64 55 65 39 66
REMARK SMILES IDX 40 67 48 68 41 69 42 70 46 71 49 72 43 73 44 74 47 75 45 76
REMARK SMILES IDX 71 77 72 78 80 79 73 80 74 81 78 82 81 83 75 84 76 85 79 86
REMARK SMILES IDX 77 87 56 88 57 89 65 90 58 91 59 92 63 93 66 94 60 95 61 96
REMARK SMILES IDX 64 97 62 98
REMARK H PARENT 20 7 27 32 86 51 54 62
REMARK Flexibility Score: inf
ROOT
ATOM      1  C   UNL A   1      33.679  21.085  26.606  1.00  0.00     0.002 C 
ENDROOT
BRANCH   1   2
ATOM      2  C   UNL A   1      33.140  21.003  25.179  1.00  0.00     0.021 C 
BRANCH   2   3
ATOM      3  C   UNL A   1      31.779  21.642  24.916  1.00  0.00     0.116 C 
BRANCH   3   4
ATOM      4  N   UNL A   1      30.960  21.842  26.099  1.00  0.00    -0.352 N 
ATOM      5  C   UNL A   1      30.502  23.002  26.688  1.00  0.00     0.251 C 
ATOM      6  O   UNL A   1      29.835  22.926  27.717  1.00  0.00    -0.269 OA
ATOM      7  H   UNL A   1      30.688  21.014  26.556  1.00  0.00     0.163 HD
BRANCH   5   8
ATOM      8  C   UNL A   1      30.836  24.346  26.143  1.00  0.00     0.041 A 
ATOM      9  C   UNL A   1      30.191  26.359  24.917  1.00  0.00    -0.016 A 
ATOM     10  C   UNL A   1      31.540  26.727  24.851  1.00  0.00     0.029 A 
ATOM     11  C   UNL A   1      29.856  25.212  25.658  1.00  0.00     0.022 A 
ATOM     12  C   UNL A   1      32.518  25.931  25.454  1.00  0.00     0.042 A 
ATOM     13  Cl  UNL A   1      34.172  26.398  25.352  1.00  0.00    -0.084 Cl
ATOM     14  C   UNL A   1      32.177  24.731  26.078  1.00  0.00     0.034 A 
BRANCH   9  15
ATOM     15  C   UNL A   1      29.146  26.993  24.093  1.00  0.00    -0.017 A 
ATOM     16  C   UNL A   1      28.422  28.831  22.679  1.00  0.00     0.083 A 
ATOM     17  C   UNL A   1      27.083  28.552  22.966  1.00  0.00     0.022 A 
ATOM     18  C   UNL A   1      29.447  28.037  23.203  1.00  0.00     0.030 A 
ATOM     19  C   UNL A   1      26.767  27.470  23.780  1.00  0.00     0.002 A 
ATOM     20  C   UNL A   1      27.790  26.705  24.346  1.00  0.00     0.009 A 
BRANCH  16  21
ATOM     21  S   UNL A   1      28.780  30.277  21.712  1.00  0.00     0.242 S 
ATOM     22  O   UNL A   1      27.846  30.295  20.602  1.00  0.00    -0.207 OA
ATOM     23  O   UNL A   1      30.209  30.284  21.502  1.00  0.00    -0.207 OA
BRANCH  21  24
ATOM     24  N   UNL A   1      28.374  31.612  22.712  1.00  0.00    -0.204 NA
ATOM     25  C   UNL A   1      29.124  31.600  23.994  1.00  0.00     0.124 C 
ATOM     26  C   UNL A   1      28.461  32.943  22.067  1.00  0.00     0.124 C 
ENDBRANCH  21  24
ENDBRANCH  16  21
ENDBRANCH   9  15
ENDBRANCH   5   8
ENDBRANCH   3   4
ENDBRANCH   2   3
ENDBRANCH   1   2
BRANCH   1  27
ATOM     27  C   UNL A   1      34.707  22.181  26.899  1.00  0.00     0.002 C 
BRANCH  27  28
ATOM     28  C   UNL A   1      35.231  22.978  25.703  1.00  0.00     0.021 C 
BRANCH  28  29
ATOM     29  C   UNL A   1      36.600  23.630  25.865  1.00  0.00     0.116 C 
BRANCH  29  30
ATOM     30  N   UNL A   1      37.689  22.673  25.940  1.00  0.00    -0.352 N 
ATOM     31  C   UNL A   1      38.980  22.842  26.377  1.00  0.00     0.251 C 
ATOM     32  H   UNL A   1      37.468  21.765  25.631  1.00  0.00     0.163 HD
ATOM     33  O   UNL A   1      39.783  21.919  26.265  1.00  0.00    -0.269 OA
BRANCH  31  34
ATOM     34  C   UNL A   1      39.430  24.130  26.955  1.00  0.00     0.039 A 
ATOM     35  C   UNL A   1      40.048  25.059  26.111  1.00  0.00     0.014 A 
ATOM     36  C   UNL A   1      39.288  24.418  28.316  1.00  0.00     0.014 A 
ATOM     37  C   UNL A   1      40.475  26.290  26.617  1.00  0.00     0.010 A 
ATOM     38  C   UNL A   1      39.656  25.671  28.807  1.00  0.00     0.010 A 
ATOM     39  C   UNL A   1      40.261  26.617  27.965  1.00  0.00    -0.014 A 
BRANCH  39  40
ATOM     40  C   UNL A   1      40.687  27.930  28.514  1.00  0.00     0.031 A 
ATOM     41  C   UNL A   1      42.132  28.172  28.854  1.00  0.00     0.074 A 
ATOM     42  C   UNL A   1      39.771  28.886  28.758  1.00  0.00     0.049 A 
ATOM     43  N   UNL A   1      42.692  29.220  29.405  1.00  0.00    -0.248 NA
ATOM     44  C   UNL A   1      43.071  27.080  28.555  1.00  0.00     0.031 C 
ATOM     45  C   UNL A   1      38.334  28.762  28.512  1.00  0.00     0.029 A 
ATOM     46  N   UNL A   1      39.912  30.149  29.280  1.00  0.00    -0.354 N 
ATOM     47  C   UNL A   1      44.038  28.905  29.537  1.00  0.00     0.074 A 
ATOM     48  C   UNL A   1      44.206  27.554  29.049  1.00  0.00     0.031 C 
ATOM     49  C   UNL A   1      37.728  29.907  28.867  1.00  0.00     0.029 A 
ATOM     50  C   UNL A   1      38.728  30.833  29.393  1.00  0.00     0.049 A 
ATOM     51  H   UNL A   1      40.781  30.527  29.548  1.00  0.00     0.167 HD
ATOM     52  C   UNL A   1      45.047  29.680  30.004  1.00  0.00     0.037 A 
ATOM     53  C   UNL A   1      38.476  32.068  29.869  1.00  0.00     0.037 A 
ATOM     54  C   UNL A   1      44.887  31.037  30.460  1.00  0.00     0.049 A 
ATOM     55  C   UNL A   1      39.616  32.915  30.364  1.00  0.00     0.074 A 
ATOM     56  C   UNL A   1      45.854  31.919  30.906  1.00  0.00     0.029 A 
ATOM     57  N   UNL A   1      43.674  31.709  30.520  1.00  0.00    -0.354 N 
ATOM     58  N   UNL A   1      40.893  32.626  30.433  1.00  0.00    -0.248 NA
ATOM     59  C   UNL A   1      39.281  34.265  30.837  1.00  0.00     0.031 C 
ATOM     60  C   UNL A   1      45.224  33.115  31.267  1.00  0.00     0.029 A 
ATOM     61  C   UNL A   1      43.870  32.993  31.004  1.00  0.00     0.049 A 
ATOM     62  H   UNL A   1      42.804  31.331  30.257  1.00  0.00     0.167 HD
ATOM     63  C   UNL A   1      41.516  33.766  30.923  1.00  0.00     0.074 A 
ATOM     64  C   UNL A   1      40.479  34.755  31.127  1.00  0.00     0.031 C 
ATOM     65  C   UNL A   1      42.831  33.973  31.180  1.00  0.00     0.037 A 
BRANCH  52  66
ATOM     66  C   UNL A   1      46.420  29.078  30.041  1.00  0.00     0.064 A 
ATOM     67  C   UNL A   1      46.903  28.419  31.182  1.00  0.00     0.173 A 
ATOM     68  C   UNL A   1      47.253  29.131  28.913  1.00  0.00     0.173 A 
ATOM     69  F   UNL A   1      46.150  28.350  32.290  1.00  0.00    -0.203 F 
ATOM     70  C   UNL A   1      48.179  27.862  31.202  1.00  0.00     0.198 A 
ATOM     71  C   UNL A   1      48.517  28.549  28.927  1.00  0.00     0.198 A 
ATOM     72  F   UNL A   1      46.837  29.745  27.794  1.00  0.00    -0.203 F 
ATOM     73  F   UNL A   1      48.638  27.282  32.320  1.00  0.00    -0.200 F 
ATOM     74  C   UNL A   1      48.983  27.923  30.074  1.00  0.00     0.200 A 
ATOM     75  F   UNL A   1      49.289  28.598  27.832  1.00  0.00    -0.200 F 
ATOM     76  F   UNL A   1      50.210  27.384  30.094  1.00  0.00    -0.200 F 
ENDBRANCH  52  66
BRANCH  53  77
ATOM     77  C   UNL A   1      37.086  32.595  29.864  1.00  0.00     0.064 A 
ATOM     78  C   UNL A   1      36.588  33.294  28.756  1.00  0.00     0.173 A 
ATOM     79  C   UNL A   1      36.233  32.417  30.963  1.00  0.00     0.173 A 
ATOM     80  F   UNL A   1      37.375  33.506  27.691  1.00  0.00    -0.203 F 
ATOM     81  C   UNL A   1      35.296  33.811  28.753  1.00  0.00     0.198 A 
ATOM     82  C   UNL A   1      34.931  32.913  30.948  1.00  0.00     0.198 A 
ATOM     83  F   UNL A   1      36.662  31.753  32.045  1.00  0.00    -0.203 F 
ATOM     84  F   UNL A   1      34.858  34.512  27.698  1.00  0.00    -0.200 F 
ATOM     85  C   UNL A   1      34.466  33.616  29.848  1.00  0.00     0.200 A 
ATOM     86  F   UNL A   1      34.128  32.713  32.001  1.00  0.00    -0.200 F 
ATOM     87  F   UNL A   1      33.221  34.112  29.843  1.00  0.00    -0.200 F 
ENDBRANCH  53  77
BRANCH  65  88
ATOM     88  C   UNL A   1      43.229  35.337  31.660  1.00  0.00     0.064 A 
ATOM     89  C   UNL A   1      43.194  35.681  33.019  1.00  0.00     0.173 A 
ATOM     90  C   UNL A   1      43.689  36.300  30.749  1.00  0.00     0.173 A 
ATOM     91  F   UNL A   1      42.748  34.799  33.926  1.00  0.00    -0.203 F 
ATOM     92  C   UNL A   1      43.581  36.949  33.445  1.00  0.00     0.198 A 
ATOM     93  C   UNL A   1      44.099  37.557  31.181  1.00  0.00     0.198 A 
ATOM     94  F   UNL A   1      43.748  36.017  29.439  1.00  0.00    -0.203 F 
ATOM     95  F   UNL A   1      43.496  37.271  34.744  1.00  0.00    -0.200 F 
ATOM     96  C   UNL A   1      44.039  37.882  32.528  1.00  0.00     0.200 A 
ATOM     97  F   UNL A   1      44.551  38.455  30.296  1.00  0.00    -0.200 F 
ATOM     98  F   UNL A   1      44.414  39.101  32.941  1.00  0.00    -0.200 F 
ENDBRANCH  65  88
ENDBRANCH  39  40
ENDBRANCH  31  34
ENDBRANCH  29  30
ENDBRANCH  28  29
ENDBRANCH  27  28
ENDBRANCH   1  27
TORSDOF 16
ENDMDL
