MODEL 1
REMARK VINA RESULT:     -13.1      0.000      0.000
REMARK SMILES C[C@@H](CCC(=O)NCCCCCCNC(=O)c1ccc(-c2c3nc(c(-c4c(F)c(F)c(F)c(F)c4F)c4ccc([nH]4)c(-c4c(F)c(F)c(F)c(F)c4F)c4nc(c(-c5c(F)c(F)c(F)c(F)c5F)c5ccc2[nH]5)C=C4)C=C3)cc1)[C@@H]1CC[C@H]2[C@@H]3CC[C@H]4CC(=O)CC[C@@]4(C)[C@H]3CC(=O)[C@@]21C
REMARK SMILES IDX 10 1 9 2 8 3 7 4 5 5 6 6 4 8 3 9 2 10 1 11 80 12 81 13 99 14
REMARK SMILES IDX 82 15 83 16 97 17 100 18 84 19 96 20 98 21 85 22 95 23 86 24
REMARK SMILES IDX 93 25 87 26 92 27 94 28 88 29 91 30 89 31 90 32 11 33 12 34
REMARK SMILES IDX 13 35 14 36 15 37 16 39 17 40 18 41 79 42 19 43 78 44 20 45
REMARK SMILES IDX 21 46 22 47 72 48 23 49 77 50 71 51 73 52 24 53 76 54 70 55
REMARK SMILES IDX 69 56 25 58 57 59 37 60 56 61 38 62 41 63 55 64 74 65 39 66
REMARK SMILES IDX 40 67 54 69 75 70 42 71 26 72 27 73 35 74 28 75 29 76 33 77
REMARK SMILES IDX 36 78 30 79 31 80 34 81 32 82 58 83 59 84 67 85 60 86 61 87
REMARK SMILES IDX 65 88 68 89 62 90 63 91 66 92 64 93 43 94 44 95 52 96 45 97
REMARK SMILES IDX 46 98 50 99 53 100 47 101 48 102 51 103 49 104
REMARK H PARENT 7 7 14 38 73 57 41 68
REMARK Flexibility Score: inf
ROOT
ATOM      1  C   UNL A   1      30.514  31.704  25.534  1.00  0.00     0.002 C 
ENDROOT
BRANCH   1   2
ATOM      2  C   UNL A   1      29.900  32.062  24.187  1.00  0.00     0.021 C 
BRANCH   2   3
ATOM      3  C   UNL A   1      28.441  31.647  24.010  1.00  0.00     0.116 C 
BRANCH   3   4
ATOM      4  N   UNL A   1      28.027  31.676  22.619  1.00  0.00    -0.356 N 
ATOM      5  C   UNL A   1      28.372  30.877  21.573  1.00  0.00     0.220 C 
ATOM      6  O   UNL A   1      27.896  31.088  20.455  1.00  0.00    -0.275 OA
ATOM      7  H   UNL A   1      27.391  32.393  22.397  1.00  0.00     0.163 HD
BRANCH   5   8
ATOM      8  C   UNL A   1      29.327  29.738  21.790  1.00  0.00     0.100 C 
BRANCH   8   9
ATOM      9  C   UNL A   1      28.803  28.760  22.840  1.00  0.00     0.013 C 
BRANCH   9  10
ATOM     10  C   UNL A   1      29.559  27.431  23.128  1.00  0.00    -0.010 C 
ATOM     11  C   UNL A   1      28.758  26.357  23.875  1.00  0.00     0.008 C 
BRANCH  10  12
ATOM     12  C   UNL A   1      31.145  27.452  23.211  1.00  0.00     0.005 C 
ATOM     13  C   UNL A   1      31.628  27.027  21.764  1.00  0.00     0.005 C 
ATOM     14  C   UNL A   1      32.258  26.745  24.126  1.00  0.00     0.032 C 
ATOM     15  C   UNL A   1      32.770  26.036  21.901  1.00  0.00     0.005 C 
ATOM     16  C   UNL A   1      32.603  25.483  23.306  1.00  0.00     0.006 C 
ATOM     17  C   UNL A   1      32.174  26.278  25.582  1.00  0.00     0.139 C 
ATOM     18  C   UNL A   1      33.421  27.791  24.200  1.00  0.00     0.020 C 
ATOM     19  C   UNL A   1      33.801  24.621  23.776  1.00  0.00    -0.003 C 
ATOM     20  C   UNL A   1      33.360  25.450  26.131  1.00  0.00     0.080 C 
ATOM     21  O   UNL A   1      31.298  26.640  26.358  1.00  0.00    -0.299 OA
ATOM     22  C   UNL A   1      33.884  23.360  22.896  1.00  0.00     0.004 C 
ATOM     23  C   UNL A   1      33.658  24.220  25.267  1.00  0.00     0.006 C 
ATOM     24  C   UNL A   1      34.920  22.350  23.360  1.00  0.00     0.005 C 
ATOM     25  C   UNL A   1      34.816  23.249  25.768  1.00  0.00    -0.025 C 
ATOM     26  C   UNL A   1      34.761  22.003  24.846  1.00  0.00     0.002 C 
ATOM     27  C   UNL A   1      36.243  23.847  25.719  1.00  0.00     0.015 C 
ATOM     28  C   UNL A   1      34.531  22.832  27.237  1.00  0.00     0.012 C 
ATOM     29  C   UNL A   1      35.731  20.902  25.256  1.00  0.00     0.079 C 
ATOM     30  C   UNL A   1      37.418  22.870  25.508  1.00  0.00     0.076 C 
ATOM     31  C   UNL A   1      37.142  21.402  25.247  1.00  0.00     0.133 C 
ATOM     32  O   UNL A   1      38.077  20.616  25.065  1.00  0.00    -0.300 OA
ENDBRANCH  10  12
ENDBRANCH   9  10
ENDBRANCH   8   9
ENDBRANCH   5   8
ENDBRANCH   3   4
ENDBRANCH   2   3
ENDBRANCH   1   2
BRANCH   1  33
ATOM     33  C   UNL A   1      31.403  30.465  25.516  1.00  0.00     0.002 C 
BRANCH  33  34
ATOM     34  C   UNL A   1      31.779  29.904  26.898  1.00  0.00     0.021 C 
BRANCH  34  35
ATOM     35  C   UNL A   1      33.278  29.840  27.205  1.00  0.00     0.116 C 
BRANCH  35  36
ATOM     36  N   UNL A   1      33.716  31.029  27.926  1.00  0.00    -0.352 N 
ATOM     37  C   UNL A   1      34.764  31.218  28.779  1.00  0.00     0.251 C 
ATOM     38  H   UNL A   1      33.165  31.829  27.772  1.00  0.00     0.163 HD
ATOM     39  O   UNL A   1      34.722  32.152  29.595  1.00  0.00    -0.269 OA
BRANCH  37  40
ATOM     40  C   UNL A   1      35.930  30.331  28.756  1.00  0.00     0.039 A 
ATOM     41  C   UNL A   1      36.720  30.327  27.603  1.00  0.00     0.014 A 
ATOM     42  C   UNL A   1      36.286  29.569  29.870  1.00  0.00     0.014 A 
ATOM     43  C   UNL A   1      37.971  29.728  27.637  1.00  0.00     0.010 A 
ATOM     44  C   UNL A   1      37.561  29.029  29.933  1.00  0.00     0.010 A 
ATOM     45  C   UNL A   1      38.432  29.185  28.844  1.00  0.00    -0.014 A 
BRANCH  45  46
ATOM     46  C   UNL A   1      39.879  28.994  29.066  1.00  0.00     0.031 A 
ATOM     47  C   UNL A   1      40.712  30.092  29.634  1.00  0.00     0.074 A 
ATOM     48  C   UNL A   1      40.427  27.854  28.598  1.00  0.00     0.049 A 
ATOM     49  N   UNL A   1      42.008  30.147  29.780  1.00  0.00    -0.248 NA
ATOM     50  C   UNL A   1      40.000  31.309  30.055  1.00  0.00     0.031 C 
ATOM     51  C   UNL A   1      39.689  26.771  27.935  1.00  0.00     0.029 A 
ATOM     52  N   UNL A   1      41.725  27.419  28.582  1.00  0.00    -0.354 N 
ATOM     53  C   UNL A   1      42.274  31.408  30.289  1.00  0.00     0.074 A 
ATOM     54  C   UNL A   1      41.007  32.102  30.393  1.00  0.00     0.031 C 
ATOM     55  C   UNL A   1      40.539  25.790  27.602  1.00  0.00     0.029 A 
ATOM     56  C   UNL A   1      41.884  26.186  27.993  1.00  0.00     0.049 A 
ATOM     57  H   UNL A   1      42.473  27.938  28.957  1.00  0.00     0.167 HD
ATOM     58  C   UNL A   1      43.473  31.924  30.644  1.00  0.00     0.037 A 
ATOM     59  C   UNL A   1      42.999  25.463  27.791  1.00  0.00     0.037 A 
ATOM     60  C   UNL A   1      44.711  31.196  30.548  1.00  0.00     0.049 A 
ATOM     61  C   UNL A   1      44.303  26.031  28.272  1.00  0.00     0.074 A 
ATOM     62  C   UNL A   1      45.981  31.592  30.924  1.00  0.00     0.029 A 
ATOM     63  N   UNL A   1      44.826  29.908  30.039  1.00  0.00    -0.354 N 
ATOM     64  N   UNL A   1      44.536  27.197  28.825  1.00  0.00    -0.248 NA
ATOM     65  C   UNL A   1      45.493  25.187  28.115  1.00  0.00     0.031 C 
ATOM     66  C   UNL A   1      46.867  30.551  30.626  1.00  0.00     0.029 A 
ATOM     67  C   UNL A   1      46.145  29.493  30.094  1.00  0.00     0.049 A 
ATOM     68  H   UNL A   1      44.078  29.369  29.691  1.00  0.00     0.167 HD
ATOM     69  C   UNL A   1      45.891  27.217  29.112  1.00  0.00     0.074 A 
ATOM     70  C   UNL A   1      46.426  25.941  28.679  1.00  0.00     0.031 C 
ATOM     71  C   UNL A   1      46.629  28.202  29.677  1.00  0.00     0.037 A 
BRANCH  58  72
ATOM     72  C   UNL A   1      43.494  33.327  31.169  1.00  0.00     0.064 A 
ATOM     73  C   UNL A   1      43.591  34.430  30.307  1.00  0.00     0.173 A 
ATOM     74  C   UNL A   1      43.403  33.577  32.546  1.00  0.00     0.173 A 
ATOM     75  F   UNL A   1      43.696  34.244  28.983  1.00  0.00    -0.203 F 
ATOM     76  C   UNL A   1      43.627  35.730  30.807  1.00  0.00     0.198 A 
ATOM     77  C   UNL A   1      43.413  34.879  33.041  1.00  0.00     0.198 A 
ATOM     78  F   UNL A   1      43.307  32.559  33.414  1.00  0.00    -0.203 F 
ATOM     79  F   UNL A   1      43.772  36.765  29.967  1.00  0.00    -0.200 F 
ATOM     80  C   UNL A   1      43.533  35.954  32.171  1.00  0.00     0.200 A 
ATOM     81  F   UNL A   1      43.314  35.095  34.360  1.00  0.00    -0.200 F 
ATOM     82  F   UNL A   1      43.567  37.205  32.651  1.00  0.00    -0.200 F 
ENDBRANCH  58  72
BRANCH  59  83
ATOM     83  C   UNL A   1      42.918  24.122  27.157  1.00  0.00     0.064 A 
ATOM     84  C   UNL A   1      43.229  23.953  25.800  1.00  0.00     0.173 A 
ATOM     85  C   UNL A   1      42.544  22.985  27.886  1.00  0.00     0.173 A 
ATOM     86  F   UNL A   1      43.586  25.012  25.059  1.00  0.00    -0.203 F 
ATOM     87  C   UNL A   1      43.141  22.703  25.191  1.00  0.00     0.198 A 
ATOM     88  C   UNL A   1      42.481  21.730  27.281  1.00  0.00     0.198 A 
ATOM     89  F   UNL A   1      42.255  23.088  29.192  1.00  0.00    -0.203 F 
ATOM     90  F   UNL A   1      43.402  22.579  23.882  1.00  0.00    -0.200 F 
ATOM     91  C   UNL A   1      42.771  21.592  25.932  1.00  0.00     0.200 A 
ATOM     92  F   UNL A   1      42.141  20.655  28.006  1.00  0.00    -0.200 F 
ATOM     93  F   UNL A   1      42.686  20.390  25.346  1.00  0.00    -0.200 F 
ENDBRANCH  59  83
BRANCH  71  94
ATOM     94  C   UNL A   1      48.080  27.912  29.899  1.00  0.00     0.064 A 
ATOM     95  C   UNL A   1      49.047  28.239  28.940  1.00  0.00     0.173 A 
ATOM     96  C   UNL A   1      48.507  27.348  31.111  1.00  0.00     0.173 A 
ATOM     97  F   UNL A   1      48.677  28.763  27.761  1.00  0.00    -0.203 F 
ATOM     98  C   UNL A   1      50.395  27.998  29.179  1.00  0.00     0.198 A 
ATOM     99  C   UNL A   1      49.859  27.130  31.355  1.00  0.00     0.198 A 
ATOM    100  F   UNL A   1      47.615  27.022  32.057  1.00  0.00    -0.203 F 
ATOM    101  F   UNL A   1      51.303  28.284  28.236  1.00  0.00    -0.200 F 
ATOM    102  C   UNL A   1      50.800  27.451  30.389  1.00  0.00     0.200 A 
ATOM    103  F   UNL A   1      50.250  26.611  32.526  1.00  0.00    -0.200 F 
ATOM    104  F   UNL A   1      52.101  27.230  30.621  1.00  0.00    -0.200 F 
ENDBRANCH  71  94
ENDBRANCH  45  46
ENDBRANCH  37  40
ENDBRANCH  35  36
ENDBRANCH  34  35
ENDBRANCH  33  34
ENDBRANCH   1  33
TORSDOF 16
ENDMDL
MODEL 2
REMARK VINA RESULT:     -13.0      1.262      2.355
REMARK SMILES C[C@@H](CCC(=O)NCCCCCCNC(=O)c1ccc(-c2c3nc(c(-c4c(F)c(F)c(F)c(F)c4F)c4ccc([nH]4)c(-c4c(F)c(F)c(F)c(F)c4F)c4nc(c(-c5c(F)c(F)c(F)c(F)c5F)c5ccc2[nH]5)C=C4)C=C3)cc1)[C@@H]1CC[C@H]2[C@@H]3CC[C@H]4CC(=O)CC[C@@]4(C)[C@H]3CC(=O)[C@@]21C
REMARK SMILES IDX 10 1 9 2 8 3 7 4 5 5 6 6 4 8 3 9 2 10 1 11 80 12 81 13 99 14
REMARK SMILES IDX 82 15 83 16 97 17 100 18 84 19 96 20 98 21 85 22 95 23 86 24
REMARK SMILES IDX 93 25 87 26 92 27 94 28 88 29 91 30 89 31 90 32 11 33 12 34
REMARK SMILES IDX 13 35 14 36 15 37 16 39 17 40 18 41 79 42 19 43 78 44 20 45
REMARK SMILES IDX 21 46 22 47 72 48 23 49 77 50 71 51 73 52 24 53 76 54 70 55
REMARK SMILES IDX 69 56 25 58 57 59 37 60 56 61 38 62 41 63 55 64 74 65 39 66
REMARK SMILES IDX 40 67 54 69 75 70 42 71 26 72 27 73 35 74 28 75 29 76 33 77
REMARK SMILES IDX 36 78 30 79 31 80 34 81 32 82 58 83 59 84 67 85 60 86 61 87
REMARK SMILES IDX 65 88 68 89 62 90 63 91 66 92 64 93 43 94 44 95 52 96 45 97
REMARK SMILES IDX 46 98 50 99 53 100 47 101 48 102 51 103 49 104
REMARK H PARENT 7 7 14 38 73 57 41 68
REMARK Flexibility Score: inf
ROOT
ATOM      1  C   UNL A   1      34.012  27.433  24.379  1.00  0.00     0.002 C 
ENDROOT
BRANCH   1   2
ATOM      2  C   UNL A   1      34.117  28.597  23.404  1.00  0.00     0.021 C 
BRANCH   2   3
ATOM      3  C   UNL A   1      33.150  28.542  22.223  1.00  0.00     0.116 C 
BRANCH   3   4
ATOM      4  N   UNL A   1      31.945  29.316  22.464  1.00  0.00    -0.356 N 
ATOM      5  C   UNL A   1      30.641  28.931  22.537  1.00  0.00     0.220 C 
ATOM      6  O   UNL A   1      29.763  29.770  22.749  1.00  0.00    -0.275 OA
ATOM      7  H   UNL A   1      32.097  30.279  22.596  1.00  0.00     0.163 HD
BRANCH   5   8
ATOM      8  C   UNL A   1      30.283  27.482  22.364  1.00  0.00     0.100 C 
BRANCH   8   9
ATOM      9  C   UNL A   1      29.382  26.989  23.495  1.00  0.00     0.013 C 
BRANCH   9  10
ATOM     10  C   UNL A   1      29.997  26.478  24.829  1.00  0.00    -0.010 C 
ATOM     11  C   UNL A   1      30.614  27.553  25.733  1.00  0.00     0.008 C 
BRANCH  10  12
ATOM     12  C   UNL A   1      30.494  24.972  24.919  1.00  0.00     0.005 C 
ATOM     13  C   UNL A   1      30.538  24.657  26.470  1.00  0.00     0.005 C 
ATOM     14  C   UNL A   1      31.771  24.149  24.402  1.00  0.00     0.032 C 
ATOM     15  C   UNL A   1      31.818  23.900  26.779  1.00  0.00     0.005 C 
ATOM     16  C   UNL A   1      32.728  24.236  25.610  1.00  0.00     0.006 C 
ATOM     17  C   UNL A   1      32.647  24.378  23.167  1.00  0.00     0.139 C 
ATOM     18  C   UNL A   1      31.220  22.708  24.132  1.00  0.00     0.020 C 
ATOM     19  C   UNL A   1      34.021  23.384  25.571  1.00  0.00    -0.003 C 
ATOM     20  C   UNL A   1      33.932  23.526  23.041  1.00  0.00     0.080 C 
ATOM     21  O   UNL A   1      32.314  25.086  22.225  1.00  0.00    -0.299 OA
ATOM     22  C   UNL A   1      34.877  23.719  26.806  1.00  0.00     0.004 C 
ATOM     23  C   UNL A   1      34.832  23.648  24.275  1.00  0.00     0.006 C 
ATOM     24  C   UNL A   1      36.250  23.068  26.802  1.00  0.00     0.005 C 
ATOM     25  C   UNL A   1      36.220  22.869  24.237  1.00  0.00    -0.025 C 
ATOM     26  C   UNL A   1      37.006  23.329  25.492  1.00  0.00     0.002 C 
ATOM     27  C   UNL A   1      36.108  21.325  24.253  1.00  0.00     0.015 C 
ATOM     28  C   UNL A   1      36.994  23.271  22.951  1.00  0.00     0.012 C 
ATOM     29  C   UNL A   1      38.422  22.771  25.560  1.00  0.00     0.079 C 
ATOM     30  C   UNL A   1      37.270  20.533  24.889  1.00  0.00     0.076 C 
ATOM     31  C   UNL A   1      38.407  21.273  25.566  1.00  0.00     0.133 C 
ATOM     32  O   UNL A   1      39.334  20.647  26.089  1.00  0.00    -0.300 OA
ENDBRANCH  10  12
ENDBRANCH   9  10
ENDBRANCH   8   9
ENDBRANCH   5   8
ENDBRANCH   3   4
ENDBRANCH   2   3
ENDBRANCH   1   2
BRANCH   1  33
ATOM     33  C   UNL A   1      33.967  27.839  25.849  1.00  0.00     0.002 C 
BRANCH  33  34
ATOM     34  C   UNL A   1      33.684  29.328  26.112  1.00  0.00     0.021 C 
BRANCH  34  35
ATOM     35  C   UNL A   1      33.138  29.666  27.503  1.00  0.00     0.116 C 
BRANCH  35  36
ATOM     36  N   UNL A   1      33.641  30.954  27.964  1.00  0.00    -0.352 N 
ATOM     37  C   UNL A   1      34.763  31.270  28.673  1.00  0.00     0.251 C 
ATOM     38  H   UNL A   1      33.078  31.724  27.724  1.00  0.00     0.163 HD
ATOM     39  O   UNL A   1      34.796  32.331  29.316  1.00  0.00    -0.269 OA
BRANCH  37  40
ATOM     40  C   UNL A   1      35.921  30.374  28.699  1.00  0.00     0.039 A 
ATOM     41  C   UNL A   1      36.735  30.331  27.563  1.00  0.00     0.014 A 
ATOM     42  C   UNL A   1      36.247  29.640  29.842  1.00  0.00     0.014 A 
ATOM     43  C   UNL A   1      37.979  29.723  27.641  1.00  0.00     0.010 A 
ATOM     44  C   UNL A   1      37.516  29.092  29.946  1.00  0.00     0.010 A 
ATOM     45  C   UNL A   1      38.410  29.210  28.872  1.00  0.00    -0.014 A 
BRANCH  45  46
ATOM     46  C   UNL A   1      39.851  29.014  29.129  1.00  0.00     0.031 A 
ATOM     47  C   UNL A   1      40.671  30.104  29.731  1.00  0.00     0.074 A 
ATOM     48  C   UNL A   1      40.409  27.878  28.662  1.00  0.00     0.049 A 
ATOM     49  N   UNL A   1      41.963  30.154  29.911  1.00  0.00    -0.248 NA
ATOM     50  C   UNL A   1      39.950  31.317  30.147  1.00  0.00     0.031 C 
ATOM     51  C   UNL A   1      39.687  26.805  27.968  1.00  0.00     0.029 A 
ATOM     52  N   UNL A   1      41.706  27.440  28.675  1.00  0.00    -0.354 N 
ATOM     53  C   UNL A   1      42.218  31.409  30.441  1.00  0.00     0.074 A 
ATOM     54  C   UNL A   1      40.950  32.104  30.521  1.00  0.00     0.031 C 
ATOM     55  C   UNL A   1      40.544  25.825  27.646  1.00  0.00     0.029 A 
ATOM     56  C   UNL A   1      41.879  26.215  28.076  1.00  0.00     0.049 A 
ATOM     57  H   UNL A   1      42.445  27.954  29.075  1.00  0.00     0.167 HD
ATOM     58  C   UNL A   1      43.408  31.919  30.834  1.00  0.00     0.037 A 
ATOM     59  C   UNL A   1      42.997  25.492  27.895  1.00  0.00     0.037 A 
ATOM     60  C   UNL A   1      44.647  31.189  30.762  1.00  0.00     0.049 A 
ATOM     61  C   UNL A   1      44.289  26.052  28.416  1.00  0.00     0.074 A 
ATOM     62  C   UNL A   1      45.907  31.578  31.175  1.00  0.00     0.029 A 
ATOM     63  N   UNL A   1      44.772  29.907  30.241  1.00  0.00    -0.354 N 
ATOM     64  N   UNL A   1      44.510  27.211  28.989  1.00  0.00    -0.248 NA
ATOM     65  C   UNL A   1      45.481  25.207  28.281  1.00  0.00     0.031 C 
ATOM     66  C   UNL A   1      46.799  30.539  30.888  1.00  0.00     0.029 A 
ATOM     67  C   UNL A   1      46.089  29.488  30.325  1.00  0.00     0.049 A 
ATOM     68  H   UNL A   1      44.033  29.374  29.867  1.00  0.00     0.167 HD
ATOM     69  C   UNL A   1      45.857  27.225  29.311  1.00  0.00     0.074 A 
ATOM     70  C   UNL A   1      46.401  25.953  28.878  1.00  0.00     0.031 C 
ATOM     71  C   UNL A   1      46.581  28.201  29.907  1.00  0.00     0.037 A 
BRANCH  58  72
ATOM     72  C   UNL A   1      43.417  33.316  31.375  1.00  0.00     0.064 A 
ATOM     73  C   UNL A   1      43.551  34.428  30.530  1.00  0.00     0.173 A 
ATOM     74  C   UNL A   1      43.278  33.550  32.751  1.00  0.00     0.173 A 
ATOM     75  F   UNL A   1      43.703  34.256  29.209  1.00  0.00    -0.203 F 
ATOM     76  C   UNL A   1      43.576  35.721  31.046  1.00  0.00     0.198 A 
ATOM     77  C   UNL A   1      43.277  34.847  33.260  1.00  0.00     0.198 A 
ATOM     78  F   UNL A   1      43.146  32.523  33.603  1.00  0.00    -0.203 F 
ATOM     79  F   UNL A   1      43.757  36.765  30.224  1.00  0.00    -0.200 F 
ATOM     80  C   UNL A   1      43.434  35.930  32.408  1.00  0.00     0.200 A 
ATOM     81  F   UNL A   1      43.132  35.048  34.578  1.00  0.00    -0.200 F 
ATOM     82  F   UNL A   1      43.458  37.176  32.903  1.00  0.00    -0.200 F 
ENDBRANCH  58  72
BRANCH  59  83
ATOM     83  C   UNL A   1      42.931  24.158  27.244  1.00  0.00     0.064 A 
ATOM     84  C   UNL A   1      43.258  24.007  25.889  1.00  0.00     0.173 A 
ATOM     85  C   UNL A   1      42.554  23.010  27.955  1.00  0.00     0.173 A 
ATOM     86  F   UNL A   1      43.618  25.077  25.166  1.00  0.00    -0.203 F 
ATOM     87  C   UNL A   1      43.184  22.765  25.263  1.00  0.00     0.198 A 
ATOM     88  C   UNL A   1      42.505  21.763  27.334  1.00  0.00     0.198 A 
ATOM     89  F   UNL A   1      42.250  23.096  29.259  1.00  0.00    -0.203 F 
ATOM     90  F   UNL A   1      43.460  22.657  23.956  1.00  0.00    -0.200 F 
ATOM     91  C   UNL A   1      42.811  21.643  25.987  1.00  0.00     0.200 A 
ATOM     92  F   UNL A   1      42.162  20.677  28.041  1.00  0.00    -0.200 F 
ATOM     93  F   UNL A   1      42.739  20.448  25.385  1.00  0.00    -0.200 F 
ENDBRANCH  59  83
BRANCH  71  94
ATOM     94  C   UNL A   1      48.025  27.906  30.164  1.00  0.00     0.064 A 
ATOM     95  C   UNL A   1      48.449  27.306  31.357  1.00  0.00     0.173 A 
ATOM     96  C   UNL A   1      48.986  28.181  29.179  1.00  0.00     0.173 A 
ATOM     97  F   UNL A   1      47.565  27.044  32.332  1.00  0.00    -0.203 F 
ATOM     98  C   UNL A   1      49.791  27.004  31.563  1.00  0.00     0.198 A 
ATOM     99  C   UNL A   1      50.323  27.856  29.379  1.00  0.00     0.198 A 
ATOM    100  F   UNL A   1      48.623  28.754  28.022  1.00  0.00    -0.203 F 
ATOM    101  F   UNL A   1      50.183  26.462  32.724  1.00  0.00    -0.200 F 
ATOM    102  C   UNL A   1      50.724  27.271  30.571  1.00  0.00     0.200 A 
ATOM    103  F   UNL A   1      51.222  28.106  28.418  1.00  0.00    -0.200 F 
ATOM    104  F   UNL A   1      52.014  26.969  30.768  1.00  0.00    -0.200 F 
ENDBRANCH  71  94
ENDBRANCH  45  46
ENDBRANCH  37  40
ENDBRANCH  35  36
ENDBRANCH  34  35
ENDBRANCH  33  34
ENDBRANCH   1  33
TORSDOF 16
ENDMDL
MODEL 3
REMARK VINA RESULT:     -12.9      3.115      4.037
REMARK SMILES C[C@@H](CCC(=O)NCCCCCCNC(=O)c1ccc(-c2c3nc(c(-c4c(F)c(F)c(F)c(F)c4F)c4ccc([nH]4)c(-c4c(F)c(F)c(F)c(F)c4F)c4nc(c(-c5c(F)c(F)c(F)c(F)c5F)c5ccc2[nH]5)C=C4)C=C3)cc1)[C@@H]1CC[C@H]2[C@@H]3CC[C@H]4CC(=O)CC[C@@]4(C)[C@H]3CC(=O)[C@@]21C
REMARK SMILES IDX 10 1 9 2 8 3 7 4 5 5 6 6 4 8 3 9 2 10 1 11 80 12 81 13 99 14
REMARK SMILES IDX 82 15 83 16 97 17 100 18 84 19 96 20 98 21 85 22 95 23 86 24
REMARK SMILES IDX 93 25 87 26 92 27 94 28 88 29 91 30 89 31 90 32 11 33 12 34
REMARK SMILES IDX 13 35 14 36 15 37 16 39 17 40 18 41 79 42 19 43 78 44 20 45
REMARK SMILES IDX 21 46 22 47 72 48 23 49 77 50 71 51 73 52 24 53 76 54 70 55
REMARK SMILES IDX 69 56 25 58 57 59 37 60 56 61 38 62 41 63 55 64 74 65 39 66
REMARK SMILES IDX 40 67 54 69 75 70 42 71 26 72 27 73 35 74 28 75 29 76 33 77
REMARK SMILES IDX 36 78 30 79 31 80 34 81 32 82 58 83 59 84 67 85 60 86 61 87
REMARK SMILES IDX 65 88 68 89 62 90 63 91 66 92 64 93 43 94 44 95 52 96 45 97
REMARK SMILES IDX 46 98 50 99 53 100 47 101 48 102 51 103 49 104
REMARK H PARENT 7 7 14 38 73 57 41 68
REMARK Flexibility Score: inf
ROOT
ATOM      1  C   UNL A   1      30.185  31.996  25.136  1.00  0.00     0.002 C 
ENDROOT
BRANCH   1   2
ATOM      2  C   UNL A   1      29.516  32.343  23.813  1.00  0.00     0.021 C 
BRANCH   2   3
ATOM      3  C   UNL A   1      28.066  31.881  23.680  1.00  0.00     0.116 C 
BRANCH   3   4
ATOM      4  N   UNL A   1      27.704  31.601  22.302  1.00  0.00    -0.356 N 
ATOM      5  C   UNL A   1      28.158  30.650  21.441  1.00  0.00     0.220 C 
ATOM      6  O   UNL A   1      27.708  30.593  20.294  1.00  0.00    -0.275 OA
ATOM      7  H   UNL A   1      27.016  32.197  21.930  1.00  0.00     0.163 HD
BRANCH   5   8
ATOM      8  C   UNL A   1      29.201  29.670  21.897  1.00  0.00     0.100 C 
BRANCH   8   9
ATOM      9  C   UNL A   1      28.627  28.662  22.891  1.00  0.00     0.013 C 
BRANCH   9  10
ATOM     10  C   UNL A   1      29.411  27.365  23.242  1.00  0.00    -0.010 C 
ATOM     11  C   UNL A   1      28.639  26.320  24.059  1.00  0.00     0.008 C 
BRANCH  10  12
ATOM     12  C   UNL A   1      30.998  27.417  23.300  1.00  0.00     0.005 C 
ATOM     13  C   UNL A   1      31.466  26.993  21.849  1.00  0.00     0.005 C 
ATOM     14  C   UNL A   1      32.138  26.738  24.202  1.00  0.00     0.032 C 
ATOM     15  C   UNL A   1      32.630  26.025  21.975  1.00  0.00     0.005 C 
ATOM     16  C   UNL A   1      32.495  25.478  23.385  1.00  0.00     0.006 C 
ATOM     17  C   UNL A   1      32.085  26.279  25.663  1.00  0.00     0.139 C 
ATOM     18  C   UNL A   1      33.281  27.808  24.252  1.00  0.00     0.020 C 
ATOM     19  C   UNL A   1      33.717  24.643  23.842  1.00  0.00    -0.003 C 
ATOM     20  C   UNL A   1      33.295  25.479  26.199  1.00  0.00     0.080 C 
ATOM     21  O   UNL A   1      31.214  26.628  26.449  1.00  0.00    -0.299 OA
ATOM     22  C   UNL A   1      33.812  23.378  22.969  1.00  0.00     0.004 C 
ATOM     23  C   UNL A   1      33.605  24.249  25.338  1.00  0.00     0.006 C 
ATOM     24  C   UNL A   1      34.875  22.392  23.423  1.00  0.00     0.005 C 
ATOM     25  C   UNL A   1      34.789  23.304  25.827  1.00  0.00    -0.025 C 
ATOM     26  C   UNL A   1      34.745  22.052  24.914  1.00  0.00     0.002 C 
ATOM     27  C   UNL A   1      36.203  23.931  25.752  1.00  0.00     0.015 C 
ATOM     28  C   UNL A   1      34.535  22.891  27.303  1.00  0.00     0.012 C 
ATOM     29  C   UNL A   1      35.743  20.973  25.315  1.00  0.00     0.079 C 
ATOM     30  C   UNL A   1      37.395  22.976  25.529  1.00  0.00     0.076 C 
ATOM     31  C   UNL A   1      37.144  21.501  25.282  1.00  0.00     0.133 C 
ATOM     32  O   UNL A   1      38.091  20.732  25.090  1.00  0.00    -0.300 OA
ENDBRANCH  10  12
ENDBRANCH   9  10
ENDBRANCH   8   9
ENDBRANCH   5   8
ENDBRANCH   3   4
ENDBRANCH   2   3
ENDBRANCH   1   2
BRANCH   1  33
ATOM     33  C   UNL A   1      30.967  30.686  25.124  1.00  0.00     0.002 C 
BRANCH  33  34
ATOM     34  C   UNL A   1      31.411  30.172  26.504  1.00  0.00     0.021 C 
BRANCH  34  35
ATOM     35  C   UNL A   1      32.871  30.449  26.880  1.00  0.00     0.116 C 
BRANCH  35  36
ATOM     36  N   UNL A   1      33.061  31.846  27.249  1.00  0.00    -0.352 N 
ATOM     37  C   UNL A   1      34.056  32.453  27.957  1.00  0.00     0.251 C 
ATOM     38  H   UNL A   1      32.354  32.454  26.934  1.00  0.00     0.163 HD
ATOM     39  O   UNL A   1      33.831  33.539  28.513  1.00  0.00    -0.269 OA
BRANCH  37  40
ATOM     40  C   UNL A   1      35.381  31.838  28.083  1.00  0.00     0.039 A 
ATOM     41  C   UNL A   1      36.455  32.671  28.407  1.00  0.00     0.014 A 
ATOM     42  C   UNL A   1      35.556  30.459  27.956  1.00  0.00     0.014 A 
ATOM     43  C   UNL A   1      37.657  32.106  28.808  1.00  0.00     0.010 A 
ATOM     44  C   UNL A   1      36.731  29.888  28.422  1.00  0.00     0.010 A 
ATOM     45  C   UNL A   1      37.747  30.712  28.927  1.00  0.00    -0.014 A 
BRANCH  45  46
ATOM     46  C   UNL A   1      38.783  30.108  29.787  1.00  0.00     0.031 A 
ATOM     47  C   UNL A   1      38.937  30.538  31.206  1.00  0.00     0.074 A 
ATOM     48  C   UNL A   1      39.663  29.274  29.196  1.00  0.00     0.049 A 
ATOM     49  N   UNL A   1      39.864  30.210  32.066  1.00  0.00    -0.248 NA
ATOM     50  C   UNL A   1      37.945  31.496  31.716  1.00  0.00     0.031 C 
ATOM     51  C   UNL A   1      39.638  28.884  27.781  1.00  0.00     0.029 A 
ATOM     52  N   UNL A   1      40.760  28.622  29.692  1.00  0.00    -0.354 N 
ATOM     53  C   UNL A   1      39.582  30.936  33.213  1.00  0.00     0.074 A 
ATOM     54  C   UNL A   1      38.419  31.750  32.928  1.00  0.00     0.031 C 
ATOM     55  C   UNL A   1      40.652  28.043  27.531  1.00  0.00     0.029 A 
ATOM     56  C   UNL A   1      41.420  27.863  28.755  1.00  0.00     0.049 A 
ATOM     57  H   UNL A   1      41.048  28.690  30.632  1.00  0.00     0.167 HD
ATOM     58  C   UNL A   1      40.238  30.906  34.396  1.00  0.00     0.037 A 
ATOM     59  C   UNL A   1      42.526  27.109  28.877  1.00  0.00     0.037 A 
ATOM     60  C   UNL A   1      41.379  30.066  34.651  1.00  0.00     0.049 A 
ATOM     61  C   UNL A   1      43.181  27.035  30.225  1.00  0.00     0.074 A 
ATOM     62  C   UNL A   1      42.096  29.910  35.822  1.00  0.00     0.029 A 
ATOM     63  N   UNL A   1      41.964  29.230  33.707  1.00  0.00    -0.354 N 
ATOM     64  N   UNL A   1      42.862  27.667  31.329  1.00  0.00    -0.248 NA
ATOM     65  C   UNL A   1      44.337  26.141  30.353  1.00  0.00     0.031 C 
ATOM     66  C   UNL A   1      43.126  28.994  35.582  1.00  0.00     0.029 A 
ATOM     67  C   UNL A   1      43.032  28.554  34.270  1.00  0.00     0.049 A 
ATOM     68  H   UNL A   1      41.662  29.134  32.774  1.00  0.00     0.167 HD
ATOM     69  C   UNL A   1      43.755  27.225  32.291  1.00  0.00     0.074 A 
ATOM     70  C   UNL A   1      44.624  26.264  31.641  1.00  0.00     0.031 C 
ATOM     71  C   UNL A   1      43.853  27.584  33.593  1.00  0.00     0.037 A 
BRANCH  58  72
ATOM     72  C   UNL A   1      39.733  31.798  35.488  1.00  0.00     0.064 A 
ATOM     73  C   UNL A   1      40.254  33.086  35.682  1.00  0.00     0.173 A 
ATOM     74  C   UNL A   1      38.709  31.370  36.345  1.00  0.00     0.173 A 
ATOM     75  F   UNL A   1      41.246  33.537  34.900  1.00  0.00    -0.203 F 
ATOM     76  C   UNL A   1      39.790  33.900  36.712  1.00  0.00     0.198 A 
ATOM     77  C   UNL A   1      38.229  32.196  37.358  1.00  0.00     0.198 A 
ATOM     78  F   UNL A   1      38.174  30.147  36.204  1.00  0.00    -0.203 F 
ATOM     79  F   UNL A   1      40.339  35.107  36.910  1.00  0.00    -0.200 F 
ATOM     80  C   UNL A   1      38.775  33.458  37.545  1.00  0.00     0.200 A 
ATOM     81  F   UNL A   1      37.241  31.770  38.159  1.00  0.00    -0.200 F 
ATOM     82  F   UNL A   1      38.329  34.243  38.536  1.00  0.00    -0.200 F 
ENDBRANCH  58  72
BRANCH  59  83
ATOM     83  C   UNL A   1      43.039  26.338  27.715  1.00  0.00     0.064 A 
ATOM     84  C   UNL A   1      42.551  25.053  27.439  1.00  0.00     0.173 A 
ATOM     85  C   UNL A   1      44.011  26.866  26.854  1.00  0.00     0.173 A 
ATOM     86  F   UNL A   1      41.626  24.503  28.237  1.00  0.00    -0.203 F 
ATOM     87  C   UNL A   1      43.037  24.314  26.362  1.00  0.00     0.198 A 
ATOM     88  C   UNL A   1      44.478  26.135  25.762  1.00  0.00     0.198 A 
ATOM     89  F   UNL A   1      44.497  28.098  27.062  1.00  0.00    -0.203 F 
ATOM     90  F   UNL A   1      42.584  23.070  26.147  1.00  0.00    -0.200 F 
ATOM     91  C   UNL A   1      43.997  24.856  25.522  1.00  0.00     0.200 A 
ATOM     92  F   UNL A   1      45.392  26.670  24.941  1.00  0.00    -0.200 F 
ATOM     93  F   UNL A   1      44.464  24.145  24.487  1.00  0.00    -0.200 F 
ENDBRANCH  59  83
BRANCH  71  94
ATOM     94  C   UNL A   1      44.906  26.896  34.403  1.00  0.00     0.064 A 
ATOM     95  C   UNL A   1      46.190  27.440  34.549  1.00  0.00     0.173 A 
ATOM     96  C   UNL A   1      44.606  25.706  35.082  1.00  0.00     0.173 A 
ATOM     97  F   UNL A   1      46.522  28.567  33.900  1.00  0.00    -0.203 F 
ATOM     98  C   UNL A   1      47.145  26.807  35.336  1.00  0.00     0.198 A 
ATOM     99  C   UNL A   1      45.557  25.088  35.888  1.00  0.00     0.198 A 
ATOM    100  F   UNL A   1      43.390  25.152  34.971  1.00  0.00    -0.203 F 
ATOM    101  F   UNL A   1      48.377  27.323  35.436  1.00  0.00    -0.200 F 
ATOM    102  C   UNL A   1      46.825  25.637  36.011  1.00  0.00     0.200 A 
ATOM    103  F   UNL A   1      45.246  23.964  36.546  1.00  0.00    -0.200 F 
ATOM    104  F   UNL A   1      47.743  25.035  36.778  1.00  0.00    -0.200 F 
ENDBRANCH  71  94
ENDBRANCH  45  46
ENDBRANCH  37  40
ENDBRANCH  35  36
ENDBRANCH  34  35
ENDBRANCH  33  34
ENDBRANCH   1  33
TORSDOF 16
ENDMDL
