MODEL 1
REMARK VINA RESULT:     -11.8      0.000      0.000
REMARK SMILES CCc1ccsc1-c1nnnn1C[C@H](CC(C)C)C(=O)NCCCCCCNC(=O)c1ccc(-c2c3nc(c(-c4c(F)c(F)c(F)c(F)c4F)c4ccc([nH]4)c(-c4c(F)c(F)c(F)c(F)c4F)c4nc(c(-c5c(F)c(F)c(F)c(F)c5F)c5ccc2[nH]5)C=C4)C=C3)cc1
REMARK SMILES IDX 23 1 22 2 21 3 19 4 20 5 14 7 13 8 12 9 8 10 9 11 10 12
REMARK SMILES IDX 11 13 7 14 3 15 4 16 5 17 6 18 2 19 1 20 15 21 16 22 17 23
REMARK SMILES IDX 18 24 24 25 25 26 26 27 27 28 28 29 29 30 30 32 31 33 32 34
REMARK SMILES IDX 93 35 33 36 92 37 34 38 35 39 36 40 86 41 37 42 91 43 85 44
REMARK SMILES IDX 87 45 38 46 90 47 84 48 83 49 39 51 71 52 51 53 70 54 52 55
REMARK SMILES IDX 55 56 69 57 88 58 53 59 54 60 68 62 89 63 56 64 40 65 41 66
REMARK SMILES IDX 49 67 42 68 43 69 47 70 50 71 44 72 45 73 48 74 46 75 72 76
REMARK SMILES IDX 73 77 81 78 74 79 75 80 79 81 82 82 76 83 77 84 80 85 78 86
REMARK SMILES IDX 57 87 58 88 66 89 59 90 60 91 64 92 67 93 61 94 62 95 65 96
REMARK SMILES IDX 63 97
REMARK H PARENT 21 6 28 31 87 50 55 61
REMARK Flexibility Score: inf
ROOT
ATOM      1  C   UNL A   1      38.912  22.796  26.428  1.00  0.00     0.021 C 
ENDROOT
BRANCH   1   2
ATOM      2  C   UNL A   1      37.992  21.833  25.702  1.00  0.00     0.116 C 
BRANCH   2   3
ATOM      3  N   UNL A   1      37.487  22.301  24.431  1.00  0.00    -0.356 N 
ATOM      4  C   UNL A   1      36.217  22.611  24.059  1.00  0.00     0.224 C 
ATOM      5  O   UNL A   1      36.069  23.202  22.985  1.00  0.00    -0.275 OA
ATOM      6  H   UNL A   1      38.168  22.412  23.728  1.00  0.00     0.163 HD
BRANCH   4   7
ATOM      7  C   UNL A   1      34.989  22.292  24.915  1.00  0.00     0.100 C 
BRANCH   7   8
ATOM      8  C   UNL A   1      34.816  23.286  26.075  1.00  0.00     0.162 C 
BRANCH   8   9
ATOM      9  N   UNL A   1      33.490  23.692  26.460  1.00  0.00    -0.224 N 
ATOM     10  C   UNL A   1      32.766  24.783  26.054  1.00  0.00     0.192 A 
ATOM     11  N   UNL A   1      31.634  24.795  26.727  1.00  0.00    -0.108 NA
ATOM     12  N   UNL A   1      31.614  23.630  27.455  1.00  0.00    -0.023 NA
ATOM     13  N   UNL A   1      32.716  22.921  27.246  1.00  0.00    -0.045 NA
BRANCH  10  14
ATOM     14  C   UNL A   1      33.105  25.650  24.975  1.00  0.00     0.077 A 
ATOM     15  C   UNL A   1      33.615  26.938  25.080  1.00  0.00    -0.026 A 
ATOM     16  C   UNL A   1      33.763  27.519  23.774  1.00  0.00     0.016 A 
ATOM     17  C   UNL A   1      33.400  26.662  22.760  1.00  0.00     0.066 A 
ATOM     18  S   UNL A   1      32.885  25.149  23.358  1.00  0.00    -0.140 S 
BRANCH  15  19
ATOM     19  C   UNL A   1      33.928  27.681  26.358  1.00  0.00     0.034 C 
ATOM     20  C   UNL A   1      32.731  28.333  27.036  1.00  0.00     0.009 C 
ENDBRANCH  15  19
ENDBRANCH  10  14
ENDBRANCH   8   9
ENDBRANCH   7   8
BRANCH   7  21
ATOM     21  C   UNL A   1      34.786  20.786  25.173  1.00  0.00     0.018 C 
BRANCH  21  22
ATOM     22  C   UNL A   1      33.644  20.111  24.390  1.00  0.00    -0.017 C 
ATOM     23  C   UNL A   1      33.035  18.935  25.150  1.00  0.00     0.007 C 
ATOM     24  C   UNL A   1      32.565  21.144  24.059  1.00  0.00     0.007 C 
ENDBRANCH  21  22
ENDBRANCH   7  21
ENDBRANCH   4   7
ENDBRANCH   2   3
ENDBRANCH   1   2
BRANCH   1  25
ATOM     25  C   UNL A   1      40.385  22.393  26.423  1.00  0.00     0.002 C 
BRANCH  25  26
ATOM     26  C   UNL A   1      40.839  21.425  27.527  1.00  0.00     0.002 C 
BRANCH  26  27
ATOM     27  C   UNL A   1      42.005  20.476  27.208  1.00  0.00     0.021 C 
BRANCH  27  28
ATOM     28  C   UNL A   1      42.062  19.980  25.772  1.00  0.00     0.116 C 
BRANCH  28  29
ATOM     29  N   UNL A   1      43.414  19.635  25.347  1.00  0.00    -0.352 N 
ATOM     30  C   UNL A   1      44.436  20.475  24.976  1.00  0.00     0.251 C 
ATOM     31  H   UNL A   1      43.621  18.673  25.321  1.00  0.00     0.163 HD
ATOM     32  O   UNL A   1      45.369  20.053  24.286  1.00  0.00    -0.269 OA
BRANCH  30  33
ATOM     33  C   UNL A   1      44.419  21.888  25.394  1.00  0.00     0.039 A 
ATOM     34  C   UNL A   1      43.626  22.813  24.712  1.00  0.00     0.014 A 
ATOM     35  C   UNL A   1      45.207  22.296  26.472  1.00  0.00     0.014 A 
ATOM     36  C   UNL A   1      43.566  24.123  25.181  1.00  0.00     0.010 A 
ATOM     37  C   UNL A   1      45.055  23.556  27.010  1.00  0.00     0.010 A 
ATOM     38  C   UNL A   1      44.253  24.482  26.357  1.00  0.00    -0.014 A 
BRANCH  38  39
ATOM     39  C   UNL A   1      43.943  25.754  27.013  1.00  0.00     0.031 A 
ATOM     40  C   UNL A   1      44.907  26.820  26.635  1.00  0.00     0.074 A 
ATOM     41  C   UNL A   1      42.831  26.020  27.739  1.00  0.00     0.049 A 
ATOM     42  N   UNL A   1      45.837  27.308  27.384  1.00  0.00    -0.248 NA
ATOM     43  C   UNL A   1      44.988  27.258  25.231  1.00  0.00     0.031 C 
ATOM     44  C   UNL A   1      41.671  25.144  27.933  1.00  0.00     0.029 A 
ATOM     45  N   UNL A   1      42.453  27.163  28.398  1.00  0.00    -0.354 N 
ATOM     46  C   UNL A   1      46.430  28.317  26.633  1.00  0.00     0.074 A 
ATOM     47  C   UNL A   1      46.039  28.085  25.271  1.00  0.00     0.031 C 
ATOM     48  C   UNL A   1      40.643  25.851  28.454  1.00  0.00     0.029 A 
ATOM     49  C   UNL A   1      41.113  27.184  28.792  1.00  0.00     0.049 A 
ATOM     50  H   UNL A   1      43.074  27.904  28.578  1.00  0.00     0.167 HD
ATOM     51  C   UNL A   1      46.860  29.441  27.271  1.00  0.00     0.037 A 
ATOM     52  C   UNL A   1      40.434  28.206  29.375  1.00  0.00     0.037 A 
ATOM     53  C   UNL A   1      46.940  29.199  28.693  1.00  0.00     0.049 A 
ATOM     54  C   UNL A   1      41.430  29.091  30.012  1.00  0.00     0.074 A 
ATOM     55  C   UNL A   1      47.758  28.509  29.560  1.00  0.00     0.029 A 
ATOM     56  N   UNL A   1      45.749  29.396  29.334  1.00  0.00    -0.354 N 
ATOM     57  N   UNL A   1      42.094  28.758  31.081  1.00  0.00    -0.248 NA
ATOM     58  C   UNL A   1      41.941  30.247  29.285  1.00  0.00     0.031 C 
ATOM     59  C   UNL A   1      46.971  28.221  30.717  1.00  0.00     0.029 A 
ATOM     60  C   UNL A   1      45.712  28.791  30.557  1.00  0.00     0.049 A 
ATOM     61  H   UNL A   1      45.002  29.914  28.955  1.00  0.00     0.167 HD
ATOM     62  C   UNL A   1      43.328  29.335  30.888  1.00  0.00     0.074 A 
ATOM     63  C   UNL A   1      43.117  30.388  29.901  1.00  0.00     0.031 C 
ATOM     64  C   UNL A   1      44.456  28.665  31.252  1.00  0.00     0.037 A 
BRANCH  51  65
ATOM     65  C   UNL A   1      46.639  30.857  26.760  1.00  0.00     0.064 A 
ATOM     66  C   UNL A   1      47.719  31.766  26.817  1.00  0.00     0.173 A 
ATOM     67  C   UNL A   1      45.372  31.447  26.553  1.00  0.00     0.173 A 
ATOM     68  F   UNL A   1      48.969  31.329  27.031  1.00  0.00    -0.203 F 
ATOM     69  C   UNL A   1      47.530  33.151  26.758  1.00  0.00     0.198 A 
ATOM     70  C   UNL A   1      45.194  32.826  26.448  1.00  0.00     0.198 A 
ATOM     71  F   UNL A   1      44.238  30.739  26.559  1.00  0.00    -0.203 F 
ATOM     72  F   UNL A   1      48.570  33.975  26.947  1.00  0.00    -0.200 F 
ATOM     73  C   UNL A   1      46.265  33.680  26.581  1.00  0.00     0.200 A 
ATOM     74  F   UNL A   1      43.955  33.319  26.306  1.00  0.00    -0.200 F 
ATOM     75  F   UNL A   1      46.071  35.005  26.588  1.00  0.00    -0.200 F 
ENDBRANCH  51  65
BRANCH  52  76
ATOM     76  C   UNL A   1      38.998  28.579  29.377  1.00  0.00     0.064 A 
ATOM     77  C   UNL A   1      38.272  28.671  30.580  1.00  0.00     0.173 A 
ATOM     78  C   UNL A   1      38.409  29.168  28.247  1.00  0.00     0.173 A 
ATOM     79  F   UNL A   1      38.769  28.155  31.714  1.00  0.00    -0.203 F 
ATOM     80  C   UNL A   1      37.063  29.369  30.661  1.00  0.00     0.198 A 
ATOM     81  C   UNL A   1      37.198  29.863  28.328  1.00  0.00     0.198 A 
ATOM     82  F   UNL A   1      39.049  29.171  27.069  1.00  0.00    -0.203 F 
ATOM     83  F   UNL A   1      36.446  29.506  31.844  1.00  0.00    -0.200 F 
ATOM     84  C   UNL A   1      36.538  29.982  29.538  1.00  0.00     0.200 A 
ATOM     85  F   UNL A   1      36.714  30.482  27.242  1.00  0.00    -0.200 F 
ATOM     86  F   UNL A   1      35.424  30.722  29.630  1.00  0.00    -0.200 F 
ENDBRANCH  52  76
BRANCH  64  87
ATOM     87  C   UNL A   1      44.325  27.665  32.355  1.00  0.00     0.064 A 
ATOM     88  C   UNL A   1      44.178  26.280  32.174  1.00  0.00     0.173 A 
ATOM     89  C   UNL A   1      44.367  28.149  33.668  1.00  0.00     0.173 A 
ATOM     90  F   UNL A   1      44.201  25.734  30.950  1.00  0.00    -0.203 F 
ATOM     91  C   UNL A   1      44.025  25.429  33.267  1.00  0.00     0.198 A 
ATOM     92  C   UNL A   1      44.252  27.295  34.757  1.00  0.00     0.198 A 
ATOM     93  F   UNL A   1      44.536  29.462  33.895  1.00  0.00    -0.203 F 
ATOM     94  F   UNL A   1      43.849  24.113  33.077  1.00  0.00    -0.200 F 
ATOM     95  C   UNL A   1      44.066  25.937  34.557  1.00  0.00     0.200 A 
ATOM     96  F   UNL A   1      44.329  27.789  36.000  1.00  0.00    -0.200 F 
ATOM     97  F   UNL A   1      43.939  25.117  35.609  1.00  0.00    -0.200 F 
ENDBRANCH  64  87
ENDBRANCH  38  39
ENDBRANCH  30  33
ENDBRANCH  28  29
ENDBRANCH  27  28
ENDBRANCH  26  27
ENDBRANCH  25  26
ENDBRANCH   1  25
TORSDOF 19
ENDMDL
MODEL 2
REMARK VINA RESULT:     -11.6      1.084      1.740
REMARK SMILES CCc1ccsc1-c1nnnn1C[C@H](CC(C)C)C(=O)NCCCCCCNC(=O)c1ccc(-c2c3nc(c(-c4c(F)c(F)c(F)c(F)c4F)c4ccc([nH]4)c(-c4c(F)c(F)c(F)c(F)c4F)c4nc(c(-c5c(F)c(F)c(F)c(F)c5F)c5ccc2[nH]5)C=C4)C=C3)cc1
REMARK SMILES IDX 23 1 22 2 21 3 19 4 20 5 14 7 13 8 12 9 8 10 9 11 10 12
REMARK SMILES IDX 11 13 7 14 3 15 4 16 5 17 6 18 2 19 1 20 15 21 16 22 17 23
REMARK SMILES IDX 18 24 24 25 25 26 26 27 27 28 28 29 29 30 30 32 31 33 32 34
REMARK SMILES IDX 93 35 33 36 92 37 34 38 35 39 36 40 86 41 37 42 91 43 85 44
REMARK SMILES IDX 87 45 38 46 90 47 84 48 83 49 39 51 71 52 51 53 70 54 52 55
REMARK SMILES IDX 55 56 69 57 88 58 53 59 54 60 68 62 89 63 56 64 40 65 41 66
REMARK SMILES IDX 49 67 42 68 43 69 47 70 50 71 44 72 45 73 48 74 46 75 72 76
REMARK SMILES IDX 73 77 81 78 74 79 75 80 79 81 82 82 76 83 77 84 80 85 78 86
REMARK SMILES IDX 57 87 58 88 66 89 59 90 60 91 64 92 67 93 61 94 62 95 65 96
REMARK SMILES IDX 63 97
REMARK H PARENT 21 6 28 31 87 50 55 61
REMARK Flexibility Score: inf
ROOT
ATOM      1  C   UNL A   1      38.550  23.256  26.343  1.00  0.00     0.021 C 
ENDROOT
BRANCH   1   2
ATOM      2  C   UNL A   1      37.168  23.522  25.777  1.00  0.00     0.116 C 
BRANCH   2   3
ATOM      3  N   UNL A   1      36.076  22.919  26.507  1.00  0.00    -0.356 N 
ATOM      4  C   UNL A   1      34.737  23.130  26.405  1.00  0.00     0.224 C 
ATOM      5  O   UNL A   1      33.991  22.333  26.981  1.00  0.00    -0.275 OA
ATOM      6  H   UNL A   1      36.343  22.253  27.182  1.00  0.00     0.163 HD
BRANCH   4   7
ATOM      7  C   UNL A   1      34.127  24.277  25.595  1.00  0.00     0.100 C 
BRANCH   7   8
ATOM      8  C   UNL A   1      33.308  25.236  26.474  1.00  0.00     0.162 C 
BRANCH   8   9
ATOM      9  N   UNL A   1      31.875  25.100  26.514  1.00  0.00    -0.224 N 
ATOM     10  C   UNL A   1      30.911  25.916  25.982  1.00  0.00     0.192 A 
ATOM     11  N   UNL A   1      29.734  25.441  26.335  1.00  0.00    -0.108 NA
ATOM     12  N   UNL A   1      29.982  24.253  26.977  1.00  0.00    -0.023 NA
ATOM     13  N   UNL A   1      31.285  24.006  27.033  1.00  0.00    -0.045 NA
BRANCH  10  14
ATOM     14  C   UNL A   1      31.142  26.988  25.072  1.00  0.00     0.077 A 
ATOM     15  C   UNL A   1      31.494  28.290  25.401  1.00  0.00    -0.026 A 
ATOM     16  C   UNL A   1      31.568  29.099  24.215  1.00  0.00     0.016 A 
ATOM     17  C   UNL A   1      31.306  28.389  23.064  1.00  0.00     0.066 A 
ATOM     18  S   UNL A   1      30.978  26.746  23.390  1.00  0.00    -0.140 S 
BRANCH  15  19
ATOM     19  C   UNL A   1      31.720  28.837  26.791  1.00  0.00     0.034 C 
ATOM     20  C   UNL A   1      33.152  28.746  27.298  1.00  0.00     0.009 C 
ENDBRANCH  15  19
ENDBRANCH  10  14
ENDBRANCH   8   9
ENDBRANCH   7   8
BRANCH   7  21
ATOM     21  C   UNL A   1      33.568  23.842  24.226  1.00  0.00     0.018 C 
BRANCH  21  22
ATOM     22  C   UNL A   1      32.558  22.680  24.244  1.00  0.00    -0.017 C 
ATOM     23  C   UNL A   1      31.256  23.031  23.525  1.00  0.00     0.007 C 
ATOM     24  C   UNL A   1      33.191  21.437  23.613  1.00  0.00     0.007 C 
ENDBRANCH  21  22
ENDBRANCH   7  21
ENDBRANCH   4   7
ENDBRANCH   2   3
ENDBRANCH   1   2
BRANCH   1  25
ATOM     25  C   UNL A   1      39.139  21.897  25.971  1.00  0.00     0.002 C 
BRANCH  25  26
ATOM     26  C   UNL A   1      40.324  21.404  26.815  1.00  0.00     0.002 C 
BRANCH  26  27
ATOM     27  C   UNL A   1      40.885  20.006  26.509  1.00  0.00     0.021 C 
BRANCH  27  28
ATOM     28  C   UNL A   1      42.255  19.715  27.100  1.00  0.00     0.116 C 
BRANCH  28  29
ATOM     29  N   UNL A   1      43.273  19.483  26.081  1.00  0.00    -0.352 N 
ATOM     30  C   UNL A   1      43.888  20.398  25.261  1.00  0.00     0.251 C 
ATOM     31  H   UNL A   1      43.555  18.547  25.964  1.00  0.00     0.163 HD
ATOM     32  O   UNL A   1      44.424  20.030  24.210  1.00  0.00    -0.269 OA
BRANCH  30  33
ATOM     33  C   UNL A   1      43.905  21.825  25.627  1.00  0.00     0.039 A 
ATOM     34  C   UNL A   1      43.046  22.724  24.992  1.00  0.00     0.014 A 
ATOM     35  C   UNL A   1      44.790  22.272  26.610  1.00  0.00     0.014 A 
ATOM     36  C   UNL A   1      43.025  24.049  25.417  1.00  0.00     0.010 A 
ATOM     37  C   UNL A   1      44.684  23.550  27.116  1.00  0.00     0.010 A 
ATOM     38  C   UNL A   1      43.820  24.452  26.509  1.00  0.00    -0.014 A 
BRANCH  38  39
ATOM     39  C   UNL A   1      43.568  25.746  27.146  1.00  0.00     0.031 A 
ATOM     40  C   UNL A   1      44.568  26.766  26.738  1.00  0.00     0.074 A 
ATOM     41  C   UNL A   1      42.477  26.068  27.880  1.00  0.00     0.049 A 
ATOM     42  N   UNL A   1      45.526  27.231  27.466  1.00  0.00    -0.248 NA
ATOM     43  C   UNL A   1      44.648  27.177  25.325  1.00  0.00     0.031 C 
ATOM     44  C   UNL A   1      41.287  25.242  28.104  1.00  0.00     0.029 A 
ATOM     45  N   UNL A   1      42.152  27.236  28.524  1.00  0.00    -0.354 N 
ATOM     46  C   UNL A   1      46.149  28.202  26.689  1.00  0.00     0.074 A 
ATOM     47  C   UNL A   1      45.731  27.962  25.337  1.00  0.00     0.031 C 
ATOM     48  C   UNL A   1      40.293  25.998  28.625  1.00  0.00     0.029 A 
ATOM     49  C   UNL A   1      40.819  27.317  28.933  1.00  0.00     0.049 A 
ATOM     50  H   UNL A   1      42.804  27.956  28.683  1.00  0.00     0.167 HD
ATOM     51  C   UNL A   1      46.630  29.319  27.302  1.00  0.00     0.037 A 
ATOM     52  C   UNL A   1      40.188  28.375  29.506  1.00  0.00     0.037 A 
ATOM     53  C   UNL A   1      46.719  29.100  28.727  1.00  0.00     0.049 A 
ATOM     54  C   UNL A   1      41.226  29.231  30.115  1.00  0.00     0.074 A 
ATOM     55  C   UNL A   1      47.521  28.393  29.596  1.00  0.00     0.029 A 
ATOM     56  N   UNL A   1      45.545  29.354  29.379  1.00  0.00    -0.354 N 
ATOM     57  N   UNL A   1      41.890  28.891  31.181  1.00  0.00    -0.248 NA
ATOM     58  C   UNL A   1      41.772  30.353  29.361  1.00  0.00     0.031 C 
ATOM     59  C   UNL A   1      46.738  28.157  30.768  1.00  0.00     0.029 A 
ATOM     60  C   UNL A   1      45.500  28.773  30.613  1.00  0.00     0.049 A 
ATOM     61  H   UNL A   1      44.814  29.894  29.000  1.00  0.00     0.167 HD
ATOM     62  C   UNL A   1      43.143  29.415  30.963  1.00  0.00     0.074 A 
ATOM     63  C   UNL A   1      42.961  30.459  29.961  1.00  0.00     0.031 C 
ATOM     64  C   UNL A   1      44.250  28.708  31.326  1.00  0.00     0.037 A 
BRANCH  51  65
ATOM     65  C   UNL A   1      46.457  30.734  26.768  1.00  0.00     0.064 A 
ATOM     66  C   UNL A   1      47.565  31.610  26.821  1.00  0.00     0.173 A 
ATOM     67  C   UNL A   1      45.212  31.360  26.542  1.00  0.00     0.173 A 
ATOM     68  F   UNL A   1      48.799  31.137  27.052  1.00  0.00    -0.203 F 
ATOM     69  C   UNL A   1      47.420  32.999  26.740  1.00  0.00     0.198 A 
ATOM     70  C   UNL A   1      45.078  32.742  26.415  1.00  0.00     0.198 A 
ATOM     71  F   UNL A   1      44.056  30.688  26.549  1.00  0.00    -0.203 F 
ATOM     72  F   UNL A   1      48.484  33.792  26.925  1.00  0.00    -0.200 F 
ATOM     73  C   UNL A   1      46.175  33.564  26.545  1.00  0.00     0.200 A 
ATOM     74  F   UNL A   1      43.856  33.272  26.255  1.00  0.00    -0.200 F 
ATOM     75  F   UNL A   1      46.022  34.895  26.530  1.00  0.00    -0.200 F 
ENDBRANCH  51  65
BRANCH  52  76
ATOM     76  C   UNL A   1      38.768  28.804  29.519  1.00  0.00     0.064 A 
ATOM     77  C   UNL A   1      38.058  28.933  30.729  1.00  0.00     0.173 A 
ATOM     78  C   UNL A   1      38.191  29.407  28.390  1.00  0.00     0.173 A 
ATOM     79  F   UNL A   1      38.546  28.407  31.862  1.00  0.00    -0.203 F 
ATOM     80  C   UNL A   1      36.879  29.678  30.815  1.00  0.00     0.198 A 
ATOM     81  C   UNL A   1      37.009  30.149  28.477  1.00  0.00     0.198 A 
ATOM     82  F   UNL A   1      38.819  29.375  27.206  1.00  0.00    -0.203 F 
ATOM     83  F   UNL A   1      36.279  29.848  32.003  1.00  0.00    -0.200 F 
ATOM     84  C   UNL A   1      36.366  30.303  29.693  1.00  0.00     0.200 A 
ATOM     85  F   UNL A   1      36.539  30.778  27.391  1.00  0.00    -0.200 F 
ATOM     86  F   UNL A   1      35.283  31.087  29.789  1.00  0.00    -0.200 F 
ENDBRANCH  52  76
BRANCH  64  87
ATOM     87  C   UNL A   1      44.094  27.734  32.447  1.00  0.00     0.064 A 
ATOM     88  C   UNL A   1      43.941  28.080  33.801  1.00  0.00     0.173 A 
ATOM     89  C   UNL A   1      44.086  26.373  32.119  1.00  0.00     0.173 A 
ATOM     90  F   UNL A   1      43.867  29.362  34.184  1.00  0.00    -0.203 F 
ATOM     91  C   UNL A   1      43.840  27.096  34.783  1.00  0.00     0.198 A 
ATOM     92  C   UNL A   1      43.947  25.395  33.096  1.00  0.00     0.198 A 
ATOM     93  F   UNL A   1      44.199  25.990  30.837  1.00  0.00    -0.203 F 
ATOM     94  F   UNL A   1      43.731  27.443  36.074  1.00  0.00    -0.200 F 
ATOM     95  C   UNL A   1      43.840  25.755  34.429  1.00  0.00     0.200 A 
ATOM     96  F   UNL A   1      43.911  24.103  32.742  1.00  0.00    -0.200 F 
ATOM     97  F   UNL A   1      43.722  24.810  35.371  1.00  0.00    -0.200 F 
ENDBRANCH  64  87
ENDBRANCH  38  39
ENDBRANCH  30  33
ENDBRANCH  28  29
ENDBRANCH  27  28
ENDBRANCH  26  27
ENDBRANCH  25  26
ENDBRANCH   1  25
TORSDOF 19
ENDMDL
MODEL 3
REMARK VINA RESULT:     -11.3      1.274      1.702
REMARK SMILES CCc1ccsc1-c1nnnn1C[C@H](CC(C)C)C(=O)NCCCCCCNC(=O)c1ccc(-c2c3nc(c(-c4c(F)c(F)c(F)c(F)c4F)c4ccc([nH]4)c(-c4c(F)c(F)c(F)c(F)c4F)c4nc(c(-c5c(F)c(F)c(F)c(F)c5F)c5ccc2[nH]5)C=C4)C=C3)cc1
REMARK SMILES IDX 23 1 22 2 21 3 19 4 20 5 14 7 13 8 12 9 8 10 9 11 10 12
REMARK SMILES IDX 11 13 7 14 3 15 4 16 5 17 6 18 2 19 1 20 15 21 16 22 17 23
REMARK SMILES IDX 18 24 24 25 25 26 26 27 27 28 28 29 29 30 30 32 31 33 32 34
REMARK SMILES IDX 93 35 33 36 92 37 34 38 35 39 36 40 86 41 37 42 91 43 85 44
REMARK SMILES IDX 87 45 38 46 90 47 84 48 83 49 39 51 71 52 51 53 70 54 52 55
REMARK SMILES IDX 55 56 69 57 88 58 53 59 54 60 68 62 89 63 56 64 40 65 41 66
REMARK SMILES IDX 49 67 42 68 43 69 47 70 50 71 44 72 45 73 48 74 46 75 72 76
REMARK SMILES IDX 73 77 81 78 74 79 75 80 79 81 82 82 76 83 77 84 80 85 78 86
REMARK SMILES IDX 57 87 58 88 66 89 59 90 60 91 64 92 67 93 61 94 62 95 65 96
REMARK SMILES IDX 63 97
REMARK H PARENT 21 6 28 31 87 50 55 61
REMARK Flexibility Score: inf
ROOT
ATOM      1  C   UNL A   1      38.532  23.401  26.315  1.00  0.00     0.021 C 
ENDROOT
BRANCH   1   2
ATOM      2  C   UNL A   1      37.090  23.716  25.965  1.00  0.00     0.116 C 
BRANCH   2   3
ATOM      3  N   UNL A   1      36.099  22.948  26.685  1.00  0.00    -0.356 N 
ATOM      4  C   UNL A   1      34.768  22.803  26.448  1.00  0.00     0.224 C 
ATOM      5  O   UNL A   1      34.174  21.917  27.070  1.00  0.00    -0.275 OA
ATOM      6  H   UNL A   1      36.441  22.454  27.465  1.00  0.00     0.163 HD
BRANCH   4   7
ATOM      7  C   UNL A   1      33.996  23.657  25.439  1.00  0.00     0.100 C 
BRANCH   7   8
ATOM      8  C   UNL A   1      33.321  24.869  26.102  1.00  0.00     0.162 C 
BRANCH   8   9
ATOM      9  N   UNL A   1      31.897  24.852  26.310  1.00  0.00    -0.224 N 
ATOM     10  C   UNL A   1      31.021  25.902  26.399  1.00  0.00     0.192 A 
ATOM     11  N   UNL A   1      29.827  25.417  26.672  1.00  0.00    -0.108 NA
ATOM     12  N   UNL A   1      29.953  24.050  26.621  1.00  0.00    -0.023 NA
ATOM     13  N   UNL A   1      31.201  23.699  26.336  1.00  0.00    -0.045 NA
BRANCH  10  14
ATOM     14  C   UNL A   1      31.319  27.260  26.083  1.00  0.00     0.077 A 
ATOM     15  C   UNL A   1      31.202  27.864  24.838  1.00  0.00    -0.026 A 
ATOM     16  C   UNL A   1      31.663  29.223  24.900  1.00  0.00     0.016 A 
ATOM     17  C   UNL A   1      32.070  29.594  26.162  1.00  0.00     0.066 A 
ATOM     18  S   UNL A   1      31.897  28.323  27.287  1.00  0.00    -0.140 S 
BRANCH  15  19
ATOM     19  C   UNL A   1      30.721  27.209  23.563  1.00  0.00     0.034 C 
ATOM     20  C   UNL A   1      29.736  28.033  22.745  1.00  0.00     0.009 C 
ENDBRANCH  15  19
ENDBRANCH  10  14
ENDBRANCH   8   9
ENDBRANCH   7   8
BRANCH   7  21
ATOM     21  C   UNL A   1      33.216  22.834  24.396  1.00  0.00     0.018 C 
BRANCH  21  22
ATOM     22  C   UNL A   1      33.561  23.105  22.920  1.00  0.00    -0.017 C 
ATOM     23  C   UNL A   1      32.795  24.300  22.356  1.00  0.00     0.007 C 
ATOM     24  C   UNL A   1      35.068  23.327  22.776  1.00  0.00     0.007 C 
ENDBRANCH  21  22
ENDBRANCH   7  21
ENDBRANCH   4   7
ENDBRANCH   2   3
ENDBRANCH   1   2
BRANCH   1  25
ATOM     25  C   UNL A   1      38.927  21.938  26.125  1.00  0.00     0.002 C 
BRANCH  25  26
ATOM     26  C   UNL A   1      40.293  21.513  26.686  1.00  0.00     0.002 C 
BRANCH  26  27
ATOM     27  C   UNL A   1      40.825  20.126  26.294  1.00  0.00     0.021 C 
BRANCH  27  28
ATOM     28  C   UNL A   1      42.117  19.712  26.980  1.00  0.00     0.116 C 
BRANCH  28  29
ATOM     29  N   UNL A   1      43.200  19.454  26.036  1.00  0.00    -0.352 N 
ATOM     30  C   UNL A   1      43.903  20.355  25.273  1.00  0.00     0.251 C 
ATOM     31  H   UNL A   1      43.461  18.511  25.932  1.00  0.00     0.163 HD
ATOM     32  O   UNL A   1      44.504  19.978  24.262  1.00  0.00    -0.269 OA
BRANCH  30  33
ATOM     33  C   UNL A   1      43.937  21.778  25.654  1.00  0.00     0.039 A 
ATOM     34  C   UNL A   1      43.161  22.710  24.960  1.00  0.00     0.014 A 
ATOM     35  C   UNL A   1      44.754  22.189  26.708  1.00  0.00     0.014 A 
ATOM     36  C   UNL A   1      43.150  24.032  25.395  1.00  0.00     0.010 A 
ATOM     37  C   UNL A   1      44.650  23.467  27.216  1.00  0.00     0.010 A 
ATOM     38  C   UNL A   1      43.867  24.400  26.551  1.00  0.00    -0.014 A 
BRANCH  38  39
ATOM     39  C   UNL A   1      43.607  25.698  27.178  1.00  0.00     0.031 A 
ATOM     40  C   UNL A   1      44.609  26.718  26.773  1.00  0.00     0.074 A 
ATOM     41  C   UNL A   1      42.508  26.022  27.900  1.00  0.00     0.049 A 
ATOM     42  N   UNL A   1      45.559  27.187  27.508  1.00  0.00    -0.248 NA
ATOM     43  C   UNL A   1      44.702  27.120  25.359  1.00  0.00     0.031 C 
ATOM     44  C   UNL A   1      41.317  25.195  28.118  1.00  0.00     0.029 A 
ATOM     45  N   UNL A   1      42.176  27.194  28.534  1.00  0.00    -0.354 N 
ATOM     46  C   UNL A   1      46.188  28.155  26.732  1.00  0.00     0.074 A 
ATOM     47  C   UNL A   1      45.783  27.907  25.377  1.00  0.00     0.031 C 
ATOM     48  C   UNL A   1      40.318  25.953  28.624  1.00  0.00     0.029 A 
ATOM     49  C   UNL A   1      40.839  27.274  28.930  1.00  0.00     0.049 A 
ATOM     50  H   UNL A   1      42.825  27.915  28.695  1.00  0.00     0.167 HD
ATOM     51  C   UNL A   1      46.662  29.277  27.343  1.00  0.00     0.037 A 
ATOM     52  C   UNL A   1      40.201  28.335  29.491  1.00  0.00     0.037 A 
ATOM     53  C   UNL A   1      46.738  29.066  28.770  1.00  0.00     0.049 A 
ATOM     54  C   UNL A   1      41.231  29.196  30.105  1.00  0.00     0.074 A 
ATOM     55  C   UNL A   1      47.532  28.365  29.651  1.00  0.00     0.029 A 
ATOM     56  N   UNL A   1      45.557  29.321  29.409  1.00  0.00    -0.354 N 
ATOM     57  N   UNL A   1      41.886  28.863  31.180  1.00  0.00    -0.248 NA
ATOM     58  C   UNL A   1      41.783  30.315  29.350  1.00  0.00     0.031 C 
ATOM     59  C   UNL A   1      46.738  28.134  30.816  1.00  0.00     0.029 A 
ATOM     60  C   UNL A   1      45.501  28.747  30.646  1.00  0.00     0.049 A 
ATOM     61  H   UNL A   1      44.829  29.858  29.021  1.00  0.00     0.167 HD
ATOM     62  C   UNL A   1      43.140  29.388  30.970  1.00  0.00     0.074 A 
ATOM     63  C   UNL A   1      42.965  30.425  29.960  1.00  0.00     0.031 C 
ATOM     64  C   UNL A   1      44.244  28.684  31.347  1.00  0.00     0.037 A 
BRANCH  51  65
ATOM     65  C   UNL A   1      46.492  30.689  26.799  1.00  0.00     0.064 A 
ATOM     66  C   UNL A   1      47.590  31.574  26.882  1.00  0.00     0.173 A 
ATOM     67  C   UNL A   1      45.248  31.302  26.535  1.00  0.00     0.173 A 
ATOM     68  F   UNL A   1      48.821  31.113  27.150  1.00  0.00    -0.203 F 
ATOM     69  C   UNL A   1      47.435  32.961  26.792  1.00  0.00     0.198 A 
ATOM     70  C   UNL A   1      45.106  32.683  26.400  1.00  0.00     0.198 A 
ATOM     71  F   UNL A   1      44.099  30.620  26.511  1.00  0.00    -0.203 F 
ATOM     72  F   UNL A   1      48.486  33.765  27.004  1.00  0.00    -0.200 F 
ATOM     73  C   UNL A   1      46.191  33.515  26.558  1.00  0.00     0.200 A 
ATOM     74  F   UNL A   1      43.884  33.201  26.203  1.00  0.00    -0.200 F 
ATOM     75  F   UNL A   1      46.027  34.844  26.535  1.00  0.00    -0.200 F 
ENDBRANCH  51  65
BRANCH  52  76
ATOM     76  C   UNL A   1      38.780  28.761  29.488  1.00  0.00     0.064 A 
ATOM     77  C   UNL A   1      38.058  28.895  30.690  1.00  0.00     0.173 A 
ATOM     78  C   UNL A   1      38.213  29.358  28.350  1.00  0.00     0.173 A 
ATOM     79  F   UNL A   1      38.535  28.375  31.830  1.00  0.00    -0.203 F 
ATOM     80  C   UNL A   1      36.876  29.639  30.762  1.00  0.00     0.198 A 
ATOM     81  C   UNL A   1      37.029  30.099  28.422  1.00  0.00     0.198 A 
ATOM     82  F   UNL A   1      38.853  29.322  27.173  1.00  0.00    -0.203 F 
ATOM     83  F   UNL A   1      36.265  29.814  31.943  1.00  0.00    -0.200 F 
ATOM     84  C   UNL A   1      36.374  30.258  29.631  1.00  0.00     0.200 A 
ATOM     85  F   UNL A   1      36.569  30.722  27.329  1.00  0.00    -0.200 F 
ATOM     86  F   UNL A   1      35.289  31.040  29.714  1.00  0.00    -0.200 F 
ENDBRANCH  52  76
BRANCH  64  87
ATOM     87  C   UNL A   1      44.079  27.716  32.473  1.00  0.00     0.064 A 
ATOM     88  C   UNL A   1      44.020  26.319  32.333  1.00  0.00     0.173 A 
ATOM     89  C   UNL A   1      43.991  28.245  33.766  1.00  0.00     0.173 A 
ATOM     90  F   UNL A   1      44.169  25.736  31.136  1.00  0.00    -0.203 F 
ATOM     91  C   UNL A   1      43.827  25.498  33.443  1.00  0.00     0.198 A 
ATOM     92  C   UNL A   1      43.835  27.422  34.874  1.00  0.00     0.198 A 
ATOM     93  F   UNL A   1      44.072  29.572  33.956  1.00  0.00    -0.203 F 
ATOM     94  F   UNL A   1      43.737  24.169  33.289  1.00  0.00    -0.200 F 
ATOM     95  C   UNL A   1      43.738  26.051  34.712  1.00  0.00     0.200 A 
ATOM     96  F   UNL A   1      43.787  27.961  36.100  1.00  0.00    -0.200 F 
ATOM     97  F   UNL A   1      43.572  25.260  35.781  1.00  0.00    -0.200 F 
ENDBRANCH  64  87
ENDBRANCH  38  39
ENDBRANCH  30  33
ENDBRANCH  28  29
ENDBRANCH  27  28
ENDBRANCH  26  27
ENDBRANCH  25  26
ENDBRANCH   1  25
TORSDOF 19
ENDMDL
