MODEL 1
REMARK VINA RESULT:     -11.7      0.000      0.000
REMARK SMILES COc1ccc(S(=O)(=O)N2CCC[C@H](C(=O)N3CCC[C@H](C(=O)NCCCCCCNC(=O)c4ccc(-c5c6nc(c(-c7c(F)c(F)c(F)c(F)c7F)c7ccc([nH]7)c(-c7c(F)c(F)c(F)c(F)c7F)c7nc(c(-c8c(F)c(F)c(F)c(F)c8F)c8ccc5[nH]8)C=C7)C=C6)cc4)C3)C2)cc1
REMARK SMILES IDX 26 1 25 2 24 3 22 4 23 5 21 7 17 8 18 9 97 10 19 11 20 12
REMARK SMILES IDX 15 13 16 14 14 15 10 16 11 17 98 18 12 19 13 20 7 21 8 22
REMARK SMILES IDX 9 23 6 24 3 25 4 26 100 27 5 28 99 29 2 30 1 31 27 32 28 33
REMARK SMILES IDX 29 34 30 35 31 36 32 37 33 39 34 40 35 41 96 42 36 43 95 44
REMARK SMILES IDX 37 45 38 46 39 47 89 48 40 49 94 50 88 51 90 52 41 53 93 54
REMARK SMILES IDX 87 55 86 56 42 58 74 59 54 60 73 61 55 62 58 63 72 64 91 65
REMARK SMILES IDX 56 66 57 67 71 69 92 70 59 71 43 72 44 73 52 74 45 75 46 76
REMARK SMILES IDX 50 77 53 78 47 79 48 80 51 81 49 82 75 83 76 84 84 85 77 86
REMARK SMILES IDX 78 87 82 88 85 89 79 90 80 91 83 92 81 93 60 94 61 95 69 96
REMARK SMILES IDX 62 97 63 98 67 99 70 100 64 101 65 102 68 103 66 104
REMARK H PARENT 24 6 31 38 90 57 58 68
REMARK Flexibility Score: inf
ROOT
ATOM      1  C   UNL A   1      34.453  31.992  28.893  1.00  0.00     0.021 C 
ENDROOT
BRANCH   1   2
ATOM      2  C   UNL A   1      34.116  31.346  27.554  1.00  0.00     0.116 C 
BRANCH   2   3
ATOM      3  N   UNL A   1      34.049  29.906  27.613  1.00  0.00    -0.356 N 
ATOM      4  C   UNL A   1      33.622  29.009  26.689  1.00  0.00     0.224 C 
ATOM      5  O   UNL A   1      33.842  27.817  26.936  1.00  0.00    -0.275 OA
ATOM      6  H   UNL A   1      34.361  29.511  28.459  1.00  0.00     0.163 HD
BRANCH   4   7
ATOM      7  C   UNL A   1      32.909  29.385  25.384  1.00  0.00     0.098 C 
ATOM      8  N   UNL A   1      31.391  27.640  24.414  1.00  0.00    -0.342 N 
ATOM      9  C   UNL A   1      32.055  27.702  23.115  1.00  0.00     0.119 C 
ATOM     10  C   UNL A   1      31.494  28.822  25.252  1.00  0.00     0.133 C 
ATOM     11  C   UNL A   1      33.522  28.106  23.209  1.00  0.00     0.022 C 
ATOM     12  C   UNL A   1      33.760  29.315  24.111  1.00  0.00     0.017 C 
BRANCH   8  13
ATOM     13  C   UNL A   1      30.837  26.443  24.818  1.00  0.00     0.227 C 
ATOM     14  O   UNL A   1      29.673  26.159  24.508  1.00  0.00    -0.275 OA
BRANCH  13  15
ATOM     15  C   UNL A   1      31.538  25.562  25.854  1.00  0.00     0.094 C 
ATOM     16  N   UNL A   1      32.340  23.882  24.242  1.00  0.00    -0.197 NA
ATOM     17  C   UNL A   1      31.388  22.849  24.690  1.00  0.00     0.102 C 
ATOM     18  C   UNL A   1      32.753  24.950  25.167  1.00  0.00     0.116 C 
ATOM     19  C   UNL A   1      30.595  23.162  25.955  1.00  0.00     0.018 C 
ATOM     20  C   UNL A   1      30.836  24.489  26.665  1.00  0.00     0.016 C 
BRANCH  16  21
ATOM     21  S   UNL A   1      33.413  23.448  22.997  1.00  0.00     0.243 S 
ATOM     22  O   UNL A   1      33.935  24.656  22.404  1.00  0.00    -0.207 OA
ATOM     23  O   UNL A   1      32.745  22.440  22.196  1.00  0.00    -0.207 OA
BRANCH  21  24
ATOM     24  C   UNL A   1      34.786  22.628  23.784  1.00  0.00     0.082 A 
ATOM     25  C   UNL A   1      37.030  21.333  24.830  1.00  0.00     0.118 A 
ATOM     26  C   UNL A   1      37.179  22.511  24.097  1.00  0.00     0.048 A 
ATOM     27  C   UNL A   1      35.753  20.834  25.085  1.00  0.00     0.048 A 
ATOM     28  C   UNL A   1      36.061  23.157  23.563  1.00  0.00     0.025 A 
ATOM     29  C   UNL A   1      34.634  21.477  24.557  1.00  0.00     0.025 A 
BRANCH  25  30
ATOM     30  O   UNL A   1      38.185  20.754  25.276  1.00  0.00    -0.497 OA
ATOM     31  C   UNL A   1      39.083  21.647  25.931  1.00  0.00     0.278 C 
ENDBRANCH  25  30
ENDBRANCH  21  24
ENDBRANCH  16  21
ENDBRANCH  13  15
ENDBRANCH   8  13
ENDBRANCH   4   7
ENDBRANCH   2   3
ENDBRANCH   1   2
BRANCH   1  32
ATOM     32  C   UNL A   1      35.296  33.263  28.781  1.00  0.00     0.002 C 
BRANCH  32  33
ATOM     33  C   UNL A   1      34.651  34.426  28.016  1.00  0.00     0.002 C 
BRANCH  33  34
ATOM     34  C   UNL A   1      33.972  35.504  28.867  1.00  0.00     0.021 C 
BRANCH  34  35
ATOM     35  C   UNL A   1      32.713  35.068  29.608  1.00  0.00     0.116 C 
BRANCH  35  36
ATOM     36  N   UNL A   1      32.406  35.923  30.743  1.00  0.00    -0.352 N 
ATOM     37  C   UNL A   1      32.941  35.950  32.004  1.00  0.00     0.251 C 
ATOM     38  H   UNL A   1      31.699  36.589  30.579  1.00  0.00     0.163 HD
ATOM     39  O   UNL A   1      32.430  36.658  32.868  1.00  0.00    -0.269 OA
BRANCH  37  40
ATOM     40  C   UNL A   1      34.121  35.126  32.343  1.00  0.00     0.039 A 
ATOM     41  C   UNL A   1      35.393  35.669  32.142  1.00  0.00     0.014 A 
ATOM     42  C   UNL A   1      33.986  33.815  32.807  1.00  0.00     0.014 A 
ATOM     43  C   UNL A   1      36.528  34.919  32.451  1.00  0.00     0.010 A 
ATOM     44  C   UNL A   1      35.117  33.087  33.171  1.00  0.00     0.010 A 
ATOM     45  C   UNL A   1      36.398  33.630  32.991  1.00  0.00    -0.014 A 
BRANCH  45  46
ATOM     46  C   UNL A   1      37.592  32.832  33.363  1.00  0.00     0.031 A 
ATOM     47  C   UNL A   1      38.311  33.106  34.653  1.00  0.00     0.074 A 
ATOM     48  C   UNL A   1      38.061  31.901  32.511  1.00  0.00     0.049 A 
ATOM     49  N   UNL A   1      39.410  32.569  35.121  1.00  0.00    -0.248 NA
ATOM     50  C   UNL A   1      37.731  34.140  35.523  1.00  0.00     0.031 C 
ATOM     51  C   UNL A   1      37.475  31.575  31.211  1.00  0.00     0.029 A 
ATOM     52  N   UNL A   1      39.149  31.069  32.606  1.00  0.00    -0.354 N 
ATOM     53  C   UNL A   1      39.660  33.210  36.327  1.00  0.00     0.074 A 
ATOM     54  C   UNL A   1      38.625  34.206  36.500  1.00  0.00     0.031 C 
ATOM     55  C   UNL A   1      38.200  30.603  30.634  1.00  0.00     0.029 A 
ATOM     56  C   UNL A   1      39.317  30.260  31.509  1.00  0.00     0.049 A 
ATOM     57  H   UNL A   1      39.750  31.053  33.384  1.00  0.00     0.167 HD
ATOM     58  C   UNL A   1      40.654  32.975  37.217  1.00  0.00     0.037 A 
ATOM     59  C   UNL A   1      40.271  29.350  31.238  1.00  0.00     0.037 A 
ATOM     60  C   UNL A   1      41.666  31.965  37.054  1.00  0.00     0.049 A 
ATOM     61  C   UNL A   1      41.357  29.101  32.248  1.00  0.00     0.074 A 
ATOM     62  C   UNL A   1      42.682  31.611  37.924  1.00  0.00     0.029 A 
ATOM     63  N   UNL A   1      41.789  31.146  35.940  1.00  0.00    -0.354 N 
ATOM     64  N   UNL A   1      41.551  29.672  33.412  1.00  0.00    -0.248 NA
ATOM     65  C   UNL A   1      42.354  28.075  31.908  1.00  0.00     0.031 C 
ATOM     66  C   UNL A   1      43.441  30.600  37.324  1.00  0.00     0.029 A 
ATOM     67  C   UNL A   1      42.872  30.296  36.097  1.00  0.00     0.049 A 
ATOM     68  H   UNL A   1      41.194  31.164  35.157  1.00  0.00     0.167 HD
ATOM     69  C   UNL A   1      42.674  29.062  33.954  1.00  0.00     0.074 A 
ATOM     70  C   UNL A   1      43.111  28.066  32.997  1.00  0.00     0.031 C 
ATOM     71  C   UNL A   1      43.287  29.306  35.137  1.00  0.00     0.037 A 
BRANCH  58  72
ATOM     72  C   UNL A   1      40.691  33.825  38.452  1.00  0.00     0.064 A 
ATOM     73  C   UNL A   1      41.475  34.988  38.519  1.00  0.00     0.173 A 
ATOM     74  C   UNL A   1      39.912  33.495  39.571  1.00  0.00     0.173 A 
ATOM     75  F   UNL A   1      42.246  35.342  37.479  1.00  0.00    -0.203 F 
ATOM     76  C   UNL A   1      41.498  35.771  39.669  1.00  0.00     0.198 A 
ATOM     77  C   UNL A   1      39.917  34.296  40.710  1.00  0.00     0.198 A 
ATOM     78  F   UNL A   1      39.141  32.397  39.557  1.00  0.00    -0.203 F 
ATOM     79  F   UNL A   1      42.289  36.852  39.726  1.00  0.00    -0.200 F 
ATOM     80  C   UNL A   1      40.714  35.429  40.761  1.00  0.00     0.200 A 
ATOM     81  F   UNL A   1      39.151  33.969  41.760  1.00  0.00    -0.200 F 
ATOM     82  F   UNL A   1      40.735  36.187  41.865  1.00  0.00    -0.200 F 
ENDBRANCH  58  72
BRANCH  59  83
ATOM     83  C   UNL A   1      40.221  28.586  29.966  1.00  0.00     0.064 A 
ATOM     84  C   UNL A   1      40.869  29.063  28.818  1.00  0.00     0.173 A 
ATOM     85  C   UNL A   1      39.537  27.366  29.873  1.00  0.00     0.173 A 
ATOM     86  F   UNL A   1      41.517  30.236  28.855  1.00  0.00    -0.203 F 
ATOM     87  C   UNL A   1      40.822  28.355  27.619  1.00  0.00     0.198 A 
ATOM     88  C   UNL A   1      39.512  26.646  28.679  1.00  0.00     0.198 A 
ATOM     89  F   UNL A   1      38.905  26.867  30.944  1.00  0.00    -0.203 F 
ATOM     90  F   UNL A   1      41.418  28.851  26.527  1.00  0.00    -0.200 F 
ATOM     91  C   UNL A   1      40.149  27.144  27.552  1.00  0.00     0.200 A 
ATOM     92  F   UNL A   1      38.870  25.471  28.621  1.00  0.00    -0.200 F 
ATOM     93  F   UNL A   1      40.109  26.461  26.400  1.00  0.00    -0.200 F 
ENDBRANCH  59  83
BRANCH  71  94
ATOM     94  C   UNL A   1      44.479  28.462  35.477  1.00  0.00     0.064 A 
ATOM     95  C   UNL A   1      45.780  28.853  35.127  1.00  0.00     0.173 A 
ATOM     96  C   UNL A   1      44.322  27.269  36.197  1.00  0.00     0.173 A 
ATOM     97  F   UNL A   1      45.980  29.979  34.425  1.00  0.00    -0.203 F 
ATOM     98  C   UNL A   1      46.877  28.068  35.467  1.00  0.00     0.198 A 
ATOM     99  C   UNL A   1      45.424  26.499  36.558  1.00  0.00     0.198 A 
ATOM    100  F   UNL A   1      43.097  26.854  36.560  1.00  0.00    -0.203 F 
ATOM    101  F   UNL A   1      48.108  28.439  35.088  1.00  0.00    -0.200 F 
ATOM    102  C   UNL A   1      46.699  26.896  36.189  1.00  0.00     0.200 A 
ATOM    103  F   UNL A   1      45.250  25.373  37.264  1.00  0.00    -0.200 F 
ATOM    104  F   UNL A   1      47.758  26.144  36.521  1.00  0.00    -0.200 F 
ENDBRANCH  71  94
ENDBRANCH  45  46
ENDBRANCH  37  40
ENDBRANCH  35  36
ENDBRANCH  34  35
ENDBRANCH  33  34
ENDBRANCH  32  33
ENDBRANCH   1  32
TORSDOF 18
ENDMDL
MODEL 2
REMARK VINA RESULT:     -11.5      6.246     12.139
REMARK SMILES COc1ccc(S(=O)(=O)N2CCC[C@H](C(=O)N3CCC[C@H](C(=O)NCCCCCCNC(=O)c4ccc(-c5c6nc(c(-c7c(F)c(F)c(F)c(F)c7F)c7ccc([nH]7)c(-c7c(F)c(F)c(F)c(F)c7F)c7nc(c(-c8c(F)c(F)c(F)c(F)c8F)c8ccc5[nH]8)C=C7)C=C6)cc4)C3)C2)cc1
REMARK SMILES IDX 26 1 25 2 24 3 22 4 23 5 21 7 17 8 18 9 97 10 19 11 20 12
REMARK SMILES IDX 15 13 16 14 14 15 10 16 11 17 98 18 12 19 13 20 7 21 8 22
REMARK SMILES IDX 9 23 6 24 3 25 4 26 100 27 5 28 99 29 2 30 1 31 27 32 28 33
REMARK SMILES IDX 29 34 30 35 31 36 32 37 33 39 34 40 35 41 96 42 36 43 95 44
REMARK SMILES IDX 37 45 38 46 39 47 89 48 40 49 94 50 88 51 90 52 41 53 93 54
REMARK SMILES IDX 87 55 86 56 42 58 74 59 54 60 73 61 55 62 58 63 72 64 91 65
REMARK SMILES IDX 56 66 57 67 71 69 92 70 59 71 43 72 44 73 52 74 45 75 46 76
REMARK SMILES IDX 50 77 53 78 47 79 48 80 51 81 49 82 75 83 76 84 84 85 77 86
REMARK SMILES IDX 78 87 82 88 85 89 79 90 80 91 83 92 81 93 60 94 61 95 69 96
REMARK SMILES IDX 62 97 63 98 67 99 70 100 64 101 65 102 68 103 66 104
REMARK H PARENT 24 6 31 38 90 57 58 68
REMARK Flexibility Score: inf
ROOT
ATOM      1  C   UNL A   1      40.010  21.944  26.061  1.00  0.00     0.021 C 
ENDROOT
BRANCH   1   2
ATOM      2  C   UNL A   1      38.847  22.882  26.364  1.00  0.00     0.116 C 
BRANCH   2   3
ATOM      3  N   UNL A   1      37.576  22.205  26.456  1.00  0.00    -0.356 N 
ATOM      4  C   UNL A   1      36.455  22.338  25.702  1.00  0.00     0.224 C 
ATOM      5  O   UNL A   1      35.564  21.500  25.889  1.00  0.00    -0.275 OA
ATOM      6  H   UNL A   1      37.510  21.544  27.182  1.00  0.00     0.163 HD
BRANCH   4   7
ATOM      7  C   UNL A   1      36.245  23.434  24.651  1.00  0.00     0.098 C 
ATOM      8  N   UNL A   1      34.082  24.696  24.790  1.00  0.00    -0.342 N 
ATOM      9  C   UNL A   1      33.770  24.428  23.389  1.00  0.00     0.119 C 
ATOM     10  C   UNL A   1      35.486  24.661  25.159  1.00  0.00     0.133 C 
ATOM     11  C   UNL A   1      34.374  23.127  22.876  1.00  0.00     0.022 C 
ATOM     12  C   UNL A   1      35.844  22.954  23.252  1.00  0.00     0.017 C 
BRANCH   8  13
ATOM     13  C   UNL A   1      33.043  24.827  25.688  1.00  0.00     0.227 C 
ATOM     14  O   UNL A   1      32.269  23.882  25.887  1.00  0.00    -0.275 OA
BRANCH  13  15
ATOM     15  C   UNL A   1      32.668  26.195  26.263  1.00  0.00     0.094 C 
ATOM     16  N   UNL A   1      31.628  27.050  24.202  1.00  0.00    -0.197 NA
ATOM     17  C   UNL A   1      32.727  27.989  23.914  1.00  0.00     0.102 C 
ATOM     18  C   UNL A   1      31.371  26.621  25.587  1.00  0.00     0.116 C 
ATOM     19  C   UNL A   1      33.773  28.163  25.012  1.00  0.00     0.018 C 
ATOM     20  C   UNL A   1      33.615  27.380  26.309  1.00  0.00     0.016 C 
BRANCH  16  21
ATOM     21  S   UNL A   1      30.323  27.038  23.111  1.00  0.00     0.243 S 
ATOM     22  O   UNL A   1      29.321  26.127  23.609  1.00  0.00    -0.207 OA
ATOM     23  O   UNL A   1      30.886  26.892  21.782  1.00  0.00    -0.207 OA
BRANCH  21  24
ATOM     24  C   UNL A   1      29.608  28.670  23.171  1.00  0.00     0.082 A 
ATOM     25  C   UNL A   1      28.497  31.231  23.056  1.00  0.00     0.118 A 
ATOM     26  C   UNL A   1      27.922  30.185  22.334  1.00  0.00     0.048 A 
ATOM     27  C   UNL A   1      29.596  30.983  23.877  1.00  0.00     0.048 A 
ATOM     28  C   UNL A   1      28.480  28.904  22.380  1.00  0.00     0.025 A 
ATOM     29  C   UNL A   1      30.155  29.706  23.930  1.00  0.00     0.025 A 
BRANCH  25  30
ATOM     30  O   UNL A   1      27.905  32.455  22.914  1.00  0.00    -0.497 OA
ATOM     31  C   UNL A   1      28.776  33.564  23.125  1.00  0.00     0.278 C 
ENDBRANCH  25  30
ENDBRANCH  21  24
ENDBRANCH  16  21
ENDBRANCH  13  15
ENDBRANCH   8  13
ENDBRANCH   4   7
ENDBRANCH   2   3
ENDBRANCH   1   2
BRANCH   1  32
ATOM     32  C   UNL A   1      41.033  21.829  27.193  1.00  0.00     0.002 C 
BRANCH  32  33
ATOM     33  C   UNL A   1      41.153  20.445  27.845  1.00  0.00     0.002 C 
BRANCH  33  34
ATOM     34  C   UNL A   1      42.190  19.497  27.235  1.00  0.00     0.021 C 
BRANCH  34  35
ATOM     35  C   UNL A   1      42.027  19.202  25.748  1.00  0.00     0.116 C 
BRANCH  35  36
ATOM     36  N   UNL A   1      43.266  18.774  25.122  1.00  0.00    -0.352 N 
ATOM     37  C   UNL A   1      44.368  19.497  24.748  1.00  0.00     0.251 C 
ATOM     38  H   UNL A   1      43.323  17.809  24.935  1.00  0.00     0.163 HD
ATOM     39  O   UNL A   1      45.256  18.961  24.090  1.00  0.00    -0.269 OA
BRANCH  37  40
ATOM     40  C   UNL A   1      44.497  20.924  25.115  1.00  0.00     0.039 A 
ATOM     41  C   UNL A   1      45.021  21.244  26.371  1.00  0.00     0.014 A 
ATOM     42  C   UNL A   1      44.063  21.940  24.260  1.00  0.00     0.014 A 
ATOM     43  C   UNL A   1      45.156  22.580  26.751  1.00  0.00     0.010 A 
ATOM     44  C   UNL A   1      44.251  23.275  24.614  1.00  0.00     0.010 A 
ATOM     45  C   UNL A   1      44.794  23.606  25.865  1.00  0.00    -0.014 A 
BRANCH  45  46
ATOM     46  C   UNL A   1      44.967  25.032  26.235  1.00  0.00     0.031 A 
ATOM     47  C   UNL A   1      46.313  25.686  26.111  1.00  0.00     0.074 A 
ATOM     48  C   UNL A   1      43.924  25.720  26.737  1.00  0.00     0.049 A 
ATOM     49  N   UNL A   1      46.682  26.897  26.449  1.00  0.00    -0.248 NA
ATOM     50  C   UNL A   1      47.397  24.863  25.554  1.00  0.00     0.031 C 
ATOM     51  C   UNL A   1      42.580  25.181  26.945  1.00  0.00     0.029 A 
ATOM     52  N   UNL A   1      43.836  27.017  27.178  1.00  0.00    -0.354 N 
ATOM     53  C   UNL A   1      48.039  26.972  26.163  1.00  0.00     0.074 A 
ATOM     54  C   UNL A   1      48.439  25.674  25.664  1.00  0.00     0.031 C 
ATOM     55  C   UNL A   1      41.796  26.143  27.460  1.00  0.00     0.029 A 
ATOM     56  C   UNL A   1      42.590  27.354  27.646  1.00  0.00     0.049 A 
ATOM     57  H   UNL A   1      44.593  27.645  27.159  1.00  0.00     0.167 HD
ATOM     58  C   UNL A   1      48.869  28.034  26.288  1.00  0.00     0.037 A 
ATOM     59  C   UNL A   1      42.142  28.509  28.172  1.00  0.00     0.037 A 
ATOM     60  C   UNL A   1      48.462  29.331  26.760  1.00  0.00     0.049 A 
ATOM     61  C   UNL A   1      43.083  29.676  28.291  1.00  0.00     0.074 A 
ATOM     62  C   UNL A   1      49.215  30.487  26.870  1.00  0.00     0.029 A 
ATOM     63  N   UNL A   1      47.183  29.643  27.200  1.00  0.00    -0.354 N 
ATOM     64  N   UNL A   1      44.349  29.755  27.963  1.00  0.00    -0.248 NA
ATOM     65  C   UNL A   1      42.529  30.918  28.848  1.00  0.00     0.031 C 
ATOM     66  C   UNL A   1      48.401  31.490  27.409  1.00  0.00     0.029 A 
ATOM     67  C   UNL A   1      47.130  30.970  27.596  1.00  0.00     0.049 A 
ATOM     68  H   UNL A   1      46.426  29.015  27.227  1.00  0.00     0.167 HD
ATOM     69  C   UNL A   1      44.739  31.056  28.250  1.00  0.00     0.074 A 
ATOM     70  C   UNL A   1      43.569  31.737  28.766  1.00  0.00     0.031 C 
ATOM     71  C   UNL A   1      45.955  31.632  28.100  1.00  0.00     0.037 A 
BRANCH  58  72
ATOM     72  C   UNL A   1      50.306  27.837  25.905  1.00  0.00     0.064 A 
ATOM     73  C   UNL A   1      51.304  27.641  26.873  1.00  0.00     0.173 A 
ATOM     74  C   UNL A   1      50.689  27.812  24.556  1.00  0.00     0.173 A 
ATOM     75  F   UNL A   1      50.991  27.666  28.178  1.00  0.00    -0.203 F 
ATOM     76  C   UNL A   1      52.633  27.455  26.505  1.00  0.00     0.198 A 
ATOM     77  C   UNL A   1      52.016  27.598  24.190  1.00  0.00     0.198 A 
ATOM     78  F   UNL A   1      49.774  27.989  23.590  1.00  0.00    -0.203 F 
ATOM     79  F   UNL A   1      53.574  27.315  27.449  1.00  0.00    -0.200 F 
ATOM     80  C   UNL A   1      52.987  27.427  25.164  1.00  0.00     0.200 A 
ATOM     81  F   UNL A   1      52.355  27.562  22.894  1.00  0.00    -0.200 F 
ATOM     82  F   UNL A   1      54.267  27.243  24.812  1.00  0.00    -0.200 F 
ENDBRANCH  58  72
BRANCH  59  83
ATOM     83  C   UNL A   1      40.725  28.624  28.599  1.00  0.00     0.064 A 
ATOM     84  C   UNL A   1      40.347  28.329  29.917  1.00  0.00     0.173 A 
ATOM     85  C   UNL A   1      39.725  29.037  27.708  1.00  0.00     0.173 A 
ATOM     86  F   UNL A   1      41.267  27.909  30.798  1.00  0.00    -0.203 F 
ATOM     87  C   UNL A   1      39.018  28.429  30.324  1.00  0.00     0.198 A 
ATOM     88  C   UNL A   1      38.399  29.161  28.122  1.00  0.00     0.198 A 
ATOM     89  F   UNL A   1      40.037  29.333  26.438  1.00  0.00    -0.203 F 
ATOM     90  F   UNL A   1      38.678  28.105  31.578  1.00  0.00    -0.200 F 
ATOM     91  C   UNL A   1      38.047  28.851  29.428  1.00  0.00     0.200 A 
ATOM     92  F   UNL A   1      37.465  29.578  27.258  1.00  0.00    -0.200 F 
ATOM     93  F   UNL A   1      36.770  28.952  29.821  1.00  0.00    -0.200 F 
ENDBRANCH  59  83
BRANCH  71  94
ATOM     94  C   UNL A   1      46.076  33.081  28.470  1.00  0.00     0.064 A 
ATOM     95  C   UNL A   1      46.375  33.481  29.781  1.00  0.00     0.173 A 
ATOM     96  C   UNL A   1      45.932  34.077  27.493  1.00  0.00     0.173 A 
ATOM     97  F   UNL A   1      46.506  32.565  30.752  1.00  0.00    -0.203 F 
ATOM     98  C   UNL A   1      46.503  34.829  30.104  1.00  0.00     0.198 A 
ATOM     99  C   UNL A   1      46.087  35.423  27.815  1.00  0.00     0.198 A 
ATOM    100  F   UNL A   1      45.652  33.744  26.223  1.00  0.00    -0.203 F 
ATOM    101  F   UNL A   1      46.748  35.192  31.370  1.00  0.00    -0.200 F 
ATOM    102  C   UNL A   1      46.367  35.797  29.120  1.00  0.00     0.200 A 
ATOM    103  F   UNL A   1      45.965  36.356  26.861  1.00  0.00    -0.200 F 
ATOM    104  F   UNL A   1      46.497  37.094  29.432  1.00  0.00    -0.200 F 
ENDBRANCH  71  94
ENDBRANCH  45  46
ENDBRANCH  37  40
ENDBRANCH  35  36
ENDBRANCH  34  35
ENDBRANCH  33  34
ENDBRANCH  32  33
ENDBRANCH   1  32
TORSDOF 18
ENDMDL
MODEL 3
REMARK VINA RESULT:     -11.5      1.072      2.162
REMARK SMILES COc1ccc(S(=O)(=O)N2CCC[C@H](C(=O)N3CCC[C@H](C(=O)NCCCCCCNC(=O)c4ccc(-c5c6nc(c(-c7c(F)c(F)c(F)c(F)c7F)c7ccc([nH]7)c(-c7c(F)c(F)c(F)c(F)c7F)c7nc(c(-c8c(F)c(F)c(F)c(F)c8F)c8ccc5[nH]8)C=C7)C=C6)cc4)C3)C2)cc1
REMARK SMILES IDX 26 1 25 2 24 3 22 4 23 5 21 7 17 8 18 9 97 10 19 11 20 12
REMARK SMILES IDX 15 13 16 14 14 15 10 16 11 17 98 18 12 19 13 20 7 21 8 22
REMARK SMILES IDX 9 23 6 24 3 25 4 26 100 27 5 28 99 29 2 30 1 31 27 32 28 33
REMARK SMILES IDX 29 34 30 35 31 36 32 37 33 39 34 40 35 41 96 42 36 43 95 44
REMARK SMILES IDX 37 45 38 46 39 47 89 48 40 49 94 50 88 51 90 52 41 53 93 54
REMARK SMILES IDX 87 55 86 56 42 58 74 59 54 60 73 61 55 62 58 63 72 64 91 65
REMARK SMILES IDX 56 66 57 67 71 69 92 70 59 71 43 72 44 73 52 74 45 75 46 76
REMARK SMILES IDX 50 77 53 78 47 79 48 80 51 81 49 82 75 83 76 84 84 85 77 86
REMARK SMILES IDX 78 87 82 88 85 89 79 90 80 91 83 92 81 93 60 94 61 95 69 96
REMARK SMILES IDX 62 97 63 98 67 99 70 100 64 101 65 102 68 103 66 104
REMARK H PARENT 24 6 31 38 90 57 58 68
REMARK Flexibility Score: inf
ROOT
ATOM      1  C   UNL A   1      34.573  32.288  29.088  1.00  0.00     0.021 C 
ENDROOT
BRANCH   1   2
ATOM      2  C   UNL A   1      34.892  31.211  28.058  1.00  0.00     0.116 C 
BRANCH   2   3
ATOM      3  N   UNL A   1      33.946  31.162  26.969  1.00  0.00    -0.356 N 
ATOM      4  C   UNL A   1      33.103  30.171  26.583  1.00  0.00     0.224 C 
ATOM      5  O   UNL A   1      32.268  30.463  25.719  1.00  0.00    -0.275 OA
ATOM      6  H   UNL A   1      33.907  31.976  26.417  1.00  0.00     0.163 HD
BRANCH   4   7
ATOM      7  C   UNL A   1      33.123  28.748  27.154  1.00  0.00     0.098 C 
ATOM      8  N   UNL A   1      32.999  26.884  25.481  1.00  0.00    -0.342 N 
ATOM      9  C   UNL A   1      31.865  26.268  26.164  1.00  0.00     0.119 C 
ATOM     10  C   UNL A   1      33.862  27.728  26.287  1.00  0.00     0.133 C 
ATOM     11  C   UNL A   1      30.999  27.272  26.917  1.00  0.00     0.022 C 
ATOM     12  C   UNL A   1      31.808  28.252  27.765  1.00  0.00     0.017 C 
BRANCH   8  13
ATOM     13  C   UNL A   1      33.102  26.745  24.112  1.00  0.00     0.227 C 
ATOM     14  O   UNL A   1      34.025  27.294  23.497  1.00  0.00    -0.275 OA
BRANCH  13  15
ATOM     15  C   UNL A   1      31.961  26.133  23.296  1.00  0.00     0.094 C 
ATOM     16  N   UNL A   1      32.768  23.812  23.448  1.00  0.00    -0.197 NA
ATOM     17  C   UNL A   1      33.188  23.757  22.036  1.00  0.00     0.102 C 
ATOM     18  C   UNL A   1      31.704  24.742  23.862  1.00  0.00     0.116 C 
ATOM     19  C   UNL A   1      32.767  24.932  21.158  1.00  0.00     0.018 C 
ATOM     20  C   UNL A   1      31.952  26.060  21.780  1.00  0.00     0.016 C 
BRANCH  16  21
ATOM     21  S   UNL A   1      32.997  22.404  24.372  1.00  0.00     0.243 S 
ATOM     22  O   UNL A   1      32.891  21.262  23.496  1.00  0.00    -0.207 OA
ATOM     23  O   UNL A   1      32.162  22.533  25.552  1.00  0.00    -0.207 OA
BRANCH  21  24
ATOM     24  C   UNL A   1      34.682  22.454  24.949  1.00  0.00     0.082 A 
ATOM     25  C   UNL A   1      37.353  22.699  25.732  1.00  0.00     0.118 A 
ATOM     26  C   UNL A   1      36.483  23.782  25.861  1.00  0.00     0.048 A 
ATOM     27  C   UNL A   1      36.873  21.477  25.261  1.00  0.00     0.048 A 
ATOM     28  C   UNL A   1      35.149  23.668  25.461  1.00  0.00     0.025 A 
ATOM     29  C   UNL A   1      35.541  21.357  24.865  1.00  0.00     0.025 A 
BRANCH  25  30
ATOM     30  O   UNL A   1      38.648  22.921  26.111  1.00  0.00    -0.497 OA
ATOM     31  C   UNL A   1      39.458  21.749  26.168  1.00  0.00     0.278 C 
ENDBRANCH  25  30
ENDBRANCH  21  24
ENDBRANCH  16  21
ENDBRANCH  13  15
ENDBRANCH   8  13
ENDBRANCH   4   7
ENDBRANCH   2   3
ENDBRANCH   1   2
BRANCH   1  32
ATOM     32  C   UNL A   1      35.388  33.572  28.924  1.00  0.00     0.002 C 
BRANCH  32  33
ATOM     33  C   UNL A   1      34.723  34.686  28.106  1.00  0.00     0.002 C 
BRANCH  33  34
ATOM     34  C   UNL A   1      33.919  35.722  28.899  1.00  0.00     0.021 C 
BRANCH  34  35
ATOM     35  C   UNL A   1      32.703  35.187  29.648  1.00  0.00     0.116 C 
BRANCH  35  36
ATOM     36  N   UNL A   1      32.354  35.997  30.802  1.00  0.00    -0.352 N 
ATOM     37  C   UNL A   1      32.855  35.988  32.077  1.00  0.00     0.251 C 
ATOM     38  H   UNL A   1      31.642  36.658  30.643  1.00  0.00     0.163 HD
ATOM     39  O   UNL A   1      32.311  36.657  32.951  1.00  0.00    -0.269 OA
BRANCH  37  40
ATOM     40  C   UNL A   1      34.037  35.168  32.419  1.00  0.00     0.039 A 
ATOM     41  C   UNL A   1      35.308  35.714  32.214  1.00  0.00     0.014 A 
ATOM     42  C   UNL A   1      33.907  33.859  32.890  1.00  0.00     0.014 A 
ATOM     43  C   UNL A   1      36.446  34.969  32.525  1.00  0.00     0.010 A 
ATOM     44  C   UNL A   1      35.040  33.136  33.256  1.00  0.00     0.010 A 
ATOM     45  C   UNL A   1      36.320  33.682  33.072  1.00  0.00    -0.014 A 
BRANCH  45  46
ATOM     46  C   UNL A   1      37.517  32.890  33.446  1.00  0.00     0.031 A 
ATOM     47  C   UNL A   1      38.237  33.173  34.734  1.00  0.00     0.074 A 
ATOM     48  C   UNL A   1      37.987  31.956  32.599  1.00  0.00     0.049 A 
ATOM     49  N   UNL A   1      39.337  32.641  35.203  1.00  0.00    -0.248 NA
ATOM     50  C   UNL A   1      37.655  34.210  35.600  1.00  0.00     0.031 C 
ATOM     51  C   UNL A   1      37.400  31.621  31.301  1.00  0.00     0.029 A 
ATOM     52  N   UNL A   1      39.077  31.127  32.696  1.00  0.00    -0.354 N 
ATOM     53  C   UNL A   1      39.588  33.289  36.405  1.00  0.00     0.074 A 
ATOM     54  C   UNL A   1      38.550  34.283  36.574  1.00  0.00     0.031 C 
ATOM     55  C   UNL A   1      38.126  30.648  30.729  1.00  0.00     0.029 A 
ATOM     56  C   UNL A   1      39.246  30.312  31.603  1.00  0.00     0.049 A 
ATOM     57  H   UNL A   1      39.679  31.116  33.474  1.00  0.00     0.167 HD
ATOM     58  C   UNL A   1      40.583  33.062  37.295  1.00  0.00     0.037 A 
ATOM     59  C   UNL A   1      40.202  29.403  31.336  1.00  0.00     0.037 A 
ATOM     60  C   UNL A   1      41.599  32.054  37.136  1.00  0.00     0.049 A 
ATOM     61  C   UNL A   1      41.290  29.162  32.346  1.00  0.00     0.074 A 
ATOM     62  C   UNL A   1      42.617  31.707  38.006  1.00  0.00     0.029 A 
ATOM     63  N   UNL A   1      41.722  31.229  36.027  1.00  0.00    -0.354 N 
ATOM     64  N   UNL A   1      41.485  29.740  33.506  1.00  0.00    -0.248 NA
ATOM     65  C   UNL A   1      42.289  28.138  32.010  1.00  0.00     0.031 C 
ATOM     66  C   UNL A   1      43.377  30.695  37.411  1.00  0.00     0.029 A 
ATOM     67  C   UNL A   1      42.808  30.383  36.186  1.00  0.00     0.049 A 
ATOM     68  H   UNL A   1      41.126  31.241  35.244  1.00  0.00     0.167 HD
ATOM     69  C   UNL A   1      42.610  29.136  34.050  1.00  0.00     0.074 A 
ATOM     70  C   UNL A   1      43.048  28.137  33.098  1.00  0.00     0.031 C 
ATOM     71  C   UNL A   1      43.224  29.389  35.231  1.00  0.00     0.037 A 
BRANCH  58  72
ATOM     72  C   UNL A   1      40.620  33.919  38.525  1.00  0.00     0.064 A 
ATOM     73  C   UNL A   1      41.388  35.093  38.579  1.00  0.00     0.173 A 
ATOM     74  C   UNL A   1      39.857  33.582  39.653  1.00  0.00     0.173 A 
ATOM     75  F   UNL A   1      42.144  35.453  37.530  1.00  0.00    -0.203 F 
ATOM     76  C   UNL A   1      41.411  35.882  39.725  1.00  0.00     0.198 A 
ATOM     77  C   UNL A   1      39.861  34.390  40.788  1.00  0.00     0.198 A 
ATOM     78  F   UNL A   1      39.102  32.474  39.652  1.00  0.00    -0.203 F 
ATOM     79  F   UNL A   1      42.186  36.974  39.769  1.00  0.00    -0.200 F 
ATOM     80  C   UNL A   1      40.642  35.534  40.826  1.00  0.00     0.200 A 
ATOM     81  F   UNL A   1      39.110  34.057  41.847  1.00  0.00    -0.200 F 
ATOM     82  F   UNL A   1      40.662  36.298  41.926  1.00  0.00    -0.200 F 
ENDBRANCH  58  72
BRANCH  59  83
ATOM     83  C   UNL A   1      40.152  28.632  30.069  1.00  0.00     0.064 A 
ATOM     84  C   UNL A   1      39.479  27.404  30.003  1.00  0.00     0.173 A 
ATOM     85  C   UNL A   1      40.765  29.106  28.901  1.00  0.00     0.173 A 
ATOM     86  F   UNL A   1      38.897  26.900  31.101  1.00  0.00    -0.203 F 
ATOM     87  C   UNL A   1      39.433  26.671  28.819  1.00  0.00     0.198 A 
ATOM     88  C   UNL A   1      40.698  28.384  27.710  1.00  0.00     0.198 A 
ATOM     89  F   UNL A   1      41.418  30.277  28.913  1.00  0.00    -0.203 F 
ATOM     90  F   UNL A   1      38.816  25.482  28.792  1.00  0.00    -0.200 F 
ATOM     91  C   UNL A   1      40.037  27.164  27.672  1.00  0.00     0.200 A 
ATOM     92  F   UNL A   1      41.273  28.868  26.601  1.00  0.00    -0.200 F 
ATOM     93  F   UNL A   1      39.988  26.462  26.532  1.00  0.00    -0.200 F 
ENDBRANCH  59  83
BRANCH  71  94
ATOM     94  C   UNL A   1      44.419  28.550  35.573  1.00  0.00     0.064 A 
ATOM     95  C   UNL A   1      44.292  27.344  36.278  1.00  0.00     0.173 A 
ATOM     96  C   UNL A   1      45.701  28.937  35.156  1.00  0.00     0.173 A 
ATOM     97  F   UNL A   1      43.088  26.940  36.711  1.00  0.00    -0.203 F 
ATOM     98  C   UNL A   1      45.408  26.567  36.571  1.00  0.00     0.198 A 
ATOM     99  C   UNL A   1      46.813  28.144  35.429  1.00  0.00     0.198 A 
ATOM    100  F   UNL A   1      45.874  30.080  34.474  1.00  0.00    -0.203 F 
ATOM    101  F   UNL A   1      45.270  25.439  37.281  1.00  0.00    -0.200 F 
ATOM    102  C   UNL A   1      46.666  26.964  36.140  1.00  0.00     0.200 A 
ATOM    103  F   UNL A   1      48.025  28.524  35.003  1.00  0.00    -0.200 F 
ATOM    104  F   UNL A   1      47.740  26.210  36.418  1.00  0.00    -0.200 F 
ENDBRANCH  71  94
ENDBRANCH  45  46
ENDBRANCH  37  40
ENDBRANCH  35  36
ENDBRANCH  34  35
ENDBRANCH  33  34
ENDBRANCH  32  33
ENDBRANCH   1  32
TORSDOF 18
ENDMDL
