MODEL 1
REMARK VINA RESULT:     -14.3      0.000      0.000
REMARK SMILES O=C(NCCCCCCNC(=O)[C@H]1[C@H]2CC[C@H](CC2)[C@@H]1C(=O)Nc1sc2c(c1C(=O)N1CCCCC1)CCCC2)c1ccc(-c2c3nc(c(-c4c(F)c(F)c(F)c(F)c4F)c4ccc([nH]4)c(-c4c(F)c(F)c(F)c(F)c4F)c4nc(c(-c5c(F)c(F)c(F)c(F)c5F)c5ccc2[nH]5)C=C4)C=C3)cc1
REMARK SMILES IDX 7 1 6 2 5 3 4 4 3 5 1 6 2 7 41 9 42 10 103 11 43 12 102 13
REMARK SMILES IDX 44 14 45 15 46 16 96 17 47 18 101 19 95 20 97 21 48 22
REMARK SMILES IDX 100 23 94 24 93 25 49 27 81 28 61 29 80 30 62 31 65 32 79 33
REMARK SMILES IDX 98 34 63 35 64 36 78 38 99 39 66 40 50 41 51 42 59 43 52 44
REMARK SMILES IDX 53 45 57 46 60 47 54 48 55 49 58 50 56 51 82 52 83 53 91 54
REMARK SMILES IDX 84 55 85 56 89 57 92 58 86 59 87 60 90 61 88 62 67 63 68 64
REMARK SMILES IDX 76 65 69 66 70 67 74 68 77 69 71 70 72 71 75 72 73 73 8 74
REMARK SMILES IDX 9 75 10 76 11 77 12 79 13 80 14 81 20 82 15 83 19 84 17 85
REMARK SMILES IDX 16 86 18 87 21 88 22 89 23 90 24 92 25 93 28 94 26 95 27 96
REMARK SMILES IDX 40 97 37 98 39 99 38 100 29 101 30 102 31 103 32 104 36 105
REMARK SMILES IDX 33 106 35 107 34 108
REMARK H PARENT 3 8 97 26 65 37 10 78 23 91
REMARK Flexibility Score: inf
ROOT
ATOM      1  C   UNL A   1      32.364  30.185  26.856  1.00  0.00     0.002 C 
ENDROOT
BRANCH   1   2
ATOM      2  C   UNL A   1      31.388  31.103  26.112  1.00  0.00     0.002 C 
BRANCH   2   3
ATOM      3  C   UNL A   1      31.318  32.570  26.537  1.00  0.00     0.021 C 
BRANCH   3   4
ATOM      4  C   UNL A   1      32.498  33.118  27.326  1.00  0.00     0.116 C 
BRANCH   4   5
ATOM      5  N   UNL A   1      32.302  34.473  27.810  1.00  0.00    -0.352 N 
ATOM      6  O   UNL A   1      32.610  36.303  29.089  1.00  0.00    -0.269 OA
ATOM      7  C   UNL A   1      32.997  35.184  28.759  1.00  0.00     0.251 C 
ATOM      8  H   UNL A   1      31.553  34.957  27.394  1.00  0.00     0.163 HD
BRANCH   7   9
ATOM      9  C   UNL A   1      34.186  34.600  29.420  1.00  0.00     0.039 A 
ATOM     10  C   UNL A   1      35.467  34.751  28.885  1.00  0.00     0.014 A 
ATOM     11  C   UNL A   1      34.013  33.894  30.615  1.00  0.00     0.014 A 
ATOM     12  C   UNL A   1      36.538  34.064  29.447  1.00  0.00     0.010 A 
ATOM     13  C   UNL A   1      35.108  33.278  31.231  1.00  0.00     0.010 A 
ATOM     14  C   UNL A   1      36.374  33.321  30.628  1.00  0.00    -0.014 A 
BRANCH  14  15
ATOM     15  C   UNL A   1      37.546  32.626  31.222  1.00  0.00     0.031 A 
ATOM     16  C   UNL A   1      38.018  32.946  32.615  1.00  0.00     0.074 A 
ATOM     17  C   UNL A   1      38.166  31.668  30.506  1.00  0.00     0.049 A 
ATOM     18  N   UNL A   1      38.988  32.399  33.305  1.00  0.00    -0.248 NA
ATOM     19  C   UNL A   1      37.319  34.028  33.325  1.00  0.00     0.031 C 
ATOM     20  C   UNL A   1      37.815  31.282  29.139  1.00  0.00     0.029 A 
ATOM     21  N   UNL A   1      39.203  30.829  30.832  1.00  0.00    -0.354 N 
ATOM     22  C   UNL A   1      39.030  33.081  34.514  1.00  0.00     0.074 A 
ATOM     23  C   UNL A   1      38.004  34.101  34.457  1.00  0.00     0.031 C 
ATOM     24  C   UNL A   1      38.580  30.246  28.764  1.00  0.00     0.029 A 
ATOM     25  C   UNL A   1      39.512  29.931  29.840  1.00  0.00     0.049 A 
ATOM     26  H   UNL A   1      39.677  30.868  31.694  1.00  0.00     0.167 HD
ATOM     27  C   UNL A   1      39.844  32.868  35.577  1.00  0.00     0.037 A 
ATOM     28  C   UNL A   1      40.445  28.963  29.799  1.00  0.00     0.037 A 
ATOM     29  C   UNL A   1      40.847  31.835  35.642  1.00  0.00     0.049 A 
ATOM     30  C   UNL A   1      41.333  28.752  30.993  1.00  0.00     0.074 A 
ATOM     31  C   UNL A   1      41.687  31.510  36.693  1.00  0.00     0.029 A 
ATOM     32  N   UNL A   1      41.147  30.960  34.607  1.00  0.00    -0.354 N 
ATOM     33  N   UNL A   1      41.329  29.372  32.147  1.00  0.00    -0.248 NA
ATOM     34  C   UNL A   1      42.355  27.704  30.876  1.00  0.00     0.031 C 
ATOM     35  C   UNL A   1      42.526  30.469  36.279  1.00  0.00     0.029 A 
ATOM     36  C   UNL A   1      42.175  30.111  34.988  1.00  0.00     0.049 A 
ATOM     37  H   UNL A   1      40.697  30.945  33.731  1.00  0.00     0.167 HD
ATOM     38  C   UNL A   1      42.329  28.777  32.903  1.00  0.00     0.074 A 
ATOM     39  C   UNL A   1      42.905  27.732  32.081  1.00  0.00     0.031 C 
ATOM     40  C   UNL A   1      42.734  29.072  34.162  1.00  0.00     0.037 A 
BRANCH  27  41
ATOM     41  C   UNL A   1      39.701  33.785  36.760  1.00  0.00     0.064 A 
ATOM     42  C   UNL A   1      40.335  35.034  36.811  1.00  0.00     0.173 A 
ATOM     43  C   UNL A   1      38.878  33.425  37.839  1.00  0.00     0.173 A 
ATOM     44  F   UNL A   1      41.141  35.423  35.810  1.00  0.00    -0.203 F 
ATOM     45  C   UNL A   1      40.172  35.878  37.907  1.00  0.00     0.198 A 
ATOM     46  C   UNL A   1      38.694  34.283  38.921  1.00  0.00     0.198 A 
ATOM     47  F   UNL A   1      38.240  32.245  37.839  1.00  0.00    -0.203 F 
ATOM     48  F   UNL A   1      40.823  37.049  37.952  1.00  0.00    -0.200 F 
ATOM     49  C   UNL A   1      39.347  35.505  38.957  1.00  0.00     0.200 A 
ATOM     50  F   UNL A   1      37.886  33.926  39.928  1.00  0.00    -0.200 F 
ATOM     51  F   UNL A   1      39.185  36.323  40.007  1.00  0.00    -0.200 F 
ENDBRANCH  27  41
BRANCH  28  52
ATOM     52  C   UNL A   1      40.572  28.110  28.590  1.00  0.00     0.064 A 
ATOM     53  C   UNL A   1      41.368  28.510  27.508  1.00  0.00     0.173 A 
ATOM     54  C   UNL A   1      39.912  26.877  28.495  1.00  0.00     0.173 A 
ATOM     55  F   UNL A   1      42.005  29.691  27.545  1.00  0.00    -0.203 F 
ATOM     56  C   UNL A   1      41.488  27.715  26.370  1.00  0.00     0.198 A 
ATOM     57  C   UNL A   1      40.056  26.068  27.370  1.00  0.00     0.198 A 
ATOM     58  F   UNL A   1      39.143  26.447  29.506  1.00  0.00    -0.203 F 
ATOM     59  F   UNL A   1      42.223  28.139  25.333  1.00  0.00    -0.200 F 
ATOM     60  C   UNL A   1      40.837  26.492  26.305  1.00  0.00     0.200 A 
ATOM     61  F   UNL A   1      39.440  24.880  27.319  1.00  0.00    -0.200 F 
ATOM     62  F   UNL A   1      40.958  25.723  25.215  1.00  0.00    -0.200 F 
ENDBRANCH  28  52
BRANCH  40  63
ATOM     63  C   UNL A   1      43.829  28.224  34.740  1.00  0.00     0.064 A 
ATOM     64  C   UNL A   1      45.179  28.589  34.633  1.00  0.00     0.173 A 
ATOM     65  C   UNL A   1      43.521  27.038  35.425  1.00  0.00     0.173 A 
ATOM     66  F   UNL A   1      45.526  29.705  33.973  1.00  0.00    -0.203 F 
ATOM     67  C   UNL A   1      46.183  27.781  35.161  1.00  0.00     0.198 A 
ATOM     68  C   UNL A   1      44.526  26.249  35.978  1.00  0.00     0.198 A 
ATOM     69  F   UNL A   1      42.245  26.648  35.562  1.00  0.00    -0.203 F 
ATOM     70  F   UNL A   1      47.469  28.121  34.998  1.00  0.00    -0.200 F 
ATOM     71  C   UNL A   1      45.855  26.616  35.838  1.00  0.00     0.200 A 
ATOM     72  F   UNL A   1      44.206  25.129  36.641  1.00  0.00    -0.200 F 
ATOM     73  F   UNL A   1      46.823  25.840  36.345  1.00  0.00    -0.200 F 
ENDBRANCH  40  63
ENDBRANCH  14  15
ENDBRANCH   7   9
ENDBRANCH   4   5
ENDBRANCH   3   4
ENDBRANCH   2   3
ENDBRANCH   1   2
BRANCH   1  74
ATOM     74  C   UNL A   1      31.810  28.908  27.485  1.00  0.00     0.021 C 
BRANCH  74  75
ATOM     75  C   UNL A   1      32.596  27.622  27.263  1.00  0.00     0.116 C 
BRANCH  75  76
ATOM     76  N   UNL A   1      33.429  27.596  26.090  1.00  0.00    -0.356 N 
ATOM     77  C   UNL A   1      33.194  27.132  24.836  1.00  0.00     0.224 C 
ATOM     78  H   UNL A   1      34.326  27.981  26.219  1.00  0.00     0.163 HD
ATOM     79  O   UNL A   1      34.002  27.523  23.982  1.00  0.00    -0.275 OA
BRANCH  77  80
ATOM     80  C   UNL A   1      32.076  26.158  24.400  1.00  0.00     0.094 C 
ATOM     81  C   UNL A   1      31.416  26.190  22.996  1.00  0.00     0.002 C 
ATOM     82  C   UNL A   1      32.505  24.690  24.734  1.00  0.00     0.094 C 
ATOM     83  C   UNL A   1      32.280  25.557  21.878  1.00  0.00     0.005 C 
ATOM     84  C   UNL A   1      30.149  25.306  23.084  1.00  0.00     0.005 C 
ATOM     85  C   UNL A   1      32.075  23.746  23.570  1.00  0.00     0.002 C 
ATOM     86  C   UNL A   1      32.811  24.195  22.308  1.00  0.00     0.005 C 
ATOM     87  C   UNL A   1      30.556  23.847  23.327  1.00  0.00     0.005 C 
BRANCH  82  88
ATOM     88  C   UNL A   1      31.915  24.129  26.046  1.00  0.00     0.229 C 
ATOM     89  O   UNL A   1      30.889  24.601  26.542  1.00  0.00    -0.274 OA
ATOM     90  N   UNL A   1      32.404  22.946  26.562  1.00  0.00    -0.317 N 
ATOM     91  H   UNL A   1      31.826  22.492  27.217  1.00  0.00     0.170 HD
BRANCH  90  92
ATOM     92  C   UNL A   1      33.602  22.314  26.279  1.00  0.00     0.108 A 
ATOM     93  S   UNL A   1      35.032  23.057  26.810  1.00  0.00    -0.122 S 
ATOM     94  C   UNL A   1      33.812  21.065  25.693  1.00  0.00     0.078 A 
ATOM     95  C   UNL A   1      35.982  21.941  25.979  1.00  0.00     0.011 A 
ATOM     96  C   UNL A   1      35.249  20.868  25.500  1.00  0.00    -0.019 A 
ATOM     97  C   UNL A   1      37.461  22.134  25.847  1.00  0.00     0.047 C 
ATOM     98  C   UNL A   1      35.952  19.736  24.810  1.00  0.00     0.037 C 
ATOM     99  C   UNL A   1      38.019  21.214  24.757  1.00  0.00     0.006 C 
ATOM    100  C   UNL A   1      37.483  19.794  24.928  1.00  0.00     0.005 C 
BRANCH  94 101
ATOM    101  C   UNL A   1      32.666  20.247  25.232  1.00  0.00     0.257 C 
ATOM    102  O   UNL A   1      31.550  20.738  25.061  1.00  0.00    -0.269 OA
ATOM    103  N   UNL A   1      32.924  18.929  24.854  1.00  0.00    -0.339 N 
ATOM    104  C   UNL A   1      32.414  18.517  23.552  1.00  0.00     0.120 C 
ATOM    105  C   UNL A   1      32.842  17.881  25.864  1.00  0.00     0.120 C 
ATOM    106  C   UNL A   1      33.212  17.332  23.022  1.00  0.00     0.022 C 
ATOM    107  C   UNL A   1      33.611  16.632  25.424  1.00  0.00     0.022 C 
ATOM    108  C   UNL A   1      33.212  16.173  24.020  1.00  0.00     0.004 C 
ENDBRANCH  94 101
ENDBRANCH  90  92
ENDBRANCH  82  88
ENDBRANCH  77  80
ENDBRANCH  75  76
ENDBRANCH  74  75
ENDBRANCH   1  74
TORSDOF 16
ENDMDL
MODEL 2
REMARK VINA RESULT:     -13.8      0.559      6.728
REMARK SMILES O=C(NCCCCCCNC(=O)[C@H]1[C@H]2CC[C@H](CC2)[C@@H]1C(=O)Nc1sc2c(c1C(=O)N1CCCCC1)CCCC2)c1ccc(-c2c3nc(c(-c4c(F)c(F)c(F)c(F)c4F)c4ccc([nH]4)c(-c4c(F)c(F)c(F)c(F)c4F)c4nc(c(-c5c(F)c(F)c(F)c(F)c5F)c5ccc2[nH]5)C=C4)C=C3)cc1
REMARK SMILES IDX 7 1 6 2 5 3 4 4 3 5 1 6 2 7 41 9 42 10 103 11 43 12 102 13
REMARK SMILES IDX 44 14 45 15 46 16 96 17 47 18 101 19 95 20 97 21 48 22
REMARK SMILES IDX 100 23 94 24 93 25 49 27 81 28 61 29 80 30 62 31 65 32 79 33
REMARK SMILES IDX 98 34 63 35 64 36 78 38 99 39 66 40 50 41 51 42 59 43 52 44
REMARK SMILES IDX 53 45 57 46 60 47 54 48 55 49 58 50 56 51 82 52 83 53 91 54
REMARK SMILES IDX 84 55 85 56 89 57 92 58 86 59 87 60 90 61 88 62 67 63 68 64
REMARK SMILES IDX 76 65 69 66 70 67 74 68 77 69 71 70 72 71 75 72 73 73 8 74
REMARK SMILES IDX 9 75 10 76 11 77 12 79 13 80 14 81 20 82 15 83 19 84 17 85
REMARK SMILES IDX 16 86 18 87 21 88 22 89 23 90 24 92 25 93 28 94 26 95 27 96
REMARK SMILES IDX 40 97 37 98 39 99 38 100 29 101 30 102 31 103 32 104 36 105
REMARK SMILES IDX 33 106 35 107 34 108
REMARK H PARENT 3 8 97 26 65 37 10 78 23 91
REMARK Flexibility Score: inf
ROOT
ATOM      1  C   UNL A   1      31.874  30.150  25.898  1.00  0.00     0.002 C 
ENDROOT
BRANCH   1   2
ATOM      2  C   UNL A   1      31.240  31.536  26.059  1.00  0.00     0.002 C 
BRANCH   2   3
ATOM      3  C   UNL A   1      31.570  32.332  27.322  1.00  0.00     0.021 C 
BRANCH   3   4
ATOM      4  C   UNL A   1      32.730  33.314  27.238  1.00  0.00     0.116 C 
BRANCH   4   5
ATOM      5  N   UNL A   1      32.447  34.608  27.833  1.00  0.00    -0.352 N 
ATOM      6  O   UNL A   1      32.579  36.303  29.311  1.00  0.00    -0.269 OA
ATOM      7  C   UNL A   1      33.029  35.232  28.910  1.00  0.00     0.251 C 
ATOM      8  H   UNL A   1      31.726  35.116  27.397  1.00  0.00     0.163 HD
BRANCH   7   9
ATOM      9  C   UNL A   1      34.168  34.609  29.621  1.00  0.00     0.039 A 
ATOM     10  C   UNL A   1      35.463  34.648  29.101  1.00  0.00     0.014 A 
ATOM     11  C   UNL A   1      33.933  33.981  30.849  1.00  0.00     0.014 A 
ATOM     12  C   UNL A   1      36.479  33.924  29.717  1.00  0.00     0.010 A 
ATOM     13  C   UNL A   1      34.977  33.330  31.515  1.00  0.00     0.010 A 
ATOM     14  C   UNL A   1      36.251  33.258  30.932  1.00  0.00    -0.014 A 
BRANCH  14  15
ATOM     15  C   UNL A   1      37.367  32.522  31.582  1.00  0.00     0.031 A 
ATOM     16  C   UNL A   1      38.058  31.381  30.886  1.00  0.00     0.074 A 
ATOM     17  C   UNL A   1      37.785  32.917  32.800  1.00  0.00     0.049 A 
ATOM     18  N   UNL A   1      39.082  30.668  31.284  1.00  0.00    -0.248 NA
ATOM     19  C   UNL A   1      37.527  30.979  29.574  1.00  0.00     0.031 C 
ATOM     20  C   UNL A   1      37.183  33.996  33.585  1.00  0.00     0.029 A 
ATOM     21  N   UNL A   1      38.824  32.478  33.582  1.00  0.00    -0.354 N 
ATOM     22  C   UNL A   1      39.302  29.723  30.290  1.00  0.00     0.074 A 
ATOM     23  C   UNL A   1      38.289  29.936  29.277  1.00  0.00     0.031 C 
ATOM     24  C   UNL A   1      37.896  34.174  34.707  1.00  0.00     0.029 A 
ATOM     25  C   UNL A   1      38.969  33.188  34.749  1.00  0.00     0.049 A 
ATOM     26  H   UNL A   1      39.408  31.727  33.330  1.00  0.00     0.167 HD
ATOM     27  C   UNL A   1      40.265  28.772  30.224  1.00  0.00     0.037 A 
ATOM     28  C   UNL A   1      39.864  33.057  35.744  1.00  0.00     0.037 A 
ATOM     29  C   UNL A   1      41.288  28.579  31.221  1.00  0.00     0.049 A 
ATOM     30  C   UNL A   1      40.921  31.994  35.643  1.00  0.00     0.074 A 
ATOM     31  C   UNL A   1      42.337  27.675  31.220  1.00  0.00     0.029 A 
ATOM     32  N   UNL A   1      41.388  29.303  32.401  1.00  0.00    -0.354 N 
ATOM     33  N   UNL A   1      41.145  31.141  34.675  1.00  0.00    -0.248 NA
ATOM     34  C   UNL A   1      41.848  31.878  36.776  1.00  0.00     0.031 C 
ATOM     35  C   UNL A   1      43.043  27.820  32.420  1.00  0.00     0.029 A 
ATOM     36  C   UNL A   1      42.467  28.850  33.146  1.00  0.00     0.049 A 
ATOM     37  H   UNL A   1      40.782  30.031  32.671  1.00  0.00     0.167 HD
ATOM     38  C   UNL A   1      42.252  30.401  35.068  1.00  0.00     0.074 A 
ATOM     39  C   UNL A   1      42.664  30.922  36.356  1.00  0.00     0.031 C 
ATOM     40  C   UNL A   1      42.868  29.382  34.422  1.00  0.00     0.037 A 
BRANCH  27  41
ATOM     41  C   UNL A   1      40.254  27.846  29.040  1.00  0.00     0.064 A 
ATOM     42  C   UNL A   1      40.983  28.125  27.875  1.00  0.00     0.173 A 
ATOM     43  C   UNL A   1      39.538  26.640  29.091  1.00  0.00     0.173 A 
ATOM     44  F   UNL A   1      41.677  29.269  27.770  1.00  0.00    -0.203 F 
ATOM     45  C   UNL A   1      40.977  27.243  26.797  1.00  0.00     0.198 A 
ATOM     46  C   UNL A   1      39.557  25.747  28.023  1.00  0.00     0.198 A 
ATOM     47  F   UNL A   1      38.830  26.319  30.184  1.00  0.00    -0.203 F 
ATOM     48  F   UNL A   1      41.647  27.551  25.677  1.00  0.00    -0.200 F 
ATOM     49  C   UNL A   1      40.270  26.052  26.873  1.00  0.00     0.200 A 
ATOM     50  F   UNL A   1      38.883  24.591  28.104  1.00  0.00    -0.200 F 
ATOM     51  F   UNL A   1      40.272  25.202  25.837  1.00  0.00    -0.200 F 
ENDBRANCH  27  41
BRANCH  28  52
ATOM     52  C   UNL A   1      39.808  33.973  36.912  1.00  0.00     0.064 A 
ATOM     53  C   UNL A   1      40.564  35.153  36.938  1.00  0.00     0.173 A 
ATOM     54  C   UNL A   1      38.993  33.695  38.019  1.00  0.00     0.173 A 
ATOM     55  F   UNL A   1      41.373  35.453  35.911  1.00  0.00    -0.203 F 
ATOM     56  C   UNL A   1      40.517  36.013  38.033  1.00  0.00     0.198 A 
ATOM     57  C   UNL A   1      38.924  34.570  39.100  1.00  0.00     0.198 A 
ATOM     58  F   UNL A   1      38.246  32.581  38.040  1.00  0.00    -0.203 F 
ATOM     59  F   UNL A   1      41.281  37.115  38.050  1.00  0.00    -0.200 F 
ATOM     60  C   UNL A   1      39.693  35.724  39.110  1.00  0.00     0.200 A 
ATOM     61  F   UNL A   1      38.112  34.296  40.130  1.00  0.00    -0.200 F 
ATOM     62  F   UNL A   1      39.641  36.556  40.159  1.00  0.00    -0.200 F 
ENDBRANCH  28  52
BRANCH  40  63
ATOM     63  C   UNL A   1      44.079  28.790  35.084  1.00  0.00     0.064 A 
ATOM     64  C   UNL A   1      45.370  29.270  34.822  1.00  0.00     0.173 A 
ATOM     65  C   UNL A   1      43.941  27.739  36.003  1.00  0.00     0.173 A 
ATOM     66  F   UNL A   1      45.555  30.262  33.938  1.00  0.00    -0.203 F 
ATOM     67  C   UNL A   1      46.483  28.698  35.433  1.00  0.00     0.198 A 
ATOM     68  C   UNL A   1      45.054  27.189  36.635  1.00  0.00     0.198 A 
ATOM     69  F   UNL A   1      42.727  27.248  36.293  1.00  0.00    -0.203 F 
ATOM     70  F   UNL A   1      47.712  29.135  35.126  1.00  0.00    -0.200 F 
ATOM     71  C   UNL A   1      46.323  27.663  36.343  1.00  0.00     0.200 A 
ATOM     72  F   UNL A   1      44.896  26.198  37.522  1.00  0.00    -0.200 F 
ATOM     73  F   UNL A   1      47.396  27.114  36.929  1.00  0.00    -0.200 F 
ENDBRANCH  40  63
ENDBRANCH  14  15
ENDBRANCH   7   9
ENDBRANCH   4   5
ENDBRANCH   3   4
ENDBRANCH   2   3
ENDBRANCH   1   2
BRANCH   1  74
ATOM     74  C   UNL A   1      31.516  29.074  26.923  1.00  0.00     0.021 C 
BRANCH  74  75
ATOM     75  C   UNL A   1      32.628  28.133  27.366  1.00  0.00     0.116 C 
BRANCH  75  76
ATOM     76  N   UNL A   1      33.566  27.753  26.343  1.00  0.00    -0.356 N 
ATOM     77  C   UNL A   1      33.384  27.144  25.144  1.00  0.00     0.224 C 
ATOM     78  H   UNL A   1      34.504  27.973  26.549  1.00  0.00     0.163 HD
ATOM     79  O   UNL A   1      34.351  27.224  24.373  1.00  0.00    -0.275 OA
BRANCH  77  80
ATOM     80  C   UNL A   1      32.141  26.347  24.686  1.00  0.00     0.094 C 
ATOM     81  C   UNL A   1      31.426  26.587  23.331  1.00  0.00     0.002 C 
ATOM     82  C   UNL A   1      32.412  24.815  24.861  1.00  0.00     0.094 C 
ATOM     83  C   UNL A   1      32.157  25.972  22.113  1.00  0.00     0.005 C 
ATOM     84  C   UNL A   1      30.070  25.845  23.411  1.00  0.00     0.005 C 
ATOM     85  C   UNL A   1      31.822  24.041  23.643  1.00  0.00     0.002 C 
ATOM     86  C   UNL A   1      32.546  24.525  22.387  1.00  0.00     0.005 C 
ATOM     87  C   UNL A   1      30.315  24.334  23.497  1.00  0.00     0.005 C 
BRANCH  82  88
ATOM     88  C   UNL A   1      31.822  24.199  26.149  1.00  0.00     0.229 C 
ATOM     89  O   UNL A   1      30.787  24.638  26.655  1.00  0.00    -0.274 OA
ATOM     90  N   UNL A   1      32.325  23.005  26.625  1.00  0.00    -0.317 N 
ATOM     91  H   UNL A   1      31.750  22.520  27.260  1.00  0.00     0.170 HD
BRANCH  90  92
ATOM     92  C   UNL A   1      33.534  22.401  26.327  1.00  0.00     0.108 A 
ATOM     93  S   UNL A   1      34.951  23.153  26.882  1.00  0.00    -0.122 S 
ATOM     94  C   UNL A   1      33.766  21.172  25.709  1.00  0.00     0.078 A 
ATOM     95  C   UNL A   1      35.920  22.075  26.023  1.00  0.00     0.011 A 
ATOM     96  C   UNL A   1      35.206  21.004  25.514  1.00  0.00    -0.019 A 
ATOM     97  C   UNL A   1      37.396  22.296  25.899  1.00  0.00     0.047 C 
ATOM     98  C   UNL A   1      35.929  19.903  24.795  1.00  0.00     0.037 C 
ATOM     99  C   UNL A   1      37.971  21.415  24.786  1.00  0.00     0.006 C 
ATOM    100  C   UNL A   1      37.458  19.982  24.917  1.00  0.00     0.005 C 
BRANCH  94 101
ATOM    101  C   UNL A   1      32.634  20.347  25.224  1.00  0.00     0.257 C 
ATOM    102  O   UNL A   1      31.522  20.835  25.017  1.00  0.00    -0.269 OA
ATOM    103  N   UNL A   1      32.904  19.026  24.866  1.00  0.00    -0.339 N 
ATOM    104  C   UNL A   1      32.431  18.601  23.555  1.00  0.00     0.120 C 
ATOM    105  C   UNL A   1      32.795  17.988  25.884  1.00  0.00     0.120 C 
ATOM    106  C   UNL A   1      33.245  17.412  23.059  1.00  0.00     0.022 C 
ATOM    107  C   UNL A   1      33.578  16.736  25.477  1.00  0.00     0.022 C 
ATOM    108  C   UNL A   1      33.219  16.263  24.067  1.00  0.00     0.004 C 
ENDBRANCH  94 101
ENDBRANCH  90  92
ENDBRANCH  82  88
ENDBRANCH  77  80
ENDBRANCH  75  76
ENDBRANCH  74  75
ENDBRANCH   1  74
TORSDOF 16
ENDMDL
MODEL 3
REMARK VINA RESULT:     -13.2      1.270      1.906
REMARK SMILES O=C(NCCCCCCNC(=O)[C@H]1[C@H]2CC[C@H](CC2)[C@@H]1C(=O)Nc1sc2c(c1C(=O)N1CCCCC1)CCCC2)c1ccc(-c2c3nc(c(-c4c(F)c(F)c(F)c(F)c4F)c4ccc([nH]4)c(-c4c(F)c(F)c(F)c(F)c4F)c4nc(c(-c5c(F)c(F)c(F)c(F)c5F)c5ccc2[nH]5)C=C4)C=C3)cc1
REMARK SMILES IDX 7 1 6 2 5 3 4 4 3 5 1 6 2 7 41 9 42 10 103 11 43 12 102 13
REMARK SMILES IDX 44 14 45 15 46 16 96 17 47 18 101 19 95 20 97 21 48 22
REMARK SMILES IDX 100 23 94 24 93 25 49 27 81 28 61 29 80 30 62 31 65 32 79 33
REMARK SMILES IDX 98 34 63 35 64 36 78 38 99 39 66 40 50 41 51 42 59 43 52 44
REMARK SMILES IDX 53 45 57 46 60 47 54 48 55 49 58 50 56 51 82 52 83 53 91 54
REMARK SMILES IDX 84 55 85 56 89 57 92 58 86 59 87 60 90 61 88 62 67 63 68 64
REMARK SMILES IDX 76 65 69 66 70 67 74 68 77 69 71 70 72 71 75 72 73 73 8 74
REMARK SMILES IDX 9 75 10 76 11 77 12 79 13 80 14 81 20 82 15 83 19 84 17 85
REMARK SMILES IDX 16 86 18 87 21 88 22 89 23 90 24 92 25 93 28 94 26 95 27 96
REMARK SMILES IDX 40 97 37 98 39 99 38 100 29 101 30 102 31 103 32 104 36 105
REMARK SMILES IDX 33 106 35 107 34 108
REMARK H PARENT 3 8 97 26 65 37 10 78 23 91
REMARK Flexibility Score: inf
ROOT
ATOM      1  C   UNL A   1      33.189  31.517  27.563  1.00  0.00     0.002 C 
ENDROOT
BRANCH   1   2
ATOM      2  C   UNL A   1      32.994  33.027  27.729  1.00  0.00     0.002 C 
BRANCH   2   3
ATOM      3  C   UNL A   1      33.705  33.717  28.895  1.00  0.00     0.021 C 
BRANCH   3   4
ATOM      4  C   UNL A   1      33.433  35.202  29.090  1.00  0.00     0.116 C 
BRANCH   4   5
ATOM      5  N   UNL A   1      32.601  35.499  30.242  1.00  0.00    -0.352 N 
ATOM      6  O   UNL A   1      31.934  35.504  32.394  1.00  0.00    -0.269 OA
ATOM      7  C   UNL A   1      32.814  35.247  31.576  1.00  0.00     0.251 C 
ATOM      8  H   UNL A   1      31.751  35.951  30.034  1.00  0.00     0.163 HD
BRANCH   7   9
ATOM      9  C   UNL A   1      34.078  34.629  32.036  1.00  0.00     0.039 A 
ATOM     10  C   UNL A   1      35.291  35.317  31.975  1.00  0.00     0.014 A 
ATOM     11  C   UNL A   1      34.043  33.330  32.555  1.00  0.00     0.014 A 
ATOM     12  C   UNL A   1      36.478  34.655  32.273  1.00  0.00     0.010 A 
ATOM     13  C   UNL A   1      35.229  32.696  32.941  1.00  0.00     0.010 A 
ATOM     14  C   UNL A   1      36.463  33.338  32.762  1.00  0.00    -0.014 A 
BRANCH  14  15
ATOM     15  C   UNL A   1      37.747  32.671  33.103  1.00  0.00     0.031 A 
ATOM     16  C   UNL A   1      38.445  32.945  34.407  1.00  0.00     0.074 A 
ATOM     17  C   UNL A   1      38.267  31.779  32.237  1.00  0.00     0.049 A 
ATOM     18  N   UNL A   1      39.541  32.410  34.887  1.00  0.00    -0.248 NA
ATOM     19  C   UNL A   1      37.841  33.956  35.288  1.00  0.00     0.031 C 
ATOM     20  C   UNL A   1      37.695  31.444  30.932  1.00  0.00     0.029 A 
ATOM     21  N   UNL A   1      39.375  30.975  32.330  1.00  0.00    -0.354 N 
ATOM     22  C   UNL A   1      39.770  33.034  36.107  1.00  0.00     0.074 A 
ATOM     23  C   UNL A   1      38.712  34.006  36.286  1.00  0.00     0.031 C 
ATOM     24  C   UNL A   1      38.421  30.465  30.372  1.00  0.00     0.029 A 
ATOM     25  C   UNL A   1      39.539  30.142  31.250  1.00  0.00     0.049 A 
ATOM     26  H   UNL A   1      39.992  30.993  33.097  1.00  0.00     0.167 HD
ATOM     27  C   UNL A   1      40.766  32.808  36.998  1.00  0.00     0.037 A 
ATOM     28  C   UNL A   1      40.486  29.222  30.993  1.00  0.00     0.037 A 
ATOM     29  C   UNL A   1      41.802  31.821  36.829  1.00  0.00     0.049 A 
ATOM     30  C   UNL A   1      41.578  28.994  32.001  1.00  0.00     0.074 A 
ATOM     31  C   UNL A   1      42.826  31.485  37.698  1.00  0.00     0.029 A 
ATOM     32  N   UNL A   1      41.949  31.013  35.710  1.00  0.00    -0.354 N 
ATOM     33  N   UNL A   1      41.753  29.557  33.171  1.00  0.00    -0.248 NA
ATOM     34  C   UNL A   1      42.602  28.003  31.649  1.00  0.00     0.031 C 
ATOM     35  C   UNL A   1      43.618  30.507  37.087  1.00  0.00     0.029 A 
ATOM     36  C   UNL A   1      43.059  30.195  35.858  1.00  0.00     0.049 A 
ATOM     37  H   UNL A   1      41.352  31.019  34.927  1.00  0.00     0.167 HD
ATOM     38  C   UNL A   1      42.893  28.973  33.707  1.00  0.00     0.074 A 
ATOM     39  C   UNL A   1      43.355  27.998  32.740  1.00  0.00     0.031 C 
ATOM     40  C   UNL A   1      43.502  29.225  34.891  1.00  0.00     0.037 A 
BRANCH  27  41
ATOM     41  C   UNL A   1      40.799  33.658  38.238  1.00  0.00     0.064 A 
ATOM     42  C   UNL A   1      40.059  33.328  39.382  1.00  0.00     0.173 A 
ATOM     43  C   UNL A   1      41.621  34.795  38.295  1.00  0.00     0.173 A 
ATOM     44  F   UNL A   1      39.249  32.258  39.377  1.00  0.00    -0.203 F 
ATOM     45  C   UNL A   1      40.121  34.117  40.529  1.00  0.00     0.198 A 
ATOM     46  C   UNL A   1      41.703  35.565  39.452  1.00  0.00     0.198 A 
ATOM     47  F   UNL A   1      42.357  35.152  37.232  1.00  0.00    -0.203 F 
ATOM     48  F   UNL A   1      39.371  33.806  41.595  1.00  0.00    -0.200 F 
ATOM     49  C   UNL A   1      40.947  35.231  40.565  1.00  0.00     0.200 A 
ATOM     50  F   UNL A   1      42.512  36.633  39.489  1.00  0.00    -0.200 F 
ATOM     51  F   UNL A   1      41.010  35.983  41.672  1.00  0.00    -0.200 F 
ENDBRANCH  27  41
BRANCH  28  52
ATOM     52  C   UNL A   1      40.430  28.435  29.735  1.00  0.00     0.064 A 
ATOM     53  C   UNL A   1      41.140  28.845  28.598  1.00  0.00     0.173 A 
ATOM     54  C   UNL A   1      39.677  27.256  29.644  1.00  0.00     0.173 A 
ATOM     55  F   UNL A   1      41.860  29.978  28.631  1.00  0.00    -0.203 F 
ATOM     56  C   UNL A   1      41.088  28.113  27.414  1.00  0.00     0.198 A 
ATOM     57  C   UNL A   1      39.649  26.508  28.470  1.00  0.00     0.198 A 
ATOM     58  F   UNL A   1      38.985  26.819  30.706  1.00  0.00    -0.203 F 
ATOM     59  F   UNL A   1      41.745  28.549  26.330  1.00  0.00    -0.200 F 
ATOM     60  C   UNL A   1      40.348  26.942  27.353  1.00  0.00     0.200 A 
ATOM     61  F   UNL A   1      38.948  25.368  28.421  1.00  0.00    -0.200 F 
ATOM     62  F   UNL A   1      40.305  26.233  26.217  1.00  0.00    -0.200 F 
ENDBRANCH  28  52
BRANCH  40  63
ATOM     63  C   UNL A   1      44.713  28.402  35.221  1.00  0.00     0.064 A 
ATOM     64  C   UNL A   1      46.006  28.822  34.875  1.00  0.00     0.173 A 
ATOM     65  C   UNL A   1      44.578  27.186  35.907  1.00  0.00     0.173 A 
ATOM     66  F   UNL A   1      46.186  29.969  34.204  1.00  0.00    -0.203 F 
ATOM     67  C   UNL A   1      47.117  28.037  35.175  1.00  0.00     0.198 A 
ATOM     68  C   UNL A   1      45.694  26.418  36.232  1.00  0.00     0.198 A 
ATOM     69  F   UNL A   1      43.364  26.743  36.267  1.00  0.00    -0.203 F 
ATOM     70  F   UNL A   1      48.337  28.431  34.786  1.00  0.00    -0.200 F 
ATOM     71  C   UNL A   1      46.960  26.840  35.858  1.00  0.00     0.200 A 
ATOM     72  F   UNL A   1      45.540  25.268  36.902  1.00  0.00    -0.200 F 
ATOM     73  F   UNL A   1      48.031  26.087  36.145  1.00  0.00    -0.200 F 
ENDBRANCH  40  63
ENDBRANCH  14  15
ENDBRANCH   7   9
ENDBRANCH   4   5
ENDBRANCH   3   4
ENDBRANCH   2   3
ENDBRANCH   1   2
BRANCH   1  74
ATOM     74  C   UNL A   1      32.149  30.745  26.751  1.00  0.00     0.021 C 
BRANCH  74  75
ATOM     75  C   UNL A   1      31.824  29.326  27.199  1.00  0.00     0.116 C 
BRANCH  75  76
ATOM     76  N   UNL A   1      32.879  28.363  27.030  1.00  0.00    -0.356 N 
ATOM     77  C   UNL A   1      32.988  27.291  26.203  1.00  0.00     0.224 C 
ATOM     78  H   UNL A   1      33.658  28.505  27.616  1.00  0.00     0.163 HD
ATOM     79  O   UNL A   1      34.137  26.841  26.091  1.00  0.00    -0.275 OA
BRANCH  77  80
ATOM     80  C   UNL A   1      31.841  26.578  25.451  1.00  0.00     0.094 C 
ATOM     81  C   UNL A   1      31.259  27.084  24.105  1.00  0.00     0.002 C 
ATOM     82  C   UNL A   1      32.170  25.052  25.329  1.00  0.00     0.094 C 
ATOM     83  C   UNL A   1      32.144  26.765  22.875  1.00  0.00     0.005 C 
ATOM     84  C   UNL A   1      29.942  26.305  23.874  1.00  0.00     0.005 C 
ATOM     85  C   UNL A   1      31.750  24.542  23.917  1.00  0.00     0.002 C 
ATOM     86  C   UNL A   1      32.575  25.304  22.880  1.00  0.00     0.005 C 
ATOM     87  C   UNL A   1      30.253  24.818  23.668  1.00  0.00     0.005 C 
BRANCH  82  88
ATOM     88  C   UNL A   1      31.482  24.158  26.384  1.00  0.00     0.229 C 
ATOM     89  O   UNL A   1      30.384  24.456  26.860  1.00  0.00    -0.274 OA
ATOM     90  N   UNL A   1      31.984  22.899  26.641  1.00  0.00    -0.317 N 
ATOM     91  H   UNL A   1      31.369  22.276  27.092  1.00  0.00     0.170 HD
BRANCH  90  92
ATOM     92  C   UNL A   1      33.240  22.397  26.349  1.00  0.00     0.108 A 
ATOM     93  S   UNL A   1      34.586  23.243  26.943  1.00  0.00    -0.122 S 
ATOM     94  C   UNL A   1      33.576  21.205  25.707  1.00  0.00     0.078 A 
ATOM     95  C   UNL A   1      35.648  22.264  26.076  1.00  0.00     0.011 A 
ATOM     96  C   UNL A   1      35.027  21.153  25.531  1.00  0.00    -0.019 A 
ATOM     97  C   UNL A   1      37.104  22.600  25.981  1.00  0.00     0.047 C 
ATOM     98  C   UNL A   1      35.843  20.129  24.799  1.00  0.00     0.037 C 
ATOM     99  C   UNL A   1      37.761  21.794  24.857  1.00  0.00     0.006 C 
ATOM    100  C   UNL A   1      37.360  20.323  24.947  1.00  0.00     0.005 C 
BRANCH  94 101
ATOM    101  C   UNL A   1      32.518  20.307  25.185  1.00  0.00     0.257 C 
ATOM    102  O   UNL A   1      31.373  20.711  24.979  1.00  0.00    -0.269 OA
ATOM    103  N   UNL A   1      32.897  19.023  24.791  1.00  0.00    -0.339 N 
ATOM    104  C   UNL A   1      32.471  18.602  23.462  1.00  0.00     0.120 C 
ATOM    105  C   UNL A   1      32.862  17.949  25.776  1.00  0.00     0.120 C 
ATOM    106  C   UNL A   1      33.383  17.497  22.942  1.00  0.00     0.022 C 
ATOM    107  C   UNL A   1      33.746  16.777  25.343  1.00  0.00     0.022 C 
ATOM    108  C   UNL A   1      33.440  16.319  23.916  1.00  0.00     0.004 C 
ENDBRANCH  94 101
ENDBRANCH  90  92
ENDBRANCH  82  88
ENDBRANCH  77  80
ENDBRANCH  75  76
ENDBRANCH  74  75
ENDBRANCH   1  74
TORSDOF 16
ENDMDL
