MODEL 1
REMARK VINA RESULT:     -11.1      0.000      0.000
REMARK SMILES CCC1(CC)C[NH+](C2(C(=O)NCCCCCCNC(=O)c3ccc(-c4c5nc(c(-c6c(F)c(F)c(F)c(F)c6F)c6ccc([nH]6)c(-c6c(F)c(F)c(F)c(F)c6F)c6nc(c(-c7c(F)c(F)c(F)c(F)c7F)c7ccc4[nH]7)C=C6)C=C5)cc3)CC2)C1
REMARK SMILES IDX 14 1 13 2 12 3 11 4 9 5 10 6 8 8 84 9 85 10 7 11 3 12 6 13
REMARK SMILES IDX 86 14 2 16 1 17 4 18 5 19 15 20 16 21 17 22 18 23 19 24
REMARK SMILES IDX 20 26 21 27 22 28 83 29 23 30 82 31 24 32 25 33 26 34 76 35
REMARK SMILES IDX 27 36 81 37 75 38 77 39 28 40 80 41 74 42 73 43 29 45 61 46
REMARK SMILES IDX 41 47 60 48 42 49 45 50 59 51 78 52 43 53 44 54 58 56 79 57
REMARK SMILES IDX 46 58 30 59 31 60 39 61 32 62 33 63 37 64 40 65 34 66 35 67
REMARK SMILES IDX 38 68 36 69 62 70 63 71 71 72 64 73 65 74 69 75 72 76 66 77
REMARK SMILES IDX 67 78 70 79 68 80 47 81 48 82 56 83 49 84 50 85 54 86 57 87
REMARK SMILES IDX 51 88 52 89 55 90 53 91
REMARK H PARENT 11 7 7 15 18 25 77 44 45 55
REMARK Flexibility Score: inf
ROOT
ATOM      1  C   UNL A   1      32.094  29.457  26.908  1.00  0.00     0.002 C 
ENDROOT
BRANCH   1   2
ATOM      2  C   UNL A   1      32.398  28.103  26.261  1.00  0.00     0.021 C 
BRANCH   2   3
ATOM      3  C   UNL A   1      31.165  27.223  26.060  1.00  0.00     0.116 C 
BRANCH   3   4
ATOM      4  N   UNL A   1      31.276  25.976  26.790  1.00  0.00    -0.351 N 
ATOM      5  C   UNL A   1      31.543  24.673  26.434  1.00  0.00     0.281 C 
ATOM      6  O   UNL A   1      31.502  23.857  27.358  1.00  0.00    -0.268 OA
ATOM      7  H   UNL A   1      31.128  26.085  27.757  1.00  0.00     0.163 HD
BRANCH   5   8
ATOM      8  C   UNL A   1      31.878  24.217  25.002  1.00  0.00     0.177 C 
ATOM      9  C   UNL A   1      30.807  24.293  23.923  1.00  0.00     0.086 C 
ATOM     10  C   UNL A   1      31.226  22.955  24.459  1.00  0.00     0.086 C 
BRANCH   8  11
ATOM     11  N   UNL A   1      33.300  24.549  24.668  1.00  0.00    -0.321 N 
ATOM     12  C   UNL A   1      35.081  23.648  25.453  1.00  0.00     0.068 C 
ATOM     13  C   UNL A   1      34.205  24.915  25.755  1.00  0.00     0.275 C 
ATOM     14  C   UNL A   1      34.217  23.532  24.155  1.00  0.00     0.275 C 
ATOM     15  H   UNL A   1      32.983  25.262  24.011  1.00  0.00     0.349 HD
BRANCH  12  16
ATOM     16  C   UNL A   1      36.597  23.878  25.280  1.00  0.00     0.015 C 
ATOM     17  C   UNL A   1      37.498  22.714  25.654  1.00  0.00     0.005 C 
ENDBRANCH  12  16
BRANCH  12  18
ATOM     18  C   UNL A   1      34.843  22.505  26.473  1.00  0.00     0.015 C 
ATOM     19  C   UNL A   1      34.398  21.198  25.838  1.00  0.00     0.005 C 
ENDBRANCH  12  18
ENDBRANCH   8  11
ENDBRANCH   5   8
ENDBRANCH   3   4
ENDBRANCH   2   3
ENDBRANCH   1   2
BRANCH   1  20
ATOM     20  C   UNL A   1      31.708  30.566  25.923  1.00  0.00     0.002 C 
BRANCH  20  21
ATOM     21  C   UNL A   1      31.424  31.927  26.565  1.00  0.00     0.021 C 
BRANCH  21  22
ATOM     22  C   UNL A   1      32.634  32.563  27.239  1.00  0.00     0.116 C 
BRANCH  22  23
ATOM     23  N   UNL A   1      32.412  33.970  27.524  1.00  0.00    -0.352 N 
ATOM     24  C   UNL A   1      32.984  34.760  28.489  1.00  0.00     0.251 C 
ATOM     25  H   UNL A   1      31.758  34.421  26.943  1.00  0.00     0.163 HD
ATOM     26  O   UNL A   1      32.520  35.863  28.748  1.00  0.00    -0.269 OA
BRANCH  24  27
ATOM     27  C   UNL A   1      34.161  34.261  29.231  1.00  0.00     0.039 A 
ATOM     28  C   UNL A   1      33.963  33.521  30.398  1.00  0.00     0.014 A 
ATOM     29  C   UNL A   1      35.455  34.525  28.771  1.00  0.00     0.014 A 
ATOM     30  C   UNL A   1      35.064  32.992  31.073  1.00  0.00     0.010 A 
ATOM     31  C   UNL A   1      36.545  33.935  29.402  1.00  0.00     0.010 A 
ATOM     32  C   UNL A   1      36.360  33.165  30.561  1.00  0.00    -0.014 A 
BRANCH  32  33
ATOM     33  C   UNL A   1      37.537  32.543  31.218  1.00  0.00     0.031 A 
ATOM     34  C   UNL A   1      38.259  31.407  30.551  1.00  0.00     0.074 A 
ATOM     35  C   UNL A   1      37.908  32.956  32.444  1.00  0.00     0.049 A 
ATOM     36  N   UNL A   1      39.253  30.681  30.999  1.00  0.00    -0.248 NA
ATOM     37  C   UNL A   1      37.785  31.014  29.214  1.00  0.00     0.031 C 
ATOM     38  C   UNL A   1      37.256  34.020  33.211  1.00  0.00     0.029 A 
ATOM     39  N   UNL A   1      38.915  32.522  33.270  1.00  0.00    -0.354 N 
ATOM     40  C   UNL A   1      39.511  29.742  30.010  1.00  0.00     0.074 A 
ATOM     41  C   UNL A   1      38.537  29.953  28.961  1.00  0.00     0.031 C 
ATOM     42  C   UNL A   1      37.889  34.166  34.385  1.00  0.00     0.029 A 
ATOM     43  C   UNL A   1      38.962  33.181  34.474  1.00  0.00     0.049 A 
ATOM     44  H   UNL A   1      39.543  31.805  33.023  1.00  0.00     0.167 HD
ATOM     45  C   UNL A   1      40.486  28.803  29.971  1.00  0.00     0.037 A 
ATOM     46  C   UNL A   1      39.770  33.000  35.537  1.00  0.00     0.037 A 
ATOM     47  C   UNL A   1      41.466  28.614  31.009  1.00  0.00     0.049 A 
ATOM     48  C   UNL A   1      40.834  31.938  35.474  1.00  0.00     0.074 A 
ATOM     49  C   UNL A   1      42.536  27.736  31.035  1.00  0.00     0.029 A 
ATOM     50  N   UNL A   1      41.492  29.310  32.208  1.00  0.00    -0.354 N 
ATOM     51  N   UNL A   1      41.118  31.106  34.502  1.00  0.00    -0.248 NA
ATOM     52  C   UNL A   1      41.696  31.792  36.656  1.00  0.00     0.031 C 
ATOM     53  C   UNL A   1      43.172  27.859  32.273  1.00  0.00     0.029 A 
ATOM     54  C   UNL A   1      42.539  28.858  32.996  1.00  0.00     0.049 A 
ATOM     55  H   UNL A   1      40.858  30.020  32.464  1.00  0.00     0.167 HD
ATOM     56  C   UNL A   1      42.204  30.360  34.941  1.00  0.00     0.074 A 
ATOM     57  C   UNL A   1      42.539  30.849  36.262  1.00  0.00     0.031 C 
ATOM     58  C   UNL A   1      42.863  29.360  34.306  1.00  0.00     0.037 A 
BRANCH  45  59
ATOM     59  C   UNL A   1      40.544  27.905  28.769  1.00  0.00     0.064 A 
ATOM     60  C   UNL A   1      39.818  26.706  28.707  1.00  0.00     0.173 A 
ATOM     61  C   UNL A   1      41.299  28.271  27.644  1.00  0.00     0.173 A 
ATOM     62  F   UNL A   1      39.087  26.304  29.758  1.00  0.00    -0.203 F 
ATOM     63  C   UNL A   1      39.869  25.892  27.577  1.00  0.00     0.198 A 
ATOM     64  C   UNL A   1      41.322  27.472  26.504  1.00  0.00     0.198 A 
ATOM     65  F   UNL A   1      42.008  29.410  27.646  1.00  0.00    -0.203 F 
ATOM     66  F   UNL A   1      39.207  24.728  27.562  1.00  0.00    -0.200 F 
ATOM     67  C   UNL A   1      40.614  26.280  26.474  1.00  0.00     0.200 A 
ATOM     68  F   UNL A   1      42.030  27.857  25.432  1.00  0.00    -0.200 F 
ATOM     69  F   UNL A   1      40.654  25.503  25.384  1.00  0.00    -0.200 F 
ENDBRANCH  45  59
BRANCH  46  70
ATOM     70  C   UNL A   1      39.610  33.850  36.746  1.00  0.00     0.064 A 
ATOM     71  C   UNL A   1      38.810  33.433  37.820  1.00  0.00     0.173 A 
ATOM     72  C   UNL A   1      40.246  35.096  36.853  1.00  0.00     0.173 A 
ATOM     73  F   UNL A   1      38.166  32.259  37.757  1.00  0.00    -0.203 F 
ATOM     74  C   UNL A   1      38.631  34.241  38.942  1.00  0.00     0.198 A 
ATOM     75  C   UNL A   1      40.093  35.887  37.989  1.00  0.00     0.198 A 
ATOM     76  F   UNL A   1      41.029  35.538  35.858  1.00  0.00    -0.203 F 
ATOM     77  F   UNL A   1      37.819  33.840  39.929  1.00  0.00    -0.200 F 
ATOM     78  C   UNL A   1      39.277  35.465  39.028  1.00  0.00     0.200 A 
ATOM     79  F   UNL A   1      40.732  37.062  38.075  1.00  0.00    -0.200 F 
ATOM     80  F   UNL A   1      39.107  36.239  40.107  1.00  0.00    -0.200 F 
ENDBRANCH  46  70
BRANCH  58  81
ATOM     81  C   UNL A   1      44.037  28.748  35.016  1.00  0.00     0.064 A 
ATOM     82  C   UNL A   1      45.315  29.325  34.961  1.00  0.00     0.173 A 
ATOM     83  C   UNL A   1      43.869  27.599  35.804  1.00  0.00     0.173 A 
ATOM     84  F   UNL A   1      45.533  30.415  34.210  1.00  0.00    -0.203 F 
ATOM     85  C   UNL A   1      46.386  28.758  35.648  1.00  0.00     0.198 A 
ATOM     86  C   UNL A   1      44.934  27.055  36.516  1.00  0.00     0.198 A 
ATOM     87  F   UNL A   1      42.666  27.013  35.896  1.00  0.00    -0.203 F 
ATOM     88  F   UNL A   1      47.608  29.298  35.542  1.00  0.00    -0.200 F 
ATOM     89  C   UNL A   1      46.193  27.630  36.432  1.00  0.00     0.200 A 
ATOM     90  F   UNL A   1      44.741  25.975  37.286  1.00  0.00    -0.200 F 
ATOM     91  F   UNL A   1      47.221  27.095  37.102  1.00  0.00    -0.200 F 
ENDBRANCH  58  81
ENDBRANCH  32  33
ENDBRANCH  24  27
ENDBRANCH  22  23
ENDBRANCH  21  22
ENDBRANCH  20  21
ENDBRANCH   1  20
TORSDOF 16
ENDMDL
MODEL 2
REMARK VINA RESULT:     -11.0      5.711     11.163
REMARK SMILES CCC1(CC)C[NH+](C2(C(=O)NCCCCCCNC(=O)c3ccc(-c4c5nc(c(-c6c(F)c(F)c(F)c(F)c6F)c6ccc([nH]6)c(-c6c(F)c(F)c(F)c(F)c6F)c6nc(c(-c7c(F)c(F)c(F)c(F)c7F)c7ccc4[nH]7)C=C6)C=C5)cc3)CC2)C1
REMARK SMILES IDX 14 1 13 2 12 3 11 4 9 5 10 6 8 8 84 9 85 10 7 11 3 12 6 13
REMARK SMILES IDX 86 14 2 16 1 17 4 18 5 19 15 20 16 21 17 22 18 23 19 24
REMARK SMILES IDX 20 26 21 27 22 28 83 29 23 30 82 31 24 32 25 33 26 34 76 35
REMARK SMILES IDX 27 36 81 37 75 38 77 39 28 40 80 41 74 42 73 43 29 45 61 46
REMARK SMILES IDX 41 47 60 48 42 49 45 50 59 51 78 52 43 53 44 54 58 56 79 57
REMARK SMILES IDX 46 58 30 59 31 60 39 61 32 62 33 63 37 64 40 65 34 66 35 67
REMARK SMILES IDX 38 68 36 69 62 70 63 71 71 72 64 73 65 74 69 75 72 76 66 77
REMARK SMILES IDX 67 78 70 79 68 80 47 81 48 82 56 83 49 84 50 85 54 86 57 87
REMARK SMILES IDX 51 88 52 89 55 90 53 91
REMARK H PARENT 11 7 7 15 18 25 77 44 45 55
REMARK Flexibility Score: inf
ROOT
ATOM      1  C   UNL A   1      36.968  21.910  24.354  1.00  0.00     0.002 C 
ENDROOT
BRANCH   1   2
ATOM      2  C   UNL A   1      36.922  23.082  25.338  1.00  0.00     0.021 C 
BRANCH   2   3
ATOM      3  C   UNL A   1      35.515  23.624  25.587  1.00  0.00     0.116 C 
BRANCH   3   4
ATOM      4  N   UNL A   1      34.867  22.936  26.686  1.00  0.00    -0.351 N 
ATOM      5  C   UNL A   1      33.693  22.229  26.821  1.00  0.00     0.281 C 
ATOM      6  O   UNL A   1      33.452  21.824  27.961  1.00  0.00    -0.268 OA
ATOM      7  H   UNL A   1      35.381  22.986  27.524  1.00  0.00     0.163 HD
BRANCH   5   8
ATOM      8  C   UNL A   1      32.721  21.936  25.664  1.00  0.00     0.177 C 
ATOM      9  C   UNL A   1      32.586  20.512  25.142  1.00  0.00     0.086 C 
ATOM     10  C   UNL A   1      33.286  21.545  24.307  1.00  0.00     0.086 C 
BRANCH   8  11
ATOM     11  N   UNL A   1      31.510  22.812  25.766  1.00  0.00    -0.321 N 
ATOM     12  C   UNL A   1      31.369  24.914  25.365  1.00  0.00     0.068 C 
ATOM     13  C   UNL A   1      31.574  23.994  26.621  1.00  0.00     0.275 C 
ATOM     14  C   UNL A   1      31.032  23.582  24.618  1.00  0.00     0.275 C 
ATOM     15  H   UNL A   1      30.949  22.009  26.052  1.00  0.00     0.349 HD
BRANCH  12  16
ATOM     16  C   UNL A   1      30.257  25.979  25.459  1.00  0.00     0.015 C 
ATOM     17  C   UNL A   1      30.101  26.893  24.256  1.00  0.00     0.005 C 
ENDBRANCH  12  16
BRANCH  12  18
ATOM     18  C   UNL A   1      32.688  25.582  24.897  1.00  0.00     0.015 C 
ATOM     19  C   UNL A   1      33.274  26.558  25.905  1.00  0.00     0.005 C 
ENDBRANCH  12  18
ENDBRANCH   8  11
ENDBRANCH   5   8
ENDBRANCH   3   4
ENDBRANCH   2   3
ENDBRANCH   1   2
BRANCH   1  20
ATOM     20  C   UNL A   1      36.855  20.525  25.000  1.00  0.00     0.002 C 
BRANCH  20  21
ATOM     21  C   UNL A   1      38.114  19.660  24.892  1.00  0.00     0.021 C 
BRANCH  21  22
ATOM     22  C   UNL A   1      39.272  20.133  25.761  1.00  0.00     0.116 C 
BRANCH  22  23
ATOM     23  N   UNL A   1      40.261  19.085  25.956  1.00  0.00    -0.352 N 
ATOM     24  C   UNL A   1      41.615  19.196  26.141  1.00  0.00     0.251 C 
ATOM     25  H   UNL A   1      39.908  18.167  25.954  1.00  0.00     0.163 HD
ATOM     26  O   UNL A   1      42.338  18.211  26.058  1.00  0.00    -0.269 OA
BRANCH  24  27
ATOM     27  C   UNL A   1      42.203  20.521  26.428  1.00  0.00     0.039 A 
ATOM     28  C   UNL A   1      42.671  21.298  25.367  1.00  0.00     0.014 A 
ATOM     29  C   UNL A   1      42.288  20.991  27.742  1.00  0.00     0.014 A 
ATOM     30  C   UNL A   1      43.172  22.577  25.619  1.00  0.00     0.010 A 
ATOM     31  C   UNL A   1      42.717  22.292  27.982  1.00  0.00     0.010 A 
ATOM     32  C   UNL A   1      43.165  23.097  26.924  1.00  0.00    -0.014 A 
BRANCH  32  33
ATOM     33  C   UNL A   1      43.617  24.483  27.202  1.00  0.00     0.031 A 
ATOM     34  C   UNL A   1      42.641  25.505  27.713  1.00  0.00     0.074 A 
ATOM     35  C   UNL A   1      44.887  24.835  26.927  1.00  0.00     0.049 A 
ATOM     36  N   UNL A   1      42.822  26.783  27.937  1.00  0.00    -0.248 NA
ATOM     37  C   UNL A   1      41.272  25.038  27.981  1.00  0.00     0.031 C 
ATOM     38  C   UNL A   1      45.913  23.943  26.386  1.00  0.00     0.029 A 
ATOM     39  N   UNL A   1      45.529  26.042  27.050  1.00  0.00    -0.354 N 
ATOM     40  C   UNL A   1      41.592  27.270  28.357  1.00  0.00     0.074 A 
ATOM     41  C   UNL A   1      40.658  26.167  28.305  1.00  0.00     0.031 C 
ATOM     42  C   UNL A   1      47.058  24.627  26.240  1.00  0.00     0.029 A 
ATOM     43  C   UNL A   1      46.838  26.014  26.635  1.00  0.00     0.049 A 
ATOM     44  H   UNL A   1      45.092  26.852  27.402  1.00  0.00     0.167 HD
ATOM     45  C   UNL A   1      41.276  28.521  28.768  1.00  0.00     0.037 A 
ATOM     46  C   UNL A   1      47.752  27.001  26.566  1.00  0.00     0.037 A 
ATOM     47  C   UNL A   1      42.217  29.610  28.838  1.00  0.00     0.049 A 
ATOM     48  C   UNL A   1      47.370  28.386  27.014  1.00  0.00     0.074 A 
ATOM     49  C   UNL A   1      42.012  30.897  29.305  1.00  0.00     0.029 A 
ATOM     50  N   UNL A   1      43.538  29.540  28.422  1.00  0.00    -0.354 N 
ATOM     51  N   UNL A   1      46.224  28.818  27.480  1.00  0.00    -0.248 NA
ATOM     52  C   UNL A   1      48.410  29.421  26.929  1.00  0.00     0.031 C 
ATOM     53  C   UNL A   1      43.192  31.622  29.116  1.00  0.00     0.029 A 
ATOM     54  C   UNL A   1      44.152  30.771  28.592  1.00  0.00     0.049 A 
ATOM     55  H   UNL A   1      43.975  28.735  28.060  1.00  0.00     0.167 HD
ATOM     56  C   UNL A   1      46.413  30.163  27.772  1.00  0.00     0.074 A 
ATOM     57  C   UNL A   1      47.789  30.471  27.443  1.00  0.00     0.031 C 
ATOM     58  C   UNL A   1      45.525  31.061  28.266  1.00  0.00     0.037 A 
BRANCH  45  59
ATOM     59  C   UNL A   1      39.855  28.785  29.175  1.00  0.00     0.064 A 
ATOM     60  C   UNL A   1      38.890  29.218  28.252  1.00  0.00     0.173 A 
ATOM     61  C   UNL A   1      39.440  28.557  30.496  1.00  0.00     0.173 A 
ATOM     62  F   UNL A   1      39.236  29.460  26.978  1.00  0.00    -0.203 F 
ATOM     63  C   UNL A   1      37.572  29.441  28.642  1.00  0.00     0.198 A 
ATOM     64  C   UNL A   1      38.114  28.749  30.875  1.00  0.00     0.198 A 
ATOM     65  F   UNL A   1      40.318  28.136  31.418  1.00  0.00    -0.203 F 
ATOM     66  F   UNL A   1      36.682  29.902  27.754  1.00  0.00    -0.200 F 
ATOM     67  C   UNL A   1      37.183  29.199  29.951  1.00  0.00     0.200 A 
ATOM     68  F   UNL A   1      37.736  28.500  32.137  1.00  0.00    -0.200 F 
ATOM     69  F   UNL A   1      35.913  29.403  30.323  1.00  0.00    -0.200 F 
ENDBRANCH  45  59
BRANCH  46  70
ATOM     70  C   UNL A   1      49.121  26.713  26.062  1.00  0.00     0.064 A 
ATOM     71  C   UNL A   1      49.471  26.982  24.731  1.00  0.00     0.173 A 
ATOM     72  C   UNL A   1      50.104  26.157  26.895  1.00  0.00     0.173 A 
ATOM     73  F   UNL A   1      48.561  27.495  23.891  1.00  0.00    -0.203 F 
ATOM     74  C   UNL A   1      50.743  26.683  24.246  1.00  0.00     0.198 A 
ATOM     75  C   UNL A   1      51.385  25.889  26.417  1.00  0.00     0.198 A 
ATOM     76  F   UNL A   1      49.823  25.887  28.178  1.00  0.00    -0.203 F 
ATOM     77  F   UNL A   1      51.034  26.903  22.957  1.00  0.00    -0.200 F 
ATOM     78  C   UNL A   1      51.701  26.142  25.091  1.00  0.00     0.200 A 
ATOM     79  F   UNL A   1      52.312  25.381  27.240  1.00  0.00    -0.200 F 
ATOM     80  F   UNL A   1      52.924  25.857  24.625  1.00  0.00    -0.200 F 
ENDBRANCH  46  70
BRANCH  58  81
ATOM     81  C   UNL A   1      46.022  32.456  28.516  1.00  0.00     0.064 A 
ATOM     82  C   UNL A   1      45.921  33.461  27.542  1.00  0.00     0.173 A 
ATOM     83  C   UNL A   1      46.559  32.804  29.765  1.00  0.00     0.173 A 
ATOM     84  F   UNL A   1      45.429  33.177  26.327  1.00  0.00    -0.203 F 
ATOM     85  C   UNL A   1      46.362  34.756  27.801  1.00  0.00     0.198 A 
ATOM     86  C   UNL A   1      46.968  34.107  30.032  1.00  0.00     0.198 A 
ATOM     87  F   UNL A   1      46.671  31.883  30.733  1.00  0.00    -0.203 F 
ATOM     88  F   UNL A   1      46.300  35.687  26.840  1.00  0.00    -0.200 F 
ATOM     89  C   UNL A   1      46.876  35.080  29.048  1.00  0.00     0.200 A 
ATOM     90  F   UNL A   1      47.448  34.422  31.243  1.00  0.00    -0.200 F 
ATOM     91  F   UNL A   1      47.287  36.330  29.300  1.00  0.00    -0.200 F 
ENDBRANCH  58  81
ENDBRANCH  32  33
ENDBRANCH  24  27
ENDBRANCH  22  23
ENDBRANCH  21  22
ENDBRANCH  20  21
ENDBRANCH   1  20
TORSDOF 16
ENDMDL
MODEL 3
REMARK VINA RESULT:     -11.0      1.181      2.210
REMARK SMILES CCC1(CC)C[NH+](C2(C(=O)NCCCCCCNC(=O)c3ccc(-c4c5nc(c(-c6c(F)c(F)c(F)c(F)c6F)c6ccc([nH]6)c(-c6c(F)c(F)c(F)c(F)c6F)c6nc(c(-c7c(F)c(F)c(F)c(F)c7F)c7ccc4[nH]7)C=C6)C=C5)cc3)CC2)C1
REMARK SMILES IDX 14 1 13 2 12 3 11 4 9 5 10 6 8 8 84 9 85 10 7 11 3 12 6 13
REMARK SMILES IDX 86 14 2 16 1 17 4 18 5 19 15 20 16 21 17 22 18 23 19 24
REMARK SMILES IDX 20 26 21 27 22 28 83 29 23 30 82 31 24 32 25 33 26 34 76 35
REMARK SMILES IDX 27 36 81 37 75 38 77 39 28 40 80 41 74 42 73 43 29 45 61 46
REMARK SMILES IDX 41 47 60 48 42 49 45 50 59 51 78 52 43 53 44 54 58 56 79 57
REMARK SMILES IDX 46 58 30 59 31 60 39 61 32 62 33 63 37 64 40 65 34 66 35 67
REMARK SMILES IDX 38 68 36 69 62 70 63 71 71 72 64 73 65 74 69 75 72 76 66 77
REMARK SMILES IDX 67 78 70 79 68 80 47 81 48 82 56 83 49 84 50 85 54 86 57 87
REMARK SMILES IDX 51 88 52 89 55 90 53 91
REMARK H PARENT 11 7 7 15 18 25 77 44 45 55
REMARK Flexibility Score: inf
ROOT
ATOM      1  C   UNL A   1      32.663  30.033  27.198  1.00  0.00     0.002 C 
ENDROOT
BRANCH   1   2
ATOM      2  C   UNL A   1      32.638  28.502  27.176  1.00  0.00     0.021 C 
BRANCH   2   3
ATOM      3  C   UNL A   1      33.655  27.881  26.219  1.00  0.00     0.116 C 
BRANCH   3   4
ATOM      4  N   UNL A   1      33.535  28.432  24.884  1.00  0.00    -0.351 N 
ATOM      5  C   UNL A   1      32.767  28.128  23.783  1.00  0.00     0.281 C 
ATOM      6  O   UNL A   1      32.991  28.813  22.781  1.00  0.00    -0.268 OA
ATOM      7  H   UNL A   1      34.138  29.194  24.730  1.00  0.00     0.163 HD
BRANCH   5   8
ATOM      8  C   UNL A   1      31.692  27.027  23.753  1.00  0.00     0.177 C 
ATOM      9  C   UNL A   1      30.223  27.416  23.670  1.00  0.00     0.086 C 
ATOM     10  C   UNL A   1      30.772  26.863  24.952  1.00  0.00     0.086 C 
BRANCH   8  11
ATOM     11  N   UNL A   1      32.191  25.831  23.002  1.00  0.00    -0.321 N 
ATOM     12  C   UNL A   1      33.763  24.485  23.565  1.00  0.00     0.068 C 
ATOM     13  C   UNL A   1      33.610  25.762  22.664  1.00  0.00     0.275 C 
ATOM     14  C   UNL A   1      32.200  24.501  23.611  1.00  0.00     0.275 C 
ATOM     15  H   UNL A   1      31.503  26.000  22.268  1.00  0.00     0.349 HD
BRANCH  12  16
ATOM     16  C   UNL A   1      34.444  23.259  22.921  1.00  0.00     0.015 C 
ATOM     17  C   UNL A   1      35.846  22.939  23.409  1.00  0.00     0.005 C 
ENDBRANCH  12  16
BRANCH  12  18
ATOM     18  C   UNL A   1      34.437  24.797  24.926  1.00  0.00     0.015 C 
ATOM     19  C   UNL A   1      33.740  24.160  26.117  1.00  0.00     0.005 C 
ENDBRANCH  12  18
ENDBRANCH   8  11
ENDBRANCH   5   8
ENDBRANCH   3   4
ENDBRANCH   2   3
ENDBRANCH   1   2
BRANCH   1  20
ATOM     20  C   UNL A   1      31.494  30.704  26.471  1.00  0.00     0.002 C 
BRANCH  20  21
ATOM     21  C   UNL A   1      31.441  32.228  26.607  1.00  0.00     0.021 C 
BRANCH  21  22
ATOM     22  C   UNL A   1      32.623  32.829  27.358  1.00  0.00     0.116 C 
BRANCH  22  23
ATOM     23  N   UNL A   1      32.416  34.239  27.645  1.00  0.00    -0.352 N 
ATOM     24  C   UNL A   1      32.999  35.021  28.609  1.00  0.00     0.251 C 
ATOM     25  H   UNL A   1      31.766  34.697  27.066  1.00  0.00     0.163 HD
ATOM     26  O   UNL A   1      32.547  36.129  28.871  1.00  0.00    -0.269 OA
BRANCH  24  27
ATOM     27  C   UNL A   1      34.172  34.509  29.348  1.00  0.00     0.039 A 
ATOM     28  C   UNL A   1      33.983  33.931  30.604  1.00  0.00     0.014 A 
ATOM     29  C   UNL A   1      35.454  34.601  28.796  1.00  0.00     0.014 A 
ATOM     30  C   UNL A   1      35.075  33.388  31.284  1.00  0.00     0.010 A 
ATOM     31  C   UNL A   1      36.527  33.994  29.441  1.00  0.00     0.010 A 
ATOM     32  C   UNL A   1      36.348  33.384  30.692  1.00  0.00    -0.014 A 
BRANCH  32  33
ATOM     33  C   UNL A   1      37.506  32.740  31.361  1.00  0.00     0.031 A 
ATOM     34  C   UNL A   1      38.214  31.591  30.702  1.00  0.00     0.074 A 
ATOM     35  C   UNL A   1      37.871  33.147  32.592  1.00  0.00     0.049 A 
ATOM     36  N   UNL A   1      39.189  30.847  31.161  1.00  0.00    -0.248 NA
ATOM     37  C   UNL A   1      37.747  31.207  29.360  1.00  0.00     0.031 C 
ATOM     38  C   UNL A   1      37.231  34.222  33.351  1.00  0.00     0.029 A 
ATOM     39  N   UNL A   1      38.861  32.694  33.428  1.00  0.00    -0.354 N 
ATOM     40  C   UNL A   1      39.440  29.903  30.174  1.00  0.00     0.074 A 
ATOM     41  C   UNL A   1      38.482  30.132  29.115  1.00  0.00     0.031 C 
ATOM     42  C   UNL A   1      37.854  34.357  34.532  1.00  0.00     0.029 A 
ATOM     43  C   UNL A   1      38.907  33.352  34.633  1.00  0.00     0.049 A 
ATOM     44  H   UNL A   1      39.478  31.965  33.188  1.00  0.00     0.167 HD
ATOM     45  C   UNL A   1      40.399  28.947  30.146  1.00  0.00     0.037 A 
ATOM     46  C   UNL A   1      39.700  33.156  35.704  1.00  0.00     0.037 A 
ATOM     47  C   UNL A   1      41.364  28.739  31.194  1.00  0.00     0.049 A 
ATOM     48  C   UNL A   1      40.746  32.074  35.652  1.00  0.00     0.074 A 
ATOM     49  C   UNL A   1      42.417  27.842  31.231  1.00  0.00     0.029 A 
ATOM     50  N   UNL A   1      41.389  29.435  32.394  1.00  0.00    -0.354 N 
ATOM     51  N   UNL A   1      41.024  31.237  34.683  1.00  0.00    -0.248 NA
ATOM     52  C   UNL A   1      41.591  31.913  36.843  1.00  0.00     0.031 C 
ATOM     53  C   UNL A   1      43.042  27.952  32.476  1.00  0.00     0.029 A 
ATOM     54  C   UNL A   1      42.420  28.963  33.192  1.00  0.00     0.049 A 
ATOM     55  H   UNL A   1      40.766  30.156  32.642  1.00  0.00     0.167 HD
ATOM     56  C   UNL A   1      42.092  30.472  35.134  1.00  0.00     0.074 A 
ATOM     57  C   UNL A   1      42.421  30.954  36.458  1.00  0.00     0.031 C 
ATOM     58  C   UNL A   1      42.739  29.459  34.506  1.00  0.00     0.037 A 
BRANCH  45  59
ATOM     59  C   UNL A   1      40.452  28.047  28.944  1.00  0.00     0.064 A 
ATOM     60  C   UNL A   1      39.747  26.835  28.896  1.00  0.00     0.173 A 
ATOM     61  C   UNL A   1      41.183  28.425  27.806  1.00  0.00     0.173 A 
ATOM     62  F   UNL A   1      39.040  26.423  29.959  1.00  0.00    -0.203 F 
ATOM     63  C   UNL A   1      39.794  26.021  27.767  1.00  0.00     0.198 A 
ATOM     64  C   UNL A   1      41.201  27.625  26.667  1.00  0.00     0.198 A 
ATOM     65  F   UNL A   1      41.871  29.576  27.795  1.00  0.00    -0.203 F 
ATOM     66  F   UNL A   1      39.153  24.845  27.763  1.00  0.00    -0.200 F 
ATOM     67  C   UNL A   1      40.514  26.420  26.651  1.00  0.00     0.200 A 
ATOM     68  F   UNL A   1      41.885  28.019  25.584  1.00  0.00    -0.200 F 
ATOM     69  F   UNL A   1      40.549  25.642  25.561  1.00  0.00    -0.200 F 
ENDBRANCH  45  59
BRANCH  46  70
ATOM     70  C   UNL A   1      39.543  34.008  36.912  1.00  0.00     0.064 A 
ATOM     71  C   UNL A   1      40.168  35.261  36.998  1.00  0.00     0.173 A 
ATOM     72  C   UNL A   1      38.774  33.587  38.007  1.00  0.00     0.173 A 
ATOM     73  F   UNL A   1      40.929  35.699  35.985  1.00  0.00    -0.203 F 
ATOM     74  C   UNL A   1      40.050  36.048  38.142  1.00  0.00     0.198 A 
ATOM     75  C   UNL A   1      38.631  34.389  39.137  1.00  0.00     0.198 A 
ATOM     76  F   UNL A   1      38.150  32.400  37.974  1.00  0.00    -0.203 F 
ATOM     77  F   UNL A   1      40.699  37.217  38.217  1.00  0.00    -0.200 F 
ATOM     78  C   UNL A   1      39.277  35.614  39.208  1.00  0.00     0.200 A 
ATOM     79  F   UNL A   1      37.870  33.974  40.159  1.00  0.00    -0.200 F 
ATOM     80  F   UNL A   1      39.161  36.372  40.307  1.00  0.00    -0.200 F 
ENDBRANCH  46  70
BRANCH  58  81
ATOM     81  C   UNL A   1      43.894  28.826  35.228  1.00  0.00     0.064 A 
ATOM     82  C   UNL A   1      43.725  27.697  36.044  1.00  0.00     0.173 A 
ATOM     83  C   UNL A   1      45.195  29.326  35.060  1.00  0.00     0.173 A 
ATOM     84  F   UNL A   1      42.500  27.190  36.249  1.00  0.00    -0.203 F 
ATOM     85  C   UNL A   1      44.812  27.108  36.684  1.00  0.00     0.198 A 
ATOM     86  C   UNL A   1      46.283  28.714  35.675  1.00  0.00     0.198 A 
ATOM     87  F   UNL A   1      45.412  30.399  34.285  1.00  0.00    -0.203 F 
ATOM     88  F   UNL A   1      44.620  26.059  37.496  1.00  0.00    -0.200 F 
ATOM     89  C   UNL A   1      46.090  27.610  36.492  1.00  0.00     0.200 A 
ATOM     90  F   UNL A   1      47.520  29.191  35.474  1.00  0.00    -0.200 F 
ATOM     91  F   UNL A   1      47.136  27.034  37.098  1.00  0.00    -0.200 F 
ENDBRANCH  58  81
ENDBRANCH  32  33
ENDBRANCH  24  27
ENDBRANCH  22  23
ENDBRANCH  21  22
ENDBRANCH  20  21
ENDBRANCH   1  20
TORSDOF 16
ENDMDL
