MODEL 1
REMARK VINA RESULT:     -12.4      0.000      0.000
REMARK SMILES O=C(NCCCCCCNC(=O)c1ccc(CNC(=O)c2cccnc2)o1)c1ccc(-c2c3nc(c(-c4c(F)c(F)c(F)c(F)c4F)c4ccc([nH]4)c(-c4c(F)c(F)c(F)c(F)c4F)c4nc(c(-c5c(F)c(F)c(F)c(F)c5F)c5ccc2[nH]5)C=C4)C=C3)cc1
REMARK SMILES IDX 7 1 6 2 5 3 4 4 3 5 1 6 2 7 28 9 29 10 90 11 30 12 89 13
REMARK SMILES IDX 31 14 32 15 33 16 83 17 34 18 88 19 82 20 84 21 35 22 87 23
REMARK SMILES IDX 81 24 80 25 36 27 68 28 48 29 67 30 49 31 52 32 66 33 85 34
REMARK SMILES IDX 50 35 51 36 65 38 86 39 53 40 37 41 38 42 46 43 39 44 40 45
REMARK SMILES IDX 44 46 47 47 41 48 42 49 45 50 43 51 69 52 70 53 78 54 71 55
REMARK SMILES IDX 72 56 76 57 79 58 73 59 74 60 77 61 75 62 54 63 55 64 63 65
REMARK SMILES IDX 56 66 57 67 61 68 64 69 58 70 59 71 62 72 60 73 8 74 9 75
REMARK SMILES IDX 10 76 11 77 12 79 13 80 14 81 27 82 15 83 16 84 17 85 18 86
REMARK SMILES IDX 19 87 20 89 21 90 22 91 26 92 23 93 25 94 24 95
REMARK H PARENT 3 8 84 26 52 37 10 78 18 88
REMARK Flexibility Score: inf
ROOT
ATOM      1  C   UNL A   1      32.962  30.099  27.079  1.00  0.00     0.002 C 
ENDROOT
BRANCH   1   2
ATOM      2  C   UNL A   1      31.681  30.709  26.502  1.00  0.00     0.002 C 
BRANCH   2   3
ATOM      3  C   UNL A   1      31.503  32.211  26.734  1.00  0.00     0.021 C 
BRANCH   3   4
ATOM      4  C   UNL A   1      32.754  32.944  27.202  1.00  0.00     0.116 C 
BRANCH   4   5
ATOM      5  N   UNL A   1      32.473  34.297  27.643  1.00  0.00    -0.352 N 
ATOM      6  O   UNL A   1      32.561  36.081  29.021  1.00  0.00    -0.269 OA
ATOM      7  C   UNL A   1      33.028  34.998  28.684  1.00  0.00     0.251 C 
ATOM      8  H   UNL A   1      31.789  34.780  27.124  1.00  0.00     0.163 HD
BRANCH   7   9
ATOM      9  C   UNL A   1      34.188  34.440  29.414  1.00  0.00     0.039 A 
ATOM     10  C   UNL A   1      34.019  33.789  30.641  1.00  0.00     0.014 A 
ATOM     11  C   UNL A   1      35.457  34.527  28.835  1.00  0.00     0.014 A 
ATOM     12  C   UNL A   1      35.129  33.302  31.326  1.00  0.00     0.010 A 
ATOM     13  C   UNL A   1      36.562  33.979  29.492  1.00  0.00     0.010 A 
ATOM     14  C   UNL A   1      36.405  33.367  30.744  1.00  0.00    -0.014 A 
BRANCH  14  15
ATOM     15  C   UNL A   1      37.541  32.674  31.400  1.00  0.00     0.031 A 
ATOM     16  C   UNL A   1      38.243  31.523  30.742  1.00  0.00     0.074 A 
ATOM     17  C   UNL A   1      37.922  33.099  32.621  1.00  0.00     0.049 A 
ATOM     18  N   UNL A   1      39.241  30.805  31.192  1.00  0.00    -0.248 NA
ATOM     19  C   UNL A   1      37.763  31.118  29.412  1.00  0.00     0.031 C 
ATOM     20  C   UNL A   1      37.288  34.189  33.366  1.00  0.00     0.029 A 
ATOM     21  N   UNL A   1      38.924  32.669  33.452  1.00  0.00    -0.354 N 
ATOM     22  C   UNL A   1      39.499  29.855  30.213  1.00  0.00     0.074 A 
ATOM     23  C   UNL A   1      38.544  30.077  29.148  1.00  0.00     0.031 C 
ATOM     24  C   UNL A   1      37.926  34.356  34.532  1.00  0.00     0.029 A 
ATOM     25  C   UNL A   1      38.978  33.352  34.642  1.00  0.00     0.049 A 
ATOM     26  H   UNL A   1      39.545  31.941  33.218  1.00  0.00     0.167 HD
ATOM     27  C   UNL A   1      40.451  28.892  30.211  1.00  0.00     0.037 A 
ATOM     28  C   UNL A   1      39.768  33.173  35.716  1.00  0.00     0.037 A 
ATOM     29  C   UNL A   1      41.414  28.697  31.266  1.00  0.00     0.049 A 
ATOM     30  C   UNL A   1      40.800  32.083  35.687  1.00  0.00     0.074 A 
ATOM     31  C   UNL A   1      42.475  27.809  31.310  1.00  0.00     0.029 A 
ATOM     32  N   UNL A   1      41.422  29.390  32.467  1.00  0.00    -0.354 N 
ATOM     33  N   UNL A   1      41.082  31.240  34.723  1.00  0.00    -0.248 NA
ATOM     34  C   UNL A   1      41.616  31.911  36.895  1.00  0.00     0.031 C 
ATOM     35  C   UNL A   1      43.095  27.930  32.558  1.00  0.00     0.029 A 
ATOM     36  C   UNL A   1      42.446  28.922  33.276  1.00  0.00     0.049 A 
ATOM     37  H   UNL A   1      40.795  30.109  32.709  1.00  0.00     0.167 HD
ATOM     38  C   UNL A   1      42.106  30.441  35.206  1.00  0.00     0.074 A 
ATOM     39  C   UNL A   1      42.419  30.919  36.537  1.00  0.00     0.031 C 
ATOM     40  C   UNL A   1      42.729  29.399  34.603  1.00  0.00     0.037 A 
BRANCH  27  41
ATOM     41  C   UNL A   1      40.512  27.959  29.040  1.00  0.00     0.064 A 
ATOM     42  C   UNL A   1      39.723  26.802  28.978  1.00  0.00     0.173 A 
ATOM     43  C   UNL A   1      41.295  28.283  27.920  1.00  0.00     0.173 A 
ATOM     44  F   UNL A   1      38.962  26.448  30.025  1.00  0.00    -0.203 F 
ATOM     45  C   UNL A   1      39.718  26.000  27.839  1.00  0.00     0.198 A 
ATOM     46  C   UNL A   1      41.272  27.489  26.777  1.00  0.00     0.198 A 
ATOM     47  F   UNL A   1      42.062  29.384  27.927  1.00  0.00    -0.203 F 
ATOM     48  F   UNL A   1      38.967  24.891  27.807  1.00  0.00    -0.200 F 
ATOM     49  C   UNL A   1      40.484  26.350  26.736  1.00  0.00     0.200 A 
ATOM     50  F   UNL A   1      42.005  27.834  25.708  1.00  0.00    -0.200 F 
ATOM     51  F   UNL A   1      40.462  25.586  25.635  1.00  0.00    -0.200 F 
ENDBRANCH  27  41
BRANCH  28  52
ATOM     52  C   UNL A   1      39.589  34.027  36.916  1.00  0.00     0.064 A 
ATOM     53  C   UNL A   1      40.199  35.285  37.008  1.00  0.00     0.173 A 
ATOM     54  C   UNL A   1      38.801  33.601  37.997  1.00  0.00     0.173 A 
ATOM     55  F   UNL A   1      40.978  35.726  36.009  1.00  0.00    -0.203 F 
ATOM     56  C   UNL A   1      40.042  36.077  38.143  1.00  0.00     0.198 A 
ATOM     57  C   UNL A   1      38.621  34.407  39.117  1.00  0.00     0.198 A 
ATOM     58  F   UNL A   1      38.193  32.407  37.955  1.00  0.00    -0.203 F 
ATOM     59  F   UNL A   1      40.671  37.257  38.224  1.00  0.00    -0.200 F 
ATOM     60  C   UNL A   1      39.249  35.640  39.193  1.00  0.00     0.200 A 
ATOM     61  F   UNL A   1      37.842  33.987  40.123  1.00  0.00    -0.200 F 
ATOM     62  F   UNL A   1      39.095  36.407  40.282  1.00  0.00    -0.200 F 
ENDBRANCH  28  52
BRANCH  40  63
ATOM     63  C   UNL A   1      43.799  28.705  35.388  1.00  0.00     0.064 A 
ATOM     64  C   UNL A   1      43.496  27.635  36.244  1.00  0.00     0.173 A 
ATOM     65  C   UNL A   1      45.141  29.095  35.269  1.00  0.00     0.173 A 
ATOM     66  F   UNL A   1      42.223  27.241  36.404  1.00  0.00    -0.203 F 
ATOM     67  C   UNL A   1      44.496  26.995  36.968  1.00  0.00     0.198 A 
ATOM     68  C   UNL A   1      46.142  28.435  35.976  1.00  0.00     0.198 A 
ATOM     69  F   UNL A   1      45.482  30.111  34.463  1.00  0.00    -0.203 F 
ATOM     70  F   UNL A   1      44.179  26.005  37.813  1.00  0.00    -0.200 F 
ATOM     71  C   UNL A   1      45.818  27.390  36.830  1.00  0.00     0.200 A 
ATOM     72  F   UNL A   1      47.420  28.812  35.835  1.00  0.00    -0.200 F 
ATOM     73  F   UNL A   1      46.781  26.770  37.526  1.00  0.00    -0.200 F 
ENDBRANCH  40  63
ENDBRANCH  14  15
ENDBRANCH   7   9
ENDBRANCH   4   5
ENDBRANCH   3   4
ENDBRANCH   2   3
ENDBRANCH   1   2
BRANCH   1  74
ATOM     74  C   UNL A   1      33.650  29.047  26.203  1.00  0.00     0.021 C 
BRANCH  74  75
ATOM     75  C   UNL A   1      33.297  27.596  26.529  1.00  0.00     0.116 C 
BRANCH  75  76
ATOM     76  N   UNL A   1      34.069  26.661  25.736  1.00  0.00    -0.349 N 
ATOM     77  C   UNL A   1      33.619  25.740  24.819  1.00  0.00     0.286 C 
ATOM     78  H   UNL A   1      35.044  26.690  25.871  1.00  0.00     0.163 HD
ATOM     79  O   UNL A   1      34.423  24.911  24.394  1.00  0.00    -0.266 OA
BRANCH  77  80
ATOM     80  C   UNL A   1      32.237  25.802  24.410  1.00  0.00     0.191 A 
ATOM     81  C   UNL A   1      31.220  24.862  24.422  1.00  0.00     0.056 A 
ATOM     82  O   UNL A   1      31.768  26.971  23.885  1.00  0.00    -0.454 OA
ATOM     83  C   UNL A   1      30.080  25.487  23.862  1.00  0.00     0.048 A 
ATOM     84  C   UNL A   1      30.465  26.770  23.535  1.00  0.00     0.124 A 
BRANCH  84  85
ATOM     85  C   UNL A   1      29.788  27.902  22.860  1.00  0.00     0.191 C 
BRANCH  85  86
ATOM     86  N   UNL A   1      28.361  27.827  23.092  1.00  0.00    -0.345 N 
ATOM     87  C   UNL A   1      27.437  28.839  23.096  1.00  0.00     0.253 C 
ATOM     88  H   UNL A   1      28.007  26.926  23.273  1.00  0.00     0.164 HD
ATOM     89  O   UNL A   1      26.282  28.621  23.447  1.00  0.00    -0.269 OA
BRANCH  87  90
ATOM     90  C   UNL A   1      27.821  30.203  22.694  1.00  0.00     0.058 A 
ATOM     91  C   UNL A   1      28.033  31.233  23.612  1.00  0.00     0.017 A 
ATOM     92  C   UNL A   1      28.017  30.468  21.347  1.00  0.00     0.124 A 
ATOM     93  C   UNL A   1      28.374  32.500  23.142  1.00  0.00     0.021 A 
ATOM     94  N   UNL A   1      28.349  31.693  20.865  1.00  0.00    -0.264 NA
ATOM     95  C   UNL A   1      28.514  32.679  21.773  1.00  0.00     0.111 A 
ENDBRANCH  87  90
ENDBRANCH  85  86
ENDBRANCH  84  85
ENDBRANCH  77  80
ENDBRANCH  75  76
ENDBRANCH  74  75
ENDBRANCH   1  74
TORSDOF 16
ENDMDL
MODEL 2
REMARK VINA RESULT:     -12.4      0.634      7.377
REMARK SMILES O=C(NCCCCCCNC(=O)c1ccc(CNC(=O)c2cccnc2)o1)c1ccc(-c2c3nc(c(-c4c(F)c(F)c(F)c(F)c4F)c4ccc([nH]4)c(-c4c(F)c(F)c(F)c(F)c4F)c4nc(c(-c5c(F)c(F)c(F)c(F)c5F)c5ccc2[nH]5)C=C4)C=C3)cc1
REMARK SMILES IDX 7 1 6 2 5 3 4 4 3 5 1 6 2 7 28 9 29 10 90 11 30 12 89 13
REMARK SMILES IDX 31 14 32 15 33 16 83 17 34 18 88 19 82 20 84 21 35 22 87 23
REMARK SMILES IDX 81 24 80 25 36 27 68 28 48 29 67 30 49 31 52 32 66 33 85 34
REMARK SMILES IDX 50 35 51 36 65 38 86 39 53 40 37 41 38 42 46 43 39 44 40 45
REMARK SMILES IDX 44 46 47 47 41 48 42 49 45 50 43 51 69 52 70 53 78 54 71 55
REMARK SMILES IDX 72 56 76 57 79 58 73 59 74 60 77 61 75 62 54 63 55 64 63 65
REMARK SMILES IDX 56 66 57 67 61 68 64 69 58 70 59 71 62 72 60 73 8 74 9 75
REMARK SMILES IDX 10 76 11 77 12 79 13 80 14 81 27 82 15 83 16 84 17 85 18 86
REMARK SMILES IDX 19 87 20 89 21 90 22 91 26 92 23 93 25 94 24 95
REMARK H PARENT 3 8 84 26 52 37 10 78 18 88
REMARK Flexibility Score: inf
ROOT
ATOM      1  C   UNL A   1      31.587  30.071  25.809  1.00  0.00     0.002 C 
ENDROOT
BRANCH   1   2
ATOM      2  C   UNL A   1      31.184  31.548  25.851  1.00  0.00     0.002 C 
BRANCH   2   3
ATOM      3  C   UNL A   1      31.431  32.262  27.182  1.00  0.00     0.021 C 
BRANCH   3   4
ATOM      4  C   UNL A   1      32.712  33.085  27.243  1.00  0.00     0.116 C 
BRANCH   4   5
ATOM      5  N   UNL A   1      32.481  34.438  27.716  1.00  0.00    -0.352 N 
ATOM      6  O   UNL A   1      32.637  36.186  29.133  1.00  0.00    -0.269 OA
ATOM      7  C   UNL A   1      33.064  35.094  28.770  1.00  0.00     0.251 C 
ATOM      8  H   UNL A   1      31.813  34.956  27.210  1.00  0.00     0.163 HD
BRANCH   7   9
ATOM      9  C   UNL A   1      34.206  34.479  29.482  1.00  0.00     0.039 A 
ATOM     10  C   UNL A   1      34.007  33.740  30.653  1.00  0.00     0.014 A 
ATOM     11  C   UNL A   1      35.488  34.604  28.940  1.00  0.00     0.014 A 
ATOM     12  C   UNL A   1      35.100  33.199  31.325  1.00  0.00     0.010 A 
ATOM     13  C   UNL A   1      36.576  34.004  29.580  1.00  0.00     0.010 A 
ATOM     14  C   UNL A   1      36.389  33.301  30.779  1.00  0.00    -0.014 A 
BRANCH  14  15
ATOM     15  C   UNL A   1      37.508  32.557  31.408  1.00  0.00     0.031 A 
ATOM     16  C   UNL A   1      38.024  32.919  32.769  1.00  0.00     0.074 A 
ATOM     17  C   UNL A   1      38.066  31.547  30.712  1.00  0.00     0.049 A 
ATOM     18  N   UNL A   1      39.003  32.376  33.447  1.00  0.00    -0.248 NA
ATOM     19  C   UNL A   1      37.364  34.038  33.460  1.00  0.00     0.031 C 
ATOM     20  C   UNL A   1      37.663  31.132  29.367  1.00  0.00     0.029 A 
ATOM     21  N   UNL A   1      39.088  30.691  31.031  1.00  0.00    -0.354 N 
ATOM     22  C   UNL A   1      39.091  33.091  34.632  1.00  0.00     0.074 A 
ATOM     23  C   UNL A   1      38.073  34.120  34.579  1.00  0.00     0.031 C 
ATOM     24  C   UNL A   1      38.414  30.090  28.983  1.00  0.00     0.029 A 
ATOM     25  C   UNL A   1      39.385  29.798  30.031  1.00  0.00     0.049 A 
ATOM     26  H   UNL A   1      39.562  30.713  31.894  1.00  0.00     0.167 HD
ATOM     27  C   UNL A   1      39.943  32.898  35.667  1.00  0.00     0.037 A 
ATOM     28  C   UNL A   1      40.352  28.866  29.952  1.00  0.00     0.037 A 
ATOM     29  C   UNL A   1      40.935  31.854  35.720  1.00  0.00     0.049 A 
ATOM     30  C   UNL A   1      41.291  28.692  31.110  1.00  0.00     0.074 A 
ATOM     31  C   UNL A   1      41.780  31.521  36.765  1.00  0.00     0.029 A 
ATOM     32  N   UNL A   1      41.225  30.986  34.678  1.00  0.00    -0.354 N 
ATOM     33  N   UNL A   1      41.313  29.327  32.256  1.00  0.00    -0.248 NA
ATOM     34  C   UNL A   1      42.345  27.680  30.961  1.00  0.00     0.031 C 
ATOM     35  C   UNL A   1      42.615  30.484  36.338  1.00  0.00     0.029 A 
ATOM     36  C   UNL A   1      42.264  30.142  35.042  1.00  0.00     0.049 A 
ATOM     37  H   UNL A   1      40.762  30.969  33.810  1.00  0.00     0.167 HD
ATOM     38  C   UNL A   1      42.378  28.793  32.965  1.00  0.00     0.074 A 
ATOM     39  C   UNL A   1      42.959  27.760  32.133  1.00  0.00     0.031 C 
ATOM     40  C   UNL A   1      42.838  29.133  34.193  1.00  0.00     0.037 A 
BRANCH  27  41
ATOM     41  C   UNL A   1      39.859  33.831  36.838  1.00  0.00     0.064 A 
ATOM     42  C   UNL A   1      40.520  35.066  36.844  1.00  0.00     0.173 A 
ATOM     43  C   UNL A   1      39.022  33.526  37.924  1.00  0.00     0.173 A 
ATOM     44  F   UNL A   1      41.335  35.400  35.831  1.00  0.00    -0.203 F 
ATOM     45  C   UNL A   1      40.351  35.963  37.896  1.00  0.00     0.198 A 
ATOM     46  C   UNL A   1      38.840  34.434  38.964  1.00  0.00     0.198 A 
ATOM     47  F   UNL A   1      38.361  32.359  37.961  1.00  0.00    -0.203 F 
ATOM     48  F   UNL A   1      41.004  37.133  37.888  1.00  0.00    -0.200 F 
ATOM     49  C   UNL A   1      39.503  35.651  38.949  1.00  0.00     0.200 A 
ATOM     50  F   UNL A   1      38.012  34.135  39.975  1.00  0.00    -0.200 F 
ATOM     51  F   UNL A   1      39.327  36.524  39.950  1.00  0.00    -0.200 F 
ENDBRANCH  27  41
BRANCH  28  52
ATOM     52  C   UNL A   1      40.494  28.050  28.720  1.00  0.00     0.064 A 
ATOM     53  C   UNL A   1      41.276  28.491  27.645  1.00  0.00     0.173 A 
ATOM     54  C   UNL A   1      39.849  26.810  28.594  1.00  0.00     0.173 A 
ATOM     55  F   UNL A   1      41.896  29.679  27.711  1.00  0.00    -0.203 F 
ATOM     56  C   UNL A   1      41.395  27.731  26.484  1.00  0.00     0.198 A 
ATOM     57  C   UNL A   1      39.991  26.039  27.445  1.00  0.00     0.198 A 
ATOM     58  F   UNL A   1      39.091  26.342  29.598  1.00  0.00    -0.203 F 
ATOM     59  F   UNL A   1      42.113  28.195  25.454  1.00  0.00    -0.200 F 
ATOM     60  C   UNL A   1      40.757  26.504  26.387  1.00  0.00     0.200 A 
ATOM     61  F   UNL A   1      39.386  24.846  27.362  1.00  0.00    -0.200 F 
ATOM     62  F   UNL A   1      40.875  25.771  25.271  1.00  0.00    -0.200 F 
ENDBRANCH  28  52
BRANCH  40  63
ATOM     63  C   UNL A   1      44.034  28.385  34.698  1.00  0.00     0.064 A 
ATOM     64  C   UNL A   1      45.334  28.877  34.506  1.00  0.00     0.173 A 
ATOM     65  C   UNL A   1      43.880  27.179  35.398  1.00  0.00     0.173 A 
ATOM     66  F   UNL A   1      45.529  30.016  33.825  1.00  0.00    -0.203 F 
ATOM     67  C   UNL A   1      46.438  28.177  34.980  1.00  0.00     0.198 A 
ATOM     68  C   UNL A   1      44.987  26.496  35.893  1.00  0.00     0.198 A 
ATOM     69  F   UNL A   1      42.658  26.669  35.609  1.00  0.00    -0.203 F 
ATOM     70  F   UNL A   1      47.674  28.642  34.747  1.00  0.00    -0.200 F 
ATOM     71  C   UNL A   1      46.265  26.991  35.678  1.00  0.00     0.200 A 
ATOM     72  F   UNL A   1      44.818  25.354  36.574  1.00  0.00    -0.200 F 
ATOM     73  F   UNL A   1      47.331  26.320  36.137  1.00  0.00    -0.200 F 
ENDBRANCH  40  63
ENDBRANCH  14  15
ENDBRANCH   7   9
ENDBRANCH   4   5
ENDBRANCH   3   4
ENDBRANCH   2   3
ENDBRANCH   1   2
BRANCH   1  74
ATOM     74  C   UNL A   1      33.050  29.772  26.153  1.00  0.00     0.021 C 
BRANCH  74  75
ATOM     75  C   UNL A   1      33.271  28.549  27.043  1.00  0.00     0.116 C 
BRANCH  75  76
ATOM     76  N   UNL A   1      34.004  27.505  26.353  1.00  0.00    -0.349 N 
ATOM     77  C   UNL A   1      33.507  26.446  25.630  1.00  0.00     0.286 C 
ATOM     78  H   UNL A   1      34.985  27.564  26.409  1.00  0.00     0.163 HD
ATOM     79  O   UNL A   1      34.296  25.567  25.284  1.00  0.00    -0.266 OA
BRANCH  77  80
ATOM     80  C   UNL A   1      32.098  26.430  25.320  1.00  0.00     0.191 A 
ATOM     81  C   UNL A   1      31.031  25.747  25.877  1.00  0.00     0.056 A 
ATOM     82  O   UNL A   1      31.654  27.196  24.281  1.00  0.00    -0.454 OA
ATOM     83  C   UNL A   1      29.883  26.103  25.130  1.00  0.00     0.048 A 
ATOM     84  C   UNL A   1      30.314  26.979  24.156  1.00  0.00     0.124 A 
BRANCH  84  85
ATOM     85  C   UNL A   1      29.646  27.657  23.020  1.00  0.00     0.191 C 
BRANCH  85  86
ATOM     86  N   UNL A   1      28.211  27.635  23.213  1.00  0.00    -0.345 N 
ATOM     87  C   UNL A   1      27.323  28.677  23.172  1.00  0.00     0.253 C 
ATOM     88  H   UNL A   1      27.821  26.750  23.400  1.00  0.00     0.164 HD
ATOM     89  O   UNL A   1      26.152  28.506  23.494  1.00  0.00    -0.269 OA
BRANCH  87  90
ATOM     90  C   UNL A   1      27.764  30.019  22.757  1.00  0.00     0.058 A 
ATOM     91  C   UNL A   1      28.003  31.054  23.663  1.00  0.00     0.017 A 
ATOM     92  C   UNL A   1      27.991  30.257  21.409  1.00  0.00     0.124 A 
ATOM     93  C   UNL A   1      28.398  32.300  23.179  1.00  0.00     0.021 A 
ATOM     94  N   UNL A   1      28.376  31.461  20.915  1.00  0.00    -0.264 NA
ATOM     95  C   UNL A   1      28.565  32.453  21.811  1.00  0.00     0.111 A 
ENDBRANCH  87  90
ENDBRANCH  85  86
ENDBRANCH  84  85
ENDBRANCH  77  80
ENDBRANCH  75  76
ENDBRANCH  74  75
ENDBRANCH   1  74
TORSDOF 16
ENDMDL
MODEL 3
REMARK VINA RESULT:     -12.3      5.876     11.232
REMARK SMILES O=C(NCCCCCCNC(=O)c1ccc(CNC(=O)c2cccnc2)o1)c1ccc(-c2c3nc(c(-c4c(F)c(F)c(F)c(F)c4F)c4ccc([nH]4)c(-c4c(F)c(F)c(F)c(F)c4F)c4nc(c(-c5c(F)c(F)c(F)c(F)c5F)c5ccc2[nH]5)C=C4)C=C3)cc1
REMARK SMILES IDX 7 1 6 2 5 3 4 4 3 5 1 6 2 7 28 9 29 10 90 11 30 12 89 13
REMARK SMILES IDX 31 14 32 15 33 16 83 17 34 18 88 19 82 20 84 21 35 22 87 23
REMARK SMILES IDX 81 24 80 25 36 27 68 28 48 29 67 30 49 31 52 32 66 33 85 34
REMARK SMILES IDX 50 35 51 36 65 38 86 39 53 40 37 41 38 42 46 43 39 44 40 45
REMARK SMILES IDX 44 46 47 47 41 48 42 49 45 50 43 51 69 52 70 53 78 54 71 55
REMARK SMILES IDX 72 56 76 57 79 58 73 59 74 60 77 61 75 62 54 63 55 64 63 65
REMARK SMILES IDX 56 66 57 67 61 68 64 69 58 70 59 71 62 72 60 73 8 74 9 75
REMARK SMILES IDX 10 76 11 77 12 79 13 80 14 81 27 82 15 83 16 84 17 85 18 86
REMARK SMILES IDX 19 87 20 89 21 90 22 91 26 92 23 93 25 94 24 95
REMARK H PARENT 3 8 84 26 52 37 10 78 18 88
REMARK Flexibility Score: inf
ROOT
ATOM      1  C   UNL A   1      37.659  22.153  25.260  1.00  0.00     0.002 C 
ENDROOT
BRANCH   1   2
ATOM      2  C   UNL A   1      37.312  20.802  24.627  1.00  0.00     0.002 C 
BRANCH   2   3
ATOM      3  C   UNL A   1      38.253  19.648  24.978  1.00  0.00     0.021 C 
BRANCH   3   4
ATOM      4  C   UNL A   1      39.356  19.994  25.971  1.00  0.00     0.116 C 
BRANCH   4   5
ATOM      5  N   UNL A   1      40.412  18.999  25.997  1.00  0.00    -0.352 N 
ATOM      6  O   UNL A   1      42.535  18.239  25.943  1.00  0.00    -0.269 OA
ATOM      7  C   UNL A   1      41.768  19.184  26.096  1.00  0.00     0.251 C 
ATOM      8  H   UNL A   1      40.114  18.063  25.936  1.00  0.00     0.163 HD
BRANCH   7   9
ATOM      9  C   UNL A   1      42.311  20.531  26.377  1.00  0.00     0.039 A 
ATOM     10  C   UNL A   1      42.728  21.368  25.336  1.00  0.00     0.014 A 
ATOM     11  C   UNL A   1      42.356  20.980  27.699  1.00  0.00     0.014 A 
ATOM     12  C   UNL A   1      43.267  22.619  25.625  1.00  0.00     0.010 A 
ATOM     13  C   UNL A   1      42.837  22.262  27.984  1.00  0.00     0.010 A 
ATOM     14  C   UNL A   1      43.299  23.087  26.949  1.00  0.00    -0.014 A 
BRANCH  14  15
ATOM     15  C   UNL A   1      43.698  24.491  27.215  1.00  0.00     0.031 A 
ATOM     16  C   UNL A   1      42.716  25.500  27.734  1.00  0.00     0.074 A 
ATOM     17  C   UNL A   1      44.973  24.846  26.963  1.00  0.00     0.049 A 
ATOM     18  N   UNL A   1      42.906  26.767  28.003  1.00  0.00    -0.248 NA
ATOM     19  C   UNL A   1      41.342  25.034  27.978  1.00  0.00     0.031 C 
ATOM     20  C   UNL A   1      46.002  23.953  26.427  1.00  0.00     0.029 A 
ATOM     21  N   UNL A   1      45.621  26.044  27.118  1.00  0.00    -0.354 N 
ATOM     22  C   UNL A   1      41.679  27.255  28.430  1.00  0.00     0.074 A 
ATOM     23  C   UNL A   1      40.744  26.151  28.373  1.00  0.00     0.031 C 
ATOM     24  C   UNL A   1      47.156  24.625  26.315  1.00  0.00     0.029 A 
ATOM     25  C   UNL A   1      46.936  26.009  26.720  1.00  0.00     0.049 A 
ATOM     26  H   UNL A   1      45.187  26.851  27.479  1.00  0.00     0.167 HD
ATOM     27  C   UNL A   1      41.371  28.510  28.835  1.00  0.00     0.037 A 
ATOM     28  C   UNL A   1      47.856  26.989  26.661  1.00  0.00     0.037 A 
ATOM     29  C   UNL A   1      42.317  29.595  28.912  1.00  0.00     0.049 A 
ATOM     30  C   UNL A   1      47.474  28.372  27.099  1.00  0.00     0.074 A 
ATOM     31  C   UNL A   1      42.120  30.876  29.399  1.00  0.00     0.029 A 
ATOM     32  N   UNL A   1      43.632  29.529  28.477  1.00  0.00    -0.354 N 
ATOM     33  N   UNL A   1      46.330  28.801  27.573  1.00  0.00    -0.248 NA
ATOM     34  C   UNL A   1      48.508  29.411  26.987  1.00  0.00     0.031 C 
ATOM     35  C   UNL A   1      43.302  31.601  29.213  1.00  0.00     0.029 A 
ATOM     36  C   UNL A   1      44.248  30.760  28.648  1.00  0.00     0.049 A 
ATOM     37  H   UNL A   1      44.065  28.729  28.104  1.00  0.00     0.167 HD
ATOM     38  C   UNL A   1      46.504  30.155  27.816  1.00  0.00     0.074 A 
ATOM     39  C   UNL A   1      47.873  30.471  27.468  1.00  0.00     0.031 C 
ATOM     40  C   UNL A   1      45.606  31.058  28.279  1.00  0.00     0.037 A 
BRANCH  27  41
ATOM     41  C   UNL A   1      39.954  28.801  29.227  1.00  0.00     0.064 A 
ATOM     42  C   UNL A   1      39.001  29.217  28.287  1.00  0.00     0.173 A 
ATOM     43  C   UNL A   1      39.521  28.560  30.541  1.00  0.00     0.173 A 
ATOM     44  F   UNL A   1      39.367  29.465  27.020  1.00  0.00    -0.203 F 
ATOM     45  C   UNL A   1      37.667  29.386  28.648  1.00  0.00     0.198 A 
ATOM     46  C   UNL A   1      38.183  28.711  30.893  1.00  0.00     0.198 A 
ATOM     47  F   UNL A   1      40.394  28.153  31.475  1.00  0.00    -0.203 F 
ATOM     48  F   UNL A   1      36.775  29.798  27.737  1.00  0.00    -0.200 F 
ATOM     49  C   UNL A   1      37.257  29.123  29.948  1.00  0.00     0.200 A 
ATOM     50  F   UNL A   1      37.787  28.446  32.146  1.00  0.00    -0.200 F 
ATOM     51  F   UNL A   1      35.969  29.268  30.287  1.00  0.00    -0.200 F 
ENDBRANCH  27  41
BRANCH  28  52
ATOM     52  C   UNL A   1      49.214  26.696  26.137  1.00  0.00     0.064 A 
ATOM     53  C   UNL A   1      49.547  26.953  24.801  1.00  0.00     0.173 A 
ATOM     54  C   UNL A   1      50.208  26.155  26.967  1.00  0.00     0.173 A 
ATOM     55  F   UNL A   1      48.623  27.451  23.965  1.00  0.00    -0.203 F 
ATOM     56  C   UNL A   1      50.817  26.662  24.310  1.00  0.00     0.198 A 
ATOM     57  C   UNL A   1      51.485  25.892  26.482  1.00  0.00     0.198 A 
ATOM     58  F   UNL A   1      49.940  25.895  28.256  1.00  0.00    -0.203 F 
ATOM     59  F   UNL A   1      51.097  26.876  23.017  1.00  0.00    -0.200 F 
ATOM     60  C   UNL A   1      51.787  26.138  25.151  1.00  0.00     0.200 A 
ATOM     61  F   UNL A   1      52.424  25.401  27.302  1.00  0.00    -0.200 F 
ATOM     62  F   UNL A   1      53.010  25.864  24.678  1.00  0.00    -0.200 F 
ENDBRANCH  28  52
BRANCH  40  63
ATOM     63  C   UNL A   1      46.082  32.471  28.424  1.00  0.00     0.064 A 
ATOM     64  C   UNL A   1      45.919  33.402  27.387  1.00  0.00     0.173 A 
ATOM     65  C   UNL A   1      46.684  32.906  29.614  1.00  0.00     0.173 A 
ATOM     66  F   UNL A   1      45.366  33.025  26.224  1.00  0.00    -0.203 F 
ATOM     67  C   UNL A   1      46.361  34.713  27.529  1.00  0.00     0.198 A 
ATOM     68  C   UNL A   1      47.102  34.225  29.761  1.00  0.00     0.198 A 
ATOM     69  F   UNL A   1      46.860  32.054  30.634  1.00  0.00    -0.203 F 
ATOM     70  F   UNL A   1      46.237  35.575  26.511  1.00  0.00    -0.200 F 
ATOM     71  C   UNL A   1      46.947  35.126  28.717  1.00  0.00     0.200 A 
ATOM     72  F   UNL A   1      47.660  34.625  30.912  1.00  0.00    -0.200 F 
ATOM     73  F   UNL A   1      47.370  36.390  28.854  1.00  0.00    -0.200 F 
ENDBRANCH  40  63
ENDBRANCH  14  15
ENDBRANCH   7   9
ENDBRANCH   4   5
ENDBRANCH   3   4
ENDBRANCH   2   3
ENDBRANCH   1   2
BRANCH   1  74
ATOM     74  C   UNL A   1      36.857  23.354  24.746  1.00  0.00     0.021 C 
BRANCH  74  75
ATOM     75  C   UNL A   1      35.835  23.922  25.730  1.00  0.00     0.116 C 
BRANCH  75  76
ATOM     76  N   UNL A   1      35.425  22.937  26.711  1.00  0.00    -0.349 N 
ATOM     77  C   UNL A   1      34.333  22.101  26.681  1.00  0.00     0.286 C 
ATOM     78  H   UNL A   1      36.006  22.855  27.502  1.00  0.00     0.163 HD
ATOM     79  O   UNL A   1      34.062  21.474  27.704  1.00  0.00    -0.266 OA
BRANCH  77  80
ATOM     80  C   UNL A   1      33.575  22.010  25.457  1.00  0.00     0.191 A 
ATOM     81  C   UNL A   1      33.426  20.995  24.529  1.00  0.00     0.056 A 
ATOM     82  O   UNL A   1      32.852  23.098  25.060  1.00  0.00    -0.454 OA
ATOM     83  C   UNL A   1      32.582  21.496  23.508  1.00  0.00     0.048 A 
ATOM     84  C   UNL A   1      32.268  22.789  23.868  1.00  0.00     0.124 A 
BRANCH  84  85
ATOM     85  C   UNL A   1      31.500  23.876  23.216  1.00  0.00     0.191 C 
BRANCH  85  86
ATOM     86  N   UNL A   1      32.219  24.352  22.053  1.00  0.00    -0.345 N 
ATOM     87  C   UNL A   1      32.762  25.590  21.827  1.00  0.00     0.253 C 
ATOM     88  H   UNL A   1      32.333  23.698  21.326  1.00  0.00     0.164 HD
ATOM     89  O   UNL A   1      33.223  25.872  20.726  1.00  0.00    -0.269 OA
BRANCH  87  90
ATOM     90  C   UNL A   1      32.785  26.603  22.896  1.00  0.00     0.058 A 
ATOM     91  C   UNL A   1      33.707  26.580  23.944  1.00  0.00     0.017 A 
ATOM     92  C   UNL A   1      31.876  27.649  22.839  1.00  0.00     0.124 A 
ATOM     93  C   UNL A   1      33.643  27.568  24.924  1.00  0.00     0.021 A 
ATOM     94  N   UNL A   1      31.795  28.623  23.781  1.00  0.00    -0.264 NA
ATOM     95  C   UNL A   1      32.676  28.555  24.802  1.00  0.00     0.111 A 
ENDBRANCH  87  90
ENDBRANCH  85  86
ENDBRANCH  84  85
ENDBRANCH  77  80
ENDBRANCH  75  76
ENDBRANCH  74  75
ENDBRANCH   1  74
TORSDOF 16
ENDMDL
