MODEL 1
REMARK VINA RESULT:     -11.7      0.000      0.000
REMARK SMILES C[C@H](NC(=O)N[C@H]1CCCC1(C)C)c1nc(C(=O)NCCCCCCNC(=O)c2ccc(-c3c4nc(c(-c5c(F)c(F)c(F)c(F)c5F)c5ccc([nH]5)c(-c5c(F)c(F)c(F)c(F)c5F)c5nc(c(-c6c(F)c(F)c(F)c(F)c6F)c6ccc3[nH]6)C=C5)C=C4)cc2)cs1
REMARK SMILES IDX 22 1 21 2 20 3 19 4 17 5 18 6 16 8 14 9 15 10 93 11 92 12
REMARK SMILES IDX 2 13 1 14 3 15 4 16 5 18 6 19 7 21 8 22 11 23 9 24 10 25
REMARK SMILES IDX 12 26 13 27 23 28 24 29 25 30 26 31 27 32 28 34 29 35 30 36
REMARK SMILES IDX 91 37 31 38 90 39 32 40 33 41 34 42 84 43 35 44 89 45 83 46
REMARK SMILES IDX 85 47 36 48 88 49 82 50 81 51 37 53 69 54 49 55 68 56 50 57
REMARK SMILES IDX 53 58 67 59 86 60 51 61 52 62 66 64 87 65 54 66 38 67 39 68
REMARK SMILES IDX 47 69 40 70 41 71 45 72 48 73 42 74 43 75 46 76 44 77 70 78
REMARK SMILES IDX 71 79 79 80 72 81 73 82 77 83 80 84 74 85 75 86 78 87 76 88
REMARK SMILES IDX 55 89 56 90 64 91 57 92 58 93 62 94 65 95 59 96 60 97 63 98
REMARK SMILES IDX 61 99
REMARK H PARENT 19 7 3 17 6 20 26 33 85 52 53 63
REMARK Flexibility Score: inf
ROOT
ATOM      1  C   UNL A   1      34.506  32.331  29.016  1.00  0.00     0.002 C 
ENDROOT
BRANCH   1   2
ATOM      2  C   UNL A   1      35.143  31.364  28.010  1.00  0.00     0.021 C 
BRANCH   2   3
ATOM      3  C   UNL A   1      34.188  30.311  27.447  1.00  0.00     0.116 C 
BRANCH   3   4
ATOM      4  N   UNL A   1      32.991  30.892  26.871  1.00  0.00    -0.351 N 
ATOM      5  C   UNL A   1      32.112  30.391  25.939  1.00  0.00     0.270 C 
ATOM      6  O   UNL A   1      31.067  31.033  25.750  1.00  0.00    -0.267 OA
ATOM      7  H   UNL A   1      32.771  31.793  27.200  1.00  0.00     0.163 HD
BRANCH   5   8
ATOM      8  C   UNL A   1      32.379  29.144  25.205  1.00  0.00     0.139 A 
ATOM      9  C   UNL A   1      32.237  26.958  24.724  1.00  0.00     0.116 A 
ATOM     10  N   UNL A   1      31.872  27.901  25.573  1.00  0.00    -0.234 NA
ATOM     11  S   UNL A   1      33.295  27.485  23.480  1.00  0.00    -0.124 S 
ATOM     12  C   UNL A   1      33.201  29.086  24.090  1.00  0.00     0.101 A 
BRANCH   9  13
ATOM     13  C   UNL A   1      31.731  25.540  24.832  1.00  0.00     0.140 C 
ATOM     14  C   UNL A   1      30.392  25.332  24.148  1.00  0.00     0.039 C 
BRANCH  13  15
ATOM     15  N   UNL A   1      31.785  25.010  26.175  1.00  0.00    -0.329 N 
ATOM     16  C   UNL A   1      31.921  23.727  26.544  1.00  0.00     0.315 C 
ATOM     17  H   UNL A   1      31.711  25.668  26.905  1.00  0.00     0.166 HD
ATOM     18  O   UNL A   1      31.509  23.392  27.656  1.00  0.00    -0.249 OA
ATOM     19  N   UNL A   1      32.301  22.767  25.685  1.00  0.00    -0.335 N 
ATOM     20  H   UNL A   1      31.563  22.140  25.509  1.00  0.00     0.165 HD
BRANCH  19  21
ATOM     21  C   UNL A   1      33.523  22.380  24.923  1.00  0.00     0.089 C 
ATOM     22  C   UNL A   1      33.010  21.646  23.670  1.00  0.00     0.025 C 
ATOM     23  C   UNL A   1      34.568  23.359  24.306  1.00  0.00    -0.015 C 
ATOM     24  C   UNL A   1      32.876  22.746  22.621  1.00  0.00     0.003 C 
ATOM     25  C   UNL A   1      33.957  23.783  22.946  1.00  0.00     0.008 C 
ATOM     26  C   UNL A   1      35.059  24.457  25.253  1.00  0.00     0.013 C 
ATOM     27  C   UNL A   1      35.872  22.593  23.917  1.00  0.00     0.013 C 
ENDBRANCH  19  21
ENDBRANCH  13  15
ENDBRANCH   9  13
ENDBRANCH   5   8
ENDBRANCH   3   4
ENDBRANCH   2   3
ENDBRANCH   1   2
BRANCH   1  28
ATOM     28  C   UNL A   1      34.559  33.818  28.638  1.00  0.00     0.002 C 
BRANCH  28  29
ATOM     29  C   UNL A   1      33.260  34.606  28.819  1.00  0.00     0.021 C 
BRANCH  29  30
ATOM     30  C   UNL A   1      33.408  35.977  29.477  1.00  0.00     0.116 C 
BRANCH  30  31
ATOM     31  N   UNL A   1      32.506  36.161  30.604  1.00  0.00    -0.352 N 
ATOM     32  C   UNL A   1      32.596  35.697  31.893  1.00  0.00     0.251 C 
ATOM     33  H   UNL A   1      31.707  36.703  30.413  1.00  0.00     0.163 HD
ATOM     34  O   UNL A   1      31.644  35.837  32.661  1.00  0.00    -0.269 OA
BRANCH  32  35
ATOM     35  C   UNL A   1      33.815  35.006  32.368  1.00  0.00     0.039 A 
ATOM     36  C   UNL A   1      33.698  33.711  32.882  1.00  0.00     0.014 A 
ATOM     37  C   UNL A   1      35.064  35.630  32.336  1.00  0.00     0.014 A 
ATOM     38  C   UNL A   1      34.839  33.018  33.296  1.00  0.00     0.010 A 
ATOM     39  C   UNL A   1      36.210  34.914  32.683  1.00  0.00     0.010 A 
ATOM     40  C   UNL A   1      36.111  33.600  33.164  1.00  0.00    -0.014 A 
BRANCH  40  41
ATOM     41  C   UNL A   1      37.344  32.843  33.511  1.00  0.00     0.031 A 
ATOM     42  C   UNL A   1      38.085  33.136  34.787  1.00  0.00     0.074 A 
ATOM     43  C   UNL A   1      37.833  31.934  32.645  1.00  0.00     0.049 A 
ATOM     44  N   UNL A   1      39.211  32.633  35.226  1.00  0.00    -0.248 NA
ATOM     45  C   UNL A   1      37.494  34.147  35.678  1.00  0.00     0.031 C 
ATOM     46  C   UNL A   1      37.233  31.585  31.356  1.00  0.00     0.029 A 
ATOM     47  N   UNL A   1      38.955  31.144  32.711  1.00  0.00    -0.354 N 
ATOM     48  C   UNL A   1      39.470  33.273  36.431  1.00  0.00     0.074 A 
ATOM     49  C   UNL A   1      38.410  34.239  36.631  1.00  0.00     0.031 C 
ATOM     50  C   UNL A   1      37.977  30.637  30.766  1.00  0.00     0.029 A 
ATOM     51  C   UNL A   1      39.130  30.341  31.610  1.00  0.00     0.049 A 
ATOM     52  H   UNL A   1      39.575  31.151  33.476  1.00  0.00     0.167 HD
ATOM     53  C   UNL A   1      40.487  33.061  37.301  1.00  0.00     0.037 A 
ATOM     54  C   UNL A   1      40.115  29.472  31.308  1.00  0.00     0.037 A 
ATOM     55  C   UNL A   1      41.527  32.084  37.111  1.00  0.00     0.049 A 
ATOM     56  C   UNL A   1      41.243  29.272  32.286  1.00  0.00     0.074 A 
ATOM     57  C   UNL A   1      42.565  31.752  37.965  1.00  0.00     0.029 A 
ATOM     58  N   UNL A   1      41.666  31.285  35.986  1.00  0.00    -0.354 N 
ATOM     59  N   UNL A   1      41.438  29.832  33.454  1.00  0.00    -0.248 NA
ATOM     60  C   UNL A   1      42.288  28.311  31.901  1.00  0.00     0.031 C 
ATOM     61  C   UNL A   1      43.363  30.793  37.335  1.00  0.00     0.029 A 
ATOM     62  C   UNL A   1      42.789  30.482  36.113  1.00  0.00     0.049 A 
ATOM     63  H   UNL A   1      41.058  31.287  35.213  1.00  0.00     0.167 HD
ATOM     64  C   UNL A   1      42.602  29.270  33.959  1.00  0.00     0.074 A 
ATOM     65  C   UNL A   1      43.063  28.313  32.977  1.00  0.00     0.031 C 
ATOM     66  C   UNL A   1      43.232  29.523  35.133  1.00  0.00     0.037 A 
BRANCH  53  67
ATOM     67  C   UNL A   1      40.529  33.904  38.544  1.00  0.00     0.064 A 
ATOM     68  C   UNL A   1      39.841  33.536  39.710  1.00  0.00     0.173 A 
ATOM     69  C   UNL A   1      41.312  35.070  38.586  1.00  0.00     0.173 A 
ATOM     70  F   UNL A   1      39.073  32.437  39.722  1.00  0.00    -0.203 F 
ATOM     71  C   UNL A   1      39.913  34.315  40.862  1.00  0.00     0.198 A 
ATOM     72  C   UNL A   1      41.407  35.829  39.750  1.00  0.00     0.198 A 
ATOM     73  F   UNL A   1      41.997  35.464  37.502  1.00  0.00    -0.203 F 
ATOM     74  F   UNL A   1      39.209  33.969  41.949  1.00  0.00    -0.200 F 
ATOM     75  C   UNL A   1      40.701  35.455  40.884  1.00  0.00     0.200 A 
ATOM     76  F   UNL A   1      42.182  36.922  39.773  1.00  0.00    -0.200 F 
ATOM     77  F   UNL A   1      40.777  36.199  41.997  1.00  0.00    -0.200 F 
ENDBRANCH  53  67
BRANCH  54  78
ATOM     78  C   UNL A   1      40.075  28.711  30.032  1.00  0.00     0.064 A 
ATOM     79  C   UNL A   1      39.440  27.462  29.958  1.00  0.00     0.173 A 
ATOM     80  C   UNL A   1      40.686  29.200  28.868  1.00  0.00     0.173 A 
ATOM     81  F   UNL A   1      38.860  26.941  31.050  1.00  0.00    -0.203 F 
ATOM     82  C   UNL A   1      39.442  26.721  28.778  1.00  0.00     0.198 A 
ATOM     83  C   UNL A   1      40.658  28.472  27.680  1.00  0.00     0.198 A 
ATOM     84  F   UNL A   1      41.303  30.390  28.882  1.00  0.00    -0.203 F 
ATOM     85  F   UNL A   1      38.876  25.506  28.752  1.00  0.00    -0.200 F 
ATOM     86  C   UNL A   1      40.046  27.228  27.639  1.00  0.00     0.200 A 
ATOM     87  F   UNL A   1      41.230  28.974  26.577  1.00  0.00    -0.200 F 
ATOM     88  F   UNL A   1      40.047  26.516  26.504  1.00  0.00    -0.200 F 
ENDBRANCH  54  78
BRANCH  66  89
ATOM     89  C   UNL A   1      44.466  28.723  35.441  1.00  0.00     0.064 A 
ATOM     90  C   UNL A   1      44.404  27.499  36.122  1.00  0.00     0.173 A 
ATOM     91  C   UNL A   1      45.725  29.173  35.013  1.00  0.00     0.173 A 
ATOM     92  F   UNL A   1      43.226  27.032  36.566  1.00  0.00    -0.203 F 
ATOM     93  C   UNL A   1      45.559  26.769  36.389  1.00  0.00     0.198 A 
ATOM     94  C   UNL A   1      46.874  28.423  35.252  1.00  0.00     0.198 A 
ATOM     95  F   UNL A   1      45.840  30.334  34.351  1.00  0.00    -0.203 F 
ATOM     96  F   UNL A   1      45.481  25.628  37.088  1.00  0.00    -0.200 F 
ATOM     97  C   UNL A   1      46.791  27.226  35.947  1.00  0.00     0.200 A 
ATOM     98  F   UNL A   1      48.062  28.860  34.809  1.00  0.00    -0.200 F 
ATOM     99  F   UNL A   1      47.901  26.518  36.197  1.00  0.00    -0.200 F 
ENDBRANCH  66  89
ENDBRANCH  40  41
ENDBRANCH  32  35
ENDBRANCH  30  31
ENDBRANCH  29  30
ENDBRANCH  28  29
ENDBRANCH   1  28
TORSDOF 16
ENDMDL
MODEL 2
REMARK VINA RESULT:     -11.5      6.507     12.137
REMARK SMILES C[C@H](NC(=O)N[C@H]1CCCC1(C)C)c1nc(C(=O)NCCCCCCNC(=O)c2ccc(-c3c4nc(c(-c5c(F)c(F)c(F)c(F)c5F)c5ccc([nH]5)c(-c5c(F)c(F)c(F)c(F)c5F)c5nc(c(-c6c(F)c(F)c(F)c(F)c6F)c6ccc3[nH]6)C=C5)C=C4)cc2)cs1
REMARK SMILES IDX 22 1 21 2 20 3 19 4 17 5 18 6 16 8 14 9 15 10 93 11 92 12
REMARK SMILES IDX 2 13 1 14 3 15 4 16 5 18 6 19 7 21 8 22 11 23 9 24 10 25
REMARK SMILES IDX 12 26 13 27 23 28 24 29 25 30 26 31 27 32 28 34 29 35 30 36
REMARK SMILES IDX 91 37 31 38 90 39 32 40 33 41 34 42 84 43 35 44 89 45 83 46
REMARK SMILES IDX 85 47 36 48 88 49 82 50 81 51 37 53 69 54 49 55 68 56 50 57
REMARK SMILES IDX 53 58 67 59 86 60 51 61 52 62 66 64 87 65 54 66 38 67 39 68
REMARK SMILES IDX 47 69 40 70 41 71 45 72 48 73 42 74 43 75 46 76 44 77 70 78
REMARK SMILES IDX 71 79 79 80 72 81 73 82 77 83 80 84 74 85 75 86 78 87 76 88
REMARK SMILES IDX 55 89 56 90 64 91 57 92 58 93 62 94 65 95 59 96 60 97 63 98
REMARK SMILES IDX 61 99
REMARK H PARENT 19 7 3 17 6 20 26 33 85 52 53 63
REMARK Flexibility Score: inf
ROOT
ATOM      1  C   UNL A   1      39.316  21.590  26.215  1.00  0.00     0.002 C 
ENDROOT
BRANCH   1   2
ATOM      2  C   UNL A   1      39.055  23.054  26.587  1.00  0.00     0.021 C 
BRANCH   2   3
ATOM      3  C   UNL A   1      37.772  23.643  25.997  1.00  0.00     0.116 C 
BRANCH   3   4
ATOM      4  N   UNL A   1      37.631  23.366  24.580  1.00  0.00    -0.351 N 
ATOM      5  C   UNL A   1      36.540  22.946  23.855  1.00  0.00     0.270 C 
ATOM      6  O   UNL A   1      36.650  22.953  22.619  1.00  0.00    -0.267 OA
ATOM      7  H   UNL A   1      38.449  23.500  24.050  1.00  0.00     0.163 HD
BRANCH   5   8
ATOM      8  C   UNL A   1      35.289  22.521  24.502  1.00  0.00     0.139 A 
ATOM      9  C   UNL A   1      33.222  22.735  25.345  1.00  0.00     0.116 A 
ATOM     10  N   UNL A   1      34.235  23.381  24.798  1.00  0.00    -0.234 NA
ATOM     11  S   UNL A   1      33.505  21.068  25.630  1.00  0.00    -0.124 S 
ATOM     12  C   UNL A   1      35.058  21.219  24.916  1.00  0.00     0.101 A 
BRANCH   9  13
ATOM     13  C   UNL A   1      31.911  23.417  25.661  1.00  0.00     0.140 C 
ATOM     14  C   UNL A   1      31.007  22.583  26.551  1.00  0.00     0.039 C 
BRANCH  13  15
ATOM     15  N   UNL A   1      31.245  23.952  24.497  1.00  0.00    -0.329 N 
ATOM     16  C   UNL A   1      30.806  25.206  24.309  1.00  0.00     0.315 C 
ATOM     17  H   UNL A   1      31.094  23.322  23.754  1.00  0.00     0.166 HD
ATOM     18  O   UNL A   1      29.896  25.392  23.500  1.00  0.00    -0.249 OA
ATOM     19  N   UNL A   1      31.176  26.225  25.103  1.00  0.00    -0.335 N 
ATOM     20  H   UNL A   1      30.416  26.549  25.639  1.00  0.00     0.165 HD
BRANCH  19  21
ATOM     21  C   UNL A   1      32.410  27.006  25.402  1.00  0.00     0.089 C 
ATOM     22  C   UNL A   1      32.909  27.524  24.040  1.00  0.00     0.025 C 
ATOM     23  C   UNL A   1      32.491  28.296  26.275  1.00  0.00    -0.015 C 
ATOM     24  C   UNL A   1      32.248  28.892  23.895  1.00  0.00     0.003 C 
ATOM     25  C   UNL A   1      32.097  29.447  25.315  1.00  0.00     0.008 C 
ATOM     26  C   UNL A   1      31.780  28.205  27.627  1.00  0.00     0.013 C 
ATOM     27  C   UNL A   1      33.974  28.607  26.656  1.00  0.00     0.013 C 
ENDBRANCH  19  21
ENDBRANCH  13  15
ENDBRANCH   9  13
ENDBRANCH   5   8
ENDBRANCH   3   4
ENDBRANCH   2   3
ENDBRANCH   1   2
BRANCH   1  28
ATOM     28  C   UNL A   1      40.788  21.155  26.211  1.00  0.00     0.002 C 
BRANCH  28  29
ATOM     29  C   UNL A   1      41.047  19.655  26.049  1.00  0.00     0.021 C 
BRANCH  29  30
ATOM     30  C   UNL A   1      42.414  19.168  26.526  1.00  0.00     0.116 C 
BRANCH  30  31
ATOM     31  N   UNL A   1      43.279  18.758  25.430  1.00  0.00    -0.352 N 
ATOM     32  C   UNL A   1      44.157  19.494  24.674  1.00  0.00     0.251 C 
ATOM     33  H   UNL A   1      43.228  17.804  25.194  1.00  0.00     0.163 HD
ATOM     34  O   UNL A   1      44.686  18.988  23.685  1.00  0.00    -0.269 OA
BRANCH  32  35
ATOM     35  C   UNL A   1      44.458  20.903  25.016  1.00  0.00     0.039 A 
ATOM     36  C   UNL A   1      43.966  21.917  24.188  1.00  0.00     0.014 A 
ATOM     37  C   UNL A   1      45.239  21.231  26.126  1.00  0.00     0.014 A 
ATOM     38  C   UNL A   1      44.198  23.256  24.512  1.00  0.00     0.010 A 
ATOM     39  C   UNL A   1      45.409  22.567  26.488  1.00  0.00     0.010 A 
ATOM     40  C   UNL A   1      44.889  23.595  25.687  1.00  0.00    -0.014 A 
BRANCH  40  41
ATOM     41  C   UNL A   1      45.062  25.014  26.097  1.00  0.00     0.031 A 
ATOM     42  C   UNL A   1      46.410  25.676  25.999  1.00  0.00     0.074 A 
ATOM     43  C   UNL A   1      44.020  25.689  26.619  1.00  0.00     0.049 A 
ATOM     44  N   UNL A   1      46.772  26.878  26.372  1.00  0.00    -0.248 NA
ATOM     45  C   UNL A   1      47.501  24.874  25.426  1.00  0.00     0.031 C 
ATOM     46  C   UNL A   1      42.672  25.149  26.806  1.00  0.00     0.029 A 
ATOM     47  N   UNL A   1      43.931  26.973  27.099  1.00  0.00    -0.354 N 
ATOM     48  C   UNL A   1      48.130  26.970  26.095  1.00  0.00     0.074 A 
ATOM     49  C   UNL A   1      48.539  25.686  25.568  1.00  0.00     0.031 C 
ATOM     50  C   UNL A   1      41.887  26.100  27.338  1.00  0.00     0.029 A 
ATOM     51  C   UNL A   1      42.683  27.301  27.570  1.00  0.00     0.049 A 
ATOM     52  H   UNL A   1      44.690  27.600  27.105  1.00  0.00     0.167 HD
ATOM     53  C   UNL A   1      48.955  28.035  26.245  1.00  0.00     0.037 A 
ATOM     54  C   UNL A   1      42.232  28.437  28.138  1.00  0.00     0.037 A 
ATOM     55  C   UNL A   1      48.539  29.319  26.747  1.00  0.00     0.049 A 
ATOM     56  C   UNL A   1      43.177  29.597  28.310  1.00  0.00     0.074 A 
ATOM     57  C   UNL A   1      49.286  30.477  26.877  1.00  0.00     0.029 A 
ATOM     58  N   UNL A   1      47.264  29.614  27.206  1.00  0.00    -0.354 N 
ATOM     59  N   UNL A   1      44.441  29.694  27.978  1.00  0.00    -0.248 NA
ATOM     60  C   UNL A   1      42.628  30.809  28.935  1.00  0.00     0.031 C 
ATOM     61  C   UNL A   1      48.481  31.456  27.467  1.00  0.00     0.029 A 
ATOM     62  C   UNL A   1      47.214  30.927  27.648  1.00  0.00     0.049 A 
ATOM     63  H   UNL A   1      46.508  28.984  27.218  1.00  0.00     0.167 HD
ATOM     64  C   UNL A   1      44.828  30.983  28.318  1.00  0.00     0.074 A 
ATOM     65  C   UNL A   1      43.661  31.637  28.870  1.00  0.00     0.031 C 
ATOM     66  C   UNL A   1      46.042  31.572  28.185  1.00  0.00     0.037 A 
BRANCH  53  67
ATOM     67  C   UNL A   1      50.397  27.859  25.863  1.00  0.00     0.064 A 
ATOM     68  C   UNL A   1      51.391  27.614  26.823  1.00  0.00     0.173 A 
ATOM     69  C   UNL A   1      50.783  27.884  24.513  1.00  0.00     0.173 A 
ATOM     70  F   UNL A   1      51.078  27.589  28.127  1.00  0.00    -0.203 F 
ATOM     71  C   UNL A   1      52.719  27.428  26.450  1.00  0.00     0.198 A 
ATOM     72  C   UNL A   1      52.107  27.665  24.141  1.00  0.00     0.198 A 
ATOM     73  F   UNL A   1      49.873  28.106  23.553  1.00  0.00    -0.203 F 
ATOM     74  F   UNL A   1      53.658  27.243  27.388  1.00  0.00    -0.200 F 
ATOM     75  C   UNL A   1      53.074  27.445  25.110  1.00  0.00     0.200 A 
ATOM     76  F   UNL A   1      52.445  27.666  22.845  1.00  0.00    -0.200 F 
ATOM     77  F   UNL A   1      54.353  27.255  24.751  1.00  0.00    -0.200 F 
ENDBRANCH  53  67
BRANCH  54  78
ATOM     78  C   UNL A   1      40.814  28.545  28.570  1.00  0.00     0.064 A 
ATOM     79  C   UNL A   1      39.823  28.995  27.685  1.00  0.00     0.173 A 
ATOM     80  C   UNL A   1      40.421  28.224  29.878  1.00  0.00     0.173 A 
ATOM     81  F   UNL A   1      40.152  29.334  26.429  1.00  0.00    -0.203 F 
ATOM     82  C   UNL A   1      38.500  29.145  28.098  1.00  0.00     0.198 A 
ATOM     83  C   UNL A   1      39.091  28.344  30.280  1.00  0.00     0.198 A 
ATOM     84  F   UNL A   1      41.326  27.786  30.763  1.00  0.00    -0.203 F 
ATOM     85  F   UNL A   1      37.586  29.630  27.246  1.00  0.00    -0.200 F 
ATOM     86  C   UNL A   1      38.135  28.815  29.393  1.00  0.00     0.200 A 
ATOM     87  F   UNL A   1      38.740  28.009  31.529  1.00  0.00    -0.200 F 
ATOM     88  F   UNL A   1      36.863  28.960  29.790  1.00  0.00    -0.200 F 
ENDBRANCH  54  78
BRANCH  66  89
ATOM     89  C   UNL A   1      46.162  33.010  28.603  1.00  0.00     0.064 A 
ATOM     90  C   UNL A   1      45.916  34.064  27.709  1.00  0.00     0.173 A 
ATOM     91  C   UNL A   1      46.490  33.337  29.928  1.00  0.00     0.173 A 
ATOM     92  F   UNL A   1      45.614  33.805  26.428  1.00  0.00    -0.203 F 
ATOM     93  C   UNL A   1      46.023  35.389  28.120  1.00  0.00     0.198 A 
ATOM     94  C   UNL A   1      46.562  34.664  30.343  1.00  0.00     0.198 A 
ATOM     95  F   UNL A   1      46.727  32.368  30.825  1.00  0.00    -0.203 F 
ATOM     96  F   UNL A   1      45.836  36.379  27.235  1.00  0.00    -0.200 F 
ATOM     97  C   UNL A   1      46.337  35.689  29.437  1.00  0.00     0.200 A 
ATOM     98  F   UNL A   1      46.851  34.950  31.620  1.00  0.00    -0.200 F 
ATOM     99  F   UNL A   1      46.431  36.966  29.832  1.00  0.00    -0.200 F 
ENDBRANCH  66  89
ENDBRANCH  40  41
ENDBRANCH  32  35
ENDBRANCH  30  31
ENDBRANCH  29  30
ENDBRANCH  28  29
ENDBRANCH   1  28
TORSDOF 16
ENDMDL
MODEL 3
REMARK VINA RESULT:     -11.4      1.781      2.784
REMARK SMILES C[C@H](NC(=O)N[C@H]1CCCC1(C)C)c1nc(C(=O)NCCCCCCNC(=O)c2ccc(-c3c4nc(c(-c5c(F)c(F)c(F)c(F)c5F)c5ccc([nH]5)c(-c5c(F)c(F)c(F)c(F)c5F)c5nc(c(-c6c(F)c(F)c(F)c(F)c6F)c6ccc3[nH]6)C=C5)C=C4)cc2)cs1
REMARK SMILES IDX 22 1 21 2 20 3 19 4 17 5 18 6 16 8 14 9 15 10 93 11 92 12
REMARK SMILES IDX 2 13 1 14 3 15 4 16 5 18 6 19 7 21 8 22 11 23 9 24 10 25
REMARK SMILES IDX 12 26 13 27 23 28 24 29 25 30 26 31 27 32 28 34 29 35 30 36
REMARK SMILES IDX 91 37 31 38 90 39 32 40 33 41 34 42 84 43 35 44 89 45 83 46
REMARK SMILES IDX 85 47 36 48 88 49 82 50 81 51 37 53 69 54 49 55 68 56 50 57
REMARK SMILES IDX 53 58 67 59 86 60 51 61 52 62 66 64 87 65 54 66 38 67 39 68
REMARK SMILES IDX 47 69 40 70 41 71 45 72 48 73 42 74 43 75 46 76 44 77 70 78
REMARK SMILES IDX 71 79 79 80 72 81 73 82 77 83 80 84 74 85 75 86 78 87 76 88
REMARK SMILES IDX 55 89 56 90 64 91 57 92 58 93 62 94 65 95 59 96 60 97 63 98
REMARK SMILES IDX 61 99
REMARK H PARENT 19 7 3 17 6 20 26 33 85 52 53 63
REMARK Flexibility Score: inf
ROOT
ATOM      1  C   UNL A   1      32.709  30.278  26.369  1.00  0.00     0.002 C 
ENDROOT
BRANCH   1   2
ATOM      2  C   UNL A   1      32.989  29.332  27.543  1.00  0.00     0.021 C 
BRANCH   2   3
ATOM      3  C   UNL A   1      33.018  27.848  27.174  1.00  0.00     0.116 C 
BRANCH   3   4
ATOM      4  N   UNL A   1      31.714  27.220  27.279  1.00  0.00    -0.351 N 
ATOM      5  C   UNL A   1      30.931  26.621  26.321  1.00  0.00     0.270 C 
ATOM      6  O   UNL A   1      29.928  26.006  26.718  1.00  0.00    -0.267 OA
ATOM      7  H   UNL A   1      31.327  27.224  28.183  1.00  0.00     0.163 HD
BRANCH   5   8
ATOM      8  C   UNL A   1      31.263  26.683  24.889  1.00  0.00     0.139 A 
ATOM      9  C   UNL A   1      32.038  25.957  22.914  1.00  0.00     0.116 A 
ATOM     10  N   UNL A   1      31.890  25.655  24.190  1.00  0.00    -0.234 NA
ATOM     11  S   UNL A   1      31.523  27.536  22.486  1.00  0.00    -0.124 S 
ATOM     12  C   UNL A   1      31.015  27.798  24.104  1.00  0.00     0.101 A 
BRANCH   9  13
ATOM     13  C   UNL A   1      32.591  24.970  21.913  1.00  0.00     0.140 C 
ATOM     14  C   UNL A   1      32.517  25.469  20.482  1.00  0.00     0.039 C 
BRANCH  13  15
ATOM     15  N   UNL A   1      32.082  23.629  22.086  1.00  0.00    -0.329 N 
ATOM     16  C   UNL A   1      32.757  22.544  22.497  1.00  0.00     0.315 C 
ATOM     17  H   UNL A   1      31.129  23.495  21.877  1.00  0.00     0.166 HD
ATOM     18  O   UNL A   1      32.332  21.434  22.172  1.00  0.00    -0.249 OA
ATOM     19  N   UNL A   1      33.969  22.623  23.069  1.00  0.00    -0.335 N 
ATOM     20  H   UNL A   1      34.662  22.243  22.482  1.00  0.00     0.165 HD
BRANCH  19  21
ATOM     21  C   UNL A   1      34.564  23.123  24.341  1.00  0.00     0.089 C 
ATOM     22  C   UNL A   1      33.528  22.802  25.434  1.00  0.00     0.025 C 
ATOM     23  C   UNL A   1      35.882  22.611  25.002  1.00  0.00    -0.015 C 
ATOM     24  C   UNL A   1      33.938  21.424  25.946  1.00  0.00     0.003 C 
ATOM     25  C   UNL A   1      35.461  21.347  25.793  1.00  0.00     0.008 C 
ATOM     26  C   UNL A   1      37.079  22.507  24.054  1.00  0.00     0.013 C 
ATOM     27  C   UNL A   1      36.365  23.608  26.103  1.00  0.00     0.013 C 
ENDBRANCH  19  21
ENDBRANCH  13  15
ENDBRANCH   9  13
ENDBRANCH   5   8
ENDBRANCH   3   4
ENDBRANCH   2   3
ENDBRANCH   1   2
BRANCH   1  28
ATOM     28  C   UNL A   1      31.337  30.965  26.378  1.00  0.00     0.002 C 
BRANCH  28  29
ATOM     29  C   UNL A   1      31.346  32.487  26.538  1.00  0.00     0.021 C 
BRANCH  29  30
ATOM     30  C   UNL A   1      32.626  33.079  27.127  1.00  0.00     0.116 C 
BRANCH  30  31
ATOM     31  N   UNL A   1      32.422  34.401  27.700  1.00  0.00    -0.352 N 
ATOM     32  C   UNL A   1      33.040  35.008  28.764  1.00  0.00     0.251 C 
ATOM     33  H   UNL A   1      31.734  34.946  27.254  1.00  0.00     0.163 HD
ATOM     34  O   UNL A   1      32.613  36.082  29.188  1.00  0.00    -0.269 OA
BRANCH  32  35
ATOM     35  C   UNL A   1      34.201  34.376  29.430  1.00  0.00     0.039 A 
ATOM     36  C   UNL A   1      33.976  33.546  30.533  1.00  0.00     0.014 A 
ATOM     37  C   UNL A   1      35.507  34.613  28.995  1.00  0.00     0.014 A 
ATOM     38  C   UNL A   1      35.049  32.901  31.152  1.00  0.00     0.010 A 
ATOM     39  C   UNL A   1      36.570  33.915  29.568  1.00  0.00     0.010 A 
ATOM     40  C   UNL A   1      36.353  33.050  30.651  1.00  0.00    -0.014 A 
BRANCH  40  41
ATOM     41  C   UNL A   1      37.495  32.297  31.238  1.00  0.00     0.031 A 
ATOM     42  C   UNL A   1      38.023  32.655  32.600  1.00  0.00     0.074 A 
ATOM     43  C   UNL A   1      38.097  31.332  30.517  1.00  0.00     0.049 A 
ATOM     44  N   UNL A   1      39.051  32.163  33.246  1.00  0.00    -0.248 NA
ATOM     45  C   UNL A   1      37.319  33.725  33.324  1.00  0.00     0.031 C 
ATOM     46  C   UNL A   1      37.707  30.916  29.169  1.00  0.00     0.029 A 
ATOM     47  N   UNL A   1      39.174  30.531  30.811  1.00  0.00    -0.354 N 
ATOM     48  C   UNL A   1      39.124  32.870  34.440  1.00  0.00     0.074 A 
ATOM     49  C   UNL A   1      38.069  33.860  34.408  1.00  0.00     0.031 C 
ATOM     50  C   UNL A   1      38.516  29.924  28.763  1.00  0.00     0.029 A 
ATOM     51  C   UNL A   1      39.507  29.662  29.801  1.00  0.00     0.049 A 
ATOM     52  H   UNL A   1      39.660  30.574  31.666  1.00  0.00     0.167 HD
ATOM     53  C   UNL A   1      39.979  32.695  35.476  1.00  0.00     0.037 A 
ATOM     54  C   UNL A   1      40.508  28.763  29.714  1.00  0.00     0.037 A 
ATOM     55  C   UNL A   1      41.013  31.693  35.515  1.00  0.00     0.049 A 
ATOM     56  C   UNL A   1      41.455  28.604  30.874  1.00  0.00     0.074 A 
ATOM     57  C   UNL A   1      41.889  31.397  36.546  1.00  0.00     0.029 A 
ATOM     58  N   UNL A   1      41.315  30.827  34.475  1.00  0.00    -0.354 N 
ATOM     59  N   UNL A   1      41.469  29.230  32.025  1.00  0.00    -0.248 NA
ATOM     60  C   UNL A   1      42.525  27.608  30.721  1.00  0.00     0.031 C 
ATOM     61  C   UNL A   1      42.756  30.391  36.110  1.00  0.00     0.029 A 
ATOM     62  C   UNL A   1      42.383  30.016  34.830  1.00  0.00     0.049 A 
ATOM     63  H   UNL A   1      40.842  30.792  33.613  1.00  0.00     0.167 HD
ATOM     64  C   UNL A   1      42.521  28.682  32.746  1.00  0.00     0.074 A 
ATOM     65  C   UNL A   1      43.115  27.662  31.908  1.00  0.00     0.031 C 
ATOM     66  C   UNL A   1      42.957  28.995  33.991  1.00  0.00     0.037 A 
BRANCH  53  67
ATOM     67  C   UNL A   1      39.838  33.609  36.660  1.00  0.00     0.064 A 
ATOM     68  C   UNL A   1      40.557  34.810  36.756  1.00  0.00     0.173 A 
ATOM     69  C   UNL A   1      38.931  33.305  37.688  1.00  0.00     0.173 A 
ATOM     70  F   UNL A   1      41.442  35.145  35.806  1.00  0.00    -0.203 F 
ATOM     71  C   UNL A   1      40.393  35.659  37.848  1.00  0.00     0.198 A 
ATOM     72  C   UNL A   1      38.746  34.172  38.763  1.00  0.00     0.198 A 
ATOM     73  F   UNL A   1      38.211  32.173  37.643  1.00  0.00    -0.203 F 
ATOM     74  F   UNL A   1      41.126  36.777  37.941  1.00  0.00    -0.200 F 
ATOM     75  C   UNL A   1      39.483  35.344  38.845  1.00  0.00     0.200 A 
ATOM     76  F   UNL A   1      37.855  33.873  39.716  1.00  0.00    -0.200 F 
ATOM     77  F   UNL A   1      39.320  36.167  39.891  1.00  0.00    -0.200 F 
ENDBRANCH  53  67
BRANCH  54  78
ATOM     78  C   UNL A   1      40.658  27.928  28.494  1.00  0.00     0.064 A 
ATOM     79  C   UNL A   1      40.038  26.673  28.398  1.00  0.00     0.173 A 
ATOM     80  C   UNL A   1      41.440  28.352  27.409  1.00  0.00     0.173 A 
ATOM     81  F   UNL A   1      39.298  26.214  29.418  1.00  0.00    -0.203 F 
ATOM     82  C   UNL A   1      40.216  25.864  27.277  1.00  0.00     0.198 A 
ATOM     83  C   UNL A   1      41.590  27.555  26.275  1.00  0.00     0.198 A 
ATOM     84  F   UNL A   1      42.052  29.544  27.447  1.00  0.00    -0.203 F 
ATOM     85  F   UNL A   1      39.657  24.647  27.237  1.00  0.00    -0.200 F 
ATOM     86  C   UNL A   1      40.987  26.308  26.215  1.00  0.00     0.200 A 
ATOM     87  F   UNL A   1      42.324  27.995  25.244  1.00  0.00    -0.200 F 
ATOM     88  F   UNL A   1      41.158  25.530  25.137  1.00  0.00    -0.200 F 
ENDBRANCH  54  78
BRANCH  66  89
ATOM     89  C   UNL A   1      44.105  28.198  34.543  1.00  0.00     0.064 A 
ATOM     90  C   UNL A   1      43.911  26.961  35.176  1.00  0.00     0.173 A 
ATOM     91  C   UNL A   1      45.422  28.662  34.400  1.00  0.00     0.173 A 
ATOM     92  F   UNL A   1      42.670  26.480  35.350  1.00  0.00    -0.203 F 
ATOM     93  C   UNL A   1      44.990  26.234  35.671  1.00  0.00     0.198 A 
ATOM     94  C   UNL A   1      46.500  27.915  34.866  1.00  0.00     0.198 A 
ATOM     95  F   UNL A   1      45.664  29.835  33.796  1.00  0.00    -0.203 F 
ATOM     96  F   UNL A   1      44.775  25.080  36.319  1.00  0.00    -0.200 F 
ATOM     97  C   UNL A   1      46.283  26.706  35.508  1.00  0.00     0.200 A 
ATOM     98  F   UNL A   1      47.751  28.367  34.694  1.00  0.00    -0.200 F 
ATOM     99  F   UNL A   1      47.320  26.000  35.978  1.00  0.00    -0.200 F 
ENDBRANCH  66  89
ENDBRANCH  40  41
ENDBRANCH  32  35
ENDBRANCH  30  31
ENDBRANCH  29  30
ENDBRANCH  28  29
ENDBRANCH   1  28
TORSDOF 16
ENDMDL
