MODEL 1
REMARK VINA RESULT:     -11.3      0.000      0.000
REMARK SMILES Cc1nc(C(F)(F)F)c(C(=O)NCCCCCCNC(=O)c2ccc(-c3c4nc(c(-c5c(F)c(F)c(F)c(F)c5F)c5ccc([nH]5)c(-c5c(F)c(F)c(F)c(F)c5F)c5nc(c(-c6c(F)c(F)c(F)c(F)c6F)c6ccc3[nH]6)C=C5)C=C4)cc2)s1
REMARK SMILES IDX 16 1 15 2 14 3 13 4 12 5 10 6 11 7 9 9 1 10 2 11 3 12 85 13
REMARK SMILES IDX 4 14 5 15 6 16 7 17 8 18 17 19 18 20 19 21 20 22 21 24 22 25
REMARK SMILES IDX 23 26 84 27 24 28 83 29 25 30 26 31 27 32 77 33 28 34 82 35
REMARK SMILES IDX 76 36 78 37 29 38 81 39 75 40 74 41 30 43 62 44 42 45 61 46
REMARK SMILES IDX 43 47 46 48 60 49 79 50 44 51 45 52 59 54 80 55 47 56 31 57
REMARK SMILES IDX 32 58 40 59 33 60 34 61 38 62 41 63 35 64 36 65 39 66 37 67
REMARK SMILES IDX 63 68 64 69 72 70 65 71 66 72 70 73 73 74 67 75 68 76 71 77
REMARK SMILES IDX 69 78 48 79 49 80 57 81 50 82 51 83 55 84 58 85 52 86 53 87
REMARK SMILES IDX 56 88 54 89
REMARK H PARENT 12 8 19 23 78 42 46 53
REMARK Flexibility Score: inf
ROOT
ATOM      1  C   UNL A   1      31.402  30.869  25.978  1.00  0.00     0.002 C 
ENDROOT
BRANCH   1   2
ATOM      2  C   UNL A   1      32.351  29.954  26.765  1.00  0.00     0.002 C 
BRANCH   2   3
ATOM      3  C   UNL A   1      31.698  28.709  27.380  1.00  0.00     0.021 C 
BRANCH   3   4
ATOM      4  C   UNL A   1      32.300  27.396  26.882  1.00  0.00     0.116 C 
BRANCH   4   5
ATOM      5  N   UNL A   1      31.327  26.593  26.193  1.00  0.00    -0.351 N 
ATOM      6  C   UNL A   1      30.656  26.625  25.006  1.00  0.00     0.263 C 
ATOM      7  O   UNL A   1      29.957  25.608  24.877  1.00  0.00    -0.268 OA
ATOM      8  H   UNL A   1      31.075  25.804  26.725  1.00  0.00     0.163 HD
BRANCH   6   9
ATOM      9  C   UNL A   1      30.695  27.662  23.971  1.00  0.00     0.124 A 
ATOM     10  C   UNL A   1      28.831  30.206  21.613  1.00  0.00     0.079 C 
ATOM     11  C   UNL A   1      29.725  29.321  22.405  1.00  0.00     0.091 A 
ATOM     12  N   UNL A   1      31.028  29.329  22.329  1.00  0.00    -0.236 NA
ATOM     13  S   UNL A   1      29.083  28.202  23.501  1.00  0.00    -0.113 S 
ATOM     14  C   UNL A   1      31.615  28.400  23.216  1.00  0.00     0.168 A 
BRANCH  14  15
ATOM     15  C   UNL A   1      33.113  28.382  23.183  1.00  0.00     0.435 C 
ATOM     16  F   UNL A   1      33.603  28.276  21.919  1.00  0.00    -0.164 F 
ATOM     17  F   UNL A   1      33.651  29.495  23.750  1.00  0.00    -0.164 F 
ATOM     18  F   UNL A   1      33.646  27.333  23.869  1.00  0.00    -0.164 F 
ENDBRANCH  14  15
ENDBRANCH   6   9
ENDBRANCH   4   5
ENDBRANCH   3   4
ENDBRANCH   2   3
ENDBRANCH   1   2
BRANCH   1  19
ATOM     19  C   UNL A   1      31.290  32.303  26.501  1.00  0.00     0.021 C 
BRANCH  19  20
ATOM     20  C   UNL A   1      32.526  32.811  27.238  1.00  0.00     0.116 C 
BRANCH  20  21
ATOM     21  N   UNL A   1      32.389  34.204  27.627  1.00  0.00    -0.352 N 
ATOM     22  C   UNL A   1      33.017  34.905  28.624  1.00  0.00     0.251 C 
ATOM     23  H   UNL A   1      31.747  34.725  27.092  1.00  0.00     0.163 HD
ATOM     24  O   UNL A   1      32.609  36.018  28.942  1.00  0.00    -0.269 OA
BRANCH  22  25
ATOM     25  C   UNL A   1      34.183  34.324  29.322  1.00  0.00     0.039 A 
ATOM     26  C   UNL A   1      33.972  33.627  30.515  1.00  0.00     0.014 A 
ATOM     27  C   UNL A   1      35.478  34.498  28.829  1.00  0.00     0.014 A 
ATOM     28  C   UNL A   1      35.056  33.062  31.188  1.00  0.00     0.010 A 
ATOM     29  C   UNL A   1      36.551  33.878  29.464  1.00  0.00     0.010 A 
ATOM     30  C   UNL A   1      36.352  33.160  30.652  1.00  0.00    -0.014 A 
BRANCH  30  31
ATOM     31  C   UNL A   1      37.510  32.523  31.327  1.00  0.00     0.031 A 
ATOM     32  C   UNL A   1      38.237  31.385  30.667  1.00  0.00     0.074 A 
ATOM     33  C   UNL A   1      37.866  32.931  32.560  1.00  0.00     0.049 A 
ATOM     34  N   UNL A   1      39.223  30.656  31.125  1.00  0.00    -0.248 NA
ATOM     35  C   UNL A   1      37.779  31.000  29.323  1.00  0.00     0.031 C 
ATOM     36  C   UNL A   1      37.209  33.996  33.320  1.00  0.00     0.029 A 
ATOM     37  N   UNL A   1      38.861  32.490  33.396  1.00  0.00    -0.354 N 
ATOM     38  C   UNL A   1      39.492  29.720  30.134  1.00  0.00     0.074 A 
ATOM     39  C   UNL A   1      38.535  29.941  29.072  1.00  0.00     0.031 C 
ATOM     40  C   UNL A   1      37.830  34.137  34.503  1.00  0.00     0.029 A 
ATOM     41  C   UNL A   1      38.901  33.150  34.599  1.00  0.00     0.049 A 
ATOM     42  H   UNL A   1      39.487  31.770  33.156  1.00  0.00     0.167 HD
ATOM     43  C   UNL A   1      40.465  28.778  30.105  1.00  0.00     0.037 A 
ATOM     44  C   UNL A   1      39.707  32.974  35.664  1.00  0.00     0.037 A 
ATOM     45  C   UNL A   1      41.431  28.579  31.154  1.00  0.00     0.049 A 
ATOM     46  C   UNL A   1      40.774  31.915  35.607  1.00  0.00     0.074 A 
ATOM     47  C   UNL A   1      42.491  27.691  31.193  1.00  0.00     0.029 A 
ATOM     48  N   UNL A   1      41.452  29.280  32.350  1.00  0.00    -0.354 N 
ATOM     49  N   UNL A   1      41.063  31.081  34.637  1.00  0.00    -0.248 NA
ATOM     50  C   UNL A   1      41.633  31.777  36.791  1.00  0.00     0.031 C 
ATOM     51  C   UNL A   1      43.127  27.823  32.432  1.00  0.00     0.029 A 
ATOM     52  C   UNL A   1      42.494  28.829  33.144  1.00  0.00     0.049 A 
ATOM     53  H   UNL A   1      40.819  29.993  32.599  1.00  0.00     0.167 HD
ATOM     54  C   UNL A   1      42.149  30.341  35.081  1.00  0.00     0.074 A 
ATOM     55  C   UNL A   1      42.480  30.835  36.401  1.00  0.00     0.031 C 
ATOM     56  C   UNL A   1      42.813  29.339  34.453  1.00  0.00     0.037 A 
BRANCH  43  57
ATOM     57  C   UNL A   1      40.539  27.892  28.896  1.00  0.00     0.064 A 
ATOM     58  C   UNL A   1      41.353  28.212  27.798  1.00  0.00     0.173 A 
ATOM     59  C   UNL A   1      39.825  26.685  28.851  1.00  0.00     0.173 A 
ATOM     60  F   UNL A   1      42.049  29.360  27.786  1.00  0.00    -0.203 F 
ATOM     61  C   UNL A   1      41.428  27.371  26.691  1.00  0.00     0.198 A 
ATOM     62  C   UNL A   1      39.925  25.832  27.756  1.00  0.00     0.198 A 
ATOM     63  F   UNL A   1      39.036  26.328  29.876  1.00  0.00    -0.203 F 
ATOM     64  F   UNL A   1      42.178  27.720  25.636  1.00  0.00    -0.200 F 
ATOM     65  C   UNL A   1      40.721  26.179  26.674  1.00  0.00     0.200 A 
ATOM     66  F   UNL A   1      39.251  24.674  27.745  1.00  0.00    -0.200 F 
ATOM     67  F   UNL A   1      40.802  25.365  25.612  1.00  0.00    -0.200 F 
ENDBRANCH  43  57
BRANCH  44  68
ATOM     68  C   UNL A   1      39.548  33.830  36.867  1.00  0.00     0.064 A 
ATOM     69  C   UNL A   1      38.759  33.410  37.948  1.00  0.00     0.173 A 
ATOM     70  C   UNL A   1      40.169  35.084  36.960  1.00  0.00     0.173 A 
ATOM     71  F   UNL A   1      38.129  32.228  37.897  1.00  0.00    -0.203 F 
ATOM     72  C   UNL A   1      38.578  34.223  39.066  1.00  0.00     0.198 A 
ATOM     73  C   UNL A   1      40.010  35.884  38.090  1.00  0.00     0.198 A 
ATOM     74  F   UNL A   1      40.938  35.529  35.956  1.00  0.00    -0.203 F 
ATOM     75  F   UNL A   1      37.779  33.819  40.063  1.00  0.00    -0.200 F 
ATOM     76  C   UNL A   1      39.208  35.457  39.138  1.00  0.00     0.200 A 
ATOM     77  F   UNL A   1      40.632  37.068  38.163  1.00  0.00    -0.200 F 
ATOM     78  F   UNL A   1      39.035  36.237  40.213  1.00  0.00    -0.200 F 
ENDBRANCH  44  68
BRANCH  56  79
ATOM     79  C   UNL A   1      43.985  28.736  35.172  1.00  0.00     0.064 A 
ATOM     80  C   UNL A   1      45.265  29.304  35.098  1.00  0.00     0.173 A 
ATOM     81  C   UNL A   1      43.815  27.599  35.976  1.00  0.00     0.173 A 
ATOM     82  F   UNL A   1      45.481  30.383  34.330  1.00  0.00    -0.203 F 
ATOM     83  C   UNL A   1      46.338  28.740  35.783  1.00  0.00     0.198 A 
ATOM     84  C   UNL A   1      44.883  27.055  36.683  1.00  0.00     0.198 A 
ATOM     85  F   UNL A   1      42.608  27.022  36.085  1.00  0.00    -0.203 F 
ATOM     86  F   UNL A   1      47.563  29.271  35.660  1.00  0.00    -0.200 F 
ATOM     87  C   UNL A   1      46.145  27.621  36.580  1.00  0.00     0.200 A 
ATOM     88  F   UNL A   1      44.693  25.982  37.463  1.00  0.00    -0.200 F 
ATOM     89  F   UNL A   1      47.177  27.084  37.243  1.00  0.00    -0.200 F 
ENDBRANCH  56  79
ENDBRANCH  30  31
ENDBRANCH  22  25
ENDBRANCH  20  21
ENDBRANCH  19  20
ENDBRANCH   1  19
TORSDOF 14
ENDMDL
MODEL 2
REMARK VINA RESULT:     -11.2      1.547      2.661
REMARK SMILES Cc1nc(C(F)(F)F)c(C(=O)NCCCCCCNC(=O)c2ccc(-c3c4nc(c(-c5c(F)c(F)c(F)c(F)c5F)c5ccc([nH]5)c(-c5c(F)c(F)c(F)c(F)c5F)c5nc(c(-c6c(F)c(F)c(F)c(F)c6F)c6ccc3[nH]6)C=C5)C=C4)cc2)s1
REMARK SMILES IDX 16 1 15 2 14 3 13 4 12 5 10 6 11 7 9 9 1 10 2 11 3 12 85 13
REMARK SMILES IDX 4 14 5 15 6 16 7 17 8 18 17 19 18 20 19 21 20 22 21 24 22 25
REMARK SMILES IDX 23 26 84 27 24 28 83 29 25 30 26 31 27 32 77 33 28 34 82 35
REMARK SMILES IDX 76 36 78 37 29 38 81 39 75 40 74 41 30 43 62 44 42 45 61 46
REMARK SMILES IDX 43 47 46 48 60 49 79 50 44 51 45 52 59 54 80 55 47 56 31 57
REMARK SMILES IDX 32 58 40 59 33 60 34 61 38 62 41 63 35 64 36 65 39 66 37 67
REMARK SMILES IDX 63 68 64 69 72 70 65 71 66 72 70 73 73 74 67 75 68 76 71 77
REMARK SMILES IDX 69 78 48 79 49 80 57 81 50 82 51 83 55 84 58 85 52 86 53 87
REMARK SMILES IDX 56 88 54 89
REMARK H PARENT 12 8 19 23 78 42 46 53
REMARK Flexibility Score: inf
ROOT
ATOM      1  C   UNL A   1      31.395  30.797  26.020  1.00  0.00     0.002 C 
ENDROOT
BRANCH   1   2
ATOM      2  C   UNL A   1      32.325  29.896  26.846  1.00  0.00     0.002 C 
BRANCH   2   3
ATOM      3  C   UNL A   1      31.716  28.560  27.288  1.00  0.00     0.021 C 
BRANCH   3   4
ATOM      4  C   UNL A   1      31.602  27.538  26.157  1.00  0.00     0.116 C 
BRANCH   4   5
ATOM      5  N   UNL A   1      31.360  26.213  26.660  1.00  0.00    -0.351 N 
ATOM      6  C   UNL A   1      31.885  24.965  26.496  1.00  0.00     0.263 C 
ATOM      7  O   UNL A   1      31.321  24.158  27.250  1.00  0.00    -0.268 OA
ATOM      8  H   UNL A   1      30.609  26.205  27.296  1.00  0.00     0.163 HD
BRANCH   6   9
ATOM      9  C   UNL A   1      32.958  24.546  25.591  1.00  0.00     0.124 A 
ATOM     10  C   UNL A   1      35.947  22.133  24.724  1.00  0.00     0.079 C 
ATOM     11  C   UNL A   1      34.868  23.147  24.856  1.00  0.00     0.091 A 
ATOM     12  N   UNL A   1      34.590  24.050  23.955  1.00  0.00    -0.236 NA
ATOM     13  S   UNL A   1      33.891  23.195  26.237  1.00  0.00    -0.113 S 
ATOM     14  C   UNL A   1      33.499  24.861  24.339  1.00  0.00     0.168 A 
BRANCH  14  15
ATOM     15  C   UNL A   1      33.126  25.904  23.330  1.00  0.00     0.435 C 
ATOM     16  F   UNL A   1      31.780  26.046  23.203  1.00  0.00    -0.164 F 
ATOM     17  F   UNL A   1      33.650  27.122  23.635  1.00  0.00    -0.164 F 
ATOM     18  F   UNL A   1      33.582  25.618  22.078  1.00  0.00    -0.164 F 
ENDBRANCH  14  15
ENDBRANCH   6   9
ENDBRANCH   4   5
ENDBRANCH   3   4
ENDBRANCH   2   3
ENDBRANCH   1   2
BRANCH   1  19
ATOM     19  C   UNL A   1      31.314  32.255  26.480  1.00  0.00     0.021 C 
BRANCH  19  20
ATOM     20  C   UNL A   1      32.541  32.752  27.239  1.00  0.00     0.116 C 
BRANCH  20  21
ATOM     21  N   UNL A   1      32.411  34.147  27.623  1.00  0.00    -0.352 N 
ATOM     22  C   UNL A   1      33.039  34.848  28.620  1.00  0.00     0.251 C 
ATOM     23  H   UNL A   1      31.775  34.670  27.084  1.00  0.00     0.163 HD
ATOM     24  O   UNL A   1      32.636  35.964  28.934  1.00  0.00    -0.269 OA
BRANCH  22  25
ATOM     25  C   UNL A   1      34.198  34.262  29.325  1.00  0.00     0.039 A 
ATOM     26  C   UNL A   1      33.970  33.486  30.466  1.00  0.00     0.014 A 
ATOM     27  C   UNL A   1      35.503  34.507  28.892  1.00  0.00     0.014 A 
ATOM     28  C   UNL A   1      35.048  32.916  31.143  1.00  0.00     0.010 A 
ATOM     29  C   UNL A   1      36.574  33.883  29.529  1.00  0.00     0.010 A 
ATOM     30  C   UNL A   1      36.357  33.088  30.663  1.00  0.00    -0.014 A 
BRANCH  30  31
ATOM     31  C   UNL A   1      37.512  32.447  31.341  1.00  0.00     0.031 A 
ATOM     32  C   UNL A   1      38.223  31.292  30.694  1.00  0.00     0.074 A 
ATOM     33  C   UNL A   1      37.879  32.869  32.566  1.00  0.00     0.049 A 
ATOM     34  N   UNL A   1      39.202  30.558  31.157  1.00  0.00    -0.248 NA
ATOM     35  C   UNL A   1      37.753  30.892  29.358  1.00  0.00     0.031 C 
ATOM     36  C   UNL A   1      37.239  33.953  33.314  1.00  0.00     0.029 A 
ATOM     37  N   UNL A   1      38.874  32.430  33.403  1.00  0.00    -0.354 N 
ATOM     38  C   UNL A   1      39.456  29.605  30.179  1.00  0.00     0.074 A 
ATOM     39  C   UNL A   1      38.496  29.821  29.119  1.00  0.00     0.031 C 
ATOM     40  C   UNL A   1      37.868  34.104  34.491  1.00  0.00     0.029 A 
ATOM     41  C   UNL A   1      38.928  33.107  34.596  1.00  0.00     0.049 A 
ATOM     42  H   UNL A   1      39.490  31.699  33.170  1.00  0.00     0.167 HD
ATOM     43  C   UNL A   1      40.418  28.652  30.158  1.00  0.00     0.037 A 
ATOM     44  C   UNL A   1      39.738  32.937  35.659  1.00  0.00     0.037 A 
ATOM     45  C   UNL A   1      41.387  28.457  31.205  1.00  0.00     0.049 A 
ATOM     46  C   UNL A   1      40.793  31.865  35.612  1.00  0.00     0.074 A 
ATOM     47  C   UNL A   1      42.438  27.558  31.252  1.00  0.00     0.029 A 
ATOM     48  N   UNL A   1      41.422  29.176  32.390  1.00  0.00    -0.354 N 
ATOM     49  N   UNL A   1      41.066  31.014  34.653  1.00  0.00    -0.248 NA
ATOM     50  C   UNL A   1      41.657  31.735  36.793  1.00  0.00     0.031 C 
ATOM     51  C   UNL A   1      43.082  27.701  32.485  1.00  0.00     0.029 A 
ATOM     52  C   UNL A   1      42.464  28.725  33.186  1.00  0.00     0.049 A 
ATOM     53  H   UNL A   1      40.800  29.899  32.633  1.00  0.00     0.167 HD
ATOM     54  C   UNL A   1      42.147  30.269  35.102  1.00  0.00     0.074 A 
ATOM     55  C   UNL A   1      42.491  30.778  36.413  1.00  0.00     0.031 C 
ATOM     56  C   UNL A   1      42.796  29.250  34.485  1.00  0.00     0.037 A 
BRANCH  43  57
ATOM     57  C   UNL A   1      40.475  27.747  28.963  1.00  0.00     0.064 A 
ATOM     58  C   UNL A   1      39.696  26.581  28.885  1.00  0.00     0.173 A 
ATOM     59  C   UNL A   1      41.283  28.069  27.861  1.00  0.00     0.173 A 
ATOM     60  F   UNL A   1      38.915  26.222  29.915  1.00  0.00    -0.203 F 
ATOM     61  C   UNL A   1      39.743  25.761  27.761  1.00  0.00     0.198 A 
ATOM     62  C   UNL A   1      41.305  27.262  26.727  1.00  0.00     0.198 A 
ATOM     63  F   UNL A   1      42.043  29.174  27.881  1.00  0.00    -0.203 F 
ATOM     64  F   UNL A   1      39.024  24.630  27.729  1.00  0.00    -0.200 F 
ATOM     65  C   UNL A   1      40.541  26.105  26.681  1.00  0.00     0.200 A 
ATOM     66  F   UNL A   1      42.066  27.603  25.679  1.00  0.00    -0.200 F 
ATOM     67  F   UNL A   1      40.578  25.320  25.596  1.00  0.00    -0.200 F 
ENDBRANCH  43  57
BRANCH  44  68
ATOM     68  C   UNL A   1      39.595  33.813  36.850  1.00  0.00     0.064 A 
ATOM     69  C   UNL A   1      38.766  33.442  37.919  1.00  0.00     0.173 A 
ATOM     70  C   UNL A   1      40.272  35.037  36.944  1.00  0.00     0.173 A 
ATOM     71  F   UNL A   1      38.082  32.290  37.867  1.00  0.00    -0.203 F 
ATOM     72  C   UNL A   1      38.602  34.275  39.025  1.00  0.00     0.198 A 
ATOM     73  C   UNL A   1      40.129  35.855  38.062  1.00  0.00     0.198 A 
ATOM     74  F   UNL A   1      41.081  35.435  35.951  1.00  0.00    -0.203 F 
ATOM     75  F   UNL A   1      37.765  33.919  40.009  1.00  0.00    -0.200 F 
ATOM     76  C   UNL A   1      39.287  35.478  39.097  1.00  0.00     0.200 A 
ATOM     77  F   UNL A   1      40.805  37.010  38.136  1.00  0.00    -0.200 F 
ATOM     78  F   UNL A   1      39.130  36.277  40.162  1.00  0.00    -0.200 F 
ENDBRANCH  44  68
BRANCH  56  79
ATOM     79  C   UNL A   1      43.965  28.644  35.207  1.00  0.00     0.064 A 
ATOM     80  C   UNL A   1      43.812  27.543  36.060  1.00  0.00     0.173 A 
ATOM     81  C   UNL A   1      45.259  29.148  35.009  1.00  0.00     0.173 A 
ATOM     82  F   UNL A   1      42.592  27.034  36.294  1.00  0.00    -0.203 F 
ATOM     83  C   UNL A   1      44.908  26.984  36.711  1.00  0.00     0.198 A 
ATOM     84  C   UNL A   1      46.358  28.569  35.638  1.00  0.00     0.198 A 
ATOM     85  F   UNL A   1      45.460  30.197  34.196  1.00  0.00    -0.203 F 
ATOM     86  F   UNL A   1      44.732  25.962  37.560  1.00  0.00    -0.200 F 
ATOM     87  C   UNL A   1      46.180  27.493  36.493  1.00  0.00     0.200 A 
ATOM     88  F   UNL A   1      47.588  29.052  35.415  1.00  0.00    -0.200 F 
ATOM     89  F   UNL A   1      47.235  26.949  37.115  1.00  0.00    -0.200 F 
ENDBRANCH  56  79
ENDBRANCH  30  31
ENDBRANCH  22  25
ENDBRANCH  20  21
ENDBRANCH  19  20
ENDBRANCH   1  19
TORSDOF 14
ENDMDL
MODEL 3
REMARK VINA RESULT:     -11.2      6.345     11.466
REMARK SMILES Cc1nc(C(F)(F)F)c(C(=O)NCCCCCCNC(=O)c2ccc(-c3c4nc(c(-c5c(F)c(F)c(F)c(F)c5F)c5ccc([nH]5)c(-c5c(F)c(F)c(F)c(F)c5F)c5nc(c(-c6c(F)c(F)c(F)c(F)c6F)c6ccc3[nH]6)C=C5)C=C4)cc2)s1
REMARK SMILES IDX 16 1 15 2 14 3 13 4 12 5 10 6 11 7 9 9 1 10 2 11 3 12 85 13
REMARK SMILES IDX 4 14 5 15 6 16 7 17 8 18 17 19 18 20 19 21 20 22 21 24 22 25
REMARK SMILES IDX 23 26 84 27 24 28 83 29 25 30 26 31 27 32 77 33 28 34 82 35
REMARK SMILES IDX 76 36 78 37 29 38 81 39 75 40 74 41 30 43 62 44 42 45 61 46
REMARK SMILES IDX 43 47 46 48 60 49 79 50 44 51 45 52 59 54 80 55 47 56 31 57
REMARK SMILES IDX 32 58 40 59 33 60 34 61 38 62 41 63 35 64 36 65 39 66 37 67
REMARK SMILES IDX 63 68 64 69 72 70 65 71 66 72 70 73 73 74 67 75 68 76 71 77
REMARK SMILES IDX 69 78 48 79 49 80 57 81 50 82 51 83 55 84 58 85 52 86 53 87
REMARK SMILES IDX 56 88 54 89
REMARK H PARENT 12 8 19 23 78 42 46 53
REMARK Flexibility Score: inf
ROOT
ATOM      1  C   UNL A   1      36.840  20.445  24.825  1.00  0.00     0.002 C 
ENDROOT
BRANCH   1   2
ATOM      2  C   UNL A   1      37.189  21.932  24.661  1.00  0.00     0.002 C 
BRANCH   2   3
ATOM      3  C   UNL A   1      36.603  22.606  23.415  1.00  0.00     0.021 C 
BRANCH   3   4
ATOM      4  C   UNL A   1      35.475  23.588  23.727  1.00  0.00     0.116 C 
BRANCH   4   5
ATOM      5  N   UNL A   1      34.234  23.182  23.124  1.00  0.00    -0.351 N 
ATOM      6  C   UNL A   1      33.242  22.280  23.376  1.00  0.00     0.263 C 
ATOM      7  O   UNL A   1      32.332  22.396  22.542  1.00  0.00    -0.268 OA
ATOM      8  H   UNL A   1      34.051  23.694  22.304  1.00  0.00     0.163 HD
BRANCH   6   9
ATOM      9  C   UNL A   1      33.173  21.287  24.452  1.00  0.00     0.124 A 
ATOM     10  C   UNL A   1      32.602  17.578  25.644  1.00  0.00     0.079 C 
ATOM     11  C   UNL A   1      32.847  19.026  25.414  1.00  0.00     0.091 A 
ATOM     12  N   UNL A   1      33.151  19.881  26.352  1.00  0.00    -0.236 NA
ATOM     13  S   UNL A   1      32.744  19.683  23.857  1.00  0.00    -0.113 S 
ATOM     14  C   UNL A   1      33.352  21.181  25.836  1.00  0.00     0.168 A 
BRANCH  14  15
ATOM     15  C   UNL A   1      33.722  22.199  26.871  1.00  0.00     0.435 C 
ATOM     16  F   UNL A   1      33.029  22.039  28.029  1.00  0.00    -0.164 F 
ATOM     17  F   UNL A   1      35.049  22.169  27.168  1.00  0.00    -0.164 F 
ATOM     18  F   UNL A   1      33.471  23.477  26.470  1.00  0.00    -0.164 F 
ENDBRANCH  14  15
ENDBRANCH   6   9
ENDBRANCH   4   5
ENDBRANCH   3   4
ENDBRANCH   2   3
ENDBRANCH   1   2
BRANCH   1  19
ATOM     19  C   UNL A   1      38.038  19.501  24.958  1.00  0.00     0.021 C 
BRANCH  19  20
ATOM     20  C   UNL A   1      39.188  20.046  25.799  1.00  0.00     0.116 C 
BRANCH  20  21
ATOM     21  N   UNL A   1      40.269  19.083  25.927  1.00  0.00    -0.352 N 
ATOM     22  C   UNL A   1      41.614  19.286  26.093  1.00  0.00     0.251 C 
ATOM     23  H   UNL A   1      39.991  18.139  25.891  1.00  0.00     0.163 HD
ATOM     24  O   UNL A   1      42.397  18.351  25.960  1.00  0.00    -0.269 OA
BRANCH  22  25
ATOM     25  C   UNL A   1      42.128  20.631  26.426  1.00  0.00     0.039 A 
ATOM     26  C   UNL A   1      42.514  21.480  25.385  1.00  0.00     0.014 A 
ATOM     27  C   UNL A   1      42.269  21.040  27.754  1.00  0.00     0.014 A 
ATOM     28  C   UNL A   1      42.994  22.758  25.674  1.00  0.00     0.010 A 
ATOM     29  C   UNL A   1      42.684  22.338  28.040  1.00  0.00     0.010 A 
ATOM     30  C   UNL A   1      43.057  23.206  27.004  1.00  0.00    -0.014 A 
BRANCH  30  31
ATOM     31  C   UNL A   1      43.518  24.579  27.329  1.00  0.00     0.031 A 
ATOM     32  C   UNL A   1      42.548  25.596  27.863  1.00  0.00     0.074 A 
ATOM     33  C   UNL A   1      44.796  24.925  27.085  1.00  0.00     0.049 A 
ATOM     34  N   UNL A   1      42.741  26.860  28.138  1.00  0.00    -0.248 NA
ATOM     35  C   UNL A   1      41.170  25.135  28.095  1.00  0.00     0.031 C 
ATOM     36  C   UNL A   1      45.820  24.039  26.528  1.00  0.00     0.029 A 
ATOM     37  N   UNL A   1      45.450  26.118  27.263  1.00  0.00    -0.354 N 
ATOM     38  C   UNL A   1      41.512  27.348  28.561  1.00  0.00     0.074 A 
ATOM     39  C   UNL A   1      40.566  26.257  28.460  1.00  0.00     0.031 C 
ATOM     40  C   UNL A   1      46.976  24.714  26.426  1.00  0.00     0.029 A 
ATOM     41  C   UNL A   1      46.767  26.087  26.874  1.00  0.00     0.049 A 
ATOM     42  H   UNL A   1      45.017  26.920  27.634  1.00  0.00     0.167 HD
ATOM     43  C   UNL A   1      41.205  28.587  29.015  1.00  0.00     0.037 A 
ATOM     44  C   UNL A   1      47.698  27.060  26.872  1.00  0.00     0.037 A 
ATOM     45  C   UNL A   1      42.155  29.662  29.137  1.00  0.00     0.049 A 
ATOM     46  C   UNL A   1      47.328  28.429  27.374  1.00  0.00     0.074 A 
ATOM     47  C   UNL A   1      41.957  30.935  29.641  1.00  0.00     0.029 A 
ATOM     48  N   UNL A   1      43.485  29.587  28.751  1.00  0.00    -0.354 N 
ATOM     49  N   UNL A   1      46.179  28.860  27.835  1.00  0.00    -0.248 NA
ATOM     50  C   UNL A   1      48.388  29.447  27.363  1.00  0.00     0.031 C 
ATOM     51  C   UNL A   1      43.155  31.646  29.518  1.00  0.00     0.029 A 
ATOM     52  C   UNL A   1      44.114  30.799  28.985  1.00  0.00     0.049 A 
ATOM     53  H   UNL A   1      43.918  28.791  28.367  1.00  0.00     0.167 HD
ATOM     54  C   UNL A   1      46.383  30.185  28.193  1.00  0.00     0.074 A 
ATOM     55  C   UNL A   1      47.772  30.484  27.911  1.00  0.00     0.031 C 
ATOM     56  C   UNL A   1      45.499  31.076  28.706  1.00  0.00     0.037 A 
BRANCH  43  57
ATOM     57  C   UNL A   1      39.784  28.848  29.418  1.00  0.00     0.064 A 
ATOM     58  C   UNL A   1      38.838  29.338  28.504  1.00  0.00     0.173 A 
ATOM     59  C   UNL A   1      39.348  28.563  30.722  1.00  0.00     0.173 A 
ATOM     60  F   UNL A   1      39.205  29.637  27.248  1.00  0.00    -0.203 F 
ATOM     61  C   UNL A   1      37.517  29.557  28.886  1.00  0.00     0.198 A 
ATOM     62  C   UNL A   1      38.020  28.755  31.092  1.00  0.00     0.198 A 
ATOM     63  F   UNL A   1      40.210  28.088  31.634  1.00  0.00    -0.203 F 
ATOM     64  F   UNL A   1      36.643  30.068  28.008  1.00  0.00    -0.200 F 
ATOM     65  C   UNL A   1      37.108  29.259  30.177  1.00  0.00     0.200 A 
ATOM     66  F   UNL A   1      37.622  28.454  32.336  1.00  0.00    -0.200 F 
ATOM     67  F   UNL A   1      35.834  29.461  30.540  1.00  0.00    -0.200 F 
ENDBRANCH  43  57
BRANCH  44  68
ATOM     68  C   UNL A   1      49.075  26.771  26.394  1.00  0.00     0.064 A 
ATOM     69  C   UNL A   1      49.421  26.954  25.048  1.00  0.00     0.173 A 
ATOM     70  C   UNL A   1      50.067  26.299  27.265  1.00  0.00     0.173 A 
ATOM     71  F   UNL A   1      48.501  27.384  24.173  1.00  0.00    -0.203 F 
ATOM     72  C   UNL A   1      50.702  26.653  24.587  1.00  0.00     0.198 A 
ATOM     73  C   UNL A   1      51.355  26.025  26.809  1.00  0.00     0.198 A 
ATOM     74  F   UNL A   1      49.788  26.113  28.564  1.00  0.00    -0.203 F 
ATOM     75  F   UNL A   1      50.992  26.789  23.286  1.00  0.00    -0.200 F 
ATOM     76  C   UNL A   1      51.669  26.193  25.469  1.00  0.00     0.200 A 
ATOM     77  F   UNL A   1      52.290  25.595  27.667  1.00  0.00    -0.200 F 
ATOM     78  F   UNL A   1      52.899  25.905  25.025  1.00  0.00    -0.200 F 
ENDBRANCH  44  68
BRANCH  56  79
ATOM     79  C   UNL A   1      46.017  32.448  29.029  1.00  0.00     0.064 A 
ATOM     80  C   UNL A   1      45.955  33.495  28.099  1.00  0.00     0.173 A 
ATOM     81  C   UNL A   1      46.546  32.725  30.298  1.00  0.00     0.173 A 
ATOM     82  F   UNL A   1      45.471  33.276  26.866  1.00  0.00    -0.203 F 
ATOM     83  C   UNL A   1      46.427  34.765  28.419  1.00  0.00     0.198 A 
ATOM     84  C   UNL A   1      46.990  34.003  30.625  1.00  0.00     0.198 A 
ATOM     85  F   UNL A   1      46.622  31.759  31.226  1.00  0.00    -0.203 F 
ATOM     86  F   UNL A   1      46.401  35.740  27.499  1.00  0.00    -0.200 F 
ATOM     87  C   UNL A   1      46.937  35.020  29.684  1.00  0.00     0.200 A 
ATOM     88  F   UNL A   1      47.469  34.252  31.852  1.00  0.00    -0.200 F 
ATOM     89  F   UNL A   1      47.384  36.244  29.992  1.00  0.00    -0.200 F 
ENDBRANCH  56  79
ENDBRANCH  30  31
ENDBRANCH  22  25
ENDBRANCH  20  21
ENDBRANCH  19  20
ENDBRANCH   1  19
TORSDOF 14
ENDMDL
