MODEL 1
REMARK VINA RESULT:     -13.6      0.000      0.000
REMARK SMILES NS(=O)(=O)c1ccc(-n2ccnc2-c2ccc(O)c(C(=O)NCCCCCCNC(=O)c3ccc(-c4c5nc(c(-c6c(F)c(F)c(F)c(F)c6F)c6ccc([nH]6)c(-c6c(F)c(F)c(F)c(F)c6F)c6nc(c(-c7c(F)c(F)c(F)c(F)c7F)c7ccc4[nH]7)C=C6)C=C5)cc3)c2)cc1
REMARK SMILES IDX 24 1 23 2 22 3 20 4 21 5 19 7 14 8 15 9 95 10 16 11 17 12
REMARK SMILES IDX 13 13 9 14 10 15 11 16 12 17 8 18 5 19 6 20 97 21 7 22 96 23
REMARK SMILES IDX 2 24 3 25 4 26 1 27 18 30 25 32 26 33 27 34 28 35 29 36
REMARK SMILES IDX 30 37 31 39 32 40 33 41 94 42 34 43 93 44 35 45 36 46 37 47
REMARK SMILES IDX 87 48 38 49 92 50 86 51 88 52 39 53 91 54 85 55 84 56 40 58
REMARK SMILES IDX 72 59 52 60 71 61 53 62 56 63 70 64 89 65 54 66 55 67 69 69
REMARK SMILES IDX 90 70 57 71 41 72 42 73 50 74 43 75 44 76 48 77 51 78 45 79
REMARK SMILES IDX 46 80 49 81 47 82 73 83 74 84 82 85 75 86 76 87 80 88 83 89
REMARK SMILES IDX 77 90 78 91 81 92 79 93 58 94 59 95 67 96 60 97 61 98 65 99
REMARK SMILES IDX 68 100 62 101 63 102 66 103 64 104
REMARK H PARENT 22 6 1 28 1 29 18 31 29 38 88 57 56 68
REMARK Flexibility Score: inf
ROOT
ATOM      1  C   UNL A   1      31.485  27.096  26.015  1.00  0.00     0.021 C 
ENDROOT
BRANCH   1   2
ATOM      2  C   UNL A   1      30.279  26.167  25.969  1.00  0.00     0.116 C 
BRANCH   2   3
ATOM      3  N   UNL A   1      30.340  25.118  24.962  1.00  0.00    -0.352 N 
ATOM      4  C   UNL A   1      31.098  23.967  24.867  1.00  0.00     0.255 C 
ATOM      5  O   UNL A   1      30.951  23.251  23.873  1.00  0.00    -0.269 OA
ATOM      6  H   UNL A   1      29.726  25.255  24.204  1.00  0.00     0.163 HD
BRANCH   4   7
ATOM      7  C   UNL A   1      32.131  23.565  25.864  1.00  0.00     0.082 A 
ATOM      8  C   UNL A   1      34.463  23.058  26.414  1.00  0.00     0.019 A 
ATOM      9  C   UNL A   1      34.058  22.503  27.628  1.00  0.00     0.016 A 
ATOM     10  C   UNL A   1      33.492  23.648  25.589  1.00  0.00     0.029 A 
ATOM     11  C   UNL A   1      32.711  22.555  28.001  1.00  0.00     0.048 A 
ATOM     12  C   UNL A   1      31.755  23.068  27.119  1.00  0.00     0.128 A 
BRANCH   8  13
ATOM     13  C   UNL A   1      35.841  22.907  25.913  1.00  0.00     0.144 A 
ATOM     14  N   UNL A   1      36.401  21.719  25.433  1.00  0.00    -0.300 N 
ATOM     15  C   UNL A   1      37.766  21.855  25.556  1.00  0.00     0.113 A 
ATOM     16  C   UNL A   1      37.977  23.165  25.907  1.00  0.00     0.132 A 
ATOM     17  N   UNL A   1      36.788  23.813  26.100  1.00  0.00    -0.236 NA
BRANCH  14  18
ATOM     18  C   UNL A   1      35.715  20.564  24.977  1.00  0.00     0.047 A 
ATOM     19  C   UNL A   1      34.299  18.283  24.250  1.00  0.00     0.082 A 
ATOM     20  C   UNL A   1      33.646  19.518  24.276  1.00  0.00     0.024 A 
ATOM     21  C   UNL A   1      35.655  18.181  24.577  1.00  0.00     0.024 A 
ATOM     22  C   UNL A   1      34.355  20.658  24.645  1.00  0.00     0.028 A 
ATOM     23  C   UNL A   1      36.374  19.329  24.920  1.00  0.00     0.028 A 
BRANCH  19  24
ATOM     24  S   UNL A   1      33.393  16.829  23.811  1.00  0.00     0.238 S 
ATOM     25  O   UNL A   1      32.574  16.441  24.945  1.00  0.00    -0.207 OA
ATOM     26  O   UNL A   1      34.284  15.925  23.142  1.00  0.00    -0.207 OA
BRANCH  24  27
ATOM     27  N   UNL A   1      32.305  17.379  22.655  1.00  0.00    -0.225 NA
ATOM     28  H   UNL A   1      31.449  17.690  23.114  1.00  0.00     0.137 HD
ATOM     29  H   UNL A   1      32.088  16.624  22.006  1.00  0.00     0.137 HD
ENDBRANCH  24  27
ENDBRANCH  19  24
ENDBRANCH  14  18
ENDBRANCH   8  13
BRANCH  12  30
ATOM     30  O   UNL A   1      30.456  23.044  27.554  1.00  0.00    -0.507 OA
ATOM     31  H   UNL A   1      29.974  23.844  27.633  1.00  0.00     0.293 HD
ENDBRANCH  12  30
ENDBRANCH   4   7
ENDBRANCH   2   3
ENDBRANCH   1   2
BRANCH   1  32
ATOM     32  C   UNL A   1      31.745  27.832  27.326  1.00  0.00     0.002 C 
BRANCH  32  33
ATOM     33  C   UNL A   1      32.005  29.342  27.241  1.00  0.00     0.002 C 
BRANCH  33  34
ATOM     34  C   UNL A   1      33.285  29.806  26.530  1.00  0.00     0.021 C 
BRANCH  34  35
ATOM     35  C   UNL A   1      34.449  30.120  27.458  1.00  0.00     0.116 C 
BRANCH  35  36
ATOM     36  N   UNL A   1      34.227  31.306  28.281  1.00  0.00    -0.352 N 
ATOM     37  C   UNL A   1      34.882  31.674  29.441  1.00  0.00     0.251 C 
ATOM     38  H   UNL A   1      33.523  31.921  27.971  1.00  0.00     0.163 HD
ATOM     39  O   UNL A   1      34.388  32.477  30.224  1.00  0.00    -0.269 OA
BRANCH  37  40
ATOM     40  C   UNL A   1      36.202  31.087  29.721  1.00  0.00     0.039 A 
ATOM     41  C   UNL A   1      36.358  29.727  30.011  1.00  0.00     0.014 A 
ATOM     42  C   UNL A   1      37.302  31.936  29.668  1.00  0.00     0.014 A 
ATOM     43  C   UNL A   1      37.645  29.214  30.171  1.00  0.00     0.010 A 
ATOM     44  C   UNL A   1      38.561  31.406  29.652  1.00  0.00     0.010 A 
ATOM     45  C   UNL A   1      38.741  30.062  29.975  1.00  0.00    -0.014 A 
BRANCH  45  46
ATOM     46  C   UNL A   1      40.113  29.564  29.979  1.00  0.00     0.031 A 
ATOM     47  C   UNL A   1      40.708  29.384  31.334  1.00  0.00     0.074 A 
ATOM     48  C   UNL A   1      40.641  29.027  28.855  1.00  0.00     0.049 A 
ATOM     49  N   UNL A   1      41.821  29.864  31.783  1.00  0.00    -0.248 NA
ATOM     50  C   UNL A   1      39.919  28.673  32.359  1.00  0.00     0.031 C 
ATOM     51  C   UNL A   1      40.002  28.889  27.539  1.00  0.00     0.029 A 
ATOM     52  N   UNL A   1      41.798  28.333  28.689  1.00  0.00    -0.354 N 
ATOM     53  C   UNL A   1      41.970  29.360  33.073  1.00  0.00     0.074 A 
ATOM     54  C   UNL A   1      40.699  28.792  33.435  1.00  0.00     0.031 C 
ATOM     55  C   UNL A   1      40.645  27.948  26.817  1.00  0.00     0.029 A 
ATOM     56  C   UNL A   1      41.824  27.531  27.548  1.00  0.00     0.049 A 
ATOM     57  H   UNL A   1      42.553  28.391  29.318  1.00  0.00     0.167 HD
ATOM     58  C   UNL A   1      43.203  29.226  33.637  1.00  0.00     0.037 A 
ATOM     59  C   UNL A   1      42.716  26.542  27.284  1.00  0.00     0.037 A 
ATOM     60  C   UNL A   1      44.176  30.031  32.944  1.00  0.00     0.049 A 
ATOM     61  C   UNL A   1      43.898  26.784  28.153  1.00  0.00     0.074 A 
ATOM     62  C   UNL A   1      44.287  31.381  32.667  1.00  0.00     0.029 A 
ATOM     63  N   UNL A   1      45.036  29.406  32.073  1.00  0.00    -0.354 N 
ATOM     64  N   UNL A   1      44.689  27.816  28.022  1.00  0.00    -0.248 NA
ATOM     65  C   UNL A   1      43.901  26.156  29.466  1.00  0.00     0.031 C 
ATOM     66  C   UNL A   1      44.782  31.439  31.332  1.00  0.00     0.029 A 
ATOM     67  C   UNL A   1      45.032  30.133  30.911  1.00  0.00     0.049 A 
ATOM     68  H   UNL A   1      45.556  28.589  32.251  1.00  0.00     0.167 HD
ATOM     69  C   UNL A   1      44.938  28.233  29.321  1.00  0.00     0.074 A 
ATOM     70  C   UNL A   1      44.481  27.133  30.170  1.00  0.00     0.031 C 
ATOM     71  C   UNL A   1      45.199  29.542  29.605  1.00  0.00     0.037 A 
BRANCH  58  72
ATOM     72  C   UNL A   1      43.608  28.091  34.551  1.00  0.00     0.064 A 
ATOM     73  C   UNL A   1      43.461  26.764  34.097  1.00  0.00     0.173 A 
ATOM     74  C   UNL A   1      43.829  28.234  35.938  1.00  0.00     0.173 A 
ATOM     75  F   UNL A   1      43.236  26.506  32.800  1.00  0.00    -0.203 F 
ATOM     76  C   UNL A   1      43.440  25.679  34.978  1.00  0.00     0.198 A 
ATOM     77  C   UNL A   1      43.863  27.144  36.806  1.00  0.00     0.198 A 
ATOM     78  F   UNL A   1      43.909  29.430  36.532  1.00  0.00    -0.203 F 
ATOM     79  F   UNL A   1      43.158  24.453  34.515  1.00  0.00    -0.200 F 
ATOM     80  C   UNL A   1      43.631  25.870  36.333  1.00  0.00     0.200 A 
ATOM     81  F   UNL A   1      44.036  27.355  38.118  1.00  0.00    -0.200 F 
ATOM     82  F   UNL A   1      43.544  24.843  37.187  1.00  0.00    -0.200 F 
ENDBRANCH  58  72
BRANCH  59  83
ATOM     83  C   UNL A   1      42.458  25.236  26.618  1.00  0.00     0.064 A 
ATOM     84  C   UNL A   1      43.224  24.827  25.512  1.00  0.00     0.173 A 
ATOM     85  C   UNL A   1      41.647  24.245  27.208  1.00  0.00     0.173 A 
ATOM     86  F   UNL A   1      44.058  25.690  24.914  1.00  0.00    -0.203 F 
ATOM     87  C   UNL A   1      43.202  23.505  25.047  1.00  0.00     0.198 A 
ATOM     88  C   UNL A   1      41.618  22.930  26.737  1.00  0.00     0.198 A 
ATOM     89  F   UNL A   1      40.935  24.500  28.314  1.00  0.00    -0.203 F 
ATOM     90  F   UNL A   1      43.998  23.140  24.033  1.00  0.00    -0.200 F 
ATOM     91  C   UNL A   1      42.407  22.556  25.667  1.00  0.00     0.200 A 
ATOM     92  F   UNL A   1      40.867  22.017  27.369  1.00  0.00    -0.200 F 
ATOM     93  F   UNL A   1      42.432  21.279  25.264  1.00  0.00    -0.200 F 
ENDBRANCH  59  83
BRANCH  71  94
ATOM     94  C   UNL A   1      45.445  30.491  28.464  1.00  0.00     0.064 A 
ATOM     95  C   UNL A   1      44.432  31.193  27.786  1.00  0.00     0.173 A 
ATOM     96  C   UNL A   1      46.770  30.827  28.159  1.00  0.00     0.173 A 
ATOM     97  F   UNL A   1      43.142  31.013  28.093  1.00  0.00    -0.203 F 
ATOM     98  C   UNL A   1      44.733  32.151  26.820  1.00  0.00     0.198 A 
ATOM     99  C   UNL A   1      47.069  31.812  27.221  1.00  0.00     0.198 A 
ATOM    100  F   UNL A   1      47.780  30.235  28.814  1.00  0.00    -0.203 F 
ATOM    101  F   UNL A   1      43.745  32.799  26.184  1.00  0.00    -0.200 F 
ATOM    102  C   UNL A   1      46.053  32.466  26.545  1.00  0.00     0.200 A 
ATOM    103  F   UNL A   1      48.346  32.151  26.999  1.00  0.00    -0.200 F 
ATOM    104  F   UNL A   1      46.345  33.419  25.649  1.00  0.00    -0.200 F 
ENDBRANCH  71  94
ENDBRANCH  45  46
ENDBRANCH  37  40
ENDBRANCH  35  36
ENDBRANCH  34  35
ENDBRANCH  33  34
ENDBRANCH  32  33
ENDBRANCH   1  32
TORSDOF 18
ENDMDL
MODEL 2
REMARK VINA RESULT:     -13.1      3.397      8.377
REMARK SMILES NS(=O)(=O)c1ccc(-n2ccnc2-c2ccc(O)c(C(=O)NCCCCCCNC(=O)c3ccc(-c4c5nc(c(-c6c(F)c(F)c(F)c(F)c6F)c6ccc([nH]6)c(-c6c(F)c(F)c(F)c(F)c6F)c6nc(c(-c7c(F)c(F)c(F)c(F)c7F)c7ccc4[nH]7)C=C6)C=C5)cc3)c2)cc1
REMARK SMILES IDX 24 1 23 2 22 3 20 4 21 5 19 7 14 8 15 9 95 10 16 11 17 12
REMARK SMILES IDX 13 13 9 14 10 15 11 16 12 17 8 18 5 19 6 20 97 21 7 22 96 23
REMARK SMILES IDX 2 24 3 25 4 26 1 27 18 30 25 32 26 33 27 34 28 35 29 36
REMARK SMILES IDX 30 37 31 39 32 40 33 41 94 42 34 43 93 44 35 45 36 46 37 47
REMARK SMILES IDX 87 48 38 49 92 50 86 51 88 52 39 53 91 54 85 55 84 56 40 58
REMARK SMILES IDX 72 59 52 60 71 61 53 62 56 63 70 64 89 65 54 66 55 67 69 69
REMARK SMILES IDX 90 70 57 71 41 72 42 73 50 74 43 75 44 76 48 77 51 78 45 79
REMARK SMILES IDX 46 80 49 81 47 82 73 83 74 84 82 85 75 86 76 87 80 88 83 89
REMARK SMILES IDX 77 90 78 91 81 92 79 93 58 94 59 95 67 96 60 97 61 98 65 99
REMARK SMILES IDX 68 100 62 101 63 102 66 103 64 104
REMARK H PARENT 22 6 1 28 1 29 18 31 29 38 88 57 56 68
REMARK Flexibility Score: inf
ROOT
ATOM      1  C   UNL A   1      34.745  21.541  24.405  1.00  0.00     0.021 C 
ENDROOT
BRANCH   1   2
ATOM      2  C   UNL A   1      33.519  21.885  25.241  1.00  0.00     0.116 C 
BRANCH   2   3
ATOM      3  N   UNL A   1      32.297  22.121  24.485  1.00  0.00    -0.352 N 
ATOM      4  C   UNL A   1      31.860  23.201  23.743  1.00  0.00     0.255 C 
ATOM      5  O   UNL A   1      30.750  23.132  23.208  1.00  0.00    -0.269 OA
ATOM      6  H   UNL A   1      31.661  21.369  24.508  1.00  0.00     0.163 HD
BRANCH   4   7
ATOM      7  C   UNL A   1      32.622  24.475  23.597  1.00  0.00     0.082 A 
ATOM      8  C   UNL A   1      33.358  26.623  24.514  1.00  0.00     0.019 A 
ATOM      9  C   UNL A   1      33.778  27.022  23.246  1.00  0.00     0.016 A 
ATOM     10  C   UNL A   1      32.856  25.321  24.676  1.00  0.00     0.029 A 
ATOM     11  C   UNL A   1      33.703  26.127  22.174  1.00  0.00     0.048 A 
ATOM     12  C   UNL A   1      33.116  24.870  22.347  1.00  0.00     0.128 A 
BRANCH   8  13
ATOM     13  C   UNL A   1      33.286  27.569  25.643  1.00  0.00     0.144 A 
ATOM     14  N   UNL A   1      32.519  28.738  25.670  1.00  0.00    -0.300 N 
ATOM     15  C   UNL A   1      33.096  29.560  26.611  1.00  0.00     0.113 A 
ATOM     16  C   UNL A   1      34.043  28.792  27.242  1.00  0.00     0.132 A 
ATOM     17  N   UNL A   1      34.136  27.560  26.657  1.00  0.00    -0.236 NA
BRANCH  14  18
ATOM     18  C   UNL A   1      31.410  29.061  24.847  1.00  0.00     0.047 A 
ATOM     19  C   UNL A   1      29.133  29.704  23.383  1.00  0.00     0.082 A 
ATOM     20  C   UNL A   1      29.851  30.720  24.018  1.00  0.00     0.024 A 
ATOM     21  C   UNL A   1      29.548  28.371  23.468  1.00  0.00     0.024 A 
ATOM     22  C   UNL A   1      30.988  30.397  24.754  1.00  0.00     0.028 A 
ATOM     23  C   UNL A   1      30.705  28.049  24.183  1.00  0.00     0.028 A 
BRANCH  19  24
ATOM     24  S   UNL A   1      27.672  30.108  22.472  1.00  0.00     0.238 S 
ATOM     25  O   UNL A   1      27.979  30.026  21.056  1.00  0.00    -0.207 OA
ATOM     26  O   UNL A   1      27.066  31.259  23.077  1.00  0.00    -0.207 OA
BRANCH  24  27
ATOM     27  N   UNL A   1      26.651  28.809  22.773  1.00  0.00    -0.225 NA
ATOM     28  H   UNL A   1      26.176  28.542  21.911  1.00  0.00     0.137 HD
ATOM     29  H   UNL A   1      25.959  29.075  23.474  1.00  0.00     0.137 HD
ENDBRANCH  24  27
ENDBRANCH  19  24
ENDBRANCH  14  18
ENDBRANCH   8  13
BRANCH  12  30
ATOM     30  O   UNL A   1      33.053  24.074  21.234  1.00  0.00    -0.507 OA
ATOM     31  H   UNL A   1      32.427  23.379  21.190  1.00  0.00     0.293 HD
ENDBRANCH  12  30
ENDBRANCH   4   7
ENDBRANCH   2   3
ENDBRANCH   1   2
BRANCH   1  32
ATOM     32  C   UNL A   1      35.705  20.502  24.976  1.00  0.00     0.002 C 
BRANCH  32  33
ATOM     33  C   UNL A   1      37.192  20.656  24.626  1.00  0.00     0.002 C 
BRANCH  33  34
ATOM     34  C   UNL A   1      38.136  19.505  25.006  1.00  0.00     0.021 C 
BRANCH  34  35
ATOM     35  C   UNL A   1      39.239  19.883  25.981  1.00  0.00     0.116 C 
BRANCH  35  36
ATOM     36  N   UNL A   1      40.434  19.052  25.850  1.00  0.00    -0.352 N 
ATOM     37  C   UNL A   1      41.757  19.453  25.858  1.00  0.00     0.251 C 
ATOM     38  H   UNL A   1      40.278  18.086  25.741  1.00  0.00     0.163 HD
ATOM     39  O   UNL A   1      42.641  18.744  25.393  1.00  0.00    -0.269 OA
BRANCH  37  40
ATOM     40  C   UNL A   1      42.094  20.758  26.451  1.00  0.00     0.039 A 
ATOM     41  C   UNL A   1      42.564  21.822  25.673  1.00  0.00     0.014 A 
ATOM     42  C   UNL A   1      41.908  20.904  27.820  1.00  0.00     0.014 A 
ATOM     43  C   UNL A   1      42.773  23.060  26.278  1.00  0.00     0.010 A 
ATOM     44  C   UNL A   1      41.944  22.152  28.376  1.00  0.00     0.010 A 
ATOM     45  C   UNL A   1      42.445  23.217  27.630  1.00  0.00    -0.014 A 
BRANCH  45  46
ATOM     46  C   UNL A   1      42.495  24.517  28.291  1.00  0.00     0.031 A 
ATOM     47  C   UNL A   1      41.253  25.332  28.162  1.00  0.00     0.074 A 
ATOM     48  C   UNL A   1      43.470  24.781  29.191  1.00  0.00     0.049 A 
ATOM     49  N   UNL A   1      41.141  26.546  27.733  1.00  0.00    -0.248 NA
ATOM     50  C   UNL A   1      39.956  24.684  28.438  1.00  0.00     0.031 C 
ATOM     51  C   UNL A   1      44.573  23.903  29.606  1.00  0.00     0.029 A 
ATOM     52  N   UNL A   1      43.589  25.823  30.057  1.00  0.00    -0.354 N 
ATOM     53  C   UNL A   1      39.795  26.883  27.868  1.00  0.00     0.074 A 
ATOM     54  C   UNL A   1      39.094  25.655  28.129  1.00  0.00     0.031 C 
ATOM     55  C   UNL A   1      45.064  24.318  30.791  1.00  0.00     0.029 A 
ATOM     56  C   UNL A   1      44.425  25.570  31.144  1.00  0.00     0.049 A 
ATOM     57  H   UNL A   1      43.126  26.682  29.928  1.00  0.00     0.167 HD
ATOM     58  C   UNL A   1      39.407  28.182  28.006  1.00  0.00     0.037 A 
ATOM     59  C   UNL A   1      44.508  26.307  32.281  1.00  0.00     0.037 A 
ATOM     60  C   UNL A   1      40.448  29.079  27.572  1.00  0.00     0.049 A 
ATOM     61  C   UNL A   1      43.939  27.645  31.968  1.00  0.00     0.074 A 
ATOM     62  C   UNL A   1      41.132  29.256  26.384  1.00  0.00     0.029 A 
ATOM     63  N   UNL A   1      41.207  29.707  28.530  1.00  0.00    -0.354 N 
ATOM     64  N   UNL A   1      44.491  28.486  31.135  1.00  0.00    -0.248 NA
ATOM     65  C   UNL A   1      42.513  27.833  32.194  1.00  0.00     0.031 C 
ATOM     66  C   UNL A   1      42.481  29.501  26.774  1.00  0.00     0.029 A 
ATOM     67  C   UNL A   1      42.520  29.554  28.167  1.00  0.00     0.049 A 
ATOM     68  H   UNL A   1      40.870  30.177  29.327  1.00  0.00     0.167 HD
ATOM     69  C   UNL A   1      43.430  29.004  30.407  1.00  0.00     0.074 A 
ATOM     70  C   UNL A   1      42.231  28.616  31.148  1.00  0.00     0.031 C 
ATOM     71  C   UNL A   1      43.596  29.427  29.120  1.00  0.00     0.037 A 
BRANCH  58  72
ATOM     72  C   UNL A   1      38.264  28.646  28.882  1.00  0.00     0.064 A 
ATOM     73  C   UNL A   1      37.378  29.623  28.384  1.00  0.00     0.173 A 
ATOM     74  C   UNL A   1      38.189  28.413  30.271  1.00  0.00     0.173 A 
ATOM     75  F   UNL A   1      37.367  29.935  27.079  1.00  0.00    -0.203 F 
ATOM     76  C   UNL A   1      36.554  30.374  29.228  1.00  0.00     0.198 A 
ATOM     77  C   UNL A   1      37.326  29.125  31.103  1.00  0.00     0.198 A 
ATOM     78  F   UNL A   1      39.018  27.575  30.905  1.00  0.00    -0.203 F 
ATOM     79  F   UNL A   1      35.833  31.385  28.726  1.00  0.00    -0.200 F 
ATOM     80  C   UNL A   1      36.536  30.131  30.589  1.00  0.00     0.200 A 
ATOM     81  F   UNL A   1      37.336  28.883  32.421  1.00  0.00    -0.200 F 
ATOM     82  F   UNL A   1      35.801  30.892  31.409  1.00  0.00    -0.200 F 
ENDBRANCH  58  72
BRANCH  59  83
ATOM     83  C   UNL A   1      44.704  25.818  33.672  1.00  0.00     0.064 A 
ATOM     84  C   UNL A   1      45.337  26.622  34.637  1.00  0.00     0.173 A 
ATOM     85  C   UNL A   1      44.040  24.673  34.161  1.00  0.00     0.173 A 
ATOM     86  F   UNL A   1      45.955  27.753  34.271  1.00  0.00    -0.203 F 
ATOM     87  C   UNL A   1      45.282  26.315  36.004  1.00  0.00     0.198 A 
ATOM     88  C   UNL A   1      43.995  24.363  35.522  1.00  0.00     0.198 A 
ATOM     89  F   UNL A   1      43.336  23.878  33.343  1.00  0.00    -0.203 F 
ATOM     90  F   UNL A   1      45.841  27.143  36.897  1.00  0.00    -0.200 F 
ATOM     91  C   UNL A   1      44.603  25.192  36.445  1.00  0.00     0.200 A 
ATOM     92  F   UNL A   1      43.306  23.290  35.935  1.00  0.00    -0.200 F 
ATOM     93  F   UNL A   1      44.497  24.932  37.755  1.00  0.00    -0.200 F 
ENDBRANCH  59  83
BRANCH  71  94
ATOM     94  C   UNL A   1      44.994  29.543  28.575  1.00  0.00     0.064 A 
ATOM     95  C   UNL A   1      45.672  28.507  27.908  1.00  0.00     0.173 A 
ATOM     96  C   UNL A   1      45.603  30.804  28.583  1.00  0.00     0.173 A 
ATOM     97  F   UNL A   1      45.114  27.300  27.759  1.00  0.00    -0.203 F 
ATOM     98  C   UNL A   1      46.917  28.714  27.318  1.00  0.00     0.198 A 
ATOM     99  C   UNL A   1      46.829  31.020  27.959  1.00  0.00     0.198 A 
ATOM    100  F   UNL A   1      44.979  31.847  29.151  1.00  0.00    -0.203 F 
ATOM    101  F   UNL A   1      47.544  27.705  26.695  1.00  0.00    -0.200 F 
ATOM    102  C   UNL A   1      47.491  29.974  27.337  1.00  0.00     0.200 A 
ATOM    103  F   UNL A   1      47.353  32.253  27.933  1.00  0.00    -0.200 F 
ATOM    104  F   UNL A   1      48.667  30.188  26.731  1.00  0.00    -0.200 F 
ENDBRANCH  71  94
ENDBRANCH  45  46
ENDBRANCH  37  40
ENDBRANCH  35  36
ENDBRANCH  34  35
ENDBRANCH  33  34
ENDBRANCH  32  33
ENDBRANCH   1  32
TORSDOF 18
ENDMDL
MODEL 3
REMARK VINA RESULT:     -12.6      3.551      9.102
REMARK SMILES NS(=O)(=O)c1ccc(-n2ccnc2-c2ccc(O)c(C(=O)NCCCCCCNC(=O)c3ccc(-c4c5nc(c(-c6c(F)c(F)c(F)c(F)c6F)c6ccc([nH]6)c(-c6c(F)c(F)c(F)c(F)c6F)c6nc(c(-c7c(F)c(F)c(F)c(F)c7F)c7ccc4[nH]7)C=C6)C=C5)cc3)c2)cc1
REMARK SMILES IDX 24 1 23 2 22 3 20 4 21 5 19 7 14 8 15 9 95 10 16 11 17 12
REMARK SMILES IDX 13 13 9 14 10 15 11 16 12 17 8 18 5 19 6 20 97 21 7 22 96 23
REMARK SMILES IDX 2 24 3 25 4 26 1 27 18 30 25 32 26 33 27 34 28 35 29 36
REMARK SMILES IDX 30 37 31 39 32 40 33 41 94 42 34 43 93 44 35 45 36 46 37 47
REMARK SMILES IDX 87 48 38 49 92 50 86 51 88 52 39 53 91 54 85 55 84 56 40 58
REMARK SMILES IDX 72 59 52 60 71 61 53 62 56 63 70 64 89 65 54 66 55 67 69 69
REMARK SMILES IDX 90 70 57 71 41 72 42 73 50 74 43 75 44 76 48 77 51 78 45 79
REMARK SMILES IDX 46 80 49 81 47 82 73 83 74 84 82 85 75 86 76 87 80 88 83 89
REMARK SMILES IDX 77 90 78 91 81 92 79 93 58 94 59 95 67 96 60 97 61 98 65 99
REMARK SMILES IDX 68 100 62 101 63 102 66 103 64 104
REMARK H PARENT 22 6 1 28 1 29 18 31 29 38 88 57 56 68
REMARK Flexibility Score: inf
ROOT
ATOM      1  C   UNL A   1      35.121  22.868  25.030  1.00  0.00     0.021 C 
ENDROOT
BRANCH   1   2
ATOM      2  C   UNL A   1      33.746  22.740  25.673  1.00  0.00     0.116 C 
BRANCH   2   3
ATOM      3  N   UNL A   1      32.624  22.737  24.746  1.00  0.00    -0.352 N 
ATOM      4  C   UNL A   1      32.186  23.661  23.817  1.00  0.00     0.255 C 
ATOM      5  O   UNL A   1      31.174  23.397  23.162  1.00  0.00    -0.269 OA
ATOM      6  H   UNL A   1      32.070  21.923  24.790  1.00  0.00     0.163 HD
BRANCH   4   7
ATOM      7  C   UNL A   1      32.827  24.989  23.597  1.00  0.00     0.082 A 
ATOM      8  C   UNL A   1      33.487  27.191  24.442  1.00  0.00     0.019 A 
ATOM      9  C   UNL A   1      33.738  27.618  23.139  1.00  0.00     0.016 A 
ATOM     10  C   UNL A   1      33.107  25.855  24.649  1.00  0.00     0.029 A 
ATOM     11  C   UNL A   1      33.621  26.715  22.076  1.00  0.00     0.048 A 
ATOM     12  C   UNL A   1      33.155  25.418  22.304  1.00  0.00     0.128 A 
BRANCH   8  13
ATOM     13  C   UNL A   1      33.461  28.133  25.576  1.00  0.00     0.144 A 
ATOM     14  N   UNL A   1      32.620  29.246  25.684  1.00  0.00    -0.300 N 
ATOM     15  C   UNL A   1      33.228  30.108  26.567  1.00  0.00     0.113 A 
ATOM     16  C   UNL A   1      34.284  29.410  27.098  1.00  0.00     0.132 A 
ATOM     17  N   UNL A   1      34.405  28.185  26.502  1.00  0.00    -0.236 NA
BRANCH  14  18
ATOM     18  C   UNL A   1      31.415  29.489  24.975  1.00  0.00     0.047 A 
ATOM     19  C   UNL A   1      29.151  29.974  23.434  1.00  0.00     0.082 A 
ATOM     20  C   UNL A   1      29.676  28.681  23.495  1.00  0.00     0.024 A 
ATOM     21  C   UNL A   1      29.745  31.023  24.143  1.00  0.00     0.024 A 
ATOM     22  C   UNL A   1      30.812  28.440  24.263  1.00  0.00     0.028 A 
ATOM     23  C   UNL A   1      30.868  30.778  24.936  1.00  0.00     0.028 A 
BRANCH  19  24
ATOM     24  S   UNL A   1      27.726  30.288  22.435  1.00  0.00     0.238 S 
ATOM     25  O   UNL A   1      28.104  30.141  21.041  1.00  0.00    -0.207 OA
ATOM     26  O   UNL A   1      27.061  31.451  22.948  1.00  0.00    -0.207 OA
BRANCH  24  27
ATOM     27  N   UNL A   1      26.726  28.977  22.757  1.00  0.00    -0.225 NA
ATOM     28  H   UNL A   1      26.248  29.124  23.645  1.00  0.00     0.137 HD
ATOM     29  H   UNL A   1      27.287  28.127  22.808  1.00  0.00     0.137 HD
ENDBRANCH  24  27
ENDBRANCH  19  24
ENDBRANCH  14  18
ENDBRANCH   8  13
BRANCH  12  30
ATOM     30  O   UNL A   1      33.037  24.615  21.200  1.00  0.00    -0.507 OA
ATOM     31  H   UNL A   1      33.378  23.742  21.216  1.00  0.00     0.293 HD
ENDBRANCH  12  30
ENDBRANCH   4   7
ENDBRANCH   2   3
ENDBRANCH   1   2
BRANCH   1  32
ATOM     32  C   UNL A   1      36.155  21.804  25.383  1.00  0.00     0.002 C 
BRANCH  32  33
ATOM     33  C   UNL A   1      37.627  22.141  25.112  1.00  0.00     0.002 C 
BRANCH  33  34
ATOM     34  C   UNL A   1      38.685  21.121  25.560  1.00  0.00     0.021 C 
BRANCH  34  35
ATOM     35  C   UNL A   1      39.816  21.702  26.395  1.00  0.00     0.116 C 
BRANCH  35  36
ATOM     36  N   UNL A   1      41.106  21.684  25.709  1.00  0.00    -0.352 N 
ATOM     37  C   UNL A   1      42.017  22.716  25.577  1.00  0.00     0.251 C 
ATOM     38  H   UNL A   1      41.359  20.831  25.289  1.00  0.00     0.163 HD
ATOM     39  O   UNL A   1      42.875  22.701  24.703  1.00  0.00    -0.269 OA
BRANCH  37  40
ATOM     40  C   UNL A   1      41.945  23.843  26.522  1.00  0.00     0.039 A 
ATOM     41  C   UNL A   1      42.577  23.801  27.770  1.00  0.00     0.014 A 
ATOM     42  C   UNL A   1      41.238  24.970  26.118  1.00  0.00     0.014 A 
ATOM     43  C   UNL A   1      42.553  24.937  28.577  1.00  0.00     0.010 A 
ATOM     44  C   UNL A   1      41.361  26.132  26.826  1.00  0.00     0.010 A 
ATOM     45  C   UNL A   1      41.953  26.104  28.087  1.00  0.00    -0.014 A 
BRANCH  45  46
ATOM     46  C   UNL A   1      42.020  27.369  28.811  1.00  0.00     0.031 A 
ATOM     47  C   UNL A   1      43.106  28.288  28.364  1.00  0.00     0.074 A 
ATOM     48  C   UNL A   1      40.981  27.763  29.583  1.00  0.00     0.049 A 
ATOM     49  N   UNL A   1      44.022  28.845  29.086  1.00  0.00    -0.248 NA
ATOM     50  C   UNL A   1      43.268  28.534  26.918  1.00  0.00     0.031 C 
ATOM     51  C   UNL A   1      39.726  27.042  29.837  1.00  0.00     0.029 A 
ATOM     52  N   UNL A   1      40.747  28.967  30.170  1.00  0.00    -0.354 N 
ATOM     53  C   UNL A   1      44.752  29.662  28.224  1.00  0.00     0.074 A 
ATOM     54  C   UNL A   1      44.364  29.293  26.889  1.00  0.00     0.031 C 
ATOM     55  C   UNL A   1      38.788  27.904  30.280  1.00  0.00     0.029 A 
ATOM     56  C   UNL A   1      39.409  29.197  30.489  1.00  0.00     0.049 A 
ATOM     57  H   UNL A   1      41.460  29.621  30.355  1.00  0.00     0.167 HD
ATOM     58  C   UNL A   1      45.426  30.750  28.691  1.00  0.00     0.037 A 
ATOM     59  C   UNL A   1      38.857  30.392  30.818  1.00  0.00     0.037 A 
ATOM     60  C   UNL A   1      45.623  30.661  30.116  1.00  0.00     0.049 A 
ATOM     61  C   UNL A   1      39.973  31.279  31.241  1.00  0.00     0.074 A 
ATOM     62  C   UNL A   1      46.235  29.741  30.947  1.00  0.00     0.029 A 
ATOM     63  N   UNL A   1      44.813  31.413  30.933  1.00  0.00    -0.354 N 
ATOM     64  N   UNL A   1      40.686  31.077  32.318  1.00  0.00    -0.248 NA
ATOM     65  C   UNL A   1      40.609  32.089  30.213  1.00  0.00     0.031 C 
ATOM     66  C   UNL A   1      45.375  29.648  32.081  1.00  0.00     0.029 A 
ATOM     67  C   UNL A   1      44.350  30.579  31.918  1.00  0.00     0.049 A 
ATOM     68  H   UNL A   1      44.604  32.369  30.829  1.00  0.00     0.167 HD
ATOM     69  C   UNL A   1      41.990  31.341  31.927  1.00  0.00     0.074 A 
ATOM     70  C   UNL A   1      41.874  32.024  30.640  1.00  0.00     0.031 C 
ATOM     71  C   UNL A   1      43.047  30.713  32.522  1.00  0.00     0.037 A 
BRANCH  58  72
ATOM     72  C   UNL A   1      45.563  32.058  27.945  1.00  0.00     0.064 A 
ATOM     73  C   UNL A   1      44.396  32.735  27.536  1.00  0.00     0.173 A 
ATOM     74  C   UNL A   1      46.762  32.505  27.348  1.00  0.00     0.173 A 
ATOM     75  F   UNL A   1      43.197  32.390  28.028  1.00  0.00    -0.203 F 
ATOM     76  C   UNL A   1      44.420  33.714  26.537  1.00  0.00     0.198 A 
ATOM     77  C   UNL A   1      46.788  33.520  26.393  1.00  0.00     0.198 A 
ATOM     78  F   UNL A   1      47.940  31.913  27.573  1.00  0.00    -0.203 F 
ATOM     79  F   UNL A   1      43.269  34.229  26.085  1.00  0.00    -0.200 F 
ATOM     80  C   UNL A   1      45.615  34.099  25.960  1.00  0.00     0.200 A 
ATOM     81  F   UNL A   1      47.957  33.867  25.836  1.00  0.00    -0.200 F 
ATOM     82  F   UNL A   1      45.634  34.984  24.956  1.00  0.00    -0.200 F 
ENDBRANCH  58  72
BRANCH  59  83
ATOM     83  C   UNL A   1      37.512  30.908  30.447  1.00  0.00     0.064 A 
ATOM     84  C   UNL A   1      36.573  31.252  31.436  1.00  0.00     0.173 A 
ATOM     85  C   UNL A   1      37.211  31.332  29.136  1.00  0.00     0.173 A 
ATOM     86  F   UNL A   1      36.795  30.929  32.717  1.00  0.00    -0.203 F 
ATOM     87  C   UNL A   1      35.425  31.997  31.135  1.00  0.00     0.198 A 
ATOM     88  C   UNL A   1      36.061  32.066  28.836  1.00  0.00     0.198 A 
ATOM     89  F   UNL A   1      38.071  31.130  28.128  1.00  0.00    -0.203 F 
ATOM     90  F   UNL A   1      34.588  32.362  32.117  1.00  0.00    -0.200 F 
ATOM     91  C   UNL A   1      35.176  32.412  29.838  1.00  0.00     0.200 A 
ATOM     92  F   UNL A   1      35.853  32.487  27.580  1.00  0.00    -0.200 F 
ATOM     93  F   UNL A   1      34.112  33.177  29.560  1.00  0.00    -0.200 F 
ENDBRANCH  59  83
BRANCH  71  94
ATOM     94  C   UNL A   1      42.795  29.905  33.766  1.00  0.00     0.064 A 
ATOM     95  C   UNL A   1      42.732  30.446  35.062  1.00  0.00     0.173 A 
ATOM     96  C   UNL A   1      42.438  28.558  33.618  1.00  0.00     0.173 A 
ATOM     97  F   UNL A   1      42.951  31.748  35.280  1.00  0.00    -0.203 F 
ATOM     98  C   UNL A   1      42.372  29.665  36.160  1.00  0.00     0.198 A 
ATOM     99  C   UNL A   1      42.041  27.790  34.708  1.00  0.00     0.198 A 
ATOM    100  F   UNL A   1      42.421  28.000  32.398  1.00  0.00    -0.203 F 
ATOM    101  F   UNL A   1      42.329  30.207  37.387  1.00  0.00    -0.200 F 
ATOM    102  C   UNL A   1      42.019  28.339  35.980  1.00  0.00     0.200 A 
ATOM    103  F   UNL A   1      41.648  26.523  34.520  1.00  0.00    -0.200 F 
ATOM    104  F   UNL A   1      41.629  27.598  37.026  1.00  0.00    -0.200 F 
ENDBRANCH  71  94
ENDBRANCH  45  46
ENDBRANCH  37  40
ENDBRANCH  35  36
ENDBRANCH  34  35
ENDBRANCH  33  34
ENDBRANCH  32  33
ENDBRANCH   1  32
TORSDOF 18
ENDMDL
