MODEL 1
REMARK VINA RESULT:     -11.4      0.000      0.000
REMARK SMILES [NH3+]CCOCC(=O)N1C[C@@H](C(=O)NCCCCCCNC(=O)c2ccc(-c3c4nc(c(-c5c(F)c(F)c(F)c(F)c5F)c5ccc([nH]5)c(-c5c(F)c(F)c(F)c(F)c5F)c5nc(c(-c6c(F)c(F)c(F)c(F)c6F)c6ccc3[nH]6)C=C5)C=C4)cc2)Oc2ccccc21
REMARK SMILES IDX 14 1 13 2 11 3 12 4 10 6 8 7 9 8 92 9 87 10 91 11 86 12
REMARK SMILES IDX 88 13 90 14 89 15 6 16 7 17 5 18 4 19 3 20 2 21 1 22 15 26
REMARK SMILES IDX 16 27 17 28 18 29 19 30 20 31 21 32 22 34 23 35 24 36 85 37
REMARK SMILES IDX 25 38 84 39 26 40 27 41 28 42 78 43 29 44 83 45 77 46 79 47
REMARK SMILES IDX 30 48 82 49 76 50 75 51 31 53 63 54 43 55 62 56 44 57 47 58
REMARK SMILES IDX 61 59 80 60 45 61 46 62 60 64 81 65 48 66 32 67 33 68 41 69
REMARK SMILES IDX 34 70 35 71 39 72 42 73 36 74 37 75 40 76 38 77 64 78 65 79
REMARK SMILES IDX 73 80 66 81 67 82 71 83 74 84 68 85 69 86 72 87 70 88 49 89
REMARK SMILES IDX 50 90 58 91 51 92 52 93 56 94 59 95 53 96 54 97 57 98 55 99
REMARK H PARENT 13 5 1 23 1 24 1 25 20 33 79 52 47 63
REMARK Flexibility Score: inf
ROOT
ATOM      1  C   UNL A   1      32.307  27.094  26.814  1.00  0.00     0.116 C 
ENDROOT
BRANCH   1   2
ATOM      2  N   UNL A   1      31.371  26.021  26.555  1.00  0.00    -0.353 N 
ATOM      3  C   UNL A   1      31.579  24.720  26.228  1.00  0.00     0.262 C 
ATOM      4  O   UNL A   1      30.572  24.066  25.934  1.00  0.00    -0.271 OA
ATOM      5  H   UNL A   1      30.423  26.278  26.629  1.00  0.00     0.163 HD
BRANCH   3   6
ATOM      6  C   UNL A   1      32.990  24.082  26.158  1.00  0.00     0.281 C 
ATOM      7  N   UNL A   1      33.099  24.115  23.701  1.00  0.00    -0.303 N 
ATOM      8  C   UNL A   1      33.721  24.638  24.928  1.00  0.00     0.181 C 
ATOM      9  C   UNL A   1      32.753  22.725  23.770  1.00  0.00     0.086 A 
ATOM     10  C   UNL A   1      32.851  22.053  25.002  1.00  0.00     0.144 A 
ATOM     11  C   UNL A   1      32.393  21.976  22.643  1.00  0.00     0.030 A 
ATOM     12  O   UNL A   1      33.142  22.671  26.194  1.00  0.00    -0.477 OA
ATOM     13  C   UNL A   1      32.634  20.674  25.096  1.00  0.00     0.049 A 
ATOM     14  C   UNL A   1      32.152  20.600  22.742  1.00  0.00     0.002 A 
ATOM     15  C   UNL A   1      32.280  19.948  23.965  1.00  0.00     0.004 A 
BRANCH   7  16
ATOM     16  C   UNL A   1      32.799  24.922  22.605  1.00  0.00     0.253 C 
ATOM     17  O   UNL A   1      33.591  25.169  21.691  1.00  0.00    -0.272 OA
BRANCH  16  18
ATOM     18  C   UNL A   1      31.409  25.598  22.592  1.00  0.00     0.260 C 
BRANCH  18  19
ATOM     19  O   UNL A   1      31.256  26.995  22.480  1.00  0.00    -0.366 OA
BRANCH  19  20
ATOM     20  C   UNL A   1      31.967  27.775  23.442  1.00  0.00     0.222 C 
BRANCH  20  21
ATOM     21  C   UNL A   1      33.041  28.701  22.855  1.00  0.00     0.287 C 
BRANCH  21  22
ATOM     22  N   UNL A   1      33.682  28.195  21.639  1.00  0.00    -0.356 N 
ATOM     23  H   UNL A   1      33.881  28.973  21.011  1.00  0.00     0.344 HD
ATOM     24  H   UNL A   1      33.059  27.533  21.177  1.00  0.00     0.344 HD
ATOM     25  H   UNL A   1      34.554  27.726  21.885  1.00  0.00     0.344 HD
ENDBRANCH  21  22
ENDBRANCH  20  21
ENDBRANCH  19  20
ENDBRANCH  18  19
ENDBRANCH  16  18
ENDBRANCH   7  16
ENDBRANCH   3   6
ENDBRANCH   1   2
BRANCH   1  26
ATOM     26  C   UNL A   1      31.599  28.321  27.382  1.00  0.00     0.021 C 
BRANCH  26  27
ATOM     27  C   UNL A   1      32.327  29.653  27.173  1.00  0.00     0.002 C 
BRANCH  27  28
ATOM     28  C   UNL A   1      31.749  30.559  26.083  1.00  0.00     0.002 C 
BRANCH  28  29
ATOM     29  C   UNL A   1      31.467  31.999  26.512  1.00  0.00     0.021 C 
BRANCH  29  30
ATOM     30  C   UNL A   1      32.584  32.665  27.306  1.00  0.00     0.116 C 
BRANCH  30  31
ATOM     31  N   UNL A   1      32.317  34.065  27.589  1.00  0.00    -0.352 N 
ATOM     32  C   UNL A   1      32.903  34.889  28.520  1.00  0.00     0.251 C 
ATOM     33  H   UNL A   1      31.616  34.482  27.037  1.00  0.00     0.163 HD
ATOM     34  O   UNL A   1      32.456  36.006  28.737  1.00  0.00    -0.269 OA
BRANCH  32  35
ATOM     35  C   UNL A   1      34.071  34.400  29.285  1.00  0.00     0.039 A 
ATOM     36  C   UNL A   1      33.854  33.661  30.451  1.00  0.00     0.014 A 
ATOM     37  C   UNL A   1      35.372  34.650  28.841  1.00  0.00     0.014 A 
ATOM     38  C   UNL A   1      34.943  33.115  31.135  1.00  0.00     0.010 A 
ATOM     39  C   UNL A   1      36.448  34.042  29.479  1.00  0.00     0.010 A 
ATOM     40  C   UNL A   1      36.245  33.267  30.632  1.00  0.00    -0.014 A 
BRANCH  40  41
ATOM     41  C   UNL A   1      37.411  32.622  31.288  1.00  0.00     0.031 A 
ATOM     42  C   UNL A   1      38.112  31.474  30.616  1.00  0.00     0.074 A 
ATOM     43  C   UNL A   1      37.788  33.016  32.519  1.00  0.00     0.049 A 
ATOM     44  N   UNL A   1      39.074  30.710  31.068  1.00  0.00    -0.248 NA
ATOM     45  C   UNL A   1      37.649  31.119  29.265  1.00  0.00     0.031 C 
ATOM     46  C   UNL A   1      37.166  34.092  33.292  1.00  0.00     0.029 A 
ATOM     47  N   UNL A   1      38.777  32.543  33.348  1.00  0.00    -0.354 N 
ATOM     48  C   UNL A   1      39.319  29.780  30.067  1.00  0.00     0.074 A 
ATOM     49  C   UNL A   1      38.369  30.038  29.007  1.00  0.00     0.031 C 
ATOM     50  C   UNL A   1      37.796  34.209  34.471  1.00  0.00     0.029 A 
ATOM     51  C   UNL A   1      38.835  33.187  34.560  1.00  0.00     0.049 A 
ATOM     52  H   UNL A   1      39.386  31.812  33.097  1.00  0.00     0.167 HD
ATOM     53  C   UNL A   1      40.265  28.811  30.027  1.00  0.00     0.037 A 
ATOM     54  C   UNL A   1      39.625  32.968  35.629  1.00  0.00     0.037 A 
ATOM     55  C   UNL A   1      41.221  28.571  31.077  1.00  0.00     0.049 A 
ATOM     56  C   UNL A   1      40.651  31.868  35.569  1.00  0.00     0.074 A 
ATOM     57  C   UNL A   1      42.252  27.649  31.111  1.00  0.00     0.029 A 
ATOM     58  N   UNL A   1      41.258  29.255  32.283  1.00  0.00    -0.354 N 
ATOM     59  N   UNL A   1      40.915  31.033  34.593  1.00  0.00    -0.248 NA
ATOM     60  C   UNL A   1      41.495  31.684  36.758  1.00  0.00     0.031 C 
ATOM     61  C   UNL A   1      42.876  27.735  32.358  1.00  0.00     0.029 A 
ATOM     62  C   UNL A   1      42.279  28.758  33.078  1.00  0.00     0.049 A 
ATOM     63  H   UNL A   1      40.650  29.987  32.537  1.00  0.00     0.167 HD
ATOM     64  C   UNL A   1      41.975  30.253  35.033  1.00  0.00     0.074 A 
ATOM     65  C   UNL A   1      42.313  30.719  36.362  1.00  0.00     0.031 C 
ATOM     66  C   UNL A   1      42.615  29.244  34.391  1.00  0.00     0.037 A 
BRANCH  53  67
ATOM     67  C   UNL A   1      40.313  27.934  28.809  1.00  0.00     0.064 A 
ATOM     68  C   UNL A   1      41.051  28.291  27.670  1.00  0.00     0.173 A 
ATOM     69  C   UNL A   1      39.643  26.700  28.794  1.00  0.00     0.173 A 
ATOM     70  F   UNL A   1      41.701  29.464  27.626  1.00  0.00    -0.203 F 
ATOM     71  C   UNL A   1      41.089  27.462  26.550  1.00  0.00     0.198 A 
ATOM     72  C   UNL A   1      39.714  25.858  27.687  1.00  0.00     0.198 A 
ATOM     73  F   UNL A   1      38.929  26.305  29.858  1.00  0.00    -0.203 F 
ATOM     74  F   UNL A   1      41.756  27.850  25.454  1.00  0.00    -0.200 F 
ATOM     75  C   UNL A   1      40.429  26.243  26.563  1.00  0.00     0.200 A 
ATOM     76  F   UNL A   1      39.088  24.673  27.707  1.00  0.00    -0.200 F 
ATOM     77  F   UNL A   1      40.475  25.443  25.489  1.00  0.00    -0.200 F 
ENDBRANCH  53  67
BRANCH  54  78
ATOM     78  C   UNL A   1      39.488  33.816  36.842  1.00  0.00     0.064 A 
ATOM     79  C   UNL A   1      40.157  35.044  36.943  1.00  0.00     0.173 A 
ATOM     80  C   UNL A   1      38.696  33.416  37.930  1.00  0.00     0.173 A 
ATOM     81  F   UNL A   1      40.942  35.462  35.939  1.00  0.00    -0.203 F 
ATOM     82  C   UNL A   1      40.060  35.827  38.092  1.00  0.00     0.198 A 
ATOM     83  C   UNL A   1      38.574  34.214  39.065  1.00  0.00     0.198 A 
ATOM     84  F   UNL A   1      38.030  32.253  37.883  1.00  0.00    -0.203 F 
ATOM     85  F   UNL A   1      40.753  36.969  38.181  1.00  0.00    -0.200 F 
ATOM     86  C   UNL A   1      39.264  35.414  39.149  1.00  0.00     0.200 A 
ATOM     87  F   UNL A   1      37.791  33.819  40.078  1.00  0.00    -0.200 F 
ATOM     88  F   UNL A   1      39.168  36.167  40.253  1.00  0.00    -0.200 F 
ENDBRANCH  54  78
BRANCH  66  89
ATOM     89  C   UNL A   1      43.784  28.609  35.089  1.00  0.00     0.064 A 
ATOM     90  C   UNL A   1      43.635  27.486  35.915  1.00  0.00     0.173 A 
ATOM     91  C   UNL A   1      45.082  29.102  34.880  1.00  0.00     0.173 A 
ATOM     92  F   UNL A   1      42.416  26.984  36.160  1.00  0.00    -0.203 F 
ATOM     93  C   UNL A   1      44.739  26.894  36.525  1.00  0.00     0.198 A 
ATOM     94  C   UNL A   1      46.187  28.488  35.462  1.00  0.00     0.198 A 
ATOM     95  F   UNL A   1      45.281  30.170  34.092  1.00  0.00    -0.203 F 
ATOM     96  F   UNL A   1      44.569  25.850  37.347  1.00  0.00    -0.200 F 
ATOM     97  C   UNL A   1      46.014  27.389  36.290  1.00  0.00     0.200 A 
ATOM     98  F   UNL A   1      47.418  28.957  35.220  1.00  0.00    -0.200 F 
ATOM     99  F   UNL A   1      47.076  26.809  36.866  1.00  0.00    -0.200 F 
ENDBRANCH  66  89
ENDBRANCH  40  41
ENDBRANCH  32  35
ENDBRANCH  30  31
ENDBRANCH  29  30
ENDBRANCH  28  29
ENDBRANCH  27  28
ENDBRANCH  26  27
ENDBRANCH   1  26
TORSDOF 19
ENDMDL
MODEL 2
REMARK VINA RESULT:     -11.4      0.831      7.329
REMARK SMILES [NH3+]CCOCC(=O)N1C[C@@H](C(=O)NCCCCCCNC(=O)c2ccc(-c3c4nc(c(-c5c(F)c(F)c(F)c(F)c5F)c5ccc([nH]5)c(-c5c(F)c(F)c(F)c(F)c5F)c5nc(c(-c6c(F)c(F)c(F)c(F)c6F)c6ccc3[nH]6)C=C5)C=C4)cc2)Oc2ccccc21
REMARK SMILES IDX 14 1 13 2 11 3 12 4 10 6 8 7 9 8 92 9 87 10 91 11 86 12
REMARK SMILES IDX 88 13 90 14 89 15 6 16 7 17 5 18 4 19 3 20 2 21 1 22 15 26
REMARK SMILES IDX 16 27 17 28 18 29 19 30 20 31 21 32 22 34 23 35 24 36 85 37
REMARK SMILES IDX 25 38 84 39 26 40 27 41 28 42 78 43 29 44 83 45 77 46 79 47
REMARK SMILES IDX 30 48 82 49 76 50 75 51 31 53 63 54 43 55 62 56 44 57 47 58
REMARK SMILES IDX 61 59 80 60 45 61 46 62 60 64 81 65 48 66 32 67 33 68 41 69
REMARK SMILES IDX 34 70 35 71 39 72 42 73 36 74 37 75 40 76 38 77 64 78 65 79
REMARK SMILES IDX 73 80 66 81 67 82 71 83 74 84 68 85 69 86 72 87 70 88 49 89
REMARK SMILES IDX 50 90 58 91 51 92 52 93 56 94 59 95 53 96 54 97 57 98 55 99
REMARK H PARENT 13 5 1 23 1 24 1 25 20 33 79 52 47 63
REMARK Flexibility Score: inf
ROOT
ATOM      1  C   UNL A   1      32.747  28.021  27.098  1.00  0.00     0.116 C 
ENDROOT
BRANCH   1   2
ATOM      2  N   UNL A   1      31.793  27.042  26.620  1.00  0.00    -0.353 N 
ATOM      3  C   UNL A   1      31.979  25.807  26.089  1.00  0.00     0.262 C 
ATOM      4  O   UNL A   1      30.969  25.249  25.646  1.00  0.00    -0.271 OA
ATOM      5  H   UNL A   1      30.851  27.319  26.694  1.00  0.00     0.163 HD
BRANCH   3   6
ATOM      6  C   UNL A   1      33.371  25.136  25.976  1.00  0.00     0.281 C 
ATOM      7  N   UNL A   1      33.308  24.963  23.523  1.00  0.00    -0.303 N 
ATOM      8  C   UNL A   1      34.022  25.573  24.657  1.00  0.00     0.181 C 
ATOM      9  C   UNL A   1      32.947  23.591  23.732  1.00  0.00     0.086 A 
ATOM     10  C   UNL A   1      33.121  23.021  25.007  1.00  0.00     0.144 A 
ATOM     11  C   UNL A   1      32.497  22.759  22.700  1.00  0.00     0.030 A 
ATOM     12  O   UNL A   1      33.505  23.730  26.119  1.00  0.00    -0.477 OA
ATOM     13  C   UNL A   1      32.892  21.660  25.231  1.00  0.00     0.049 A 
ATOM     14  C   UNL A   1      32.244  21.401  22.931  1.00  0.00     0.002 A 
ATOM     15  C   UNL A   1      32.448  20.850  24.193  1.00  0.00     0.004 A 
BRANCH   7  16
ATOM     16  C   UNL A   1      32.943  25.683  22.387  1.00  0.00     0.253 C 
ATOM     17  O   UNL A   1      33.658  25.808  21.389  1.00  0.00    -0.272 OA
BRANCH  16  18
ATOM     18  C   UNL A   1      31.587  26.423  22.431  1.00  0.00     0.260 C 
BRANCH  18  19
ATOM     19  O   UNL A   1      31.433  27.667  23.075  1.00  0.00    -0.366 OA
BRANCH  19  20
ATOM     20  C   UNL A   1      30.096  28.164  23.152  1.00  0.00     0.222 C 
BRANCH  20  21
ATOM     21  C   UNL A   1      29.935  29.643  22.777  1.00  0.00     0.287 C 
BRANCH  21  22
ATOM     22  N   UNL A   1      30.718  30.064  21.613  1.00  0.00    -0.356 N 
ATOM     23  H   UNL A   1      31.504  29.428  21.485  1.00  0.00     0.344 HD
ATOM     24  H   UNL A   1      31.067  31.011  21.763  1.00  0.00     0.344 HD
ATOM     25  H   UNL A   1      30.127  30.046  20.782  1.00  0.00     0.344 HD
ENDBRANCH  21  22
ENDBRANCH  20  21
ENDBRANCH  19  20
ENDBRANCH  18  19
ENDBRANCH  16  18
ENDBRANCH   7  16
ENDBRANCH   3   6
ENDBRANCH   1   2
BRANCH   1  26
ATOM     26  C   UNL A   1      33.276  28.882  25.954  1.00  0.00     0.021 C 
BRANCH  26  27
ATOM     27  C   UNL A   1      32.392  30.070  25.564  1.00  0.00     0.002 C 
BRANCH  27  28
ATOM     28  C   UNL A   1      31.481  30.609  26.671  1.00  0.00     0.002 C 
BRANCH  28  29
ATOM     29  C   UNL A   1      31.378  32.132  26.749  1.00  0.00     0.021 C 
BRANCH  29  30
ATOM     30  C   UNL A   1      32.659  32.843  27.166  1.00  0.00     0.116 C 
BRANCH  30  31
ATOM     31  N   UNL A   1      32.429  34.214  27.591  1.00  0.00    -0.352 N 
ATOM     32  C   UNL A   1      33.030  34.919  28.606  1.00  0.00     0.251 C 
ATOM     33  H   UNL A   1      31.745  34.706  27.081  1.00  0.00     0.163 HD
ATOM     34  O   UNL A   1      32.613  36.021  28.935  1.00  0.00    -0.269 OA
BRANCH  32  35
ATOM     35  C   UNL A   1      34.177  34.320  29.323  1.00  0.00     0.039 A 
ATOM     36  C   UNL A   1      33.931  33.529  30.449  1.00  0.00     0.014 A 
ATOM     37  C   UNL A   1      35.484  34.519  28.874  1.00  0.00     0.014 A 
ATOM     38  C   UNL A   1      34.994  32.882  31.083  1.00  0.00     0.010 A 
ATOM     39  C   UNL A   1      36.530  33.813  29.459  1.00  0.00     0.010 A 
ATOM     40  C   UNL A   1      36.297  32.986  30.569  1.00  0.00    -0.014 A 
BRANCH  40  41
ATOM     41  C   UNL A   1      37.431  32.238  31.168  1.00  0.00     0.031 A 
ATOM     42  C   UNL A   1      37.949  32.619  32.527  1.00  0.00     0.074 A 
ATOM     43  C   UNL A   1      38.043  31.270  30.459  1.00  0.00     0.049 A 
ATOM     44  N   UNL A   1      38.991  32.165  33.175  1.00  0.00    -0.248 NA
ATOM     45  C   UNL A   1      37.212  33.673  33.241  1.00  0.00     0.031 C 
ATOM     46  C   UNL A   1      37.659  30.833  29.116  1.00  0.00     0.029 A 
ATOM     47  N   UNL A   1      39.133  30.490  30.761  1.00  0.00    -0.354 N 
ATOM     48  C   UNL A   1      39.043  32.886  34.360  1.00  0.00     0.074 A 
ATOM     49  C   UNL A   1      37.962  33.845  34.319  1.00  0.00     0.031 C 
ATOM     50  C   UNL A   1      38.487  29.854  28.718  1.00  0.00     0.029 A 
ATOM     51  C   UNL A   1      39.489  29.626  29.755  1.00  0.00     0.049 A 
ATOM     52  H   UNL A   1      39.613  30.546  31.619  1.00  0.00     0.167 HD
ATOM     53  C   UNL A   1      39.903  32.745  35.398  1.00  0.00     0.037 A 
ATOM     54  C   UNL A   1      40.516  28.759  29.670  1.00  0.00     0.037 A 
ATOM     55  C   UNL A   1      40.966  31.776  35.441  1.00  0.00     0.049 A 
ATOM     56  C   UNL A   1      41.473  28.641  30.827  1.00  0.00     0.074 A 
ATOM     57  C   UNL A   1      41.858  31.519  36.467  1.00  0.00     0.029 A 
ATOM     58  N   UNL A   1      41.284  30.906  34.408  1.00  0.00    -0.354 N 
ATOM     59  N   UNL A   1      41.476  29.285  31.969  1.00  0.00    -0.248 NA
ATOM     60  C   UNL A   1      42.567  27.668  30.686  1.00  0.00     0.031 C 
ATOM     61  C   UNL A   1      42.752  30.536  36.034  1.00  0.00     0.029 A 
ATOM     62  C   UNL A   1      42.376  30.129  34.764  1.00  0.00     0.049 A 
ATOM     63  H   UNL A   1      40.806  30.848  33.549  1.00  0.00     0.167 HD
ATOM     64  C   UNL A   1      42.543  28.772  32.694  1.00  0.00     0.074 A 
ATOM     65  C   UNL A   1      43.160  27.756  31.867  1.00  0.00     0.031 C 
ATOM     66  C   UNL A   1      42.969  29.109  33.937  1.00  0.00     0.037 A 
BRANCH  53  67
ATOM     67  C   UNL A   1      39.732  33.665  36.573  1.00  0.00     0.064 A 
ATOM     68  C   UNL A   1      40.398  34.897  36.651  1.00  0.00     0.173 A 
ATOM     69  C   UNL A   1      38.859  33.326  37.620  1.00  0.00     0.173 A 
ATOM     70  F   UNL A   1      41.252  35.266  35.684  1.00  0.00    -0.203 F 
ATOM     71  C   UNL A   1      40.223  35.740  37.746  1.00  0.00     0.198 A 
ATOM     72  C   UNL A   1      38.659  34.188  38.695  1.00  0.00     0.198 A 
ATOM     73  F   UNL A   1      38.191  32.164  37.594  1.00  0.00    -0.203 F 
ATOM     74  F   UNL A   1      40.912  36.887  37.823  1.00  0.00    -0.200 F 
ATOM     75  C   UNL A   1      39.348  35.390  38.763  1.00  0.00     0.200 A 
ATOM     76  F   UNL A   1      37.800  33.854  39.669  1.00  0.00    -0.200 F 
ATOM     77  F   UNL A   1      39.173  36.206  39.811  1.00  0.00    -0.200 F 
ENDBRANCH  53  67
BRANCH  54  78
ATOM     78  C   UNL A   1      40.688  27.923  28.453  1.00  0.00     0.064 A 
ATOM     79  C   UNL A   1      40.099  26.654  28.361  1.00  0.00     0.173 A 
ATOM     80  C   UNL A   1      41.448  28.368  27.361  1.00  0.00     0.173 A 
ATOM     81  F   UNL A   1      39.380  26.174  29.386  1.00  0.00    -0.203 F 
ATOM     82  C   UNL A   1      40.285  25.852  27.237  1.00  0.00     0.198 A 
ATOM     83  C   UNL A   1      41.606  27.579  26.223  1.00  0.00     0.198 A 
ATOM     84  F   UNL A   1      42.027  29.578  27.393  1.00  0.00    -0.203 F 
ATOM     85  F   UNL A   1      39.756  24.622  27.199  1.00  0.00    -0.200 F 
ATOM     86  C   UNL A   1      41.033  26.318  26.166  1.00  0.00     0.200 A 
ATOM     87  F   UNL A   1      42.316  28.040  25.184  1.00  0.00    -0.200 F 
ATOM     88  F   UNL A   1      41.210  25.548  25.083  1.00  0.00    -0.200 F 
ENDBRANCH  54  78
BRANCH  66  89
ATOM     89  C   UNL A   1      44.124  28.338  34.508  1.00  0.00     0.064 A 
ATOM     90  C   UNL A   1      45.447  28.790  34.397  1.00  0.00     0.173 A 
ATOM     91  C   UNL A   1      43.895  27.152  35.226  1.00  0.00     0.173 A 
ATOM     92  F   UNL A   1      45.723  29.908  33.710  1.00  0.00    -0.203 F 
ATOM     93  C   UNL A   1      46.498  28.074  34.964  1.00  0.00     0.198 A 
ATOM     94  C   UNL A   1      44.943  26.457  35.820  1.00  0.00     0.198 A 
ATOM     95  F   UNL A   1      42.647  26.679  35.368  1.00  0.00    -0.203 F 
ATOM     96  F   UNL A   1      47.759  28.500  34.806  1.00  0.00    -0.200 F 
ATOM     97  C   UNL A   1      46.245  26.914  35.683  1.00  0.00     0.200 A 
ATOM     98  F   UNL A   1      44.694  25.347  36.528  1.00  0.00    -0.200 F 
ATOM     99  F   UNL A   1      47.256  26.234  36.239  1.00  0.00    -0.200 F 
ENDBRANCH  66  89
ENDBRANCH  40  41
ENDBRANCH  32  35
ENDBRANCH  30  31
ENDBRANCH  29  30
ENDBRANCH  28  29
ENDBRANCH  27  28
ENDBRANCH  26  27
ENDBRANCH   1  26
TORSDOF 19
ENDMDL
MODEL 3
REMARK VINA RESULT:     -11.3      0.957      2.521
REMARK SMILES [NH3+]CCOCC(=O)N1C[C@@H](C(=O)NCCCCCCNC(=O)c2ccc(-c3c4nc(c(-c5c(F)c(F)c(F)c(F)c5F)c5ccc([nH]5)c(-c5c(F)c(F)c(F)c(F)c5F)c5nc(c(-c6c(F)c(F)c(F)c(F)c6F)c6ccc3[nH]6)C=C5)C=C4)cc2)Oc2ccccc21
REMARK SMILES IDX 14 1 13 2 11 3 12 4 10 6 8 7 9 8 92 9 87 10 91 11 86 12
REMARK SMILES IDX 88 13 90 14 89 15 6 16 7 17 5 18 4 19 3 20 2 21 1 22 15 26
REMARK SMILES IDX 16 27 17 28 18 29 19 30 20 31 21 32 22 34 23 35 24 36 85 37
REMARK SMILES IDX 25 38 84 39 26 40 27 41 28 42 78 43 29 44 83 45 77 46 79 47
REMARK SMILES IDX 30 48 82 49 76 50 75 51 31 53 63 54 43 55 62 56 44 57 47 58
REMARK SMILES IDX 61 59 80 60 45 61 46 62 60 64 81 65 48 66 32 67 33 68 41 69
REMARK SMILES IDX 34 70 35 71 39 72 42 73 36 74 37 75 40 76 38 77 64 78 65 79
REMARK SMILES IDX 73 80 66 81 67 82 71 83 74 84 68 85 69 86 72 87 70 88 49 89
REMARK SMILES IDX 50 90 58 91 51 92 52 93 56 94 59 95 53 96 54 97 57 98 55 99
REMARK H PARENT 13 5 1 23 1 24 1 25 20 33 79 52 47 63
REMARK Flexibility Score: inf
ROOT
ATOM      1  C   UNL A   1      31.364  27.752  26.923  1.00  0.00     0.116 C 
ENDROOT
BRANCH   1   2
ATOM      2  N   UNL A   1      31.423  26.306  26.949  1.00  0.00    -0.353 N 
ATOM      3  C   UNL A   1      30.912  25.381  26.098  1.00  0.00     0.262 C 
ATOM      4  O   UNL A   1      31.012  24.201  26.453  1.00  0.00    -0.271 OA
ATOM      5  H   UNL A   1      31.918  25.931  27.713  1.00  0.00     0.163 HD
BRANCH   3   6
ATOM      6  C   UNL A   1      30.186  25.755  24.780  1.00  0.00     0.281 C 
ATOM      7  N   UNL A   1      31.939  24.830  23.322  1.00  0.00    -0.303 N 
ATOM      8  C   UNL A   1      30.526  24.702  23.716  1.00  0.00     0.181 C 
ATOM      9  C   UNL A   1      32.378  26.186  23.165  1.00  0.00     0.086 A 
ATOM     10  C   UNL A   1      31.530  27.235  23.564  1.00  0.00     0.144 A 
ATOM     11  C   UNL A   1      33.593  26.524  22.556  1.00  0.00     0.030 A 
ATOM     12  O   UNL A   1      30.336  27.050  24.220  1.00  0.00    -0.477 OA
ATOM     13  C   UNL A   1      31.866  28.571  23.327  1.00  0.00     0.049 A 
ATOM     14  C   UNL A   1      33.940  27.863  22.340  1.00  0.00     0.002 A 
ATOM     15  C   UNL A   1      33.075  28.886  22.718  1.00  0.00     0.004 A 
BRANCH   7  16
ATOM     16  C   UNL A   1      32.789  23.733  23.197  1.00  0.00     0.253 C 
ATOM     17  O   UNL A   1      32.837  23.005  22.201  1.00  0.00    -0.272 OA
BRANCH  16  18
ATOM     18  C   UNL A   1      33.664  23.381  24.422  1.00  0.00     0.260 C 
BRANCH  18  19
ATOM     19  O   UNL A   1      33.697  22.083  24.971  1.00  0.00    -0.366 OA
BRANCH  19  20
ATOM     20  C   UNL A   1      34.686  21.860  25.976  1.00  0.00     0.222 C 
BRANCH  20  21
ATOM     21  C   UNL A   1      34.133  21.670  27.395  1.00  0.00     0.287 C 
BRANCH  21  22
ATOM     22  N   UNL A   1      32.709  21.980  27.539  1.00  0.00    -0.356 N 
ATOM     23  H   UNL A   1      32.198  21.129  27.774  1.00  0.00     0.344 HD
ATOM     24  H   UNL A   1      32.353  22.360  26.662  1.00  0.00     0.344 HD
ATOM     25  H   UNL A   1      32.585  22.667  28.283  1.00  0.00     0.344 HD
ENDBRANCH  21  22
ENDBRANCH  20  21
ENDBRANCH  19  20
ENDBRANCH  18  19
ENDBRANCH  16  18
ENDBRANCH   7  16
ENDBRANCH   3   6
ENDBRANCH   1   2
BRANCH   1  26
ATOM     26  C   UNL A   1      32.757  28.365  27.032  1.00  0.00     0.021 C 
BRANCH  26  27
ATOM     27  C   UNL A   1      32.797  29.895  27.107  1.00  0.00     0.002 C 
BRANCH  27  28
ATOM     28  C   UNL A   1      31.749  30.627  26.265  1.00  0.00     0.002 C 
BRANCH  28  29
ATOM     29  C   UNL A   1      31.485  32.078  26.666  1.00  0.00     0.021 C 
BRANCH  29  30
ATOM     30  C   UNL A   1      32.641  32.769  27.379  1.00  0.00     0.116 C 
BRANCH  30  31
ATOM     31  N   UNL A   1      32.375  34.171  27.655  1.00  0.00    -0.352 N 
ATOM     32  C   UNL A   1      32.974  35.002  28.571  1.00  0.00     0.251 C 
ATOM     33  H   UNL A   1      31.666  34.582  27.110  1.00  0.00     0.163 HD
ATOM     34  O   UNL A   1      32.528  36.121  28.786  1.00  0.00    -0.269 OA
BRANCH  32  35
ATOM     35  C   UNL A   1      34.153  34.521  29.323  1.00  0.00     0.039 A 
ATOM     36  C   UNL A   1      33.962  33.923  30.571  1.00  0.00     0.014 A 
ATOM     37  C   UNL A   1      35.439  34.640  28.788  1.00  0.00     0.014 A 
ATOM     38  C   UNL A   1      35.054  33.382  31.252  1.00  0.00     0.010 A 
ATOM     39  C   UNL A   1      36.512  34.034  29.431  1.00  0.00     0.010 A 
ATOM     40  C   UNL A   1      36.332  33.397  30.669  1.00  0.00    -0.014 A 
BRANCH  40  41
ATOM     41  C   UNL A   1      37.494  32.750  31.330  1.00  0.00     0.031 A 
ATOM     42  C   UNL A   1      38.182  31.587  30.670  1.00  0.00     0.074 A 
ATOM     43  C   UNL A   1      37.879  33.156  32.555  1.00  0.00     0.049 A 
ATOM     44  N   UNL A   1      39.139  30.820  31.129  1.00  0.00    -0.248 NA
ATOM     45  C   UNL A   1      37.711  31.219  29.326  1.00  0.00     0.031 C 
ATOM     46  C   UNL A   1      37.269  34.248  33.315  1.00  0.00     0.029 A 
ATOM     47  N   UNL A   1      38.866  32.685  33.386  1.00  0.00    -0.354 N 
ATOM     48  C   UNL A   1      39.372  29.875  30.139  1.00  0.00     0.074 A 
ATOM     49  C   UNL A   1      38.420  30.127  29.080  1.00  0.00     0.031 C 
ATOM     50  C   UNL A   1      37.905  34.375  34.491  1.00  0.00     0.029 A 
ATOM     51  C   UNL A   1      38.935  33.345  34.589  1.00  0.00     0.049 A 
ATOM     52  H   UNL A   1      39.468  31.945  33.142  1.00  0.00     0.167 HD
ATOM     53  C   UNL A   1      40.309  28.897  30.109  1.00  0.00     0.037 A 
ATOM     54  C   UNL A   1      39.726  33.132  35.658  1.00  0.00     0.037 A 
ATOM     55  C   UNL A   1      41.266  28.661  31.159  1.00  0.00     0.049 A 
ATOM     56  C   UNL A   1      40.743  32.022  35.609  1.00  0.00     0.074 A 
ATOM     57  C   UNL A   1      42.289  27.730  31.201  1.00  0.00     0.029 A 
ATOM     58  N   UNL A   1      41.314  29.361  32.355  1.00  0.00    -0.354 N 
ATOM     59  N   UNL A   1      40.995  31.172  34.643  1.00  0.00    -0.248 NA
ATOM     60  C   UNL A   1      41.589  31.845  36.798  1.00  0.00     0.031 C 
ATOM     61  C   UNL A   1      42.918  27.827  32.445  1.00  0.00     0.029 A 
ATOM     62  C   UNL A   1      42.333  28.865  33.153  1.00  0.00     0.049 A 
ATOM     63  H   UNL A   1      40.713  30.102  32.602  1.00  0.00     0.167 HD
ATOM     64  C   UNL A   1      42.050  30.388  35.090  1.00  0.00     0.074 A 
ATOM     65  C   UNL A   1      42.396  30.868  36.412  1.00  0.00     0.031 C 
ATOM     66  C   UNL A   1      42.678  29.365  34.459  1.00  0.00     0.037 A 
BRANCH  53  67
ATOM     67  C   UNL A   1      40.344  28.003  28.902  1.00  0.00     0.064 A 
ATOM     68  C   UNL A   1      41.089  28.334  27.760  1.00  0.00     0.173 A 
ATOM     69  C   UNL A   1      39.655  26.780  28.902  1.00  0.00     0.173 A 
ATOM     70  F   UNL A   1      41.758  29.496  27.702  1.00  0.00    -0.203 F 
ATOM     71  C   UNL A   1      41.116  27.491  26.651  1.00  0.00     0.198 A 
ATOM     72  C   UNL A   1      39.714  25.923  27.806  1.00  0.00     0.198 A 
ATOM     73  F   UNL A   1      38.933  26.410  29.969  1.00  0.00    -0.203 F 
ATOM     74  F   UNL A   1      41.790  27.854  25.551  1.00  0.00    -0.200 F 
ATOM     75  C   UNL A   1      40.436  26.283  26.678  1.00  0.00     0.200 A 
ATOM     76  F   UNL A   1      39.069  24.749  27.840  1.00  0.00    -0.200 F 
ATOM     77  F   UNL A   1      40.471  25.468  25.615  1.00  0.00    -0.200 F 
ENDBRANCH  53  67
BRANCH  54  78
ATOM     78  C   UNL A   1      39.602  33.997  36.861  1.00  0.00     0.064 A 
ATOM     79  C   UNL A   1      40.258  35.234  36.931  1.00  0.00     0.173 A 
ATOM     80  C   UNL A   1      38.834  33.604  37.969  1.00  0.00     0.173 A 
ATOM     81  F   UNL A   1      41.020  35.645  35.907  1.00  0.00    -0.203 F 
ATOM     82  C   UNL A   1      40.173  36.033  38.069  1.00  0.00     0.198 A 
ATOM     83  C   UNL A   1      38.723  34.419  39.093  1.00  0.00     0.198 A 
ATOM     84  F   UNL A   1      38.180  32.433  37.952  1.00  0.00    -0.203 F 
ATOM     85  F   UNL A   1      40.854  37.184  38.129  1.00  0.00    -0.200 F 
ATOM     86  C   UNL A   1      39.401  35.627  39.147  1.00  0.00     0.200 A 
ATOM     87  F   UNL A   1      37.963  34.030  40.126  1.00  0.00    -0.200 F 
ATOM     88  F   UNL A   1      39.316  36.396  40.241  1.00  0.00    -0.200 F 
ENDBRANCH  54  78
BRANCH  66  89
ATOM     89  C   UNL A   1      43.843  28.728  35.161  1.00  0.00     0.064 A 
ATOM     90  C   UNL A   1      43.687  27.620  36.006  1.00  0.00     0.173 A 
ATOM     91  C   UNL A   1      45.146  29.203  34.938  1.00  0.00     0.173 A 
ATOM     92  F   UNL A   1      42.463  27.135  36.264  1.00  0.00    -0.203 F 
ATOM     93  C   UNL A   1      44.787  27.026  36.619  1.00  0.00     0.198 A 
ATOM     94  C   UNL A   1      46.247  28.587  35.524  1.00  0.00     0.198 A 
ATOM     95  F   UNL A   1      45.353  30.256  34.132  1.00  0.00    -0.203 F 
ATOM     96  F   UNL A   1      44.610  25.997  37.459  1.00  0.00    -0.200 F 
ATOM     97  C   UNL A   1      46.066  27.503  36.370  1.00  0.00     0.200 A 
ATOM     98  F   UNL A   1      47.482  29.039  35.269  1.00  0.00    -0.200 F 
ATOM     99  F   UNL A   1      47.125  26.921  36.950  1.00  0.00    -0.200 F 
ENDBRANCH  66  89
ENDBRANCH  40  41
ENDBRANCH  32  35
ENDBRANCH  30  31
ENDBRANCH  29  30
ENDBRANCH  28  29
ENDBRANCH  27  28
ENDBRANCH  26  27
ENDBRANCH   1  26
TORSDOF 19
ENDMDL
