MODEL 1
REMARK VINA RESULT:     -12.1      0.000      0.000
REMARK SMILES CC[C@](C)(NC(=O)N1CCS(=O)CC1)C(=O)NCCCCCCNC(=O)c1ccc(-c2c3nc(c(-c4c(F)c(F)c(F)c(F)c4F)c4ccc([nH]4)c(-c4c(F)c(F)c(F)c(F)c4F)c4nc(c(-c5c(F)c(F)c(F)c(F)c5F)c5ccc2[nH]5)C=C4)C=C3)cc1
REMARK SMILES IDX 21 1 20 2 19 3 18 4 17 5 15 6 16 7 3 9 4 10 2 11 1 12 5 13
REMARK SMILES IDX 6 14 7 16 8 17 9 18 14 19 10 20 13 21 11 22 12 23 22 24
REMARK SMILES IDX 23 25 24 26 25 27 26 29 27 30 28 31 89 32 29 33 88 34 30 35
REMARK SMILES IDX 31 36 32 37 82 38 33 39 87 40 81 41 83 42 34 43 86 44 80 45
REMARK SMILES IDX 79 46 35 48 67 49 47 50 66 51 48 52 51 53 65 54 84 55 49 56
REMARK SMILES IDX 50 57 64 59 85 60 52 61 36 62 37 63 45 64 38 65 39 66 43 67
REMARK SMILES IDX 46 68 40 69 41 70 44 71 42 72 68 73 69 74 77 75 70 76 71 77
REMARK SMILES IDX 75 78 78 79 72 80 73 81 76 82 74 83 53 84 54 85 62 86 55 87
REMARK SMILES IDX 56 88 60 89 63 90 57 91 58 92 61 93 59 94
REMARK H PARENT 17 8 5 15 24 28 83 47 51 58
REMARK Flexibility Score: inf
ROOT
ATOM      1  C   UNL A   1      31.944  30.414  26.613  1.00  0.00     0.002 C 
ENDROOT
BRANCH   1   2
ATOM      2  C   UNL A   1      33.398  30.073  26.316  1.00  0.00     0.002 C 
BRANCH   2   3
ATOM      3  C   UNL A   1      33.937  28.809  26.995  1.00  0.00     0.021 C 
BRANCH   3   4
ATOM      4  C   UNL A   1      33.358  27.479  26.503  1.00  0.00     0.116 C 
BRANCH   4   5
ATOM      5  N   UNL A   1      33.599  27.175  25.100  1.00  0.00    -0.354 N 
ATOM      6  C   UNL A   1      32.925  26.392  24.196  1.00  0.00     0.245 C 
ATOM      7  O   UNL A   1      33.431  26.289  23.073  1.00  0.00    -0.272 OA
ATOM      8  H   UNL A   1      34.398  27.616  24.728  1.00  0.00     0.163 HD
BRANCH   6   9
ATOM      9  C   UNL A   1      31.554  25.739  24.536  1.00  0.00     0.117 C 
ATOM     10  C   UNL A   1      31.148  24.630  23.535  1.00  0.00     0.045 C 
BRANCH   9  11
ATOM     11  C   UNL A   1      30.500  26.898  24.379  1.00  0.00     0.035 C 
ATOM     12  C   UNL A   1      29.084  26.431  24.029  1.00  0.00     0.007 C 
ENDBRANCH   9  11
BRANCH   9  13
ATOM     13  N   UNL A   1      31.479  25.170  25.917  1.00  0.00    -0.324 N 
ATOM     14  C   UNL A   1      31.777  23.953  26.452  1.00  0.00     0.318 C 
ATOM     15  H   UNL A   1      31.144  25.813  26.583  1.00  0.00     0.166 HD
ATOM     16  O   UNL A   1      31.046  23.594  27.380  1.00  0.00    -0.249 OA
ATOM     17  N   UNL A   1      32.818  23.167  26.017  1.00  0.00    -0.323 N 
ATOM     18  C   UNL A   1      32.962  21.813  26.575  1.00  0.00     0.135 C 
ATOM     19  C   UNL A   1      34.090  23.668  25.542  1.00  0.00     0.135 C 
ATOM     20  C   UNL A   1      33.579  20.795  25.613  1.00  0.00     0.126 C 
ATOM     21  C   UNL A   1      34.612  22.926  24.336  1.00  0.00     0.126 C 
ATOM     22  S   UNL A   1      35.171  21.287  24.875  1.00  0.00     0.025 S 
ATOM     23  O   UNL A   1      36.171  21.484  25.979  1.00  0.00    -0.259 OA
ENDBRANCH   9  13
ENDBRANCH   6   9
ENDBRANCH   4   5
ENDBRANCH   3   4
ENDBRANCH   2   3
ENDBRANCH   1   2
BRANCH   1  24
ATOM     24  C   UNL A   1      31.664  31.901  26.793  1.00  0.00     0.021 C 
BRANCH  24  25
ATOM     25  C   UNL A   1      32.799  32.675  27.455  1.00  0.00     0.116 C 
BRANCH  25  26
ATOM     26  N   UNL A   1      32.469  34.078  27.651  1.00  0.00    -0.352 N 
ATOM     27  C   UNL A   1      32.979  34.965  28.573  1.00  0.00     0.251 C 
ATOM     28  H   UNL A   1      31.787  34.443  27.043  1.00  0.00     0.163 HD
ATOM     29  O   UNL A   1      32.462  36.052  28.757  1.00  0.00    -0.269 OA
BRANCH  27  30
ATOM     30  C   UNL A   1      34.159  34.557  29.364  1.00  0.00     0.039 A 
ATOM     31  C   UNL A   1      33.971  34.069  30.657  1.00  0.00     0.014 A 
ATOM     32  C   UNL A   1      35.435  34.607  28.797  1.00  0.00     0.014 A 
ATOM     33  C   UNL A   1      35.061  33.546  31.355  1.00  0.00     0.010 A 
ATOM     34  C   UNL A   1      36.501  34.009  29.458  1.00  0.00     0.010 A 
ATOM     35  C   UNL A   1      36.322  33.467  30.741  1.00  0.00    -0.014 A 
BRANCH  35  36
ATOM     36  C   UNL A   1      37.462  32.795  31.413  1.00  0.00     0.031 A 
ATOM     37  C   UNL A   1      38.125  31.611  30.773  1.00  0.00     0.074 A 
ATOM     38  C   UNL A   1      37.843  33.204  32.638  1.00  0.00     0.049 A 
ATOM     39  N   UNL A   1      39.084  30.848  31.234  1.00  0.00    -0.248 NA
ATOM     40  C   UNL A   1      37.622  31.210  29.450  1.00  0.00     0.031 C 
ATOM     41  C   UNL A   1      37.234  34.303  33.389  1.00  0.00     0.029 A 
ATOM     42  N   UNL A   1      38.823  32.732  33.476  1.00  0.00    -0.354 N 
ATOM     43  C   UNL A   1      39.296  29.880  30.261  1.00  0.00     0.074 A 
ATOM     44  C   UNL A   1      38.320  30.109  29.218  1.00  0.00     0.031 C 
ATOM     45  C   UNL A   1      37.861  34.431  34.568  1.00  0.00     0.029 A 
ATOM     46  C   UNL A   1      38.887  33.398  34.675  1.00  0.00     0.049 A 
ATOM     47  H   UNL A   1      39.422  31.988  33.240  1.00  0.00     0.167 HD
ATOM     48  C   UNL A   1      40.237  28.907  30.230  1.00  0.00     0.037 A 
ATOM     49  C   UNL A   1      39.674  33.190  35.748  1.00  0.00     0.037 A 
ATOM     50  C   UNL A   1      41.205  28.686  31.273  1.00  0.00     0.049 A 
ATOM     51  C   UNL A   1      40.697  32.089  35.703  1.00  0.00     0.074 A 
ATOM     52  C   UNL A   1      42.235  27.766  31.315  1.00  0.00     0.029 A 
ATOM     53  N   UNL A   1      41.250  29.391  32.469  1.00  0.00    -0.354 N 
ATOM     54  N   UNL A   1      40.945  31.231  34.744  1.00  0.00    -0.248 NA
ATOM     55  C   UNL A   1      41.553  31.930  36.886  1.00  0.00     0.031 C 
ATOM     56  C   UNL A   1      42.867  27.872  32.559  1.00  0.00     0.029 A 
ATOM     57  C   UNL A   1      42.270  28.900  33.270  1.00  0.00     0.049 A 
ATOM     58  H   UNL A   1      40.646  30.130  32.713  1.00  0.00     0.167 HD
ATOM     59  C   UNL A   1      41.993  30.441  35.197  1.00  0.00     0.074 A 
ATOM     60  C   UNL A   1      42.348  30.937  36.511  1.00  0.00     0.031 C 
ATOM     61  C   UNL A   1      42.603  29.398  34.582  1.00  0.00     0.037 A 
BRANCH  48  62
ATOM     62  C   UNL A   1      40.255  28.007  29.026  1.00  0.00     0.064 A 
ATOM     63  C   UNL A   1      39.546  26.796  29.002  1.00  0.00     0.173 A 
ATOM     64  C   UNL A   1      40.985  28.360  27.882  1.00  0.00     0.173 A 
ATOM     65  F   UNL A   1      38.839  26.404  30.073  1.00  0.00    -0.203 F 
ATOM     66  C   UNL A   1      39.603  25.952  27.895  1.00  0.00     0.198 A 
ATOM     67  C   UNL A   1      41.011  27.531  26.763  1.00  0.00     0.198 A 
ATOM     68  F   UNL A   1      41.676  29.510  27.846  1.00  0.00    -0.203 F 
ATOM     69  F   UNL A   1      38.972  24.769  27.923  1.00  0.00    -0.200 F 
ATOM     70  C   UNL A   1      40.331  26.322  26.776  1.00  0.00     0.200 A 
ATOM     71  F   UNL A   1      41.703  27.897  25.675  1.00  0.00    -0.200 F 
ATOM     72  F   UNL A   1      40.387  25.510  25.711  1.00  0.00    -0.200 F 
ENDBRANCH  48  62
BRANCH  49  73
ATOM     73  C   UNL A   1      39.519  34.052  36.949  1.00  0.00     0.064 A 
ATOM     74  C   UNL A   1      38.751  33.638  38.045  1.00  0.00     0.173 A 
ATOM     75  C   UNL A   1      40.160  35.298  37.035  1.00  0.00     0.173 A 
ATOM     76  F   UNL A   1      38.105  32.463  38.004  1.00  0.00    -0.203 F 
ATOM     77  C   UNL A   1      38.621  34.440  39.177  1.00  0.00     0.198 A 
ATOM     78  C   UNL A   1      40.053  36.086  38.179  1.00  0.00     0.198 A 
ATOM     79  F   UNL A   1      40.912  35.738  36.016  1.00  0.00    -0.203 F 
ATOM     80  F   UNL A   1      37.851  34.035  40.197  1.00  0.00    -0.200 F 
ATOM     81  C   UNL A   1      39.279  35.659  39.247  1.00  0.00     0.200 A 
ATOM     82  F   UNL A   1      40.706  37.254  38.248  1.00  0.00    -0.200 F 
ATOM     83  F   UNL A   1      39.164  36.424  40.341  1.00  0.00    -0.200 F 
ENDBRANCH  49  73
BRANCH  61  84
ATOM     84  C   UNL A   1      43.726  28.726  35.319  1.00  0.00     0.064 A 
ATOM     85  C   UNL A   1      45.058  29.141  35.168  1.00  0.00     0.173 A 
ATOM     86  C   UNL A   1      43.462  27.684  36.222  1.00  0.00     0.173 A 
ATOM     87  F   UNL A   1      45.365  30.122  34.306  1.00  0.00    -0.203 F 
ATOM     88  C   UNL A   1      46.085  28.524  35.876  1.00  0.00     0.198 A 
ATOM     89  C   UNL A   1      44.488  27.090  36.952  1.00  0.00     0.198 A 
ATOM     90  F   UNL A   1      42.206  27.251  36.407  1.00  0.00    -0.203 F 
ATOM     91  F   UNL A   1      47.355  28.906  35.680  1.00  0.00    -0.200 F 
ATOM     92  C   UNL A   1      45.798  27.506  36.774  1.00  0.00     0.200 A 
ATOM     93  F   UNL A   1      44.208  26.117  37.829  1.00  0.00    -0.200 F 
ATOM     94  F   UNL A   1      46.788  26.920  37.462  1.00  0.00    -0.200 F 
ENDBRANCH  61  84
ENDBRANCH  35  36
ENDBRANCH  27  30
ENDBRANCH  25  26
ENDBRANCH  24  25
ENDBRANCH   1  24
TORSDOF 15
ENDMDL
MODEL 2
REMARK VINA RESULT:     -12.0      0.504      1.233
REMARK SMILES CC[C@](C)(NC(=O)N1CCS(=O)CC1)C(=O)NCCCCCCNC(=O)c1ccc(-c2c3nc(c(-c4c(F)c(F)c(F)c(F)c4F)c4ccc([nH]4)c(-c4c(F)c(F)c(F)c(F)c4F)c4nc(c(-c5c(F)c(F)c(F)c(F)c5F)c5ccc2[nH]5)C=C4)C=C3)cc1
REMARK SMILES IDX 21 1 20 2 19 3 18 4 17 5 15 6 16 7 3 9 4 10 2 11 1 12 5 13
REMARK SMILES IDX 6 14 7 16 8 17 9 18 14 19 10 20 13 21 11 22 12 23 22 24
REMARK SMILES IDX 23 25 24 26 25 27 26 29 27 30 28 31 89 32 29 33 88 34 30 35
REMARK SMILES IDX 31 36 32 37 82 38 33 39 87 40 81 41 83 42 34 43 86 44 80 45
REMARK SMILES IDX 79 46 35 48 67 49 47 50 66 51 48 52 51 53 65 54 84 55 49 56
REMARK SMILES IDX 50 57 64 59 85 60 52 61 36 62 37 63 45 64 38 65 39 66 43 67
REMARK SMILES IDX 46 68 40 69 41 70 44 71 42 72 68 73 69 74 77 75 70 76 71 77
REMARK SMILES IDX 75 78 78 79 72 80 73 81 76 82 74 83 53 84 54 85 62 86 55 87
REMARK SMILES IDX 56 88 60 89 63 90 57 91 58 92 61 93 59 94
REMARK H PARENT 17 8 5 15 24 28 83 47 51 58
REMARK Flexibility Score: inf
ROOT
ATOM      1  C   UNL A   1      31.948  30.443  26.510  1.00  0.00     0.002 C 
ENDROOT
BRANCH   1   2
ATOM      2  C   UNL A   1      33.117  29.885  27.312  1.00  0.00     0.002 C 
BRANCH   2   3
ATOM      3  C   UNL A   1      34.099  29.006  26.532  1.00  0.00     0.021 C 
BRANCH   3   4
ATOM      4  C   UNL A   1      33.583  27.626  26.111  1.00  0.00     0.116 C 
BRANCH   4   5
ATOM      5  N   UNL A   1      33.864  27.250  24.734  1.00  0.00    -0.354 N 
ATOM      6  C   UNL A   1      33.097  26.647  23.767  1.00  0.00     0.245 C 
ATOM      7  O   UNL A   1      33.659  26.403  22.693  1.00  0.00    -0.272 OA
ATOM      8  H   UNL A   1      34.778  27.470  24.438  1.00  0.00     0.163 HD
BRANCH   6   9
ATOM      9  C   UNL A   1      31.581  26.366  23.977  1.00  0.00     0.117 C 
ATOM     10  C   UNL A   1      31.000  25.378  22.937  1.00  0.00     0.045 C 
BRANCH   9  11
ATOM     11  C   UNL A   1      30.872  27.750  23.733  1.00  0.00     0.035 C 
ATOM     12  C   UNL A   1      29.390  27.651  23.355  1.00  0.00     0.007 C 
ENDBRANCH   9  11
BRANCH   9  13
ATOM     13  N   UNL A   1      31.242  25.857  25.343  1.00  0.00    -0.324 N 
ATOM     14  C   UNL A   1      31.157  24.613  25.890  1.00  0.00     0.318 C 
ATOM     15  H   UNL A   1      31.038  26.576  25.984  1.00  0.00     0.166 HD
ATOM     16  O   UNL A   1      30.282  24.476  26.750  1.00  0.00    -0.249 OA
ATOM     17  N   UNL A   1      31.981  23.570  25.536  1.00  0.00    -0.323 N 
ATOM     18  C   UNL A   1      31.709  22.236  26.093  1.00  0.00     0.135 C 
ATOM     19  C   UNL A   1      33.375  23.705  25.173  1.00  0.00     0.135 C 
ATOM     20  C   UNL A   1      32.107  21.076  25.177  1.00  0.00     0.126 C 
ATOM     21  C   UNL A   1      33.777  22.833  24.009  1.00  0.00     0.126 C 
ATOM     22  S   UNL A   1      33.828  21.112  24.578  1.00  0.00     0.025 S 
ATOM     23  O   UNL A   1      34.749  21.049  25.763  1.00  0.00    -0.259 OA
ENDBRANCH   9  13
ENDBRANCH   6   9
ENDBRANCH   4   5
ENDBRANCH   3   4
ENDBRANCH   2   3
ENDBRANCH   1   2
BRANCH   1  24
ATOM     24  C   UNL A   1      31.633  31.909  26.781  1.00  0.00     0.021 C 
BRANCH  24  25
ATOM     25  C   UNL A   1      32.775  32.685  27.428  1.00  0.00     0.116 C 
BRANCH  25  26
ATOM     26  N   UNL A   1      32.448  34.088  27.624  1.00  0.00    -0.352 N 
ATOM     27  C   UNL A   1      32.955  34.974  28.548  1.00  0.00     0.251 C 
ATOM     28  H   UNL A   1      31.769  34.455  27.013  1.00  0.00     0.163 HD
ATOM     29  O   UNL A   1      32.440  36.062  28.730  1.00  0.00    -0.269 OA
BRANCH  27  30
ATOM     30  C   UNL A   1      34.131  34.563  29.344  1.00  0.00     0.039 A 
ATOM     31  C   UNL A   1      33.936  34.064  30.631  1.00  0.00     0.014 A 
ATOM     32  C   UNL A   1      35.411  34.621  28.786  1.00  0.00     0.014 A 
ATOM     33  C   UNL A   1      35.022  33.538  31.332  1.00  0.00     0.010 A 
ATOM     34  C   UNL A   1      36.474  34.021  29.450  1.00  0.00     0.010 A 
ATOM     35  C   UNL A   1      36.288  33.468  30.727  1.00  0.00    -0.014 A 
BRANCH  35  36
ATOM     36  C   UNL A   1      37.425  32.793  31.401  1.00  0.00     0.031 A 
ATOM     37  C   UNL A   1      38.088  31.609  30.762  1.00  0.00     0.074 A 
ATOM     38  C   UNL A   1      37.804  33.201  32.628  1.00  0.00     0.049 A 
ATOM     39  N   UNL A   1      39.044  30.845  31.225  1.00  0.00    -0.248 NA
ATOM     40  C   UNL A   1      37.588  31.210  29.437  1.00  0.00     0.031 C 
ATOM     41  C   UNL A   1      37.194  34.300  33.377  1.00  0.00     0.029 A 
ATOM     42  N   UNL A   1      38.780  32.727  33.468  1.00  0.00    -0.354 N 
ATOM     43  C   UNL A   1      39.257  29.877  30.252  1.00  0.00     0.074 A 
ATOM     44  C   UNL A   1      38.285  30.108  29.206  1.00  0.00     0.031 C 
ATOM     45  C   UNL A   1      37.817  34.426  34.558  1.00  0.00     0.029 A 
ATOM     46  C   UNL A   1      38.842  33.392  34.668  1.00  0.00     0.049 A 
ATOM     47  H   UNL A   1      39.379  31.982  33.233  1.00  0.00     0.167 HD
ATOM     48  C   UNL A   1      40.197  28.903  30.222  1.00  0.00     0.037 A 
ATOM     49  C   UNL A   1      39.626  33.181  35.742  1.00  0.00     0.037 A 
ATOM     50  C   UNL A   1      41.162  28.680  31.268  1.00  0.00     0.049 A 
ATOM     51  C   UNL A   1      40.648  32.079  35.699  1.00  0.00     0.074 A 
ATOM     52  C   UNL A   1      42.191  27.758  31.311  1.00  0.00     0.029 A 
ATOM     53  N   UNL A   1      41.206  29.383  32.464  1.00  0.00    -0.354 N 
ATOM     54  N   UNL A   1      40.897  31.221  34.740  1.00  0.00    -0.248 NA
ATOM     55  C   UNL A   1      41.500  31.918  36.884  1.00  0.00     0.031 C 
ATOM     56  C   UNL A   1      42.820  27.862  32.557  1.00  0.00     0.029 A 
ATOM     57  C   UNL A   1      42.223  28.890  33.267  1.00  0.00     0.049 A 
ATOM     58  H   UNL A   1      40.602  30.123  32.707  1.00  0.00     0.167 HD
ATOM     59  C   UNL A   1      41.942  30.430  35.195  1.00  0.00     0.074 A 
ATOM     60  C   UNL A   1      42.295  30.925  36.510  1.00  0.00     0.031 C 
ATOM     61  C   UNL A   1      42.553  29.386  34.581  1.00  0.00     0.037 A 
BRANCH  48  62
ATOM     62  C   UNL A   1      40.218  28.003  29.018  1.00  0.00     0.064 A 
ATOM     63  C   UNL A   1      39.518  26.787  28.995  1.00  0.00     0.173 A 
ATOM     64  C   UNL A   1      40.940  28.363  27.870  1.00  0.00     0.173 A 
ATOM     65  F   UNL A   1      38.819  26.389  30.069  1.00  0.00    -0.203 F 
ATOM     66  C   UNL A   1      39.577  25.944  27.888  1.00  0.00     0.198 A 
ATOM     67  C   UNL A   1      40.968  27.535  26.750  1.00  0.00     0.198 A 
ATOM     68  F   UNL A   1      41.621  29.518  27.833  1.00  0.00    -0.203 F 
ATOM     69  F   UNL A   1      38.955  24.757  27.918  1.00  0.00    -0.200 F 
ATOM     70  C   UNL A   1      40.297  26.321  26.765  1.00  0.00     0.200 A 
ATOM     71  F   UNL A   1      41.652  27.907  25.660  1.00  0.00    -0.200 F 
ATOM     72  F   UNL A   1      40.354  25.510  25.700  1.00  0.00    -0.200 F 
ENDBRANCH  48  62
BRANCH  49  73
ATOM     73  C   UNL A   1      39.469  34.042  36.943  1.00  0.00     0.064 A 
ATOM     74  C   UNL A   1      38.711  33.622  38.044  1.00  0.00     0.173 A 
ATOM     75  C   UNL A   1      40.099  35.294  37.026  1.00  0.00     0.173 A 
ATOM     76  F   UNL A   1      38.075  32.442  38.006  1.00  0.00    -0.203 F 
ATOM     77  C   UNL A   1      38.579  34.424  39.176  1.00  0.00     0.198 A 
ATOM     78  C   UNL A   1      39.990  36.082  38.170  1.00  0.00     0.198 A 
ATOM     79  F   UNL A   1      40.843  35.741  36.003  1.00  0.00    -0.203 F 
ATOM     80  F   UNL A   1      37.818  34.012  40.200  1.00  0.00    -0.200 F 
ATOM     81  C   UNL A   1      39.226  35.648  39.242  1.00  0.00     0.200 A 
ATOM     82  F   UNL A   1      40.633  37.256  38.236  1.00  0.00    -0.200 F 
ATOM     83  F   UNL A   1      39.110  36.413  40.336  1.00  0.00    -0.200 F 
ENDBRANCH  49  73
BRANCH  61  84
ATOM     84  C   UNL A   1      43.673  28.712  35.320  1.00  0.00     0.064 A 
ATOM     85  C   UNL A   1      43.431  27.674  36.234  1.00  0.00     0.173 A 
ATOM     86  C   UNL A   1      45.006  29.076  35.079  1.00  0.00     0.173 A 
ATOM     87  F   UNL A   1      42.173  27.300  36.513  1.00  0.00    -0.203 F 
ATOM     88  C   UNL A   1      44.481  27.043  36.895  1.00  0.00     0.198 A 
ATOM     89  C   UNL A   1      46.056  28.420  35.717  1.00  0.00     0.198 A 
ATOM     90  F   UNL A   1      45.293  30.057  34.212  1.00  0.00    -0.203 F 
ATOM     91  F   UNL A   1      44.223  26.087  37.799  1.00  0.00    -0.200 F 
ATOM     92  C   UNL A   1      45.792  27.410  36.629  1.00  0.00     0.200 A 
ATOM     93  F   UNL A   1      47.322  28.766  35.449  1.00  0.00    -0.200 F 
ATOM     94  F   UNL A   1      46.802  26.793  37.259  1.00  0.00    -0.200 F 
ENDBRANCH  61  84
ENDBRANCH  35  36
ENDBRANCH  27  30
ENDBRANCH  25  26
ENDBRANCH  24  25
ENDBRANCH   1  24
TORSDOF 15
ENDMDL
MODEL 3
REMARK VINA RESULT:     -12.0      0.591      7.422
REMARK SMILES CC[C@](C)(NC(=O)N1CCS(=O)CC1)C(=O)NCCCCCCNC(=O)c1ccc(-c2c3nc(c(-c4c(F)c(F)c(F)c(F)c4F)c4ccc([nH]4)c(-c4c(F)c(F)c(F)c(F)c4F)c4nc(c(-c5c(F)c(F)c(F)c(F)c5F)c5ccc2[nH]5)C=C4)C=C3)cc1
REMARK SMILES IDX 21 1 20 2 19 3 18 4 17 5 15 6 16 7 3 9 4 10 2 11 1 12 5 13
REMARK SMILES IDX 6 14 7 16 8 17 9 18 14 19 10 20 13 21 11 22 12 23 22 24
REMARK SMILES IDX 23 25 24 26 25 27 26 29 27 30 28 31 89 32 29 33 88 34 30 35
REMARK SMILES IDX 31 36 32 37 82 38 33 39 87 40 81 41 83 42 34 43 86 44 80 45
REMARK SMILES IDX 79 46 35 48 67 49 47 50 66 51 48 52 51 53 65 54 84 55 49 56
REMARK SMILES IDX 50 57 64 59 85 60 52 61 36 62 37 63 45 64 38 65 39 66 43 67
REMARK SMILES IDX 46 68 40 69 41 70 44 71 42 72 68 73 69 74 77 75 70 76 71 77
REMARK SMILES IDX 75 78 78 79 72 80 73 81 76 82 74 83 53 84 54 85 62 86 55 87
REMARK SMILES IDX 56 88 60 89 63 90 57 91 58 92 61 93 59 94
REMARK H PARENT 17 8 5 15 24 28 83 47 51 58
REMARK Flexibility Score: inf
ROOT
ATOM      1  C   UNL A   1      31.762  30.567  26.310  1.00  0.00     0.002 C 
ENDROOT
BRANCH   1   2
ATOM      2  C   UNL A   1      32.791  29.833  27.160  1.00  0.00     0.002 C 
BRANCH   2   3
ATOM      3  C   UNL A   1      33.849  29.040  26.386  1.00  0.00     0.021 C 
BRANCH   3   4
ATOM      4  C   UNL A   1      33.520  27.571  26.102  1.00  0.00     0.116 C 
BRANCH   4   5
ATOM      5  N   UNL A   1      33.725  27.141  24.727  1.00  0.00    -0.354 N 
ATOM      6  C   UNL A   1      33.022  26.289  23.911  1.00  0.00     0.245 C 
ATOM      7  O   UNL A   1      33.502  26.081  22.791  1.00  0.00    -0.272 OA
ATOM      8  H   UNL A   1      34.520  27.538  24.299  1.00  0.00     0.163 HD
BRANCH   6   9
ATOM      9  C   UNL A   1      31.653  25.685  24.338  1.00  0.00     0.117 C 
ATOM     10  C   UNL A   1      31.205  24.508  23.440  1.00  0.00     0.045 C 
BRANCH   9  11
ATOM     11  C   UNL A   1      30.611  26.845  24.120  1.00  0.00     0.035 C 
ATOM     12  C   UNL A   1      29.144  26.412  24.217  1.00  0.00     0.007 C 
ENDBRANCH   9  11
BRANCH   9  13
ATOM     13  N   UNL A   1      31.610  25.228  25.762  1.00  0.00    -0.324 N 
ATOM     14  C   UNL A   1      31.900  24.050  26.382  1.00  0.00     0.318 C 
ATOM     15  H   UNL A   1      31.307  25.928  26.385  1.00  0.00     0.166 HD
ATOM     16  O   UNL A   1      31.190  23.780  27.356  1.00  0.00    -0.249 OA
ATOM     17  N   UNL A   1      32.911  23.209  25.980  1.00  0.00    -0.323 N 
ATOM     18  C   UNL A   1      33.045  21.900  26.638  1.00  0.00     0.135 C 
ATOM     19  C   UNL A   1      34.177  23.644  25.430  1.00  0.00     0.135 C 
ATOM     20  C   UNL A   1      33.612  20.797  25.741  1.00  0.00     0.126 C 
ATOM     21  C   UNL A   1      34.647  22.798  24.271  1.00  0.00     0.126 C 
ATOM     22  S   UNL A   1      35.190  21.195  24.920  1.00  0.00     0.025 S 
ATOM     23  O   UNL A   1      36.227  21.455  25.976  1.00  0.00    -0.259 OA
ENDBRANCH   9  13
ENDBRANCH   6   9
ENDBRANCH   4   5
ENDBRANCH   3   4
ENDBRANCH   2   3
ENDBRANCH   1   2
BRANCH   1  24
ATOM     24  C   UNL A   1      31.498  32.007  26.732  1.00  0.00     0.021 C 
BRANCH  24  25
ATOM     25  C   UNL A   1      32.716  32.724  27.302  1.00  0.00     0.116 C 
BRANCH  25  26
ATOM     26  N   UNL A   1      32.446  34.123  27.595  1.00  0.00    -0.352 N 
ATOM     27  C   UNL A   1      32.984  34.919  28.581  1.00  0.00     0.251 C 
ATOM     28  H   UNL A   1      31.787  34.560  27.010  1.00  0.00     0.163 HD
ATOM     29  O   UNL A   1      32.513  36.012  28.838  1.00  0.00    -0.269 OA
BRANCH  27  30
ATOM     30  C   UNL A   1      34.137  34.405  29.350  1.00  0.00     0.039 A 
ATOM     31  C   UNL A   1      33.903  33.701  30.531  1.00  0.00     0.014 A 
ATOM     32  C   UNL A   1      35.436  34.572  28.864  1.00  0.00     0.014 A 
ATOM     33  C   UNL A   1      34.973  33.087  31.184  1.00  0.00     0.010 A 
ATOM     34  C   UNL A   1      36.486  33.891  29.467  1.00  0.00     0.010 A 
ATOM     35  C   UNL A   1      36.263  33.136  30.630  1.00  0.00    -0.014 A 
BRANCH  35  36
ATOM     36  C   UNL A   1      37.388  32.381  31.234  1.00  0.00     0.031 A 
ATOM     37  C   UNL A   1      37.921  32.768  32.582  1.00  0.00     0.074 A 
ATOM     38  C   UNL A   1      37.980  31.397  30.530  1.00  0.00     0.049 A 
ATOM     39  N   UNL A   1      38.940  32.279  33.243  1.00  0.00    -0.248 NA
ATOM     40  C   UNL A   1      37.236  33.876  33.267  1.00  0.00     0.031 C 
ATOM     41  C   UNL A   1      37.591  30.972  29.184  1.00  0.00     0.029 A 
ATOM     42  N   UNL A   1      39.046  30.590  30.839  1.00  0.00    -0.354 N 
ATOM     43  C   UNL A   1      39.018  33.019  34.415  1.00  0.00     0.074 A 
ATOM     44  C   UNL A   1      37.990  34.034  34.344  1.00  0.00     0.031 C 
ATOM     45  C   UNL A   1      38.396  29.974  28.789  1.00  0.00     0.029 A 
ATOM     46  C   UNL A   1      39.382  29.716  29.834  1.00  0.00     0.049 A 
ATOM     47  H   UNL A   1      39.523  30.632  31.699  1.00  0.00     0.167 HD
ATOM     48  C   UNL A   1      39.855  32.848  35.466  1.00  0.00     0.037 A 
ATOM     49  C   UNL A   1      40.385  28.820  29.757  1.00  0.00     0.037 A 
ATOM     50  C   UNL A   1      40.876  31.834  35.529  1.00  0.00     0.049 A 
ATOM     51  C   UNL A   1      41.317  28.661  30.925  1.00  0.00     0.074 A 
ATOM     52  C   UNL A   1      41.738  31.540  36.569  1.00  0.00     0.029 A 
ATOM     53  N   UNL A   1      41.180  30.956  34.497  1.00  0.00    -0.354 N 
ATOM     54  N   UNL A   1      41.332  29.310  32.064  1.00  0.00    -0.248 NA
ATOM     55  C   UNL A   1      42.369  27.644  30.801  1.00  0.00     0.031 C 
ATOM     56  C   UNL A   1      42.603  30.524  36.146  1.00  0.00     0.029 A 
ATOM     57  C   UNL A   1      42.241  30.142  34.864  1.00  0.00     0.049 A 
ATOM     58  H   UNL A   1      40.711  30.917  33.632  1.00  0.00     0.167 HD
ATOM     59  C   UNL A   1      42.380  28.772  32.799  1.00  0.00     0.074 A 
ATOM     60  C   UNL A   1      42.964  27.727  31.983  1.00  0.00     0.031 C 
ATOM     61  C   UNL A   1      42.820  29.114  34.035  1.00  0.00     0.037 A 
BRANCH  48  62
ATOM     62  C   UNL A   1      39.698  33.787  36.630  1.00  0.00     0.064 A 
ATOM     63  C   UNL A   1      40.340  35.034  36.662  1.00  0.00     0.173 A 
ATOM     64  C   UNL A   1      38.892  33.439  37.724  1.00  0.00     0.173 A 
ATOM     65  F   UNL A   1      41.131  35.414  35.647  1.00  0.00    -0.203 F 
ATOM     66  C   UNL A   1      40.218  35.878  37.763  1.00  0.00     0.198 A 
ATOM     67  C   UNL A   1      38.742  34.300  38.808  1.00  0.00     0.198 A 
ATOM     68  F   UNL A   1      38.247  32.262  37.744  1.00  0.00    -0.203 F 
ATOM     69  F   UNL A   1      40.896  37.034  37.798  1.00  0.00    -0.200 F 
ATOM     70  C   UNL A   1      39.415  35.513  38.832  1.00  0.00     0.200 A 
ATOM     71  F   UNL A   1      37.954  33.953  39.835  1.00  0.00    -0.200 F 
ATOM     72  F   UNL A   1      39.298  36.324  39.893  1.00  0.00    -0.200 F 
ENDBRANCH  48  62
BRANCH  49  73
ATOM     73  C   UNL A   1      40.545  28.005  28.524  1.00  0.00     0.064 A 
ATOM     74  C   UNL A   1      41.320  28.461  27.449  1.00  0.00     0.173 A 
ATOM     75  C   UNL A   1      39.948  26.740  28.408  1.00  0.00     0.173 A 
ATOM     76  F   UNL A   1      41.896  29.670  27.505  1.00  0.00    -0.203 F 
ATOM     77  C   UNL A   1      41.482  27.687  26.301  1.00  0.00     0.198 A 
ATOM     78  C   UNL A   1      40.136  25.956  27.272  1.00  0.00     0.198 A 
ATOM     79  F   UNL A   1      39.202  26.255  29.411  1.00  0.00    -0.203 F 
ATOM     80  F   UNL A   1      42.199  28.163  25.273  1.00  0.00    -0.200 F 
ATOM     81  C   UNL A   1      40.898  26.433  26.217  1.00  0.00     0.200 A 
ATOM     82  F   UNL A   1      39.584  24.736  27.204  1.00  0.00    -0.200 F 
ATOM     83  F   UNL A   1      41.067  25.684  25.118  1.00  0.00    -0.200 F 
ENDBRANCH  49  73
BRANCH  61  84
ATOM     84  C   UNL A   1      43.986  28.346  34.587  1.00  0.00     0.064 A 
ATOM     85  C   UNL A   1      45.305  28.801  34.435  1.00  0.00     0.173 A 
ATOM     86  C   UNL A   1      43.779  27.165  35.316  1.00  0.00     0.173 A 
ATOM     87  F   UNL A   1      45.557  29.916  33.733  1.00  0.00    -0.203 F 
ATOM     88  C   UNL A   1      46.374  28.090  34.973  1.00  0.00     0.198 A 
ATOM     89  C   UNL A   1      44.848  26.474  35.880  1.00  0.00     0.198 A 
ATOM     90  F   UNL A   1      42.539  26.688  35.495  1.00  0.00    -0.203 F 
ATOM     91  F   UNL A   1      47.628  28.519  34.775  1.00  0.00    -0.200 F 
ATOM     92  C   UNL A   1      46.144  26.933  35.702  1.00  0.00     0.200 A 
ATOM     93  F   UNL A   1      44.624  25.364  36.596  1.00  0.00    -0.200 F 
ATOM     94  F   UNL A   1      47.174  26.256  36.229  1.00  0.00    -0.200 F 
ENDBRANCH  61  84
ENDBRANCH  35  36
ENDBRANCH  27  30
ENDBRANCH  25  26
ENDBRANCH  24  25
ENDBRANCH   1  24
TORSDOF 15
ENDMDL
