MODEL 1
REMARK VINA RESULT:     -12.3      0.000      0.000
REMARK SMILES COc1cc(-c2ccc(F)c(C(F)(F)F)c2)ccc1C(=O)NCCCCCCNC(=O)c1ccc(-c2c3nc(c(-c4c(F)c(F)c(F)c(F)c4F)c4ccc([nH]4)c(-c4c(F)c(F)c(F)c(F)c4F)c4nc(c(-c5c(F)c(F)c(F)c(F)c5F)c5ccc2[nH]5)C=C4)C=C3)cc1
REMARK SMILES IDX 25 1 24 2 23 3 22 4 20 5 21 6 19 8 3 9 4 10 5 11 18 12 17 13
REMARK SMILES IDX 2 14 1 15 6 16 7 17 16 18 8 19 11 20 9 21 10 22 12 23 13 24
REMARK SMILES IDX 14 25 15 26 26 27 27 28 28 29 29 30 30 31 31 33 32 34 33 35
REMARK SMILES IDX 94 36 34 37 93 38 35 39 36 40 37 41 87 42 38 43 92 44 86 45
REMARK SMILES IDX 88 46 39 47 91 48 85 49 84 50 40 52 72 53 52 54 71 55 53 56
REMARK SMILES IDX 56 57 70 58 89 59 54 60 55 61 69 63 90 64 57 65 41 66 42 67
REMARK SMILES IDX 50 68 43 69 44 70 48 71 51 72 45 73 46 74 49 75 47 76 73 77
REMARK SMILES IDX 74 78 82 79 75 80 76 81 80 82 83 83 77 84 78 85 81 86 79 87
REMARK SMILES IDX 58 88 59 89 67 90 60 91 61 92 65 93 68 94 62 95 63 96 66 97
REMARK SMILES IDX 64 98
REMARK H PARENT 22 7 29 32 88 51 56 62
REMARK Flexibility Score: inf
ROOT
ATOM      1  C   UNL A   1      33.781  25.603  25.936  1.00  0.00     0.002 C 
ENDROOT
BRANCH   1   2
ATOM      2  C   UNL A   1      33.213  26.964  25.521  1.00  0.00     0.021 C 
BRANCH   2   3
ATOM      3  C   UNL A   1      32.603  27.034  24.127  1.00  0.00     0.116 C 
BRANCH   3   4
ATOM      4  N   UNL A   1      31.159  26.959  24.086  1.00  0.00    -0.352 N 
ATOM      5  C   UNL A   1      30.337  25.871  24.274  1.00  0.00     0.255 C 
ATOM      6  O   UNL A   1      29.119  26.050  24.256  1.00  0.00    -0.269 OA
ATOM      7  H   UNL A   1      30.697  27.809  23.900  1.00  0.00     0.163 HD
BRANCH   5   8
ATOM      8  C   UNL A   1      30.857  24.480  24.403  1.00  0.00     0.081 A 
ATOM      9  C   UNL A   1      30.855  23.695  25.561  1.00  0.00     0.132 A 
ATOM     10  C   UNL A   1      31.568  22.491  25.592  1.00  0.00     0.056 A 
ATOM     11  C   UNL A   1      32.223  21.987  24.458  1.00  0.00    -0.015 A 
ATOM     12  C   UNL A   1      31.423  23.935  23.236  1.00  0.00     0.018 A 
ATOM     13  C   UNL A   1      32.090  22.703  23.261  1.00  0.00     0.010 A 
BRANCH   9  14
ATOM     14  O   UNL A   1      30.286  24.042  26.755  1.00  0.00    -0.496 OA
ATOM     15  C   UNL A   1      29.488  22.996  27.306  1.00  0.00     0.278 C 
ENDBRANCH   9  14
BRANCH  11  16
ATOM     16  C   UNL A   1      33.085  20.797  24.566  1.00  0.00    -0.017 A 
ATOM     17  C   UNL A   1      34.322  20.844  25.228  1.00  0.00     0.012 A 
ATOM     18  C   UNL A   1      32.730  19.600  23.912  1.00  0.00     0.025 A 
ATOM     19  C   UNL A   1      35.187  19.749  25.212  1.00  0.00     0.040 A 
ATOM     20  C   UNL A   1      33.596  18.493  23.887  1.00  0.00     0.092 A 
ATOM     21  C   UNL A   1      34.821  18.589  24.538  1.00  0.00     0.135 A 
ATOM     22  F   UNL A   1      35.678  17.561  24.508  1.00  0.00    -0.206 F 
BRANCH  20  23
ATOM     23  C   UNL A   1      33.252  17.234  23.152  1.00  0.00     0.419 C 
ATOM     24  F   UNL A   1      34.242  16.822  22.314  1.00  0.00    -0.166 F 
ATOM     25  F   UNL A   1      32.990  16.186  23.981  1.00  0.00    -0.166 F 
ATOM     26  F   UNL A   1      32.143  17.363  22.367  1.00  0.00    -0.166 F 
ENDBRANCH  20  23
ENDBRANCH  11  16
ENDBRANCH   5   8
ENDBRANCH   3   4
ENDBRANCH   2   3
ENDBRANCH   1   2
BRANCH   1  27
ATOM     27  C   UNL A   1      34.789  24.948  24.986  1.00  0.00     0.002 C 
BRANCH  27  28
ATOM     28  C   UNL A   1      35.817  24.004  25.614  1.00  0.00     0.021 C 
BRANCH  28  29
ATOM     29  C   UNL A   1      37.028  23.666  24.753  1.00  0.00     0.116 C 
BRANCH  29  30
ATOM     30  N   UNL A   1      37.877  22.642  25.336  1.00  0.00    -0.352 N 
ATOM     31  C   UNL A   1      38.947  22.768  26.187  1.00  0.00     0.251 C 
ATOM     32  H   UNL A   1      37.650  21.717  25.083  1.00  0.00     0.163 HD
ATOM     33  O   UNL A   1      39.619  21.785  26.478  1.00  0.00    -0.269 OA
BRANCH  31  34
ATOM     34  C   UNL A   1      39.313  24.094  26.733  1.00  0.00     0.039 A 
ATOM     35  C   UNL A   1      38.947  24.401  28.047  1.00  0.00     0.014 A 
ATOM     36  C   UNL A   1      40.003  25.033  25.962  1.00  0.00     0.014 A 
ATOM     37  C   UNL A   1      39.326  25.623  28.606  1.00  0.00     0.010 A 
ATOM     38  C   UNL A   1      40.449  26.216  26.545  1.00  0.00     0.010 A 
ATOM     39  C   UNL A   1      40.112  26.526  27.871  1.00  0.00    -0.014 A 
BRANCH  39  40
ATOM     40  C   UNL A   1      40.592  27.794  28.476  1.00  0.00     0.031 A 
ATOM     41  C   UNL A   1      42.041  27.965  28.835  1.00  0.00     0.074 A 
ATOM     42  C   UNL A   1      39.709  28.770  28.761  1.00  0.00     0.049 A 
ATOM     43  N   UNL A   1      42.640  28.976  29.413  1.00  0.00    -0.248 NA
ATOM     44  C   UNL A   1      42.932  26.836  28.527  1.00  0.00     0.031 C 
ATOM     45  C   UNL A   1      38.270  28.708  28.501  1.00  0.00     0.029 A 
ATOM     46  N   UNL A   1      39.891  30.004  29.335  1.00  0.00    -0.354 N 
ATOM     47  C   UNL A   1      43.970  28.600  29.549  1.00  0.00     0.074 A 
ATOM     48  C   UNL A   1      44.078  27.245  29.051  1.00  0.00     0.031 C 
ATOM     49  C   UNL A   1      37.705  29.864  28.883  1.00  0.00     0.029 A 
ATOM     50  C   UNL A   1      38.731  30.730  29.455  1.00  0.00     0.049 A 
ATOM     51  H   UNL A   1      40.768  30.337  29.633  1.00  0.00     0.167 HD
ATOM     52  C   UNL A   1      45.011  29.326  30.023  1.00  0.00     0.037 A 
ATOM     53  C   UNL A   1      38.519  31.955  29.973  1.00  0.00     0.037 A 
ATOM     54  C   UNL A   1      44.897  30.678  30.508  1.00  0.00     0.049 A 
ATOM     55  C   UNL A   1      39.685  32.732  30.522  1.00  0.00     0.074 A 
ATOM     56  C   UNL A   1      45.898  31.522  30.955  1.00  0.00     0.029 A 
ATOM     57  N   UNL A   1      43.705  31.379  30.622  1.00  0.00    -0.354 N 
ATOM     58  N   UNL A   1      40.951  32.397  30.577  1.00  0.00    -0.248 NA
ATOM     59  C   UNL A   1      39.391  34.061  31.075  1.00  0.00     0.031 C 
ATOM     60  C   UNL A   1      45.305  32.708  31.399  1.00  0.00     0.029 A 
ATOM     61  C   UNL A   1      43.941  32.632  31.165  1.00  0.00     0.049 A 
ATOM     62  H   UNL A   1      42.821  31.036  30.356  1.00  0.00     0.167 HD
ATOM     63  C   UNL A   1      41.609  33.482  31.142  1.00  0.00     0.074 A 
ATOM     64  C   UNL A   1      40.601  34.491  31.400  1.00  0.00     0.031 C 
ATOM     65  C   UNL A   1      42.929  33.629  31.418  1.00  0.00     0.037 A 
BRANCH  52  66
ATOM     66  C   UNL A   1      46.360  28.661  30.053  1.00  0.00     0.064 A 
ATOM     67  C   UNL A   1      47.246  28.732  28.965  1.00  0.00     0.173 A 
ATOM     68  C   UNL A   1      46.776  27.947  31.187  1.00  0.00     0.173 A 
ATOM     69  F   UNL A   1      46.897  29.394  27.852  1.00  0.00    -0.203 F 
ATOM     70  C   UNL A   1      48.472  28.072  28.993  1.00  0.00     0.198 A 
ATOM     71  C   UNL A   1      48.019  27.320  31.226  1.00  0.00     0.198 A 
ATOM     72  F   UNL A   1      45.976  27.852  32.260  1.00  0.00    -0.203 F 
ATOM     73  F   UNL A   1      49.267  28.094  27.915  1.00  0.00    -0.200 F 
ATOM     74  C   UNL A   1      48.860  27.371  30.124  1.00  0.00     0.200 A 
ATOM     75  F   UNL A   1      48.400  26.657  32.327  1.00  0.00    -0.200 F 
ATOM     76  F   UNL A   1      50.040  26.735  30.149  1.00  0.00    -0.200 F 
ENDBRANCH  52  66
BRANCH  53  77
ATOM     77  C   UNL A   1      37.150  32.534  29.960  1.00  0.00     0.064 A 
ATOM     78  C   UNL A   1      36.693  33.269  28.857  1.00  0.00     0.173 A 
ATOM     79  C   UNL A   1      36.266  32.351  31.034  1.00  0.00     0.173 A 
ATOM     80  F   UNL A   1      37.508  33.488  27.815  1.00  0.00    -0.203 F 
ATOM     81  C   UNL A   1      35.409  33.810  28.834  1.00  0.00     0.198 A 
ATOM     82  C   UNL A   1      34.972  32.866  30.997  1.00  0.00     0.198 A 
ATOM     83  F   UNL A   1      36.652  31.650  32.110  1.00  0.00    -0.203 F 
ATOM     84  F   UNL A   1      35.011  34.540  27.784  1.00  0.00    -0.200 F 
ATOM     85  C   UNL A   1      34.547  33.601  29.899  1.00  0.00     0.200 A 
ATOM     86  F   UNL A   1      34.136  32.648  32.021  1.00  0.00    -0.200 F 
ATOM     87  F   UNL A   1      33.308  34.111  29.871  1.00  0.00    -0.200 F 
ENDBRANCH  53  77
BRANCH  65  88
ATOM     88  C   UNL A   1      43.370  34.943  31.999  1.00  0.00     0.064 A 
ATOM     89  C   UNL A   1      43.758  36.019  31.187  1.00  0.00     0.173 A 
ATOM     90  C   UNL A   1      43.368  35.138  33.389  1.00  0.00     0.173 A 
ATOM     91  F   UNL A   1      43.793  35.880  29.854  1.00  0.00    -0.203 F 
ATOM     92  C   UNL A   1      44.156  37.232  31.747  1.00  0.00     0.198 A 
ATOM     93  C   UNL A   1      43.731  36.363  33.943  1.00  0.00     0.198 A 
ATOM     94  F   UNL A   1      43.000  34.145  34.212  1.00  0.00    -0.203 F 
ATOM     95  F   UNL A   1      44.574  38.228  30.954  1.00  0.00    -0.200 F 
ATOM     96  C   UNL A   1      44.133  37.405  33.122  1.00  0.00     0.200 A 
ATOM     97  F   UNL A   1      43.692  36.534  35.272  1.00  0.00    -0.200 F 
ATOM     98  F   UNL A   1      44.507  38.576  33.658  1.00  0.00    -0.200 F 
ENDBRANCH  65  88
ENDBRANCH  39  40
ENDBRANCH  31  34
ENDBRANCH  29  30
ENDBRANCH  28  29
ENDBRANCH  27  28
ENDBRANCH   1  27
TORSDOF 16
ENDMDL
MODEL 2
REMARK VINA RESULT:     -12.2      0.206      1.949
REMARK SMILES COc1cc(-c2ccc(F)c(C(F)(F)F)c2)ccc1C(=O)NCCCCCCNC(=O)c1ccc(-c2c3nc(c(-c4c(F)c(F)c(F)c(F)c4F)c4ccc([nH]4)c(-c4c(F)c(F)c(F)c(F)c4F)c4nc(c(-c5c(F)c(F)c(F)c(F)c5F)c5ccc2[nH]5)C=C4)C=C3)cc1
REMARK SMILES IDX 25 1 24 2 23 3 22 4 20 5 21 6 19 8 3 9 4 10 5 11 18 12 17 13
REMARK SMILES IDX 2 14 1 15 6 16 7 17 16 18 8 19 11 20 9 21 10 22 12 23 13 24
REMARK SMILES IDX 14 25 15 26 26 27 27 28 28 29 29 30 30 31 31 33 32 34 33 35
REMARK SMILES IDX 94 36 34 37 93 38 35 39 36 40 37 41 87 42 38 43 92 44 86 45
REMARK SMILES IDX 88 46 39 47 91 48 85 49 84 50 40 52 72 53 52 54 71 55 53 56
REMARK SMILES IDX 56 57 70 58 89 59 54 60 55 61 69 63 90 64 57 65 41 66 42 67
REMARK SMILES IDX 50 68 43 69 44 70 48 71 51 72 45 73 46 74 49 75 47 76 73 77
REMARK SMILES IDX 74 78 82 79 75 80 76 81 80 82 83 83 77 84 78 85 81 86 79 87
REMARK SMILES IDX 58 88 59 89 67 90 60 91 61 92 65 93 68 94 62 95 63 96 66 97
REMARK SMILES IDX 64 98
REMARK H PARENT 22 7 29 32 88 51 56 62
REMARK Flexibility Score: inf
ROOT
ATOM      1  C   UNL A   1      33.896  25.751  25.932  1.00  0.00     0.002 C 
ENDROOT
BRANCH   1   2
ATOM      2  C   UNL A   1      33.423  27.094  25.366  1.00  0.00     0.021 C 
BRANCH   2   3
ATOM      3  C   UNL A   1      32.845  27.057  23.957  1.00  0.00     0.116 C 
BRANCH   3   4
ATOM      4  N   UNL A   1      31.400  27.020  23.890  1.00  0.00    -0.352 N 
ATOM      5  C   UNL A   1      30.548  25.955  24.070  1.00  0.00     0.255 C 
ATOM      6  O   UNL A   1      29.335  26.164  24.028  1.00  0.00    -0.269 OA
ATOM      7  H   UNL A   1      30.965  27.879  23.688  1.00  0.00     0.163 HD
BRANCH   5   8
ATOM      8  C   UNL A   1      31.028  24.552  24.221  1.00  0.00     0.081 A 
ATOM      9  C   UNL A   1      30.912  23.750  25.361  1.00  0.00     0.132 A 
ATOM     10  C   UNL A   1      31.598  22.531  25.433  1.00  0.00     0.056 A 
ATOM     11  C   UNL A   1      32.338  22.032  24.350  1.00  0.00    -0.015 A 
ATOM     12  C   UNL A   1      31.683  24.013  23.098  1.00  0.00     0.018 A 
ATOM     13  C   UNL A   1      32.322  22.768  23.159  1.00  0.00     0.010 A 
BRANCH   9  14
ATOM     14  O   UNL A   1      30.249  24.090  26.507  1.00  0.00    -0.496 OA
ATOM     15  C   UNL A   1      29.830  22.951  27.256  1.00  0.00     0.278 C 
ENDBRANCH   9  14
BRANCH  11  16
ATOM     16  C   UNL A   1      33.166  20.823  24.512  1.00  0.00    -0.017 A 
ATOM     17  C   UNL A   1      34.397  20.861  25.187  1.00  0.00     0.012 A 
ATOM     18  C   UNL A   1      32.786  19.613  23.898  1.00  0.00     0.025 A 
ATOM     19  C   UNL A   1      35.231  19.742  25.222  1.00  0.00     0.040 A 
ATOM     20  C   UNL A   1      33.621  18.483  23.924  1.00  0.00     0.092 A 
ATOM     21  C   UNL A   1      34.841  18.569  24.585  1.00  0.00     0.135 A 
ATOM     22  F   UNL A   1      35.669  17.518  24.603  1.00  0.00    -0.206 F 
BRANCH  20  23
ATOM     23  C   UNL A   1      33.251  17.207  23.230  1.00  0.00     0.419 C 
ATOM     24  F   UNL A   1      32.957  16.199  24.096  1.00  0.00    -0.166 F 
ATOM     25  F   UNL A   1      32.171  17.339  22.412  1.00  0.00    -0.166 F 
ATOM     26  F   UNL A   1      34.251  16.724  22.437  1.00  0.00    -0.166 F 
ENDBRANCH  20  23
ENDBRANCH  11  16
ENDBRANCH   5   8
ENDBRANCH   3   4
ENDBRANCH   2   3
ENDBRANCH   1   2
BRANCH   1  27
ATOM     27  C   UNL A   1      34.732  24.859  25.008  1.00  0.00     0.002 C 
BRANCH  27  28
ATOM     28  C   UNL A   1      35.824  24.013  25.666  1.00  0.00     0.021 C 
BRANCH  28  29
ATOM     29  C   UNL A   1      37.034  23.690  24.798  1.00  0.00     0.116 C 
BRANCH  29  30
ATOM     30  N   UNL A   1      37.901  22.680  25.379  1.00  0.00    -0.352 N 
ATOM     31  C   UNL A   1      38.968  22.823  26.231  1.00  0.00     0.251 C 
ATOM     32  H   UNL A   1      37.692  21.753  25.123  1.00  0.00     0.163 HD
ATOM     33  O   UNL A   1      39.658  21.852  26.520  1.00  0.00    -0.269 OA
BRANCH  31  34
ATOM     34  C   UNL A   1      39.310  24.154  26.782  1.00  0.00     0.039 A 
ATOM     35  C   UNL A   1      38.926  24.454  28.093  1.00  0.00     0.014 A 
ATOM     36  C   UNL A   1      39.992  25.104  26.019  1.00  0.00     0.014 A 
ATOM     37  C   UNL A   1      39.282  25.680  28.657  1.00  0.00     0.010 A 
ATOM     38  C   UNL A   1      40.415  26.293  26.607  1.00  0.00     0.010 A 
ATOM     39  C   UNL A   1      40.061  26.596  27.931  1.00  0.00    -0.014 A 
BRANCH  39  40
ATOM     40  C   UNL A   1      40.516  27.870  28.542  1.00  0.00     0.031 A 
ATOM     41  C   UNL A   1      41.957  28.057  28.927  1.00  0.00     0.074 A 
ATOM     42  C   UNL A   1      39.618  28.838  28.807  1.00  0.00     0.049 A 
ATOM     43  N   UNL A   1      42.534  29.075  29.514  1.00  0.00    -0.248 NA
ATOM     44  C   UNL A   1      42.865  26.937  28.639  1.00  0.00     0.031 C 
ATOM     45  C   UNL A   1      38.185  28.760  28.521  1.00  0.00     0.029 A 
ATOM     46  N   UNL A   1      39.776  30.075  29.382  1.00  0.00    -0.354 N 
ATOM     47  C   UNL A   1      43.865  28.714  29.676  1.00  0.00     0.074 A 
ATOM     48  C   UNL A   1      43.996  27.359  29.183  1.00  0.00     0.031 C 
ATOM     49  C   UNL A   1      37.601  29.911  28.889  1.00  0.00     0.029 A 
ATOM     50  C   UNL A   1      38.607  30.789  29.479  1.00  0.00     0.049 A 
ATOM     51  H   UNL A   1      40.645  30.417  29.695  1.00  0.00     0.167 HD
ATOM     52  C   UNL A   1      44.890  29.452  30.167  1.00  0.00     0.037 A 
ATOM     53  C   UNL A   1      38.373  32.013  29.989  1.00  0.00     0.037 A 
ATOM     54  C   UNL A   1      44.753  30.803  30.647  1.00  0.00     0.049 A 
ATOM     55  C   UNL A   1      39.520  32.803  30.558  1.00  0.00     0.074 A 
ATOM     56  C   UNL A   1      45.736  31.658  31.111  1.00  0.00     0.029 A 
ATOM     57  N   UNL A   1      43.551  31.492  30.737  1.00  0.00    -0.354 N 
ATOM     58  N   UNL A   1      40.788  32.481  30.638  1.00  0.00    -0.248 NA
ATOM     59  C   UNL A   1      39.202  34.129  31.102  1.00  0.00     0.031 C 
ATOM     60  C   UNL A   1      45.123  32.839  31.541  1.00  0.00     0.029 A 
ATOM     61  C   UNL A   1      43.764  32.749  31.281  1.00  0.00     0.049 A 
ATOM     62  H   UNL A   1      42.676  31.139  30.455  1.00  0.00     0.167 HD
ATOM     63  C   UNL A   1      41.424  33.574  31.212  1.00  0.00     0.074 A 
ATOM     64  C   UNL A   1      40.401  34.573  31.448  1.00  0.00     0.031 C 
ATOM     65  C   UNL A   1      42.737  33.735  31.513  1.00  0.00     0.037 A 
BRANCH  52  66
ATOM     66  C   UNL A   1      46.244  28.801  30.225  1.00  0.00     0.064 A 
ATOM     67  C   UNL A   1      46.683  28.102  31.362  1.00  0.00     0.173 A 
ATOM     68  C   UNL A   1      47.116  28.872  29.127  1.00  0.00     0.173 A 
ATOM     69  F   UNL A   1      45.895  28.009  32.443  1.00  0.00    -0.203 F 
ATOM     70  C   UNL A   1      47.958  27.544  31.415  1.00  0.00     0.198 A 
ATOM     71  C   UNL A   1      48.375  28.279  29.170  1.00  0.00     0.198 A 
ATOM     72  F   UNL A   1      46.748  29.517  28.010  1.00  0.00    -0.203 F 
ATOM     73  F   UNL A   1      48.378  26.946  32.538  1.00  0.00    -0.200 F 
ATOM     74  C   UNL A   1      48.801  27.628  30.318  1.00  0.00     0.200 A 
ATOM     75  F   UNL A   1      49.183  28.347  28.102  1.00  0.00    -0.200 F 
ATOM     76  F   UNL A   1      50.028  27.092  30.371  1.00  0.00    -0.200 F 
ENDBRANCH  52  66
BRANCH  53  77
ATOM     77  C   UNL A   1      36.998  32.577  29.949  1.00  0.00     0.064 A 
ATOM     78  C   UNL A   1      36.130  32.431  31.039  1.00  0.00     0.173 A 
ATOM     79  C   UNL A   1      36.530  33.287  28.832  1.00  0.00     0.173 A 
ATOM     80  F   UNL A   1      36.525  31.744  32.121  1.00  0.00    -0.203 F 
ATOM     81  C   UNL A   1      34.843  32.963  31.011  1.00  0.00     0.198 A 
ATOM     82  C   UNL A   1      35.253  33.844  28.818  1.00  0.00     0.198 A 
ATOM     83  F   UNL A   1      37.323  33.459  27.765  1.00  0.00    -0.203 F 
ATOM     84  F   UNL A   1      34.021  32.776  32.053  1.00  0.00    -0.200 F 
ATOM     85  C   UNL A   1      34.407  33.675  29.905  1.00  0.00     0.200 A 
ATOM     86  F   UNL A   1      34.843  34.546  27.753  1.00  0.00    -0.200 F 
ATOM     87  F   UNL A   1      33.174  34.197  29.883  1.00  0.00    -0.200 F 
ENDBRANCH  53  77
BRANCH  65  88
ATOM     88  C   UNL A   1      43.154  35.056  32.099  1.00  0.00     0.064 A 
ATOM     89  C   UNL A   1      43.194  35.271  33.484  1.00  0.00     0.173 A 
ATOM     90  C   UNL A   1      43.553  36.108  31.260  1.00  0.00     0.173 A 
ATOM     91  F   UNL A   1      42.808  34.304  34.330  1.00  0.00    -0.203 F 
ATOM     92  C   UNL A   1      43.592  36.499  34.007  1.00  0.00     0.198 A 
ATOM     93  C   UNL A   1      43.985  37.322  31.787  1.00  0.00     0.198 A 
ATOM     94  F   UNL A   1      43.539  35.954  29.927  1.00  0.00    -0.203 F 
ATOM     95  F   UNL A   1      43.572  36.700  35.332  1.00  0.00    -0.200 F 
ATOM     96  C   UNL A   1      43.995  37.520  33.159  1.00  0.00     0.200 A 
ATOM     97  F   UNL A   1      44.389  38.301  30.965  1.00  0.00    -0.200 F 
ATOM     98  F   UNL A   1      44.386  38.698  33.664  1.00  0.00    -0.200 F 
ENDBRANCH  65  88
ENDBRANCH  39  40
ENDBRANCH  31  34
ENDBRANCH  29  30
ENDBRANCH  28  29
ENDBRANCH  27  28
ENDBRANCH   1  27
TORSDOF 16
ENDMDL
MODEL 3
REMARK VINA RESULT:     -12.1      3.884      6.420
REMARK SMILES COc1cc(-c2ccc(F)c(C(F)(F)F)c2)ccc1C(=O)NCCCCCCNC(=O)c1ccc(-c2c3nc(c(-c4c(F)c(F)c(F)c(F)c4F)c4ccc([nH]4)c(-c4c(F)c(F)c(F)c(F)c4F)c4nc(c(-c5c(F)c(F)c(F)c(F)c5F)c5ccc2[nH]5)C=C4)C=C3)cc1
REMARK SMILES IDX 25 1 24 2 23 3 22 4 20 5 21 6 19 8 3 9 4 10 5 11 18 12 17 13
REMARK SMILES IDX 2 14 1 15 6 16 7 17 16 18 8 19 11 20 9 21 10 22 12 23 13 24
REMARK SMILES IDX 14 25 15 26 26 27 27 28 28 29 29 30 30 31 31 33 32 34 33 35
REMARK SMILES IDX 94 36 34 37 93 38 35 39 36 40 37 41 87 42 38 43 92 44 86 45
REMARK SMILES IDX 88 46 39 47 91 48 85 49 84 50 40 52 72 53 52 54 71 55 53 56
REMARK SMILES IDX 56 57 70 58 89 59 54 60 55 61 69 63 90 64 57 65 41 66 42 67
REMARK SMILES IDX 50 68 43 69 44 70 48 71 51 72 45 73 46 74 49 75 47 76 73 77
REMARK SMILES IDX 74 78 82 79 75 80 76 81 80 82 83 83 77 84 78 85 81 86 79 87
REMARK SMILES IDX 58 88 59 89 67 90 60 91 61 92 65 93 68 94 62 95 63 96 66 97
REMARK SMILES IDX 64 98
REMARK H PARENT 22 7 29 32 88 51 56 62
REMARK Flexibility Score: inf
ROOT
ATOM      1  C   UNL A   1      33.196  24.900  25.933  1.00  0.00     0.002 C 
ENDROOT
BRANCH   1   2
ATOM      2  C   UNL A   1      31.886  24.461  25.272  1.00  0.00     0.021 C 
BRANCH   2   3
ATOM      3  C   UNL A   1      31.765  24.744  23.780  1.00  0.00     0.116 C 
BRANCH   3   4
ATOM      4  N   UNL A   1      31.539  23.578  22.953  1.00  0.00    -0.352 N 
ATOM      5  C   UNL A   1      32.285  22.427  22.848  1.00  0.00     0.255 C 
ATOM      6  O   UNL A   1      31.870  21.526  22.119  1.00  0.00    -0.269 OA
ATOM      7  H   UNL A   1      30.736  23.613  22.385  1.00  0.00     0.163 HD
BRANCH   5   8
ATOM      8  C   UNL A   1      33.613  22.263  23.505  1.00  0.00     0.081 A 
ATOM      9  C   UNL A   1      33.920  21.397  24.559  1.00  0.00     0.132 A 
ATOM     10  C   UNL A   1      35.151  21.502  25.218  1.00  0.00     0.056 A 
ATOM     11  C   UNL A   1      36.143  22.400  24.795  1.00  0.00    -0.015 A 
ATOM     12  C   UNL A   1      34.637  23.092  23.012  1.00  0.00     0.018 A 
ATOM     13  C   UNL A   1      35.887  23.155  23.643  1.00  0.00     0.010 A 
BRANCH   9  14
ATOM     14  O   UNL A   1      33.067  20.479  25.107  1.00  0.00    -0.496 OA
ATOM     15  C   UNL A   1      33.249  19.172  24.568  1.00  0.00     0.278 C 
ENDBRANCH   9  14
BRANCH  11  16
ATOM     16  C   UNL A   1      37.364  22.589  25.599  1.00  0.00    -0.017 A 
ATOM     17  C   UNL A   1      37.673  23.828  26.184  1.00  0.00     0.012 A 
ATOM     18  C   UNL A   1      38.308  21.550  25.714  1.00  0.00     0.025 A 
ATOM     19  C   UNL A   1      38.892  24.032  26.833  1.00  0.00     0.040 A 
ATOM     20  C   UNL A   1      39.540  21.746  26.362  1.00  0.00     0.092 A 
ATOM     21  C   UNL A   1      39.815  22.995  26.909  1.00  0.00     0.135 A 
ATOM     22  F   UNL A   1      40.991  23.219  27.508  1.00  0.00    -0.206 F 
BRANCH  20  23
ATOM     23  C   UNL A   1      40.573  20.664  26.445  1.00  0.00     0.419 C 
ATOM     24  F   UNL A   1      40.863  20.305  27.726  1.00  0.00    -0.166 F 
ATOM     25  F   UNL A   1      40.204  19.524  25.801  1.00  0.00    -0.166 F 
ATOM     26  F   UNL A   1      41.767  21.026  25.891  1.00  0.00    -0.166 F 
ENDBRANCH  20  23
ENDBRANCH  11  16
ENDBRANCH   5   8
ENDBRANCH   3   4
ENDBRANCH   2   3
ENDBRANCH   1   2
BRANCH   1  27
ATOM     27  C   UNL A   1      33.829  26.203  25.432  1.00  0.00     0.002 C 
BRANCH  27  28
ATOM     28  C   UNL A   1      33.155  27.508  25.862  1.00  0.00     0.021 C 
BRANCH  28  29
ATOM     29  C   UNL A   1      33.873  28.792  25.467  1.00  0.00     0.116 C 
BRANCH  29  30
ATOM     30  N   UNL A   1      33.228  29.989  25.979  1.00  0.00    -0.352 N 
ATOM     31  C   UNL A   1      33.613  30.828  26.996  1.00  0.00     0.251 C 
ATOM     32  H   UNL A   1      32.388  30.235  25.530  1.00  0.00     0.163 HD
ATOM     33  O   UNL A   1      32.868  31.728  27.365  1.00  0.00    -0.269 OA
BRANCH  31  34
ATOM     34  C   UNL A   1      34.916  30.632  27.671  1.00  0.00     0.039 A 
ATOM     35  C   UNL A   1      35.812  31.704  27.719  1.00  0.00     0.014 A 
ATOM     36  C   UNL A   1      35.261  29.406  28.245  1.00  0.00     0.014 A 
ATOM     37  C   UNL A   1      37.025  31.565  28.396  1.00  0.00     0.010 A 
ATOM     38  C   UNL A   1      36.433  29.294  28.987  1.00  0.00     0.010 A 
ATOM     39  C   UNL A   1      37.330  30.370  29.068  1.00  0.00    -0.014 A 
BRANCH  39  40
ATOM     40  C   UNL A   1      38.578  30.232  29.859  1.00  0.00     0.031 A 
ATOM     41  C   UNL A   1      39.749  29.468  29.306  1.00  0.00     0.074 A 
ATOM     42  C   UNL A   1      38.636  30.742  31.104  1.00  0.00     0.049 A 
ATOM     43  N   UNL A   1      40.902  29.198  29.864  1.00  0.00    -0.248 NA
ATOM     44  C   UNL A   1      39.590  28.909  27.956  1.00  0.00     0.031 C 
ATOM     45  C   UNL A   1      37.553  31.467  31.770  1.00  0.00     0.029 A 
ATOM     46  N   UNL A   1      39.645  30.725  32.034  1.00  0.00    -0.354 N 
ATOM     47  C   UNL A   1      41.599  28.430  28.940  1.00  0.00     0.074 A 
ATOM     48  C   UNL A   1      40.715  28.224  27.813  1.00  0.00     0.031 C 
ATOM     49  C   UNL A   1      37.966  31.854  32.986  1.00  0.00     0.029 A 
ATOM     50  C   UNL A   1      39.324  31.368  33.205  1.00  0.00     0.049 A 
ATOM     51  H   UNL A   1      40.517  30.294  31.877  1.00  0.00     0.167 HD
ATOM     52  C   UNL A   1      42.867  27.960  29.014  1.00  0.00     0.037 A 
ATOM     53  C   UNL A   1      40.044  31.541  34.330  1.00  0.00     0.037 A 
ATOM     54  C   UNL A   1      43.744  28.177  30.136  1.00  0.00     0.049 A 
ATOM     55  C   UNL A   1      41.440  30.984  34.402  1.00  0.00     0.074 A 
ATOM     56  C   UNL A   1      45.065  27.794  30.286  1.00  0.00     0.029 A 
ATOM     57  N   UNL A   1      43.382  28.826  31.308  1.00  0.00    -0.354 N 
ATOM     58  N   UNL A   1      42.116  30.324  33.494  1.00  0.00    -0.248 NA
ATOM     59  C   UNL A   1      42.174  31.203  35.656  1.00  0.00     0.031 C 
ATOM     60  C   UNL A   1      45.482  28.153  31.572  1.00  0.00     0.029 A 
ATOM     61  C   UNL A   1      44.443  28.823  32.200  1.00  0.00     0.049 A 
ATOM     62  H   UNL A   1      42.500  29.229  31.481  1.00  0.00     0.167 HD
ATOM     63  C   UNL A   1      43.363  30.074  34.052  1.00  0.00     0.074 A 
ATOM     64  C   UNL A   1      43.353  30.666  35.374  1.00  0.00     0.031 C 
ATOM     65  C   UNL A   1      44.421  29.416  33.515  1.00  0.00     0.037 A 
BRANCH  52  66
ATOM     66  C   UNL A   1      43.371  27.148  27.852  1.00  0.00     0.064 A 
ATOM     67  C   UNL A   1      44.005  27.747  26.750  1.00  0.00     0.173 A 
ATOM     68  C   UNL A   1      43.224  25.753  27.841  1.00  0.00     0.173 A 
ATOM     69  F   UNL A   1      44.166  29.077  26.703  1.00  0.00    -0.203 F 
ATOM     70  C   UNL A   1      44.425  26.984  25.662  1.00  0.00     0.198 A 
ATOM     71  C   UNL A   1      43.680  24.991  26.768  1.00  0.00     0.198 A 
ATOM     72  F   UNL A   1      42.635  25.125  28.869  1.00  0.00    -0.203 F 
ATOM     73  F   UNL A   1      44.960  27.588  24.592  1.00  0.00    -0.200 F 
ATOM     74  C   UNL A   1      44.267  25.607  25.674  1.00  0.00     0.200 A 
ATOM     75  F   UNL A   1      43.542  23.657  26.789  1.00  0.00    -0.200 F 
ATOM     76  F   UNL A   1      44.670  24.876  24.626  1.00  0.00    -0.200 F 
ENDBRANCH  52  66
BRANCH  53  77
ATOM     77  C   UNL A   1      39.466  32.309  35.464  1.00  0.00     0.064 A 
ATOM     78  C   UNL A   1      38.692  31.670  36.442  1.00  0.00     0.173 A 
ATOM     79  C   UNL A   1      39.686  33.688  35.603  1.00  0.00     0.173 A 
ATOM     80  F   UNL A   1      38.436  30.357  36.341  1.00  0.00    -0.203 F 
ATOM     81  C   UNL A   1      38.151  32.382  37.511  1.00  0.00     0.198 A 
ATOM     82  C   UNL A   1      39.171  34.393  36.689  1.00  0.00     0.198 A 
ATOM     83  F   UNL A   1      40.425  34.345  34.697  1.00  0.00    -0.203 F 
ATOM     84  F   UNL A   1      37.384  31.754  38.412  1.00  0.00    -0.200 F 
ATOM     85  C   UNL A   1      38.397  33.741  37.639  1.00  0.00     0.200 A 
ATOM     86  F   UNL A   1      39.425  35.702  36.817  1.00  0.00    -0.200 F 
ATOM     87  F   UNL A   1      37.888  34.422  38.673  1.00  0.00    -0.200 F 
ENDBRANCH  53  77
BRANCH  65  88
ATOM     88  C   UNL A   1      45.673  29.331  34.343  1.00  0.00     0.064 A 
ATOM     89  C   UNL A   1      45.947  28.224  35.159  1.00  0.00     0.173 A 
ATOM     90  C   UNL A   1      46.628  30.358  34.287  1.00  0.00     0.173 A 
ATOM     91  F   UNL A   1      45.060  27.223  35.260  1.00  0.00    -0.203 F 
ATOM     92  C   UNL A   1      47.118  28.162  35.912  1.00  0.00     0.198 A 
ATOM     93  C   UNL A   1      47.815  30.275  35.012  1.00  0.00     0.198 A 
ATOM     94  F   UNL A   1      46.420  31.437  33.517  1.00  0.00    -0.203 F 
ATOM     95  F   UNL A   1      47.335  27.120  36.726  1.00  0.00    -0.200 F 
ATOM     96  C   UNL A   1      48.054  29.182  35.830  1.00  0.00     0.200 A 
ATOM     97  F   UNL A   1      48.724  31.255  34.919  1.00  0.00    -0.200 F 
ATOM     98  F   UNL A   1      49.184  29.116  36.548  1.00  0.00    -0.200 F 
ENDBRANCH  65  88
ENDBRANCH  39  40
ENDBRANCH  31  34
ENDBRANCH  29  30
ENDBRANCH  28  29
ENDBRANCH  27  28
ENDBRANCH   1  27
TORSDOF 16
ENDMDL
