MODEL 1
REMARK VINA RESULT:     -13.1      0.000      0.000
REMARK SMILES CC[C@](C)(NC(=O)c1ccc2ccccc2c1O)C(=O)NCCCCCCNC(=O)c1ccc(-c2c3nc(c(-c4c(F)c(F)c(F)c(F)c4F)c4ccc([nH]4)c(-c4c(F)c(F)c(F)c(F)c4F)c4nc(c(-c5c(F)c(F)c(F)c(F)c5F)c5ccc2[nH]5)C=C4)C=C3)cc1
REMARK SMILES IDX 24 1 23 2 22 3 21 4 19 5 20 6 3 8 4 9 2 10 1 11 5 12 6 13
REMARK SMILES IDX 7 15 8 16 9 17 17 18 10 19 16 20 11 21 15 22 12 23 14 24
REMARK SMILES IDX 13 25 18 26 25 28 26 29 27 30 28 31 29 32 30 34 31 35 32 36
REMARK SMILES IDX 93 37 33 38 92 39 34 40 35 41 36 42 86 43 37 44 91 45 85 46
REMARK SMILES IDX 87 47 38 48 90 49 84 50 83 51 39 53 71 54 51 55 70 56 52 57
REMARK SMILES IDX 55 58 69 59 88 60 53 61 54 62 68 64 89 65 56 66 40 67 41 68
REMARK SMILES IDX 49 69 42 70 43 71 47 72 50 73 44 74 45 75 48 76 46 77 72 78
REMARK SMILES IDX 73 79 81 80 74 81 75 82 79 83 82 84 76 85 77 86 80 87 78 88
REMARK SMILES IDX 57 89 58 90 66 91 59 92 60 93 64 94 67 95 61 96 62 97 65 98
REMARK SMILES IDX 63 99
REMARK H PARENT 21 7 5 14 18 27 28 33 87 52 55 63
REMARK Flexibility Score: inf
ROOT
ATOM      1  C   UNL A   1      31.958  29.613  26.807  1.00  0.00     0.002 C 
ENDROOT
BRANCH   1   2
ATOM      2  C   UNL A   1      31.474  28.266  26.225  1.00  0.00     0.021 C 
BRANCH   2   3
ATOM      3  C   UNL A   1      32.255  26.959  26.508  1.00  0.00     0.116 C 
BRANCH   3   4
ATOM      4  N   UNL A   1      31.571  25.710  26.880  1.00  0.00    -0.354 N 
ATOM      5  C   UNL A   1      31.536  24.385  26.505  1.00  0.00     0.245 C 
ATOM      6  O   UNL A   1      30.839  23.666  27.239  1.00  0.00    -0.272 OA
ATOM      7  H   UNL A   1      30.947  25.870  27.624  1.00  0.00     0.163 HD
BRANCH   5   8
ATOM      8  C   UNL A   1      32.354  23.720  25.293  1.00  0.00     0.116 C 
ATOM      9  C   UNL A   1      31.556  22.511  24.739  1.00  0.00     0.045 C 
BRANCH   8  10
ATOM     10  C   UNL A   1      33.672  23.203  25.980  1.00  0.00     0.035 C 
ATOM     11  C   UNL A   1      34.914  24.078  25.797  1.00  0.00     0.007 C 
ENDBRANCH   8  10
BRANCH   8  12
ATOM     12  N   UNL A   1      32.751  24.540  24.034  1.00  0.00    -0.338 N 
ATOM     13  C   UNL A   1      31.975  25.115  22.992  1.00  0.00     0.255 C 
ATOM     14  H   UNL A   1      33.720  24.689  23.940  1.00  0.00     0.164 HD
ATOM     15  O   UNL A   1      32.389  24.992  21.840  1.00  0.00    -0.269 OA
BRANCH  13  16
ATOM     16  C   UNL A   1      30.795  26.015  23.247  1.00  0.00     0.082 A 
ATOM     17  C   UNL A   1      29.592  25.620  23.828  1.00  0.00     0.018 A 
ATOM     18  C   UNL A   1      30.771  27.255  22.649  1.00  0.00     0.136 A 
ATOM     19  C   UNL A   1      28.479  26.505  23.832  1.00  0.00     0.010 A 
ATOM     20  C   UNL A   1      29.779  28.227  22.775  1.00  0.00     0.024 A 
ATOM     21  C   UNL A   1      28.563  27.832  23.322  1.00  0.00    -0.015 A 
ATOM     22  C   UNL A   1      29.973  29.531  22.269  1.00  0.00     0.012 A 
ATOM     23  C   UNL A   1      27.507  28.771  23.256  1.00  0.00     0.009 A 
ATOM     24  C   UNL A   1      28.936  30.446  22.235  1.00  0.00     0.001 A 
ATOM     25  C   UNL A   1      27.693  30.055  22.710  1.00  0.00     0.001 A 
BRANCH  18  26
ATOM     26  O   UNL A   1      31.602  27.443  21.610  1.00  0.00    -0.506 OA
ATOM     27  H   UNL A   1      32.520  27.281  21.709  1.00  0.00     0.293 HD
ENDBRANCH  18  26
ENDBRANCH  13  16
ENDBRANCH   8  12
ENDBRANCH   5   8
ENDBRANCH   3   4
ENDBRANCH   2   3
ENDBRANCH   1   2
BRANCH   1  28
ATOM     28  C   UNL A   1      31.679  30.874  26.006  1.00  0.00     0.002 C 
BRANCH  28  29
ATOM     29  C   UNL A   1      31.400  32.096  26.862  1.00  0.00     0.021 C 
BRANCH  29  30
ATOM     30  C   UNL A   1      32.652  32.839  27.308  1.00  0.00     0.116 C 
BRANCH  30  31
ATOM     31  N   UNL A   1      32.386  34.241  27.606  1.00  0.00    -0.352 N 
ATOM     32  C   UNL A   1      32.960  35.011  28.587  1.00  0.00     0.251 C 
ATOM     33  H   UNL A   1      31.718  34.688  27.038  1.00  0.00     0.163 HD
ATOM     34  O   UNL A   1      32.501  36.106  28.896  1.00  0.00    -0.269 OA
BRANCH  32  35
ATOM     35  C   UNL A   1      34.144  34.477  29.286  1.00  0.00     0.039 A 
ATOM     36  C   UNL A   1      33.975  33.757  30.467  1.00  0.00     0.014 A 
ATOM     37  C   UNL A   1      35.412  34.631  28.713  1.00  0.00     0.014 A 
ATOM     38  C   UNL A   1      35.083  33.143  31.052  1.00  0.00     0.010 A 
ATOM     39  C   UNL A   1      36.494  33.945  29.249  1.00  0.00     0.010 A 
ATOM     40  C   UNL A   1      36.343  33.207  30.431  1.00  0.00    -0.014 A 
BRANCH  40  41
ATOM     41  C   UNL A   1      37.510  32.504  31.019  1.00  0.00     0.031 A 
ATOM     42  C   UNL A   1      37.996  32.864  32.394  1.00  0.00     0.074 A 
ATOM     43  C   UNL A   1      38.149  31.565  30.295  1.00  0.00     0.049 A 
ATOM     44  N   UNL A   1      38.967  32.332  33.093  1.00  0.00    -0.248 NA
ATOM     45  C   UNL A   1      37.322  33.986  33.063  1.00  0.00     0.031 C 
ATOM     46  C   UNL A   1      37.811  31.180  28.924  1.00  0.00     0.029 A 
ATOM     47  N   UNL A   1      39.208  30.755  30.615  1.00  0.00    -0.354 N 
ATOM     48  C   UNL A   1      39.023  33.061  34.274  1.00  0.00     0.074 A 
ATOM     49  C   UNL A   1      38.036  34.112  34.171  1.00  0.00     0.031 C 
ATOM     50  C   UNL A   1      38.610  30.172  28.541  1.00  0.00     0.029 A 
ATOM     51  C   UNL A   1      39.537  29.863  29.624  1.00  0.00     0.049 A 
ATOM     52  H   UNL A   1      39.687  30.807  31.474  1.00  0.00     0.167 HD
ATOM     53  C   UNL A   1      39.808  32.854  35.358  1.00  0.00     0.037 A 
ATOM     54  C   UNL A   1      40.473  28.896  29.602  1.00  0.00     0.037 A 
ATOM     55  C   UNL A   1      40.775  31.792  35.458  1.00  0.00     0.049 A 
ATOM     56  C   UNL A   1      41.329  28.683  30.821  1.00  0.00     0.074 A 
ATOM     57  C   UNL A   1      41.567  31.443  36.538  1.00  0.00     0.029 A 
ATOM     58  N   UNL A   1      41.089  30.912  34.431  1.00  0.00    -0.354 N 
ATOM     59  N   UNL A   1      41.307  29.311  31.971  1.00  0.00    -0.248 NA
ATOM     60  C   UNL A   1      42.336  27.617  30.738  1.00  0.00     0.031 C 
ATOM     61  C   UNL A   1      42.407  30.395  36.143  1.00  0.00     0.029 A 
ATOM     62  C   UNL A   1      42.092  30.046  34.839  1.00  0.00     0.049 A 
ATOM     63  H   UNL A   1      40.664  30.906  33.544  1.00  0.00     0.167 HD
ATOM     64  C   UNL A   1      42.275  28.703  32.759  1.00  0.00     0.074 A 
ATOM     65  C   UNL A   1      42.847  27.638  31.960  1.00  0.00     0.031 C 
ATOM     66  C   UNL A   1      42.659  28.998  34.025  1.00  0.00     0.037 A 
BRANCH  53  67
ATOM     67  C   UNL A   1      39.658  33.802  36.514  1.00  0.00     0.064 A 
ATOM     68  C   UNL A   1      40.311  35.045  36.545  1.00  0.00     0.173 A 
ATOM     69  C   UNL A   1      38.839  33.470  37.604  1.00  0.00     0.173 A 
ATOM     70  F   UNL A   1      41.116  35.411  35.536  1.00  0.00    -0.203 F 
ATOM     71  C   UNL A   1      40.183  35.899  37.639  1.00  0.00     0.198 A 
ATOM     72  C   UNL A   1      38.683  34.341  38.680  1.00  0.00     0.198 A 
ATOM     73  F   UNL A   1      38.187  32.297  37.628  1.00  0.00    -0.203 F 
ATOM     74  F   UNL A   1      40.867  37.050  37.673  1.00  0.00    -0.200 F 
ATOM     75  C   UNL A   1      39.363  35.548  38.701  1.00  0.00     0.200 A 
ATOM     76  F   UNL A   1      37.881  34.008  39.699  1.00  0.00    -0.200 F 
ATOM     77  F   UNL A   1      39.238  36.372  39.751  1.00  0.00    -0.200 F 
ENDBRANCH  53  67
BRANCH  54  78
ATOM     78  C   UNL A   1      40.611  28.021  28.407  1.00  0.00     0.064 A 
ATOM     79  C   UNL A   1      41.398  28.415  27.315  1.00  0.00     0.173 A 
ATOM     80  C   UNL A   1      39.964  26.780  28.329  1.00  0.00     0.173 A 
ATOM     81  F   UNL A   1      42.022  29.602  27.335  1.00  0.00    -0.203 F 
ATOM     82  C   UNL A   1      41.516  27.611  26.184  1.00  0.00     0.198 A 
ATOM     83  C   UNL A   1      40.107  25.963  27.210  1.00  0.00     0.198 A 
ATOM     84  F   UNL A   1      39.204  26.353  29.348  1.00  0.00    -0.203 F 
ATOM     85  F   UNL A   1      42.237  28.033  25.137  1.00  0.00    -0.200 F 
ATOM     86  C   UNL A   1      40.876  26.382  26.135  1.00  0.00     0.200 A 
ATOM     87  F   UNL A   1      39.500  24.768  27.174  1.00  0.00    -0.200 F 
ATOM     88  F   UNL A   1      40.993  25.606  25.049  1.00  0.00    -0.200 F 
ENDBRANCH  54  78
BRANCH  66  89
ATOM     89  C   UNL A   1      43.735  28.139  34.628  1.00  0.00     0.064 A 
ATOM     90  C   UNL A   1      43.435  26.935  35.285  1.00  0.00     0.173 A 
ATOM     91  C   UNL A   1      45.082  28.523  34.547  1.00  0.00     0.173 A 
ATOM     92  F   UNL A   1      42.161  26.529  35.403  1.00  0.00    -0.203 F 
ATOM     93  C   UNL A   1      44.438  26.173  35.877  1.00  0.00     0.198 A 
ATOM     94  C   UNL A   1      46.087  27.738  35.106  1.00  0.00     0.198 A 
ATOM     95  F   UNL A   1      45.426  29.659  33.921  1.00  0.00    -0.203 F 
ATOM     96  F   UNL A   1      44.121  25.067  36.562  1.00  0.00    -0.200 F 
ATOM     97  C   UNL A   1      45.763  26.572  35.782  1.00  0.00     0.200 A 
ATOM     98  F   UNL A   1      47.368  28.116  34.999  1.00  0.00    -0.200 F 
ATOM     99  F   UNL A   1      46.728  25.840  36.356  1.00  0.00    -0.200 F 
ENDBRANCH  66  89
ENDBRANCH  40  41
ENDBRANCH  32  35
ENDBRANCH  30  31
ENDBRANCH  29  30
ENDBRANCH  28  29
ENDBRANCH   1  28
TORSDOF 17
ENDMDL
MODEL 2
REMARK VINA RESULT:     -13.1      0.636      7.354
REMARK SMILES CC[C@](C)(NC(=O)c1ccc2ccccc2c1O)C(=O)NCCCCCCNC(=O)c1ccc(-c2c3nc(c(-c4c(F)c(F)c(F)c(F)c4F)c4ccc([nH]4)c(-c4c(F)c(F)c(F)c(F)c4F)c4nc(c(-c5c(F)c(F)c(F)c(F)c5F)c5ccc2[nH]5)C=C4)C=C3)cc1
REMARK SMILES IDX 24 1 23 2 22 3 21 4 19 5 20 6 3 8 4 9 2 10 1 11 5 12 6 13
REMARK SMILES IDX 7 15 8 16 9 17 17 18 10 19 16 20 11 21 15 22 12 23 14 24
REMARK SMILES IDX 13 25 18 26 25 28 26 29 27 30 28 31 29 32 30 34 31 35 32 36
REMARK SMILES IDX 93 37 33 38 92 39 34 40 35 41 36 42 86 43 37 44 91 45 85 46
REMARK SMILES IDX 87 47 38 48 90 49 84 50 83 51 39 53 71 54 51 55 70 56 52 57
REMARK SMILES IDX 55 58 69 59 88 60 53 61 54 62 68 64 89 65 56 66 40 67 41 68
REMARK SMILES IDX 49 69 42 70 43 71 47 72 50 73 44 74 45 75 48 76 46 77 72 78
REMARK SMILES IDX 73 79 81 80 74 81 75 82 79 83 82 84 76 85 77 86 80 87 78 88
REMARK SMILES IDX 57 89 58 90 66 91 59 92 60 93 64 94 67 95 61 96 62 97 65 98
REMARK SMILES IDX 63 99
REMARK H PARENT 21 7 5 14 18 27 28 33 87 52 55 63
REMARK Flexibility Score: inf
ROOT
ATOM      1  C   UNL A   1      32.720  29.911  27.088  1.00  0.00     0.002 C 
ENDROOT
BRANCH   1   2
ATOM      2  C   UNL A   1      32.239  28.512  27.534  1.00  0.00     0.021 C 
BRANCH   2   3
ATOM      3  C   UNL A   1      32.112  27.358  26.509  1.00  0.00     0.116 C 
BRANCH   3   4
ATOM      4  N   UNL A   1      31.431  26.095  26.842  1.00  0.00    -0.354 N 
ATOM      5  C   UNL A   1      31.479  24.761  26.503  1.00  0.00     0.245 C 
ATOM      6  O   UNL A   1      30.731  24.037  27.179  1.00  0.00    -0.272 OA
ATOM      7  H   UNL A   1      30.726  26.252  27.511  1.00  0.00     0.163 HD
BRANCH   5   8
ATOM      8  C   UNL A   1      32.442  24.095  25.404  1.00  0.00     0.116 C 
ATOM      9  C   UNL A   1      31.877  22.708  25.002  1.00  0.00     0.045 C 
BRANCH   8  10
ATOM     10  C   UNL A   1      33.800  23.901  26.175  1.00  0.00     0.035 C 
ATOM     11  C   UNL A   1      35.039  24.514  25.519  1.00  0.00     0.007 C 
ENDBRANCH   8  10
BRANCH   8  12
ATOM     12  N   UNL A   1      32.746  24.802  24.054  1.00  0.00    -0.338 N 
ATOM     13  C   UNL A   1      31.898  25.260  23.010  1.00  0.00     0.255 C 
ATOM     14  H   UNL A   1      33.704  24.964  23.891  1.00  0.00     0.164 HD
ATOM     15  O   UNL A   1      32.250  25.039  21.852  1.00  0.00    -0.269 OA
BRANCH  13  16
ATOM     16  C   UNL A   1      30.709  26.154  23.249  1.00  0.00     0.082 A 
ATOM     17  C   UNL A   1      29.498  25.750  23.805  1.00  0.00     0.018 A 
ATOM     18  C   UNL A   1      30.691  27.396  22.657  1.00  0.00     0.136 A 
ATOM     19  C   UNL A   1      28.381  26.630  23.794  1.00  0.00     0.010 A 
ATOM     20  C   UNL A   1      29.693  28.363  22.771  1.00  0.00     0.024 A 
ATOM     21  C   UNL A   1      28.469  27.960  23.293  1.00  0.00    -0.015 A 
ATOM     22  C   UNL A   1      29.890  29.671  22.276  1.00  0.00     0.012 A 
ATOM     23  C   UNL A   1      27.410  28.895  23.214  1.00  0.00     0.009 A 
ATOM     24  C   UNL A   1      28.850  30.582  22.228  1.00  0.00     0.001 A 
ATOM     25  C   UNL A   1      27.600  30.183  22.678  1.00  0.00     0.001 A 
BRANCH  18  26
ATOM     26  O   UNL A   1      31.540  27.594  21.634  1.00  0.00    -0.506 OA
ATOM     27  H   UNL A   1      31.862  28.455  21.453  1.00  0.00     0.293 HD
ENDBRANCH  18  26
ENDBRANCH  13  16
ENDBRANCH   8  12
ENDBRANCH   5   8
ENDBRANCH   3   4
ENDBRANCH   2   3
ENDBRANCH   1   2
BRANCH   1  28
ATOM     28  C   UNL A   1      31.799  30.729  26.199  1.00  0.00     0.002 C 
BRANCH  28  29
ATOM     29  C   UNL A   1      31.478  32.106  26.749  1.00  0.00     0.021 C 
BRANCH  29  30
ATOM     30  C   UNL A   1      32.655  32.791  27.431  1.00  0.00     0.116 C 
BRANCH  30  31
ATOM     31  N   UNL A   1      32.430  34.219  27.620  1.00  0.00    -0.352 N 
ATOM     32  C   UNL A   1      32.984  35.033  28.577  1.00  0.00     0.251 C 
ATOM     33  H   UNL A   1      31.810  34.649  26.988  1.00  0.00     0.163 HD
ATOM     34  O   UNL A   1      32.554  36.163  28.787  1.00  0.00    -0.269 OA
BRANCH  32  35
ATOM     35  C   UNL A   1      34.108  34.506  29.372  1.00  0.00     0.039 A 
ATOM     36  C   UNL A   1      33.855  33.913  30.608  1.00  0.00     0.014 A 
ATOM     37  C   UNL A   1      35.403  34.535  28.841  1.00  0.00     0.014 A 
ATOM     38  C   UNL A   1      34.902  33.301  31.294  1.00  0.00     0.010 A 
ATOM     39  C   UNL A   1      36.423  33.847  29.485  1.00  0.00     0.010 A 
ATOM     40  C   UNL A   1      36.186  33.236  30.724  1.00  0.00    -0.014 A 
BRANCH  40  41
ATOM     41  C   UNL A   1      37.288  32.530  31.424  1.00  0.00     0.031 A 
ATOM     42  C   UNL A   1      38.002  31.391  30.754  1.00  0.00     0.074 A 
ATOM     43  C   UNL A   1      37.619  32.899  32.676  1.00  0.00     0.049 A 
ATOM     44  N   UNL A   1      39.016  30.683  31.184  1.00  0.00    -0.248 NA
ATOM     45  C   UNL A   1      37.494  30.970  29.439  1.00  0.00     0.031 C 
ATOM     46  C   UNL A   1      36.951  33.944  33.453  1.00  0.00     0.029 A 
ATOM     47  N   UNL A   1      38.607  32.445  33.512  1.00  0.00    -0.354 N 
ATOM     48  C   UNL A   1      39.257  29.734  30.200  1.00  0.00     0.074 A 
ATOM     49  C   UNL A   1      38.245  29.911  29.183  1.00  0.00     0.031 C 
ATOM     50  C   UNL A   1      37.582  34.089  34.629  1.00  0.00     0.029 A 
ATOM     51  C   UNL A   1      38.675  33.126  34.702  1.00  0.00     0.049 A 
ATOM     52  H   UNL A   1      39.210  31.702  33.280  1.00  0.00     0.167 HD
ATOM     53  C   UNL A   1      40.252  28.816  30.137  1.00  0.00     0.037 A 
ATOM     54  C   UNL A   1      39.534  32.994  35.730  1.00  0.00     0.037 A 
ATOM     55  C   UNL A   1      41.267  28.661  31.147  1.00  0.00     0.049 A 
ATOM     56  C   UNL A   1      40.633  31.970  35.634  1.00  0.00     0.074 A 
ATOM     57  C   UNL A   1      42.364  27.818  31.147  1.00  0.00     0.029 A 
ATOM     58  N   UNL A   1      41.300  29.361  32.345  1.00  0.00    -0.354 N 
ATOM     59  N   UNL A   1      40.915  31.145  34.655  1.00  0.00    -0.248 NA
ATOM     60  C   UNL A   1      41.538  31.867  36.786  1.00  0.00     0.031 C 
ATOM     61  C   UNL A   1      43.023  27.960  32.373  1.00  0.00     0.029 A 
ATOM     62  C   UNL A   1      42.377  28.941  33.111  1.00  0.00     0.049 A 
ATOM     63  H   UNL A   1      40.653  30.053  32.613  1.00  0.00     0.167 HD
ATOM     64  C   UNL A   1      42.043  30.444  35.058  1.00  0.00     0.074 A 
ATOM     65  C   UNL A   1      42.407  30.962  36.362  1.00  0.00     0.031 C 
ATOM     66  C   UNL A   1      42.717  29.459  34.413  1.00  0.00     0.037 A 
BRANCH  53  67
ATOM     67  C   UNL A   1      40.280  27.905  28.943  1.00  0.00     0.064 A 
ATOM     68  C   UNL A   1      39.600  26.676  28.930  1.00  0.00     0.173 A 
ATOM     69  C   UNL A   1      40.987  28.270  27.787  1.00  0.00     0.173 A 
ATOM     70  F   UNL A   1      38.918  26.269  30.011  1.00  0.00    -0.203 F 
ATOM     71  C   UNL A   1      39.662  25.831  27.823  1.00  0.00     0.198 A 
ATOM     72  C   UNL A   1      41.016  27.441  26.669  1.00  0.00     0.198 A 
ATOM     73  F   UNL A   1      41.651  29.435  27.740  1.00  0.00    -0.203 F 
ATOM     74  F   UNL A   1      39.058  24.635  27.860  1.00  0.00    -0.200 F 
ATOM     75  C   UNL A   1      40.363  26.218  26.692  1.00  0.00     0.200 A 
ATOM     76  F   UNL A   1      41.682  27.822  25.571  1.00  0.00    -0.200 F 
ATOM     77  F   UNL A   1      40.419  25.406  25.627  1.00  0.00    -0.200 F 
ENDBRANCH  53  67
BRANCH  54  78
ATOM     78  C   UNL A   1      39.425  33.890  36.911  1.00  0.00     0.064 A 
ATOM     79  C   UNL A   1      38.722  33.487  38.056  1.00  0.00     0.173 A 
ATOM     80  C   UNL A   1      40.016  35.161  36.924  1.00  0.00     0.173 A 
ATOM     81  F   UNL A   1      38.122  32.288  38.085  1.00  0.00    -0.203 F 
ATOM     82  C   UNL A   1      38.597  34.329  39.159  1.00  0.00     0.198 A 
ATOM     83  C   UNL A   1      39.917  35.989  38.040  1.00  0.00     0.198 A 
ATOM     84  F   UNL A   1      40.706  35.592  35.858  1.00  0.00    -0.203 F 
ATOM     85  F   UNL A   1      37.879  33.937  40.221  1.00  0.00    -0.200 F 
ATOM     86  C   UNL A   1      39.200  35.577  39.152  1.00  0.00     0.200 A 
ATOM     87  F   UNL A   1      40.517  37.188  38.036  1.00  0.00    -0.200 F 
ATOM     88  F   UNL A   1      39.085  36.384  40.216  1.00  0.00    -0.200 F 
ENDBRANCH  54  78
BRANCH  66  89
ATOM     89  C   UNL A   1      43.928  28.898  35.103  1.00  0.00     0.064 A 
ATOM     90  C   UNL A   1      45.204  29.454  34.922  1.00  0.00     0.173 A 
ATOM     91  C   UNL A   1      43.812  27.791  35.958  1.00  0.00     0.173 A 
ATOM     92  F   UNL A   1      45.373  30.505  34.104  1.00  0.00    -0.203 F 
ATOM     93  C   UNL A   1      46.323  28.895  35.532  1.00  0.00     0.198 A 
ATOM     94  C   UNL A   1      44.928  27.259  36.599  1.00  0.00     0.198 A 
ATOM     95  F   UNL A   1      42.615  27.227  36.175  1.00  0.00    -0.203 F 
ATOM     96  F   UNL A   1      47.540  29.398  35.286  1.00  0.00    -0.200 F 
ATOM     97  C   UNL A   1      46.183  27.802  36.375  1.00  0.00     0.200 A 
ATOM     98  F   UNL A   1      44.788  26.213  37.425  1.00  0.00    -0.200 F 
ATOM     99  F   UNL A   1      47.262  27.262  36.959  1.00  0.00    -0.200 F 
ENDBRANCH  66  89
ENDBRANCH  40  41
ENDBRANCH  32  35
ENDBRANCH  30  31
ENDBRANCH  29  30
ENDBRANCH  28  29
ENDBRANCH   1  28
TORSDOF 17
ENDMDL
MODEL 3
REMARK VINA RESULT:     -13.0      0.166      1.569
REMARK SMILES CC[C@](C)(NC(=O)c1ccc2ccccc2c1O)C(=O)NCCCCCCNC(=O)c1ccc(-c2c3nc(c(-c4c(F)c(F)c(F)c(F)c4F)c4ccc([nH]4)c(-c4c(F)c(F)c(F)c(F)c4F)c4nc(c(-c5c(F)c(F)c(F)c(F)c5F)c5ccc2[nH]5)C=C4)C=C3)cc1
REMARK SMILES IDX 24 1 23 2 22 3 21 4 19 5 20 6 3 8 4 9 2 10 1 11 5 12 6 13
REMARK SMILES IDX 7 15 8 16 9 17 17 18 10 19 16 20 11 21 15 22 12 23 14 24
REMARK SMILES IDX 13 25 18 26 25 28 26 29 27 30 28 31 29 32 30 34 31 35 32 36
REMARK SMILES IDX 93 37 33 38 92 39 34 40 35 41 36 42 86 43 37 44 91 45 85 46
REMARK SMILES IDX 87 47 38 48 90 49 84 50 83 51 39 53 71 54 51 55 70 56 52 57
REMARK SMILES IDX 55 58 69 59 88 60 53 61 54 62 68 64 89 65 56 66 40 67 41 68
REMARK SMILES IDX 49 69 42 70 43 71 47 72 50 73 44 74 45 75 48 76 46 77 72 78
REMARK SMILES IDX 73 79 81 80 74 81 75 82 79 83 82 84 76 85 77 86 80 87 78 88
REMARK SMILES IDX 57 89 58 90 66 91 59 92 60 93 64 94 67 95 61 96 62 97 65 98
REMARK SMILES IDX 63 99
REMARK H PARENT 21 7 5 14 18 27 28 33 87 52 55 63
REMARK Flexibility Score: inf
ROOT
ATOM      1  C   UNL A   1      31.848  29.588  26.832  1.00  0.00     0.002 C 
ENDROOT
BRANCH   1   2
ATOM      2  C   UNL A   1      31.460  28.242  26.179  1.00  0.00     0.021 C 
BRANCH   2   3
ATOM      3  C   UNL A   1      32.242  26.948  26.515  1.00  0.00     0.116 C 
BRANCH   3   4
ATOM      4  N   UNL A   1      31.555  25.696  26.874  1.00  0.00    -0.354 N 
ATOM      5  C   UNL A   1      31.532  24.371  26.500  1.00  0.00     0.245 C 
ATOM      6  O   UNL A   1      30.823  23.650  27.221  1.00  0.00    -0.272 OA
ATOM      7  H   UNL A   1      30.915  25.855  27.605  1.00  0.00     0.163 HD
BRANCH   5   8
ATOM      8  C   UNL A   1      32.378  23.708  25.307  1.00  0.00     0.116 C 
ATOM      9  C   UNL A   1      31.605  22.483  24.751  1.00  0.00     0.045 C 
BRANCH   8  10
ATOM     10  C   UNL A   1      33.693  23.216  26.016  1.00  0.00     0.035 C 
ATOM     11  C   UNL A   1      34.722  22.524  25.120  1.00  0.00     0.007 C 
ENDBRANCH   8  10
BRANCH   8  12
ATOM     12  N   UNL A   1      32.781  24.523  24.046  1.00  0.00    -0.338 N 
ATOM     13  C   UNL A   1      32.010  25.093  22.998  1.00  0.00     0.255 C 
ATOM     14  H   UNL A   1      33.750  24.672  23.957  1.00  0.00     0.164 HD
ATOM     15  O   UNL A   1      32.430  24.967  21.848  1.00  0.00    -0.269 OA
BRANCH  13  16
ATOM     16  C   UNL A   1      30.828  25.995  23.243  1.00  0.00     0.082 A 
ATOM     17  C   UNL A   1      29.621  25.601  23.814  1.00  0.00     0.018 A 
ATOM     18  C   UNL A   1      30.810  27.234  22.644  1.00  0.00     0.136 A 
ATOM     19  C   UNL A   1      28.508  26.486  23.809  1.00  0.00     0.010 A 
ATOM     20  C   UNL A   1      29.818  28.206  22.761  1.00  0.00     0.024 A 
ATOM     21  C   UNL A   1      28.597  27.812  23.299  1.00  0.00    -0.015 A 
ATOM     22  C   UNL A   1      30.016  29.510  22.256  1.00  0.00     0.012 A 
ATOM     23  C   UNL A   1      27.542  28.752  23.225  1.00  0.00     0.009 A 
ATOM     24  C   UNL A   1      28.980  30.426  22.213  1.00  0.00     0.001 A 
ATOM     25  C   UNL A   1      27.733  30.036  22.679  1.00  0.00     0.001 A 
BRANCH  18  26
ATOM     26  O   UNL A   1      31.649  27.421  21.611  1.00  0.00    -0.506 OA
ATOM     27  H   UNL A   1      31.847  28.289  21.319  1.00  0.00     0.293 HD
ENDBRANCH  18  26
ENDBRANCH  13  16
ENDBRANCH   8  12
ENDBRANCH   5   8
ENDBRANCH   3   4
ENDBRANCH   2   3
ENDBRANCH   1   2
BRANCH   1  28
ATOM     28  C   UNL A   1      31.710  30.849  25.997  1.00  0.00     0.002 C 
BRANCH  28  29
ATOM     29  C   UNL A   1      31.408  32.094  26.810  1.00  0.00     0.021 C 
BRANCH  29  30
ATOM     30  C   UNL A   1      32.648  32.818  27.320  1.00  0.00     0.116 C 
BRANCH  30  31
ATOM     31  N   UNL A   1      32.388  34.222  27.611  1.00  0.00    -0.352 N 
ATOM     32  C   UNL A   1      32.966  34.995  28.588  1.00  0.00     0.251 C 
ATOM     33  H   UNL A   1      31.722  34.668  27.041  1.00  0.00     0.163 HD
ATOM     34  O   UNL A   1      32.512  36.093  28.891  1.00  0.00    -0.269 OA
BRANCH  32  35
ATOM     35  C   UNL A   1      34.149  34.459  29.288  1.00  0.00     0.039 A 
ATOM     36  C   UNL A   1      33.975  33.708  30.449  1.00  0.00     0.014 A 
ATOM     37  C   UNL A   1      35.421  34.644  28.735  1.00  0.00     0.014 A 
ATOM     38  C   UNL A   1      35.083  33.095  31.033  1.00  0.00     0.010 A 
ATOM     39  C   UNL A   1      36.506  33.960  29.268  1.00  0.00     0.010 A 
ATOM     40  C   UNL A   1      36.350  33.190  30.430  1.00  0.00    -0.014 A 
BRANCH  40  41
ATOM     41  C   UNL A   1      37.519  32.488  31.014  1.00  0.00     0.031 A 
ATOM     42  C   UNL A   1      38.002  32.843  32.392  1.00  0.00     0.074 A 
ATOM     43  C   UNL A   1      38.162  31.556  30.287  1.00  0.00     0.049 A 
ATOM     44  N   UNL A   1      38.975  32.312  33.089  1.00  0.00    -0.248 NA
ATOM     45  C   UNL A   1      37.324  33.960  33.066  1.00  0.00     0.031 C 
ATOM     46  C   UNL A   1      37.827  31.177  28.913  1.00  0.00     0.029 A 
ATOM     47  N   UNL A   1      39.224  30.748  30.604  1.00  0.00    -0.354 N 
ATOM     48  C   UNL A   1      39.027  33.035  34.274  1.00  0.00     0.074 A 
ATOM     49  C   UNL A   1      38.036  34.083  34.175  1.00  0.00     0.031 C 
ATOM     50  C   UNL A   1      38.630  30.174  28.526  1.00  0.00     0.029 A 
ATOM     51  C   UNL A   1      39.557  29.862  29.608  1.00  0.00     0.049 A 
ATOM     52  H   UNL A   1      39.702  30.798  31.463  1.00  0.00     0.167 HD
ATOM     53  C   UNL A   1      39.812  32.824  35.358  1.00  0.00     0.037 A 
ATOM     54  C   UNL A   1      40.496  28.899  29.582  1.00  0.00     0.037 A 
ATOM     55  C   UNL A   1      40.783  31.765  35.453  1.00  0.00     0.049 A 
ATOM     56  C   UNL A   1      41.352  28.683  30.800  1.00  0.00     0.074 A 
ATOM     57  C   UNL A   1      41.575  31.414  36.532  1.00  0.00     0.029 A 
ATOM     58  N   UNL A   1      41.101  30.893  34.422  1.00  0.00    -0.354 N 
ATOM     59  N   UNL A   1      41.326  29.305  31.954  1.00  0.00    -0.248 NA
ATOM     60  C   UNL A   1      42.363  27.621  30.712  1.00  0.00     0.031 C 
ATOM     61  C   UNL A   1      42.419  30.371  36.132  1.00  0.00     0.029 A 
ATOM     62  C   UNL A   1      42.107  30.027  34.826  1.00  0.00     0.049 A 
ATOM     63  H   UNL A   1      40.676  30.889  33.534  1.00  0.00     0.167 HD
ATOM     64  C   UNL A   1      42.296  28.696  32.739  1.00  0.00     0.074 A 
ATOM     65  C   UNL A   1      42.873  27.637  31.935  1.00  0.00     0.031 C 
ATOM     66  C   UNL A   1      42.678  28.986  34.007  1.00  0.00     0.037 A 
BRANCH  53  67
ATOM     67  C   UNL A   1      39.658  33.767  36.518  1.00  0.00     0.064 A 
ATOM     68  C   UNL A   1      40.308  35.011  36.557  1.00  0.00     0.173 A 
ATOM     69  C   UNL A   1      38.837  33.426  37.605  1.00  0.00     0.173 A 
ATOM     70  F   UNL A   1      41.115  35.384  35.552  1.00  0.00    -0.203 F 
ATOM     71  C   UNL A   1      40.176  35.858  37.655  1.00  0.00     0.198 A 
ATOM     72  C   UNL A   1      38.677  34.291  38.685  1.00  0.00     0.198 A 
ATOM     73  F   UNL A   1      38.187  32.252  37.621  1.00  0.00    -0.203 F 
ATOM     74  F   UNL A   1      40.857  37.011  37.697  1.00  0.00    -0.200 F 
ATOM     75  C   UNL A   1      39.355  35.500  38.714  1.00  0.00     0.200 A 
ATOM     76  F   UNL A   1      37.873  33.951  39.700  1.00  0.00    -0.200 F 
ATOM     77  F   UNL A   1      39.225  36.318  39.768  1.00  0.00    -0.200 F 
ENDBRANCH  53  67
BRANCH  54  78
ATOM     78  C   UNL A   1      40.638  28.031  28.383  1.00  0.00     0.064 A 
ATOM     79  C   UNL A   1      39.987  26.791  28.312  1.00  0.00     0.173 A 
ATOM     80  C   UNL A   1      41.423  28.417  27.287  1.00  0.00     0.173 A 
ATOM     81  F   UNL A   1      39.240  26.368  29.343  1.00  0.00    -0.203 F 
ATOM     82  C   UNL A   1      40.132  25.962  27.202  1.00  0.00     0.198 A 
ATOM     83  C   UNL A   1      41.542  27.601  26.164  1.00  0.00     0.198 A 
ATOM     84  F   UNL A   1      42.062  29.595  27.301  1.00  0.00    -0.203 F 
ATOM     85  F   UNL A   1      39.535  24.762  27.182  1.00  0.00    -0.200 F 
ATOM     86  C   UNL A   1      40.904  26.371  26.126  1.00  0.00     0.200 A 
ATOM     87  F   UNL A   1      42.276  28.007  25.119  1.00  0.00    -0.200 F 
ATOM     88  F   UNL A   1      41.038  25.577  25.055  1.00  0.00    -0.200 F 
ENDBRANCH  54  78
BRANCH  66  89
ATOM     89  C   UNL A   1      43.757  28.128  34.607  1.00  0.00     0.064 A 
ATOM     90  C   UNL A   1      45.110  28.492  34.541  1.00  0.00     0.173 A 
ATOM     91  C   UNL A   1      43.432  26.927  35.257  1.00  0.00     0.173 A 
ATOM     92  F   UNL A   1      45.476  29.624  33.919  1.00  0.00    -0.203 F 
ATOM     93  C   UNL A   1      46.101  27.664  35.061  1.00  0.00     0.198 A 
ATOM     94  C   UNL A   1      44.423  26.121  35.811  1.00  0.00     0.198 A 
ATOM     95  F   UNL A   1      42.153  26.536  35.357  1.00  0.00    -0.203 F 
ATOM     96  F   UNL A   1      47.392  27.997  34.922  1.00  0.00    -0.200 F 
ATOM     97  C   UNL A   1      45.756  26.482  35.700  1.00  0.00     0.200 A 
ATOM     98  F   UNL A   1      44.086  24.988  36.442  1.00  0.00    -0.200 F 
ATOM     99  F   UNL A   1      46.711  25.684  36.198  1.00  0.00    -0.200 F 
ENDBRANCH  66  89
ENDBRANCH  40  41
ENDBRANCH  32  35
ENDBRANCH  30  31
ENDBRANCH  29  30
ENDBRANCH  28  29
ENDBRANCH   1  28
TORSDOF 17
ENDMDL
