MODEL 1
REMARK VINA RESULT:     -11.4      0.000      0.000
REMARK SMILES C=C(C)C[N@@H+]1CC[C@H](C(=O)NCCCCCCNC(=O)c2ccc(-c3c4nc(c(-c5c(F)c(F)c(F)c(F)c5F)c5ccc([nH]5)c(-c5c(F)c(F)c(F)c(F)c5F)c5nc(c(-c6c(F)c(F)c(F)c(F)c6F)c6ccc3[nH]6)C=C5)C=C4)cc2)[C@H]1C
REMARK SMILES IDX 14 1 13 2 12 3 11 4 9 5 10 6 8 8 5 9 6 10 84 11 7 13 85 14
REMARK SMILES IDX 4 15 2 16 1 17 3 18 15 19 16 20 17 21 18 22 19 23 20 25
REMARK SMILES IDX 21 26 22 27 83 28 23 29 82 30 24 31 25 32 26 33 76 34 27 35
REMARK SMILES IDX 81 36 75 37 77 38 28 39 80 40 74 41 73 42 29 44 61 45 41 46
REMARK SMILES IDX 60 47 42 48 45 49 59 50 78 51 43 52 44 53 58 55 79 56 46 57
REMARK SMILES IDX 30 58 31 59 39 60 32 61 33 62 37 63 40 64 34 65 35 66 38 67
REMARK SMILES IDX 36 68 62 69 63 70 71 71 64 72 65 73 69 74 72 75 66 76 67 77
REMARK SMILES IDX 70 78 68 79 47 80 48 81 56 82 49 83 50 84 54 85 57 86 51 87
REMARK SMILES IDX 52 88 55 89 53 90
REMARK H PARENT 11 7 5 12 18 24 77 43 45 54
REMARK Flexibility Score: inf
ROOT
ATOM      1  C   UNL A   1      32.682  29.988  26.773  1.00  0.00     0.002 C 
ENDROOT
BRANCH   1   2
ATOM      2  C   UNL A   1      32.333  28.530  27.109  1.00  0.00     0.021 C 
BRANCH   2   3
ATOM      3  C   UNL A   1      31.605  27.790  25.986  1.00  0.00     0.116 C 
BRANCH   3   4
ATOM      4  N   UNL A   1      30.807  26.720  26.530  1.00  0.00    -0.356 N 
ATOM      5  C   UNL A   1      30.766  25.401  26.224  1.00  0.00     0.229 C 
ATOM      6  O   UNL A   1      29.862  24.755  26.760  1.00  0.00    -0.275 OA
ATOM      7  H   UNL A   1      30.188  26.993  27.244  1.00  0.00     0.163 HD
BRANCH   5   8
ATOM      8  C   UNL A   1      31.845  24.748  25.354  1.00  0.00     0.142 C 
ATOM      9  N   UNL A   1      32.446  22.467  25.390  1.00  0.00    -0.329 N 
ATOM     10  C   UNL A   1      32.731  23.012  26.707  1.00  0.00     0.263 C 
ATOM     11  C   UNL A   1      31.486  23.365  24.745  1.00  0.00     0.193 C 
ATOM     12  H   UNL A   1      33.293  22.469  24.823  1.00  0.00     0.348 HD
ATOM     13  C   UNL A   1      33.050  24.424  26.252  1.00  0.00     0.081 C 
ATOM     14  C   UNL A   1      31.759  23.318  23.238  1.00  0.00     0.076 C 
BRANCH   9  15
ATOM     15  C   UNL A   1      32.291  21.032  25.263  1.00  0.00     0.293 C 
BRANCH  15  16
ATOM     16  C   UNL A   1      33.576  20.370  24.787  1.00  0.00    -0.026 C 
ATOM     17  C   UNL A   1      33.678  19.046  24.562  1.00  0.00     0.013 C 
ATOM     18  C   UNL A   1      34.731  21.289  24.524  1.00  0.00     0.045 C 
ENDBRANCH  15  16
ENDBRANCH   9  15
ENDBRANCH   5   8
ENDBRANCH   3   4
ENDBRANCH   2   3
ENDBRANCH   1   2
BRANCH   1  19
ATOM     19  C   UNL A   1      31.578  30.769  26.053  1.00  0.00     0.002 C 
BRANCH  19  20
ATOM     20  C   UNL A   1      31.355  32.188  26.575  1.00  0.00     0.021 C 
BRANCH  20  21
ATOM     21  C   UNL A   1      32.556  32.790  27.295  1.00  0.00     0.116 C 
BRANCH  21  22
ATOM     22  N   UNL A   1      32.352  34.194  27.617  1.00  0.00    -0.352 N 
ATOM     23  C   UNL A   1      32.962  34.957  28.577  1.00  0.00     0.251 C 
ATOM     24  H   UNL A   1      31.682  34.660  27.067  1.00  0.00     0.163 HD
ATOM     25  O   UNL A   1      32.528  36.077  28.849  1.00  0.00    -0.269 OA
BRANCH  23  26
ATOM     26  C   UNL A   1      34.133  34.427  29.303  1.00  0.00     0.039 A 
ATOM     27  C   UNL A   1      33.936  33.781  30.526  1.00  0.00     0.014 A 
ATOM     28  C   UNL A   1      35.422  34.565  28.778  1.00  0.00     0.014 A 
ATOM     29  C   UNL A   1      35.026  33.222  31.194  1.00  0.00     0.010 A 
ATOM     30  C   UNL A   1      36.495  33.938  29.405  1.00  0.00     0.010 A 
ATOM     31  C   UNL A   1      36.309  33.265  30.622  1.00  0.00    -0.014 A 
BRANCH  31  32
ATOM     32  C   UNL A   1      37.467  32.611  31.284  1.00  0.00     0.031 A 
ATOM     33  C   UNL A   1      38.182  31.473  30.608  1.00  0.00     0.074 A 
ATOM     34  C   UNL A   1      37.835  33.001  32.520  1.00  0.00     0.049 A 
ATOM     35  N   UNL A   1      39.174  30.740  31.047  1.00  0.00    -0.248 NA
ATOM     36  C   UNL A   1      37.703  31.092  29.270  1.00  0.00     0.031 C 
ATOM     37  C   UNL A   1      37.193  34.063  33.297  1.00  0.00     0.029 A 
ATOM     38  N   UNL A   1      38.835  32.546  33.344  1.00  0.00    -0.354 N 
ATOM     39  C   UNL A   1      39.424  29.805  30.051  1.00  0.00     0.074 A 
ATOM     40  C   UNL A   1      38.448  30.028  29.007  1.00  0.00     0.031 C 
ATOM     41  C   UNL A   1      37.832  34.196  34.470  1.00  0.00     0.029 A 
ATOM     42  C   UNL A   1      38.898  33.203  34.548  1.00  0.00     0.049 A 
ATOM     43  H   UNL A   1      39.449  31.818  33.094  1.00  0.00     0.167 HD
ATOM     44  C   UNL A   1      40.395  28.863  30.002  1.00  0.00     0.037 A 
ATOM     45  C   UNL A   1      39.719  33.018  35.600  1.00  0.00     0.037 A 
ATOM     46  C   UNL A   1      41.380  28.662  31.033  1.00  0.00     0.049 A 
ATOM     47  C   UNL A   1      40.776  31.948  35.525  1.00  0.00     0.074 A 
ATOM     48  C   UNL A   1      42.447  27.780  31.046  1.00  0.00     0.029 A 
ATOM     49  N   UNL A   1      41.415  29.350  32.237  1.00  0.00    -0.354 N 
ATOM     50  N   UNL A   1      41.053  31.124  34.545  1.00  0.00    -0.248 NA
ATOM     51  C   UNL A   1      41.637  31.787  36.705  1.00  0.00     0.031 C 
ATOM     52  C   UNL A   1      43.088  27.890  32.284  1.00  0.00     0.029 A 
ATOM     53  C   UNL A   1      42.464  28.887  33.016  1.00  0.00     0.049 A 
ATOM     54  H   UNL A   1      40.786  30.061  32.501  1.00  0.00     0.167 HD
ATOM     55  C   UNL A   1      42.141  30.374  34.973  1.00  0.00     0.074 A 
ATOM     56  C   UNL A   1      42.482  30.851  36.296  1.00  0.00     0.031 C 
ATOM     57  C   UNL A   1      42.799  29.380  34.327  1.00  0.00     0.037 A 
BRANCH  44  58
ATOM     58  C   UNL A   1      40.439  27.967  28.796  1.00  0.00     0.064 A 
ATOM     59  C   UNL A   1      41.194  28.295  27.659  1.00  0.00     0.173 A 
ATOM     60  C   UNL A   1      39.758  26.741  28.798  1.00  0.00     0.173 A 
ATOM     61  F   UNL A   1      41.857  29.459  27.600  1.00  0.00    -0.203 F 
ATOM     62  C   UNL A   1      41.239  27.442  26.558  1.00  0.00     0.198 A 
ATOM     63  C   UNL A   1      39.833  25.875  27.709  1.00  0.00     0.198 A 
ATOM     64  F   UNL A   1      39.028  26.374  29.862  1.00  0.00    -0.203 F 
ATOM     65  F   UNL A   1      41.924  27.801  25.464  1.00  0.00    -0.200 F 
ATOM     66  C   UNL A   1      40.566  26.230  26.588  1.00  0.00     0.200 A 
ATOM     67  F   UNL A   1      39.195  24.697  27.747  1.00  0.00    -0.200 F 
ATOM     68  F   UNL A   1      40.620  25.406  25.532  1.00  0.00    -0.200 F 
ENDBRANCH  44  58
BRANCH  45  69
ATOM     69  C   UNL A   1      39.591  33.875  36.809  1.00  0.00     0.064 A 
ATOM     70  C   UNL A   1      38.816  33.464  37.903  1.00  0.00     0.173 A 
ATOM     71  C   UNL A   1      40.218  35.127  36.891  1.00  0.00     0.173 A 
ATOM     72  F   UNL A   1      38.179  32.283  37.866  1.00  0.00    -0.203 F 
ATOM     73  C   UNL A   1      38.646  34.284  39.017  1.00  0.00     0.198 A 
ATOM     74  C   UNL A   1      40.076  35.932  38.019  1.00  0.00     0.198 A 
ATOM     75  F   UNL A   1      40.976  35.566  35.875  1.00  0.00    -0.203 F 
ATOM     76  F   UNL A   1      37.851  33.890  40.021  1.00  0.00    -0.200 F 
ATOM     77  C   UNL A   1      39.280  35.516  39.076  1.00  0.00     0.200 A 
ATOM     78  F   UNL A   1      40.703  37.114  38.080  1.00  0.00    -0.200 F 
ATOM     79  F   UNL A   1      39.117  36.305  40.146  1.00  0.00    -0.200 F 
ENDBRANCH  45  69
BRANCH  57  80
ATOM     80  C   UNL A   1      43.985  28.772  35.021  1.00  0.00     0.064 A 
ATOM     81  C   UNL A   1      45.276  29.301  34.881  1.00  0.00     0.173 A 
ATOM     82  C   UNL A   1      43.818  27.664  35.868  1.00  0.00     0.173 A 
ATOM     83  F   UNL A   1      45.493  30.350  34.073  1.00  0.00    -0.203 F 
ATOM     84  C   UNL A   1      46.361  28.727  35.540  1.00  0.00     0.198 A 
ATOM     85  C   UNL A   1      44.898  27.115  36.553  1.00  0.00     0.198 A 
ATOM     86  F   UNL A   1      42.603  27.123  36.043  1.00  0.00    -0.203 F 
ATOM     87  F   UNL A   1      47.593  29.215  35.348  1.00  0.00    -0.200 F 
ATOM     88  C   UNL A   1      46.170  27.640  36.381  1.00  0.00     0.200 A 
ATOM     89  F   UNL A   1      44.708  26.078  37.378  1.00  0.00    -0.200 F 
ATOM     90  F   UNL A   1      47.213  27.095  37.022  1.00  0.00    -0.200 F 
ENDBRANCH  57  80
ENDBRANCH  31  32
ENDBRANCH  23  26
ENDBRANCH  21  22
ENDBRANCH  20  21
ENDBRANCH  19  20
ENDBRANCH   1  19
TORSDOF 15
ENDMDL
MODEL 2
REMARK VINA RESULT:     -11.2      0.973      2.285
REMARK SMILES C=C(C)C[N@@H+]1CC[C@H](C(=O)NCCCCCCNC(=O)c2ccc(-c3c4nc(c(-c5c(F)c(F)c(F)c(F)c5F)c5ccc([nH]5)c(-c5c(F)c(F)c(F)c(F)c5F)c5nc(c(-c6c(F)c(F)c(F)c(F)c6F)c6ccc3[nH]6)C=C5)C=C4)cc2)[C@H]1C
REMARK SMILES IDX 14 1 13 2 12 3 11 4 9 5 10 6 8 8 5 9 6 10 84 11 7 13 85 14
REMARK SMILES IDX 4 15 2 16 1 17 3 18 15 19 16 20 17 21 18 22 19 23 20 25
REMARK SMILES IDX 21 26 22 27 83 28 23 29 82 30 24 31 25 32 26 33 76 34 27 35
REMARK SMILES IDX 81 36 75 37 77 38 28 39 80 40 74 41 73 42 29 44 61 45 41 46
REMARK SMILES IDX 60 47 42 48 45 49 59 50 78 51 43 52 44 53 58 55 79 56 46 57
REMARK SMILES IDX 30 58 31 59 39 60 32 61 33 62 37 63 40 64 34 65 35 66 38 67
REMARK SMILES IDX 36 68 62 69 63 70 71 71 64 72 65 73 69 74 72 75 66 76 67 77
REMARK SMILES IDX 70 78 68 79 47 80 48 81 56 82 49 83 50 84 54 85 57 86 51 87
REMARK SMILES IDX 52 88 55 89 53 90
REMARK H PARENT 11 7 5 12 18 24 77 43 45 54
REMARK Flexibility Score: inf
ROOT
ATOM      1  C   UNL A   1      32.951  30.213  26.363  1.00  0.00     0.002 C 
ENDROOT
BRANCH   1   2
ATOM      2  C   UNL A   1      33.165  28.871  27.081  1.00  0.00     0.021 C 
BRANCH   2   3
ATOM      3  C   UNL A   1      34.036  27.882  26.305  1.00  0.00     0.116 C 
BRANCH   3   4
ATOM      4  N   UNL A   1      33.435  27.583  25.030  1.00  0.00    -0.356 N 
ATOM      5  C   UNL A   1      33.542  26.493  24.233  1.00  0.00     0.229 C 
ATOM      6  O   UNL A   1      33.023  26.592  23.118  1.00  0.00    -0.275 OA
ATOM      7  H   UNL A   1      32.846  28.289  24.679  1.00  0.00     0.163 HD
BRANCH   5   8
ATOM      8  C   UNL A   1      34.173  25.191  24.738  1.00  0.00     0.142 C 
ATOM      9  N   UNL A   1      33.402  23.013  24.261  1.00  0.00    -0.329 N 
ATOM     10  C   UNL A   1      32.344  23.699  24.984  1.00  0.00     0.263 C 
ATOM     11  C   UNL A   1      34.285  24.040  23.703  1.00  0.00     0.193 C 
ATOM     12  H   UNL A   1      33.958  22.453  24.907  1.00  0.00     0.348 HD
ATOM     13  C   UNL A   1      33.246  24.597  25.811  1.00  0.00     0.081 C 
ATOM     14  C   UNL A   1      35.698  23.450  23.657  1.00  0.00     0.076 C 
BRANCH   9  15
ATOM     15  C   UNL A   1      33.046  21.855  23.466  1.00  0.00     0.293 C 
BRANCH  15  16
ATOM     16  C   UNL A   1      33.206  20.564  24.255  1.00  0.00    -0.026 C 
ATOM     17  C   UNL A   1      32.458  19.467  24.024  1.00  0.00     0.013 C 
ATOM     18  C   UNL A   1      34.294  20.553  25.287  1.00  0.00     0.045 C 
ENDBRANCH  15  16
ENDBRANCH   9  15
ENDBRANCH   5   8
ENDBRANCH   3   4
ENDBRANCH   2   3
ENDBRANCH   1   2
BRANCH   1  19
ATOM     19  C   UNL A   1      31.527  30.771  26.444  1.00  0.00     0.002 C 
BRANCH  19  20
ATOM     20  C   UNL A   1      31.445  32.286  26.622  1.00  0.00     0.021 C 
BRANCH  20  21
ATOM     21  C   UNL A   1      32.651  32.905  27.318  1.00  0.00     0.116 C 
BRANCH  21  22
ATOM     22  N   UNL A   1      32.429  34.302  27.657  1.00  0.00    -0.352 N 
ATOM     23  C   UNL A   1      33.014  35.055  28.641  1.00  0.00     0.251 C 
ATOM     24  H   UNL A   1      31.765  34.772  27.102  1.00  0.00     0.163 HD
ATOM     25  O   UNL A   1      32.564  36.167  28.922  1.00  0.00    -0.269 OA
BRANCH  23  26
ATOM     26  C   UNL A   1      34.175  34.524  29.381  1.00  0.00     0.039 A 
ATOM     27  C   UNL A   1      33.970  33.935  30.631  1.00  0.00     0.014 A 
ATOM     28  C   UNL A   1      35.464  34.605  28.843  1.00  0.00     0.014 A 
ATOM     29  C   UNL A   1      35.049  33.374  31.315  1.00  0.00     0.010 A 
ATOM     30  C   UNL A   1      36.523  33.976  29.489  1.00  0.00     0.010 A 
ATOM     31  C   UNL A   1      36.329  33.358  30.734  1.00  0.00    -0.014 A 
BRANCH  31  32
ATOM     32  C   UNL A   1      37.473  32.701  31.415  1.00  0.00     0.031 A 
ATOM     33  C   UNL A   1      38.174  31.539  30.766  1.00  0.00     0.074 A 
ATOM     34  C   UNL A   1      37.841  33.111  32.644  1.00  0.00     0.049 A 
ATOM     35  N   UNL A   1      39.153  30.800  31.226  1.00  0.00    -0.248 NA
ATOM     36  C   UNL A   1      37.696  31.138  29.434  1.00  0.00     0.031 C 
ATOM     37  C   UNL A   1      37.211  34.199  33.397  1.00  0.00     0.029 A 
ATOM     38  N   UNL A   1      38.830  32.659  33.482  1.00  0.00    -0.354 N 
ATOM     39  C   UNL A   1      39.394  29.842  30.250  1.00  0.00     0.074 A 
ATOM     40  C   UNL A   1      38.426  30.058  29.197  1.00  0.00     0.031 C 
ATOM     41  C   UNL A   1      37.846  34.347  34.570  1.00  0.00     0.029 A 
ATOM     42  C   UNL A   1      38.897  33.340  34.674  1.00  0.00     0.049 A 
ATOM     43  H   UNL A   1      39.434  31.917  33.251  1.00  0.00     0.167 HD
ATOM     44  C   UNL A   1      40.351  28.884  30.226  1.00  0.00     0.037 A 
ATOM     45  C   UNL A   1      39.710  33.164  35.734  1.00  0.00     0.037 A 
ATOM     46  C   UNL A   1      41.327  28.690  31.265  1.00  0.00     0.049 A 
ATOM     47  C   UNL A   1      40.751  32.077  35.686  1.00  0.00     0.074 A 
ATOM     48  C   UNL A   1      42.381  27.793  31.303  1.00  0.00     0.029 A 
ATOM     49  N   UNL A   1      41.367  29.402  32.456  1.00  0.00    -0.354 N 
ATOM     50  N   UNL A   1      41.021  31.229  34.724  1.00  0.00    -0.248 NA
ATOM     51  C   UNL A   1      41.604  31.927  36.873  1.00  0.00     0.031 C 
ATOM     52  C   UNL A   1      43.018  27.918  32.541  1.00  0.00     0.029 A 
ATOM     53  C   UNL A   1      42.405  28.940  33.249  1.00  0.00     0.049 A 
ATOM     54  H   UNL A   1      40.748  30.128  32.702  1.00  0.00     0.167 HD
ATOM     55  C   UNL A   1      42.095  30.472  35.173  1.00  0.00     0.074 A 
ATOM     56  C   UNL A   1      42.437  30.971  36.488  1.00  0.00     0.031 C 
ATOM     57  C   UNL A   1      42.741  29.455  34.551  1.00  0.00     0.037 A 
BRANCH  44  58
ATOM     58  C   UNL A   1      40.388  27.963  29.039  1.00  0.00     0.064 A 
ATOM     59  C   UNL A   1      39.642  26.775  29.003  1.00  0.00     0.173 A 
ATOM     60  C   UNL A   1      41.140  28.299  27.903  1.00  0.00     0.173 A 
ATOM     61  F   UNL A   1      38.913  26.401  30.064  1.00  0.00    -0.203 F 
ATOM     62  C   UNL A   1      39.672  25.942  27.885  1.00  0.00     0.198 A 
ATOM     63  C   UNL A   1      41.141  27.482  26.775  1.00  0.00     0.198 A 
ATOM     64  F   UNL A   1      41.865  29.426  27.881  1.00  0.00    -0.203 F 
ATOM     65  F   UNL A   1      38.993  24.788  27.894  1.00  0.00    -0.200 F 
ATOM     66  C   UNL A   1      40.414  26.302  26.770  1.00  0.00     0.200 A 
ATOM     67  F   UNL A   1      41.846  27.838  25.692  1.00  0.00    -0.200 F 
ATOM     68  F   UNL A   1      40.433  25.505  25.692  1.00  0.00    -0.200 F 
ENDBRANCH  44  58
BRANCH  45  69
ATOM     69  C   UNL A   1      39.589  34.047  36.924  1.00  0.00     0.064 A 
ATOM     70  C   UNL A   1      40.269  35.272  36.983  1.00  0.00     0.173 A 
ATOM     71  C   UNL A   1      38.816  33.680  38.035  1.00  0.00     0.173 A 
ATOM     72  F   UNL A   1      41.038  35.661  35.954  1.00  0.00    -0.203 F 
ATOM     73  C   UNL A   1      40.206  36.080  38.116  1.00  0.00     0.198 A 
ATOM     74  C   UNL A   1      38.725  34.504  39.155  1.00  0.00     0.198 A 
ATOM     75  F   UNL A   1      38.141  32.520  38.029  1.00  0.00    -0.203 F 
ATOM     76  F   UNL A   1      40.913  37.217  38.167  1.00  0.00    -0.200 F 
ATOM     77  C   UNL A   1      39.430  35.697  39.200  1.00  0.00     0.200 A 
ATOM     78  F   UNL A   1      37.962  34.138  40.193  1.00  0.00    -0.200 F 
ATOM     79  F   UNL A   1      39.368  36.473  40.290  1.00  0.00    -0.200 F 
ENDBRANCH  45  69
BRANCH  57  80
ATOM     80  C   UNL A   1      43.914  28.843  35.264  1.00  0.00     0.064 A 
ATOM     81  C   UNL A   1      43.770  27.733  36.110  1.00  0.00     0.173 A 
ATOM     82  C   UNL A   1      45.207  29.355  35.068  1.00  0.00     0.173 A 
ATOM     83  F   UNL A   1      42.555  27.215  36.344  1.00  0.00    -0.203 F 
ATOM     84  C   UNL A   1      44.872  27.177  36.755  1.00  0.00     0.198 A 
ATOM     85  C   UNL A   1      46.311  28.773  35.686  1.00  0.00     0.198 A 
ATOM     86  F   UNL A   1      45.402  30.410  34.262  1.00  0.00    -0.203 F 
ATOM     87  F   UNL A   1      44.703  26.153  37.602  1.00  0.00    -0.200 F 
ATOM     88  C   UNL A   1      46.141  27.692  36.536  1.00  0.00     0.200 A 
ATOM     89  F   UNL A   1      47.537  29.261  35.458  1.00  0.00    -0.200 F 
ATOM     90  F   UNL A   1      47.202  27.149  37.150  1.00  0.00    -0.200 F 
ENDBRANCH  57  80
ENDBRANCH  31  32
ENDBRANCH  23  26
ENDBRANCH  21  22
ENDBRANCH  20  21
ENDBRANCH  19  20
ENDBRANCH   1  19
TORSDOF 15
ENDMDL
MODEL 3
REMARK VINA RESULT:     -11.1      1.057      7.576
REMARK SMILES C=C(C)C[N@@H+]1CC[C@H](C(=O)NCCCCCCNC(=O)c2ccc(-c3c4nc(c(-c5c(F)c(F)c(F)c(F)c5F)c5ccc([nH]5)c(-c5c(F)c(F)c(F)c(F)c5F)c5nc(c(-c6c(F)c(F)c(F)c(F)c6F)c6ccc3[nH]6)C=C5)C=C4)cc2)[C@H]1C
REMARK SMILES IDX 14 1 13 2 12 3 11 4 9 5 10 6 8 8 5 9 6 10 84 11 7 13 85 14
REMARK SMILES IDX 4 15 2 16 1 17 3 18 15 19 16 20 17 21 18 22 19 23 20 25
REMARK SMILES IDX 21 26 22 27 83 28 23 29 82 30 24 31 25 32 26 33 76 34 27 35
REMARK SMILES IDX 81 36 75 37 77 38 28 39 80 40 74 41 73 42 29 44 61 45 41 46
REMARK SMILES IDX 60 47 42 48 45 49 59 50 78 51 43 52 44 53 58 55 79 56 46 57
REMARK SMILES IDX 30 58 31 59 39 60 32 61 33 62 37 63 40 64 34 65 35 66 38 67
REMARK SMILES IDX 36 68 62 69 63 70 71 71 64 72 65 73 69 74 72 75 66 76 67 77
REMARK SMILES IDX 70 78 68 79 47 80 48 81 56 82 49 83 50 84 54 85 57 86 51 87
REMARK SMILES IDX 52 88 55 89 53 90
REMARK H PARENT 11 7 5 12 18 24 77 43 45 54
REMARK Flexibility Score: inf
ROOT
ATOM      1  C   UNL A   1      32.511  30.031  27.188  1.00  0.00     0.002 C 
ENDROOT
BRANCH   1   2
ATOM      2  C   UNL A   1      32.705  28.560  26.790  1.00  0.00     0.021 C 
BRANCH   2   3
ATOM      3  C   UNL A   1      31.419  27.861  26.345  1.00  0.00     0.116 C 
BRANCH   3   4
ATOM      4  N   UNL A   1      31.338  26.546  26.928  1.00  0.00    -0.356 N 
ATOM      5  C   UNL A   1      31.704  25.336  26.443  1.00  0.00     0.229 C 
ATOM      6  O   UNL A   1      31.367  24.362  27.121  1.00  0.00    -0.275 OA
ATOM      7  H   UNL A   1      30.952  26.523  27.833  1.00  0.00     0.163 HD
BRANCH   5   8
ATOM      8  C   UNL A   1      32.576  25.208  25.189  1.00  0.00     0.142 C 
ATOM      9  N   UNL A   1      33.956  23.370  24.655  1.00  0.00    -0.329 N 
ATOM     10  C   UNL A   1      34.453  23.941  25.896  1.00  0.00     0.263 C 
ATOM     11  C   UNL A   1      32.571  23.820  24.493  1.00  0.00     0.193 C 
ATOM     12  H   UNL A   1      34.488  23.736  23.866  1.00  0.00     0.348 HD
ATOM     13  C   UNL A   1      34.044  25.374  25.610  1.00  0.00     0.081 C 
ATOM     14  C   UNL A   1      32.302  23.937  22.989  1.00  0.00     0.076 C 
BRANCH   9  15
ATOM     15  C   UNL A   1      34.313  22.002  24.341  1.00  0.00     0.293 C 
BRANCH  15  16
ATOM     16  C   UNL A   1      35.817  21.785  24.414  1.00  0.00    -0.026 C 
ATOM     17  C   UNL A   1      36.388  20.878  25.231  1.00  0.00     0.013 C 
ATOM     18  C   UNL A   1      36.647  22.608  23.475  1.00  0.00     0.045 C 
ENDBRANCH  15  16
ENDBRANCH   9  15
ENDBRANCH   5   8
ENDBRANCH   3   4
ENDBRANCH   2   3
ENDBRANCH   1   2
BRANCH   1  19
ATOM     19  C   UNL A   1      31.487  30.800  26.346  1.00  0.00     0.002 C 
BRANCH  19  20
ATOM     20  C   UNL A   1      31.382  32.289  26.672  1.00  0.00     0.021 C 
BRANCH  20  21
ATOM     21  C   UNL A   1      32.722  32.983  26.884  1.00  0.00     0.116 C 
BRANCH  21  22
ATOM     22  N   UNL A   1      32.582  34.226  27.627  1.00  0.00    -0.352 N 
ATOM     23  C   UNL A   1      33.232  34.631  28.763  1.00  0.00     0.251 C 
ATOM     24  H   UNL A   1      31.928  34.866  27.262  1.00  0.00     0.163 HD
ATOM     25  O   UNL A   1      32.849  35.628  29.376  1.00  0.00    -0.269 OA
BRANCH  23  26
ATOM     26  C   UNL A   1      34.383  33.857  29.266  1.00  0.00     0.039 A 
ATOM     27  C   UNL A   1      35.676  34.288  28.960  1.00  0.00     0.014 A 
ATOM     28  C   UNL A   1      34.189  32.709  30.042  1.00  0.00     0.014 A 
ATOM     29  C   UNL A   1      36.774  33.602  29.479  1.00  0.00     0.010 A 
ATOM     30  C   UNL A   1      35.282  32.075  30.624  1.00  0.00     0.010 A 
ATOM     31  C   UNL A   1      36.586  32.511  30.345  1.00  0.00    -0.014 A 
BRANCH  31  32
ATOM     32  C   UNL A   1      37.743  31.815  30.965  1.00  0.00     0.031 A 
ATOM     33  C   UNL A   1      38.194  32.185  32.351  1.00  0.00     0.074 A 
ATOM     34  C   UNL A   1      38.423  30.894  30.256  1.00  0.00     0.049 A 
ATOM     35  N   UNL A   1      39.213  31.734  33.039  1.00  0.00    -0.248 NA
ATOM     36  C   UNL A   1      37.411  33.218  33.048  1.00  0.00     0.031 C 
ATOM     37  C   UNL A   1      38.110  30.479  28.886  1.00  0.00     0.029 A 
ATOM     38  N   UNL A   1      39.524  30.142  30.585  1.00  0.00    -0.354 N 
ATOM     39  C   UNL A   1      39.201  32.437  34.237  1.00  0.00     0.074 A 
ATOM     40  C   UNL A   1      38.109  33.382  34.163  1.00  0.00     0.031 C 
ATOM     41  C   UNL A   1      38.979  29.530  28.505  1.00  0.00     0.029 A 
ATOM     42  C   UNL A   1      39.937  29.299  29.582  1.00  0.00     0.049 A 
ATOM     43  H   UNL A   1      39.975  30.201  31.459  1.00  0.00     0.167 HD
ATOM     44  C   UNL A   1      40.015  32.290  35.309  1.00  0.00     0.037 A 
ATOM     45  C   UNL A   1      40.976  28.444  29.534  1.00  0.00     0.037 A 
ATOM     46  C   UNL A   1      41.085  31.330  35.387  1.00  0.00     0.049 A 
ATOM     47  C   UNL A   1      41.877  28.317  30.734  1.00  0.00     0.074 A 
ATOM     48  C   UNL A   1      41.922  31.056  36.455  1.00  0.00     0.029 A 
ATOM     49  N   UNL A   1      41.471  30.491  34.352  1.00  0.00    -0.354 N 
ATOM     50  N   UNL A   1      41.808  28.930  31.891  1.00  0.00    -0.248 NA
ATOM     51  C   UNL A   1      42.998  27.375  30.622  1.00  0.00     0.031 C 
ATOM     52  C   UNL A   1      42.854  30.097  36.045  1.00  0.00     0.029 A 
ATOM     53  C   UNL A   1      42.556  29.724  34.745  1.00  0.00     0.049 A 
ATOM     54  H   UNL A   1      41.039  30.447  33.468  1.00  0.00     0.167 HD
ATOM     55  C   UNL A   1      42.851  28.422  32.655  1.00  0.00     0.074 A 
ATOM     56  C   UNL A   1      43.528  27.440  31.835  1.00  0.00     0.031 C 
ATOM     57  C   UNL A   1      43.213  28.740  33.922  1.00  0.00     0.037 A 
BRANCH  44  58
ATOM     58  C   UNL A   1      39.787  33.193  36.488  1.00  0.00     0.064 A 
ATOM     59  C   UNL A   1      40.465  34.415  36.625  1.00  0.00     0.173 A 
ATOM     60  C   UNL A   1      38.842  32.856  37.468  1.00  0.00     0.173 A 
ATOM     61  F   UNL A   1      41.386  34.782  35.722  1.00  0.00    -0.203 F 
ATOM     62  C   UNL A   1      40.226  35.249  37.715  1.00  0.00     0.198 A 
ATOM     63  C   UNL A   1      38.581  33.708  38.538  1.00  0.00     0.198 A 
ATOM     64  F   UNL A   1      38.160  31.704  37.383  1.00  0.00    -0.203 F 
ATOM     65  F   UNL A   1      40.922  36.386  37.851  1.00  0.00    -0.200 F 
ATOM     66  C   UNL A   1      39.278  34.899  38.665  1.00  0.00     0.200 A 
ATOM     67  F   UNL A   1      37.652  33.377  39.447  1.00  0.00    -0.200 F 
ATOM     68  F   UNL A   1      39.041  35.709  39.706  1.00  0.00    -0.200 F 
ENDBRANCH  44  58
BRANCH  45  69
ATOM     69  C   UNL A   1      41.216  27.624  28.317  1.00  0.00     0.064 A 
ATOM     70  C   UNL A   1      40.595  26.376  28.157  1.00  0.00     0.173 A 
ATOM     71  C   UNL A   1      42.083  28.053  27.302  1.00  0.00     0.173 A 
ATOM     72  F   UNL A   1      39.772  25.911  29.108  1.00  0.00    -0.203 F 
ATOM     73  C   UNL A   1      40.857  25.577  27.045  1.00  0.00     0.198 A 
ATOM     74  C   UNL A   1      42.318  27.268  26.174  1.00  0.00     0.198 A 
ATOM     75  F   UNL A   1      42.699  29.241  27.402  1.00  0.00    -0.203 F 
ATOM     76  F   UNL A   1      40.295  24.364  26.948  1.00  0.00    -0.200 F 
ATOM     77  C   UNL A   1      41.714  26.027  26.053  1.00  0.00     0.200 A 
ATOM     78  F   UNL A   1      43.135  27.713  25.210  1.00  0.00    -0.200 F 
ATOM     79  F   UNL A   1      41.966  25.259  24.984  1.00  0.00    -0.200 F 
ENDBRANCH  45  69
BRANCH  57  80
ATOM     80  C   UNL A   1      44.367  27.986  34.520  1.00  0.00     0.064 A 
ATOM     81  C   UNL A   1      44.188  26.764  35.185  1.00  0.00     0.173 A 
ATOM     82  C   UNL A   1      45.676  28.477  34.392  1.00  0.00     0.173 A 
ATOM     83  F   UNL A   1      42.956  26.257  35.348  1.00  0.00    -0.203 F 
ATOM     84  C   UNL A   1      45.272  26.077  35.726  1.00  0.00     0.198 A 
ATOM     85  C   UNL A   1      46.761  27.770  34.901  1.00  0.00     0.198 A 
ATOM     86  F   UNL A   1      45.905  29.637  33.758  1.00  0.00    -0.203 F 
ATOM     87  F   UNL A   1      45.071  24.941  36.405  1.00  0.00    -0.200 F 
ATOM     88  C   UNL A   1      46.558  26.576  35.576  1.00  0.00     0.200 A 
ATOM     89  F   UNL A   1      48.003  28.245  34.740  1.00  0.00    -0.200 F 
ATOM     90  F   UNL A   1      47.601  25.909  36.088  1.00  0.00    -0.200 F 
ENDBRANCH  57  80
ENDBRANCH  31  32
ENDBRANCH  23  26
ENDBRANCH  21  22
ENDBRANCH  20  21
ENDBRANCH  19  20
ENDBRANCH   1  19
TORSDOF 15
ENDMDL
