MODEL 1
REMARK VINA RESULT:     -10.9      0.000      0.000
REMARK SMILES CCOc1cc(OCC)cc(-c2ccc([C@@H](C)C(=O)NCCCCCCNC(=O)c3ccc(-c4c5nc(c(-c6c(F)c(F)c(F)c(F)c6F)c6ccc([nH]6)c(-c6c(F)c(F)c(F)c(F)c6F)c6nc(c(-c7c(F)c(F)c(F)c(F)c7F)c7ccc4[nH]7)C=C6)C=C5)cc3)cc2)c1
REMARK SMILES IDX 22 1 21 2 20 3 18 4 19 5 16 7 17 8 15 9 12 10 13 11 94 12
REMARK SMILES IDX 14 13 93 14 11 15 4 16 5 17 95 18 6 19 10 20 3 21 2 22 1 23
REMARK SMILES IDX 7 24 8 25 9 26 23 27 24 28 25 29 26 30 27 31 28 32 29 34
REMARK SMILES IDX 30 35 31 36 92 37 32 38 91 39 33 40 34 41 35 42 85 43 36 44
REMARK SMILES IDX 90 45 84 46 86 47 37 48 89 49 83 50 82 51 38 53 70 54 50 55
REMARK SMILES IDX 69 56 51 57 54 58 68 59 87 60 52 61 53 62 67 64 88 65 55 66
REMARK SMILES IDX 39 67 40 68 48 69 41 70 42 71 46 72 49 73 43 74 44 75 47 76
REMARK SMILES IDX 45 77 71 78 72 79 80 80 73 81 74 82 78 83 81 84 75 85 76 86
REMARK SMILES IDX 79 87 77 88 56 89 57 90 65 91 58 92 59 93 63 94 66 95 60 96
REMARK SMILES IDX 61 97 64 98 62 99
REMARK H PARENT 20 6 27 33 86 52 54 63
REMARK Flexibility Score: inf
ROOT
ATOM      1  C   UNL A   1      31.725  22.517  26.132  1.00  0.00     0.021 C 
ENDROOT
BRANCH   1   2
ATOM      2  C   UNL A   1      32.619  21.465  25.470  1.00  0.00     0.116 C 
BRANCH   2   3
ATOM      3  N   UNL A   1      32.119  21.075  24.168  1.00  0.00    -0.356 N 
ATOM      4  C   UNL A   1      32.363  21.554  22.918  1.00  0.00     0.227 C 
ATOM      5  O   UNL A   1      31.704  21.048  22.000  1.00  0.00    -0.274 OA
ATOM      6  H   UNL A   1      31.484  20.322  24.192  1.00  0.00     0.163 HD
BRANCH   4   7
ATOM      7  C   UNL A   1      33.391  22.652  22.603  1.00  0.00     0.105 C 
ATOM      8  C   UNL A   1      34.771  22.414  23.216  1.00  0.00     0.023 C 
BRANCH   7   9
ATOM      9  C   UNL A   1      32.835  24.056  22.760  1.00  0.00    -0.036 A 
ATOM     10  C   UNL A   1      31.763  26.652  23.249  1.00  0.00    -0.018 A 
ATOM     11  C   UNL A   1      33.115  26.459  22.926  1.00  0.00     0.009 A 
ATOM     12  C   UNL A   1      30.947  25.514  23.289  1.00  0.00     0.009 A 
ATOM     13  C   UNL A   1      33.631  25.194  22.645  1.00  0.00     0.005 A 
ATOM     14  C   UNL A   1      31.478  24.236  23.069  1.00  0.00     0.005 A 
BRANCH  10  15
ATOM     15  C   UNL A   1      31.263  28.007  23.560  1.00  0.00    -0.011 A 
ATOM     16  C   UNL A   1      29.632  29.791  23.296  1.00  0.00     0.123 A 
ATOM     17  C   UNL A   1      30.220  30.505  24.341  1.00  0.00     0.092 A 
ATOM     18  C   UNL A   1      30.160  28.562  22.900  1.00  0.00     0.055 A 
ATOM     19  C   UNL A   1      31.341  29.993  24.995  1.00  0.00     0.123 A 
ATOM     20  C   UNL A   1      31.860  28.767  24.582  1.00  0.00     0.055 A 
BRANCH  16  21
ATOM     21  O   UNL A   1      28.613  30.381  22.600  1.00  0.00    -0.494 OA
BRANCH  21  22
ATOM     22  C   UNL A   1      28.066  31.545  23.233  1.00  0.00     0.226 C 
ATOM     23  C   UNL A   1      28.325  32.816  22.436  1.00  0.00     0.049 C 
ENDBRANCH  21  22
ENDBRANCH  16  21
BRANCH  19  24
ATOM     24  O   UNL A   1      31.829  30.743  26.031  1.00  0.00    -0.494 OA
BRANCH  24  25
ATOM     25  C   UNL A   1      32.450  30.057  27.124  1.00  0.00     0.226 C 
ATOM     26  C   UNL A   1      33.820  30.632  27.455  1.00  0.00     0.049 C 
ENDBRANCH  24  25
ENDBRANCH  19  24
ENDBRANCH  10  15
ENDBRANCH   7   9
ENDBRANCH   4   7
ENDBRANCH   2   3
ENDBRANCH   1   2
BRANCH   1  27
ATOM     27  C   UNL A   1      32.501  23.602  26.886  1.00  0.00     0.002 C 
BRANCH  27  28
ATOM     28  C   UNL A   1      33.793  24.073  26.204  1.00  0.00     0.002 C 
BRANCH  28  29
ATOM     29  C   UNL A   1      35.078  23.392  26.684  1.00  0.00     0.021 C 
BRANCH  29  30
ATOM     30  C   UNL A   1      36.338  23.803  25.926  1.00  0.00     0.116 C 
BRANCH  30  31
ATOM     31  N   UNL A   1      37.375  22.787  26.012  1.00  0.00    -0.352 N 
ATOM     32  C   UNL A   1      38.706  22.912  26.325  1.00  0.00     0.251 C 
ATOM     33  H   UNL A   1      37.078  21.869  25.816  1.00  0.00     0.163 HD
ATOM     34  O   UNL A   1      39.477  21.983  26.117  1.00  0.00    -0.269 OA
BRANCH  32  35
ATOM     35  C   UNL A   1      39.215  24.171  26.909  1.00  0.00     0.039 A 
ATOM     36  C   UNL A   1      39.924  25.057  26.093  1.00  0.00     0.014 A 
ATOM     37  C   UNL A   1      39.030  24.460  28.264  1.00  0.00     0.014 A 
ATOM     38  C   UNL A   1      40.402  26.258  26.624  1.00  0.00     0.010 A 
ATOM     39  C   UNL A   1      39.446  25.685  28.775  1.00  0.00     0.010 A 
ATOM     40  C   UNL A   1      40.141  26.594  27.962  1.00  0.00    -0.014 A 
BRANCH  40  41
ATOM     41  C   UNL A   1      40.596  27.887  28.533  1.00  0.00     0.031 A 
ATOM     42  C   UNL A   1      42.037  28.080  28.914  1.00  0.00     0.074 A 
ATOM     43  C   UNL A   1      39.698  28.863  28.766  1.00  0.00     0.049 A 
ATOM     44  N   UNL A   1      42.612  29.105  29.492  1.00  0.00    -0.248 NA
ATOM     45  C   UNL A   1      42.949  26.959  28.636  1.00  0.00     0.031 C 
ATOM     46  C   UNL A   1      38.266  28.778  28.479  1.00  0.00     0.029 A 
ATOM     47  N   UNL A   1      39.855  30.113  29.308  1.00  0.00    -0.354 N 
ATOM     48  C   UNL A   1      43.944  28.749  29.656  1.00  0.00     0.074 A 
ATOM     49  C   UNL A   1      44.082  27.394  29.169  1.00  0.00     0.031 C 
ATOM     50  C   UNL A   1      37.678  29.935  28.828  1.00  0.00     0.029 A 
ATOM     51  C   UNL A   1      38.685  30.826  29.398  1.00  0.00     0.049 A 
ATOM     52  H   UNL A   1      40.726  30.467  29.606  1.00  0.00     0.167 HD
ATOM     53  C   UNL A   1      44.963  29.493  30.148  1.00  0.00     0.037 A 
ATOM     54  C   UNL A   1      38.450  32.056  29.892  1.00  0.00     0.037 A 
ATOM     55  C   UNL A   1      44.825  30.850  30.608  1.00  0.00     0.049 A 
ATOM     56  C   UNL A   1      39.598  32.859  30.441  1.00  0.00     0.074 A 
ATOM     57  C   UNL A   1      45.807  31.710  31.068  1.00  0.00     0.029 A 
ATOM     58  N   UNL A   1      43.625  31.544  30.671  1.00  0.00    -0.354 N 
ATOM     59  N   UNL A   1      40.865  32.537  30.529  1.00  0.00    -0.248 NA
ATOM     60  C   UNL A   1      39.283  34.201  30.952  1.00  0.00     0.031 C 
ATOM     61  C   UNL A   1      45.195  32.908  31.453  1.00  0.00     0.029 A 
ATOM     62  C   UNL A   1      43.838  32.813  31.184  1.00  0.00     0.049 A 
ATOM     63  H   UNL A   1      42.751  31.186  30.391  1.00  0.00     0.167 HD
ATOM     64  C   UNL A   1      41.502  33.641  31.080  1.00  0.00     0.074 A 
ATOM     65  C   UNL A   1      40.484  34.648  31.290  1.00  0.00     0.031 C 
ATOM     66  C   UNL A   1      42.813  33.805  31.383  1.00  0.00     0.037 A 
BRANCH  53  67
ATOM     67  C   UNL A   1      46.321  28.855  30.209  1.00  0.00     0.064 A 
ATOM     68  C   UNL A   1      47.240  28.975  29.155  1.00  0.00     0.173 A 
ATOM     69  C   UNL A   1      46.722  28.139  31.348  1.00  0.00     0.173 A 
ATOM     70  F   UNL A   1      46.904  29.639  28.039  1.00  0.00    -0.203 F 
ATOM     71  C   UNL A   1      48.495  28.377  29.226  1.00  0.00     0.198 A 
ATOM     72  C   UNL A   1      47.989  27.568  31.427  1.00  0.00     0.198 A 
ATOM     73  F   UNL A   1      45.885  27.999  32.387  1.00  0.00    -0.203 F 
ATOM     74  F   UNL A   1      49.335  28.461  28.184  1.00  0.00    -0.200 F 
ATOM     75  C   UNL A   1      48.872  27.680  30.364  1.00  0.00     0.200 A 
ATOM     76  F   UNL A   1      48.357  26.907  32.534  1.00  0.00    -0.200 F 
ATOM     77  F   UNL A   1      50.083  27.109  30.433  1.00  0.00    -0.200 F 
ENDBRANCH  53  67
BRANCH  54  78
ATOM     78  C   UNL A   1      37.073  32.614  29.866  1.00  0.00     0.064 A 
ATOM     79  C   UNL A   1      36.210  32.449  30.959  1.00  0.00     0.173 A 
ATOM     80  C   UNL A   1      36.591  33.323  28.756  1.00  0.00     0.173 A 
ATOM     81  F   UNL A   1      36.619  31.762  32.036  1.00  0.00    -0.203 F 
ATOM     82  C   UNL A   1      34.912  32.953  30.935  1.00  0.00     0.198 A 
ATOM     83  C   UNL A   1      35.302  33.851  28.744  1.00  0.00     0.198 A 
ATOM     84  F   UNL A   1      37.378  33.513  27.688  1.00  0.00    -0.203 F 
ATOM     85  F   UNL A   1      34.094  32.743  31.976  1.00  0.00    -0.200 F 
ATOM     86  C   UNL A   1      34.461  33.659  29.830  1.00  0.00     0.200 A 
ATOM     87  F   UNL A   1      34.875  34.545  27.680  1.00  0.00    -0.200 F 
ATOM     88  F   UNL A   1      33.214  34.149  29.808  1.00  0.00    -0.200 F 
ENDBRANCH  54  78
BRANCH  66  89
ATOM     89  C   UNL A   1      43.227  35.134  31.946  1.00  0.00     0.064 A 
ATOM     90  C   UNL A   1      43.232  35.379  33.327  1.00  0.00     0.173 A 
ATOM     91  C   UNL A   1      43.660  36.162  31.095  1.00  0.00     0.173 A 
ATOM     92  F   UNL A   1      42.811  34.434  34.182  1.00  0.00    -0.203 F 
ATOM     93  C   UNL A   1      43.633  36.612  33.833  1.00  0.00     0.198 A 
ATOM     94  C   UNL A   1      44.090  37.383  31.605  1.00  0.00     0.198 A 
ATOM     95  F   UNL A   1      43.679  35.976  29.766  1.00  0.00    -0.203 F 
ATOM     96  F   UNL A   1      43.586  36.840  35.153  1.00  0.00    -0.200 F 
ATOM     97  C   UNL A   1      44.069  37.610  32.973  1.00  0.00     0.200 A 
ATOM     98  F   UNL A   1      44.523  38.341  30.774  1.00  0.00    -0.200 F 
ATOM     99  F   UNL A   1      44.463  38.793  33.463  1.00  0.00    -0.200 F 
ENDBRANCH  66  89
ENDBRANCH  40  41
ENDBRANCH  32  35
ENDBRANCH  30  31
ENDBRANCH  29  30
ENDBRANCH  28  29
ENDBRANCH  27  28
ENDBRANCH   1  27
TORSDOF 19
ENDMDL
MODEL 2
REMARK VINA RESULT:     -10.8      4.347      8.869
REMARK SMILES CCOc1cc(OCC)cc(-c2ccc([C@@H](C)C(=O)NCCCCCCNC(=O)c3ccc(-c4c5nc(c(-c6c(F)c(F)c(F)c(F)c6F)c6ccc([nH]6)c(-c6c(F)c(F)c(F)c(F)c6F)c6nc(c(-c7c(F)c(F)c(F)c(F)c7F)c7ccc4[nH]7)C=C6)C=C5)cc3)cc2)c1
REMARK SMILES IDX 22 1 21 2 20 3 18 4 19 5 16 7 17 8 15 9 12 10 13 11 94 12
REMARK SMILES IDX 14 13 93 14 11 15 4 16 5 17 95 18 6 19 10 20 3 21 2 22 1 23
REMARK SMILES IDX 7 24 8 25 9 26 23 27 24 28 25 29 26 30 27 31 28 32 29 34
REMARK SMILES IDX 30 35 31 36 92 37 32 38 91 39 33 40 34 41 35 42 85 43 36 44
REMARK SMILES IDX 90 45 84 46 86 47 37 48 89 49 83 50 82 51 38 53 70 54 50 55
REMARK SMILES IDX 69 56 51 57 54 58 68 59 87 60 52 61 53 62 67 64 88 65 55 66
REMARK SMILES IDX 39 67 40 68 48 69 41 70 42 71 46 72 49 73 43 74 44 75 47 76
REMARK SMILES IDX 45 77 71 78 72 79 80 80 73 81 74 82 78 83 81 84 75 85 76 86
REMARK SMILES IDX 79 87 77 88 56 89 57 90 65 91 58 92 59 93 63 94 66 95 60 96
REMARK SMILES IDX 61 97 64 98 62 99
REMARK H PARENT 20 6 27 33 86 52 54 63
REMARK Flexibility Score: inf
ROOT
ATOM      1  C   UNL A   1      44.677  21.843  24.267  1.00  0.00     0.021 C 
ENDROOT
BRANCH   1   2
ATOM      2  C   UNL A   1      45.274  23.252  24.239  1.00  0.00     0.116 C 
BRANCH   2   3
ATOM      3  N   UNL A   1      46.330  23.410  25.217  1.00  0.00    -0.356 N 
ATOM      4  C   UNL A   1      46.376  24.061  26.411  1.00  0.00     0.227 C 
ATOM      5  O   UNL A   1      47.472  24.077  26.984  1.00  0.00    -0.274 OA
ATOM      6  H   UNL A   1      47.172  22.960  24.974  1.00  0.00     0.163 HD
BRANCH   4   7
ATOM      7  C   UNL A   1      45.165  24.749  27.062  1.00  0.00     0.105 C 
ATOM      8  C   UNL A   1      44.990  26.215  26.670  1.00  0.00     0.023 C 
BRANCH   7   9
ATOM      9  C   UNL A   1      45.029  24.444  28.544  1.00  0.00    -0.036 A 
ATOM     10  C   UNL A   1      44.703  24.057  31.349  1.00  0.00    -0.018 A 
ATOM     11  C   UNL A   1      43.902  23.386  30.413  1.00  0.00     0.009 A 
ATOM     12  C   UNL A   1      45.699  24.905  30.847  1.00  0.00     0.009 A 
ATOM     13  C   UNL A   1      44.089  23.542  29.040  1.00  0.00     0.005 A 
ATOM     14  C   UNL A   1      45.845  25.112  29.469  1.00  0.00     0.005 A 
BRANCH  10  15
ATOM     15  C   UNL A   1      44.458  23.878  32.796  1.00  0.00    -0.011 A 
ATOM     16  C   UNL A   1      44.666  22.598  34.852  1.00  0.00     0.123 A 
ATOM     17  C   UNL A   1      44.168  23.671  35.590  1.00  0.00     0.092 A 
ATOM     18  C   UNL A   1      44.794  22.696  33.466  1.00  0.00     0.055 A 
ATOM     19  C   UNL A   1      43.792  24.850  34.945  1.00  0.00     0.123 A 
ATOM     20  C   UNL A   1      43.920  24.930  33.559  1.00  0.00     0.055 A 
BRANCH  16  21
ATOM     21  O   UNL A   1      44.906  21.418  35.503  1.00  0.00    -0.494 OA
BRANCH  21  22
ATOM     22  C   UNL A   1      46.034  20.689  35.000  1.00  0.00     0.226 C 
ATOM     23  C   UNL A   1      45.896  19.188  35.211  1.00  0.00     0.049 C 
ENDBRANCH  21  22
ENDBRANCH  16  21
BRANCH  19  24
ATOM     24  O   UNL A   1      43.349  25.863  35.752  1.00  0.00    -0.494 OA
BRANCH  24  25
ATOM     25  C   UNL A   1      41.945  26.146  35.767  1.00  0.00     0.226 C 
ATOM     26  C   UNL A   1      41.584  27.293  34.833  1.00  0.00     0.049 C 
ENDBRANCH  24  25
ENDBRANCH  19  24
ENDBRANCH  10  15
ENDBRANCH   7   9
ENDBRANCH   4   7
ENDBRANCH   2   3
ENDBRANCH   1   2
BRANCH   1  27
ATOM     27  C   UNL A   1      44.344  21.339  25.676  1.00  0.00     0.002 C 
BRANCH  27  28
ATOM     28  C   UNL A   1      42.853  21.096  25.946  1.00  0.00     0.002 C 
BRANCH  28  29
ATOM     29  C   UNL A   1      42.035  22.342  26.296  1.00  0.00     0.021 C 
BRANCH  29  30
ATOM     30  C   UNL A   1      40.693  22.055  26.966  1.00  0.00     0.116 C 
BRANCH  30  31
ATOM     31  N   UNL A   1      39.574  22.457  26.129  1.00  0.00    -0.352 N 
ATOM     32  C   UNL A   1      38.807  23.595  26.173  1.00  0.00     0.251 C 
ATOM     33  H   UNL A   1      39.329  21.816  25.423  1.00  0.00     0.163 HD
ATOM     34  O   UNL A   1      37.758  23.654  25.541  1.00  0.00    -0.269 OA
BRANCH  32  35
ATOM     35  C   UNL A   1      39.239  24.750  26.986  1.00  0.00     0.039 A 
ATOM     36  C   UNL A   1      40.038  25.733  26.395  1.00  0.00     0.014 A 
ATOM     37  C   UNL A   1      38.894  24.846  28.337  1.00  0.00     0.014 A 
ATOM     38  C   UNL A   1      40.446  26.839  27.145  1.00  0.00     0.010 A 
ATOM     39  C   UNL A   1      39.243  25.980  29.064  1.00  0.00     0.010 A 
ATOM     40  C   UNL A   1      40.028  26.985  28.477  1.00  0.00    -0.014 A 
BRANCH  40  41
ATOM     41  C   UNL A   1      40.408  28.177  29.277  1.00  0.00     0.031 A 
ATOM     42  C   UNL A   1      41.757  28.247  29.934  1.00  0.00     0.074 A 
ATOM     43  C   UNL A   1      39.513  29.165  29.463  1.00  0.00     0.049 A 
ATOM     44  N   UNL A   1      42.246  29.166  30.729  1.00  0.00    -0.248 NA
ATOM     45  C   UNL A   1      42.670  27.119  29.690  1.00  0.00     0.031 C 
ATOM     46  C   UNL A   1      38.157  29.191  28.912  1.00  0.00     0.029 A 
ATOM     47  N   UNL A   1      39.604  30.334  30.175  1.00  0.00    -0.354 N 
ATOM     48  C   UNL A   1      43.512  28.724  31.086  1.00  0.00     0.074 A 
ATOM     49  C   UNL A   1      43.697  27.428  30.468  1.00  0.00     0.031 C 
ATOM     50  C   UNL A   1      37.551  30.329  29.290  1.00  0.00     0.029 A 
ATOM     51  C   UNL A   1      38.460  31.093  30.139  1.00  0.00     0.049 A 
ATOM     52  H   UNL A   1      40.414  30.604  30.667  1.00  0.00     0.167 HD
ATOM     53  C   UNL A   1      44.445  29.350  31.843  1.00  0.00     0.037 A 
ATOM     54  C   UNL A   1      38.176  32.268  30.730  1.00  0.00     0.037 A 
ATOM     55  C   UNL A   1      44.265  30.649  32.435  1.00  0.00     0.049 A 
ATOM     56  C   UNL A   1      39.225  32.940  31.573  1.00  0.00     0.074 A 
ATOM     57  C   UNL A   1      45.170  31.396  33.169  1.00  0.00     0.029 A 
ATOM     58  N   UNL A   1      43.096  31.394  32.365  1.00  0.00    -0.354 N 
ATOM     59  N   UNL A   1      40.443  32.542  31.849  1.00  0.00    -0.248 NA
ATOM     60  C   UNL A   1      38.862  34.228  32.181  1.00  0.00     0.031 C 
ATOM     61  C   UNL A   1      44.534  32.573  33.582  1.00  0.00     0.029 A 
ATOM     62  C   UNL A   1      43.249  32.582  33.061  1.00  0.00     0.049 A 
ATOM     63  H   UNL A   1      42.279  31.119  31.890  1.00  0.00     0.167 HD
ATOM     64  C   UNL A   1      41.001  33.540  32.639  1.00  0.00     0.074 A 
ATOM     65  C   UNL A   1      39.992  34.568  32.785  1.00  0.00     0.031 C 
ATOM     66  C   UNL A   1      42.236  33.598  33.193  1.00  0.00     0.037 A 
BRANCH  53  67
ATOM     67  C   UNL A   1      45.747  28.637  32.070  1.00  0.00     0.064 A 
ATOM     68  C   UNL A   1      46.775  28.660  31.115  1.00  0.00     0.173 A 
ATOM     69  C   UNL A   1      45.983  27.949  33.270  1.00  0.00     0.173 A 
ATOM     70  F   UNL A   1      46.597  29.294  29.946  1.00  0.00    -0.203 F 
ATOM     71  C   UNL A   1      47.977  27.993  31.339  1.00  0.00     0.198 A 
ATOM     72  C   UNL A   1      47.198  27.309  33.503  1.00  0.00     0.198 A 
ATOM     73  F   UNL A   1      45.036  27.901  34.219  1.00  0.00    -0.203 F 
ATOM     74  F   UNL A   1      48.923  27.985  30.389  1.00  0.00    -0.200 F 
ATOM     75  C   UNL A   1      48.190  27.325  32.535  1.00  0.00     0.200 A 
ATOM     76  F   UNL A   1      47.408  26.675  34.665  1.00  0.00    -0.200 F 
ATOM     77  F   UNL A   1      49.350  26.688  32.751  1.00  0.00    -0.200 F 
ENDBRANCH  53  67
BRANCH  54  78
ATOM     78  C   UNL A   1      36.845  32.898  30.524  1.00  0.00     0.064 A 
ATOM     79  C   UNL A   1      35.853  32.820  31.512  1.00  0.00     0.173 A 
ATOM     80  C   UNL A   1      36.538  33.589  29.344  1.00  0.00     0.173 A 
ATOM     81  F   UNL A   1      36.094  32.152  32.650  1.00  0.00    -0.203 F 
ATOM     82  C   UNL A   1      34.598  33.392  31.319  1.00  0.00     0.198 A 
ATOM     83  C   UNL A   1      35.292  34.186  29.163  1.00  0.00     0.198 A 
ATOM     84  F   UNL A   1      37.454  33.698  28.371  1.00  0.00    -0.203 F 
ATOM     85  F   UNL A   1      33.653  33.265  32.262  1.00  0.00    -0.200 F 
ATOM     86  C   UNL A   1      34.320  34.079  30.147  1.00  0.00     0.200 A 
ATOM     87  F   UNL A   1      35.032  34.862  28.035  1.00  0.00    -0.200 F 
ATOM     88  F   UNL A   1      33.114  34.634  29.963  1.00  0.00    -0.200 F 
ENDBRANCH  54  78
BRANCH  66  89
ATOM     89  C   UNL A   1      42.578  34.828  33.982  1.00  0.00     0.064 A 
ATOM     90  C   UNL A   1      43.025  36.002  33.358  1.00  0.00     0.173 A 
ATOM     91  C   UNL A   1      42.418  34.845  35.376  1.00  0.00     0.173 A 
ATOM     92  F   UNL A   1      43.210  36.032  32.030  1.00  0.00    -0.203 F 
ATOM     93  C   UNL A   1      43.323  37.139  34.104  1.00  0.00     0.198 A 
ATOM     94  C   UNL A   1      42.687  35.992  36.116  1.00  0.00     0.198 A 
ATOM     95  F   UNL A   1      41.987  33.749  36.020  1.00  0.00    -0.203 F 
ATOM     96  F   UNL A   1      43.794  38.235  33.493  1.00  0.00    -0.200 F 
ATOM     97  C   UNL A   1      43.146  37.136  35.480  1.00  0.00     0.200 A 
ATOM     98  F   UNL A   1      42.502  35.992  37.443  1.00  0.00    -0.200 F 
ATOM     99  F   UNL A   1      43.425  38.235  36.195  1.00  0.00    -0.200 F 
ENDBRANCH  66  89
ENDBRANCH  40  41
ENDBRANCH  32  35
ENDBRANCH  30  31
ENDBRANCH  29  30
ENDBRANCH  28  29
ENDBRANCH  27  28
ENDBRANCH   1  27
TORSDOF 19
ENDMDL
MODEL 3
REMARK VINA RESULT:     -10.7      2.913      8.257
REMARK SMILES CCOc1cc(OCC)cc(-c2ccc([C@@H](C)C(=O)NCCCCCCNC(=O)c3ccc(-c4c5nc(c(-c6c(F)c(F)c(F)c(F)c6F)c6ccc([nH]6)c(-c6c(F)c(F)c(F)c(F)c6F)c6nc(c(-c7c(F)c(F)c(F)c(F)c7F)c7ccc4[nH]7)C=C6)C=C5)cc3)cc2)c1
REMARK SMILES IDX 22 1 21 2 20 3 18 4 19 5 16 7 17 8 15 9 12 10 13 11 94 12
REMARK SMILES IDX 14 13 93 14 11 15 4 16 5 17 95 18 6 19 10 20 3 21 2 22 1 23
REMARK SMILES IDX 7 24 8 25 9 26 23 27 24 28 25 29 26 30 27 31 28 32 29 34
REMARK SMILES IDX 30 35 31 36 92 37 32 38 91 39 33 40 34 41 35 42 85 43 36 44
REMARK SMILES IDX 90 45 84 46 86 47 37 48 89 49 83 50 82 51 38 53 70 54 50 55
REMARK SMILES IDX 69 56 51 57 54 58 68 59 87 60 52 61 53 62 67 64 88 65 55 66
REMARK SMILES IDX 39 67 40 68 48 69 41 70 42 71 46 72 49 73 43 74 44 75 47 76
REMARK SMILES IDX 45 77 71 78 72 79 80 80 73 81 74 82 78 83 81 84 75 85 76 86
REMARK SMILES IDX 79 87 77 88 56 89 57 90 65 91 58 92 59 93 63 94 66 95 60 96
REMARK SMILES IDX 61 97 64 98 62 99
REMARK H PARENT 20 6 27 33 86 52 54 63
REMARK Flexibility Score: inf
ROOT
ATOM      1  C   UNL A   1      37.019  21.743  24.539  1.00  0.00     0.021 C 
ENDROOT
BRANCH   1   2
ATOM      2  C   UNL A   1      35.504  21.971  24.556  1.00  0.00     0.116 C 
BRANCH   2   3
ATOM      3  N   UNL A   1      34.895  21.451  25.762  1.00  0.00    -0.356 N 
ATOM      4  C   UNL A   1      33.599  21.198  26.092  1.00  0.00     0.227 C 
ATOM      5  O   UNL A   1      33.393  20.824  27.254  1.00  0.00    -0.274 OA
ATOM      6  H   UNL A   1      35.539  21.241  26.478  1.00  0.00     0.163 HD
BRANCH   4   7
ATOM      7  C   UNL A   1      32.420  21.341  25.116  1.00  0.00     0.105 C 
ATOM      8  C   UNL A   1      32.548  20.496  23.849  1.00  0.00     0.023 C 
BRANCH   7   9
ATOM      9  C   UNL A   1      31.990  22.782  24.905  1.00  0.00    -0.036 A 
ATOM     10  C   UNL A   1      31.376  25.536  24.502  1.00  0.00    -0.018 A 
ATOM     11  C   UNL A   1      31.118  24.570  23.518  1.00  0.00     0.009 A 
ATOM     12  C   UNL A   1      31.920  25.087  25.712  1.00  0.00     0.009 A 
ATOM     13  C   UNL A   1      31.378  23.217  23.730  1.00  0.00     0.005 A 
ATOM     14  C   UNL A   1      32.241  23.736  25.902  1.00  0.00     0.005 A 
BRANCH  10  15
ATOM     15  C   UNL A   1      31.104  26.963  24.227  1.00  0.00    -0.011 A 
ATOM     16  C   UNL A   1      29.922  28.715  23.026  1.00  0.00     0.123 A 
ATOM     17  C   UNL A   1      30.449  29.681  23.883  1.00  0.00     0.092 A 
ATOM     18  C   UNL A   1      30.260  27.372  23.187  1.00  0.00     0.055 A 
ATOM     19  C   UNL A   1      31.321  29.308  24.906  1.00  0.00     0.123 A 
ATOM     20  C   UNL A   1      31.654  27.962  25.050  1.00  0.00     0.055 A 
BRANCH  16  21
ATOM     21  O   UNL A   1      29.171  29.133  21.961  1.00  0.00    -0.494 OA
BRANCH  21  22
ATOM     22  C   UNL A   1      28.315  30.247  22.247  1.00  0.00     0.226 C 
ATOM     23  C   UNL A   1      28.032  31.093  21.014  1.00  0.00     0.049 C 
ENDBRANCH  21  22
ENDBRANCH  16  21
BRANCH  19  24
ATOM     24  O   UNL A   1      31.761  30.316  25.721  1.00  0.00    -0.494 OA
BRANCH  24  25
ATOM     25  C   UNL A   1      32.506  29.959  26.891  1.00  0.00     0.226 C 
ATOM     26  C   UNL A   1      33.539  31.017  27.254  1.00  0.00     0.049 C 
ENDBRANCH  24  25
ENDBRANCH  19  24
ENDBRANCH  10  15
ENDBRANCH   7   9
ENDBRANCH   4   7
ENDBRANCH   2   3
ENDBRANCH   1   2
BRANCH   1  27
ATOM     27  C   UNL A   1      37.785  22.596  25.555  1.00  0.00     0.002 C 
BRANCH  27  28
ATOM     28  C   UNL A   1      39.090  21.976  26.074  1.00  0.00     0.002 C 
BRANCH  28  29
ATOM     29  C   UNL A   1      39.466  20.623  25.464  1.00  0.00     0.021 C 
BRANCH  29  30
ATOM     30  C   UNL A   1      39.807  19.538  26.483  1.00  0.00     0.116 C 
BRANCH  30  31
ATOM     31  N   UNL A   1      41.025  18.826  26.126  1.00  0.00    -0.352 N 
ATOM     32  C   UNL A   1      42.291  19.306  25.903  1.00  0.00     0.251 C 
ATOM     33  H   UNL A   1      40.925  17.852  26.031  1.00  0.00     0.163 HD
ATOM     34  O   UNL A   1      43.138  18.590  25.381  1.00  0.00    -0.269 OA
BRANCH  32  35
ATOM     35  C   UNL A   1      42.637  20.691  26.285  1.00  0.00     0.039 A 
ATOM     36  C   UNL A   1      42.588  21.054  27.634  1.00  0.00     0.014 A 
ATOM     37  C   UNL A   1      42.969  21.641  25.315  1.00  0.00     0.014 A 
ATOM     38  C   UNL A   1      42.924  22.355  28.015  1.00  0.00     0.010 A 
ATOM     39  C   UNL A   1      43.369  22.917  25.701  1.00  0.00     0.010 A 
ATOM     40  C   UNL A   1      43.345  23.289  27.054  1.00  0.00    -0.014 A 
BRANCH  40  41
ATOM     41  C   UNL A   1      43.755  24.661  27.444  1.00  0.00     0.031 A 
ATOM     42  C   UNL A   1      42.718  25.679  27.829  1.00  0.00     0.074 A 
ATOM     43  C   UNL A   1      45.054  25.008  27.387  1.00  0.00     0.049 A 
ATOM     44  N   UNL A   1      42.870  26.945  28.129  1.00  0.00    -0.248 NA
ATOM     45  C   UNL A   1      41.320  25.221  27.854  1.00  0.00     0.031 C 
ATOM     46  C   UNL A   1      46.148  24.122  26.986  1.00  0.00     0.029 A 
ATOM     47  N   UNL A   1      45.676  26.202  27.657  1.00  0.00    -0.354 N 
ATOM     48  C   UNL A   1      41.592  27.434  28.365  1.00  0.00     0.074 A 
ATOM     49  C   UNL A   1      40.671  26.344  28.120  1.00  0.00     0.031 C 
ATOM     50  C   UNL A   1      47.308  24.796  27.056  1.00  0.00     0.029 A 
ATOM     51  C   UNL A   1      47.035  26.170  27.469  1.00  0.00     0.049 A 
ATOM     52  H   UNL A   1      45.192  27.006  27.956  1.00  0.00     0.167 HD
ATOM     53  C   UNL A   1      41.221  28.672  28.770  1.00  0.00     0.037 A 
ATOM     54  C   UNL A   1      47.957  27.142  27.607  1.00  0.00     0.037 A 
ATOM     55  C   UNL A   1      42.144  29.745  29.035  1.00  0.00     0.049 A 
ATOM     56  C   UNL A   1      47.519  28.511  28.050  1.00  0.00     0.074 A 
ATOM     57  C   UNL A   1      41.874  31.018  29.507  1.00  0.00     0.029 A 
ATOM     58  N   UNL A   1      43.517  29.671  28.847  1.00  0.00    -0.354 N 
ATOM     59  N   UNL A   1      46.315  28.943  28.334  1.00  0.00    -0.248 NA
ATOM     60  C   UNL A   1      48.571  29.527  28.197  1.00  0.00     0.031 C 
ATOM     61  C   UNL A   1      43.079  31.729  29.560  1.00  0.00     0.029 A 
ATOM     62  C   UNL A   1      44.105  30.882  29.171  1.00  0.00     0.049 A 
ATOM     63  H   UNL A   1      44.001  28.874  28.530  1.00  0.00     0.167 HD
ATOM     64  C   UNL A   1      46.466  30.269  28.719  1.00  0.00     0.074 A 
ATOM     65  C   UNL A   1      47.881  30.566  28.646  1.00  0.00     0.031 C 
ATOM     66  C   UNL A   1      45.517  31.160  29.097  1.00  0.00     0.037 A 
BRANCH  53  67
ATOM     67  C   UNL A   1      39.754  28.932  28.954  1.00  0.00     0.064 A 
ATOM     68  C   UNL A   1      39.135  28.802  30.207  1.00  0.00     0.173 A 
ATOM     69  C   UNL A   1      38.962  29.346  27.872  1.00  0.00     0.173 A 
ATOM     70  F   UNL A   1      39.844  28.399  31.272  1.00  0.00    -0.203 F 
ATOM     71  C   UNL A   1      37.773  29.045  30.363  1.00  0.00     0.198 A 
ATOM     72  C   UNL A   1      37.606  29.618  28.038  1.00  0.00     0.198 A 
ATOM     73  F   UNL A   1      39.505  29.492  26.654  1.00  0.00    -0.203 F 
ATOM     74  F   UNL A   1      37.194  28.863  31.558  1.00  0.00    -0.200 F 
ATOM     75  C   UNL A   1      37.011  29.459  29.281  1.00  0.00     0.200 A 
ATOM     76  F   UNL A   1      36.875  30.031  26.994  1.00  0.00    -0.200 F 
ATOM     77  F   UNL A   1      35.701  29.699  29.433  1.00  0.00    -0.200 F 
ENDBRANCH  53  67
BRANCH  54  78
ATOM     78  C   UNL A   1      49.390  26.846  27.347  1.00  0.00     0.064 A 
ATOM     79  C   UNL A   1      49.909  26.893  26.046  1.00  0.00     0.173 A 
ATOM     80  C   UNL A   1      50.269  26.514  28.388  1.00  0.00     0.173 A 
ATOM     81  F   UNL A   1      49.103  27.186  25.015  1.00  0.00    -0.203 F 
ATOM     82  C   UNL A   1      51.247  26.599  25.792  1.00  0.00     0.198 A 
ATOM     83  C   UNL A   1      51.613  26.248  28.138  1.00  0.00     0.198 A 
ATOM     84  F   UNL A   1      49.824  26.461  29.652  1.00  0.00    -0.203 F 
ATOM     85  F   UNL A   1      51.706  26.608  24.533  1.00  0.00    -0.200 F 
ATOM     86  C   UNL A   1      52.099  26.282  26.839  1.00  0.00     0.200 A 
ATOM     87  F   UNL A   1      52.437  25.957  29.154  1.00  0.00    -0.200 F 
ATOM     88  F   UNL A   1      53.388  26.005  26.597  1.00  0.00    -0.200 F 
ENDBRANCH  54  78
BRANCH  66  89
ATOM     89  C   UNL A   1      45.981  32.531  29.493  1.00  0.00     0.064 A 
ATOM     90  C   UNL A   1      46.317  32.840  30.820  1.00  0.00     0.173 A 
ATOM     91  C   UNL A   1      46.131  33.537  28.526  1.00  0.00     0.173 A 
ATOM     92  F   UNL A   1      46.176  31.918  31.784  1.00  0.00    -0.203 F 
ATOM     93  C   UNL A   1      46.761  34.113  31.166  1.00  0.00     0.198 A 
ATOM     94  C   UNL A   1      46.604  34.799  28.870  1.00  0.00     0.198 A 
ATOM     95  F   UNL A   1      45.829  33.290  27.242  1.00  0.00    -0.203 F 
ATOM     96  F   UNL A   1      47.031  34.400  32.447  1.00  0.00    -0.200 F 
ATOM     97  C   UNL A   1      46.912  35.088  30.191  1.00  0.00     0.200 A 
ATOM     98  F   UNL A   1      46.763  35.736  27.926  1.00  0.00    -0.200 F 
ATOM     99  F   UNL A   1      47.348  36.311  30.527  1.00  0.00    -0.200 F 
ENDBRANCH  66  89
ENDBRANCH  40  41
ENDBRANCH  32  35
ENDBRANCH  30  31
ENDBRANCH  29  30
ENDBRANCH  28  29
ENDBRANCH  27  28
ENDBRANCH   1  27
TORSDOF 19
ENDMDL
