MODEL 1
REMARK VINA RESULT:     -12.0      0.000      0.000
REMARK SMILES O=C(NCCCCCCNC(=O)[C@@H]1CCc2[nH]ncc2C1)c1ccc(-c2c3nc(c(-c4c(F)c(F)c(F)c(F)c4F)c4ccc([nH]4)c(-c4c(F)c(F)c(F)c(F)c4F)c4nc(c(-c5c(F)c(F)c(F)c(F)c5F)c5ccc2[nH]5)C=C4)C=C3)cc1
REMARK SMILES IDX 5 1 4 2 3 3 1 4 2 5 22 7 23 8 84 9 24 10 83 11 25 12 26 13
REMARK SMILES IDX 27 14 77 15 28 16 82 17 76 18 78 19 29 20 81 21 75 22 74 23
REMARK SMILES IDX 30 25 62 26 42 27 61 28 43 29 46 30 60 31 79 32 44 33 45 34
REMARK SMILES IDX 59 36 80 37 47 38 31 39 32 40 40 41 33 42 34 43 38 44 41 45
REMARK SMILES IDX 35 46 36 47 39 48 37 49 63 50 64 51 72 52 65 53 66 54 70 55
REMARK SMILES IDX 73 56 67 57 68 58 71 59 69 60 48 61 49 62 57 63 50 64 51 65
REMARK SMILES IDX 55 66 58 67 52 68 53 69 56 70 54 71 6 72 7 73 8 74 9 75
REMARK SMILES IDX 10 76 11 77 12 79 13 80 14 81 21 82 15 83 20 84 16 85 19 86
REMARK SMILES IDX 17 87 18 88
REMARK H PARENT 3 6 78 24 46 35 10 78 17 89
REMARK Flexibility Score: inf
ROOT
ATOM      1  C   UNL A   1      31.449  32.100  26.863  1.00  0.00     0.021 C 
ENDROOT
BRANCH   1   2
ATOM      2  C   UNL A   1      32.740  32.882  27.076  1.00  0.00     0.116 C 
BRANCH   2   3
ATOM      3  N   UNL A   1      32.489  34.203  27.626  1.00  0.00    -0.352 N 
ATOM      4  O   UNL A   1      32.557  35.838  29.178  1.00  0.00    -0.269 OA
ATOM      5  C   UNL A   1      33.045  34.802  28.721  1.00  0.00     0.251 C 
ATOM      6  H   UNL A   1      31.824  34.743  27.141  1.00  0.00     0.163 HD
BRANCH   5   7
ATOM      7  C   UNL A   1      34.228  34.204  29.367  1.00  0.00     0.039 A 
ATOM      8  C   UNL A   1      34.085  33.271  30.400  1.00  0.00     0.014 A 
ATOM      9  C   UNL A   1      35.498  34.556  28.904  1.00  0.00     0.014 A 
ATOM     10  C   UNL A   1      35.213  32.765  31.039  1.00  0.00     0.010 A 
ATOM     11  C   UNL A   1      36.627  33.995  29.499  1.00  0.00     0.010 A 
ATOM     12  C   UNL A   1      36.493  33.108  30.580  1.00  0.00    -0.014 A 
BRANCH  12  13
ATOM     13  C   UNL A   1      37.697  32.493  31.186  1.00  0.00     0.031 A 
ATOM     14  C   UNL A   1      38.433  31.397  30.475  1.00  0.00     0.074 A 
ATOM     15  C   UNL A   1      38.089  32.896  32.407  1.00  0.00     0.049 A 
ATOM     16  N   UNL A   1      39.427  30.658  30.897  1.00  0.00    -0.248 NA
ATOM     17  C   UNL A   1      37.981  31.078  29.112  1.00  0.00     0.031 C 
ATOM     18  C   UNL A   1      37.446  33.952  33.190  1.00  0.00     0.029 A 
ATOM     19  N   UNL A   1      39.104  32.450  33.216  1.00  0.00    -0.354 N 
ATOM     20  C   UNL A   1      39.704  29.771  29.867  1.00  0.00     0.074 A 
ATOM     21  C   UNL A   1      38.756  30.048  28.807  1.00  0.00     0.031 C 
ATOM     22  C   UNL A   1      38.079  34.073  34.366  1.00  0.00     0.029 A 
ATOM     23  C   UNL A   1      39.128  33.062  34.444  1.00  0.00     0.049 A 
ATOM     24  H   UNL A   1      39.751  31.760  32.941  1.00  0.00     0.167 HD
ATOM     25  C   UNL A   1      40.663  28.816  29.814  1.00  0.00     0.037 A 
ATOM     26  C   UNL A   1      39.881  32.809  35.530  1.00  0.00     0.037 A 
ATOM     27  C   UNL A   1      41.598  28.554  30.878  1.00  0.00     0.049 A 
ATOM     28  C   UNL A   1      40.909  31.717  35.468  1.00  0.00     0.074 A 
ATOM     29  C   UNL A   1      42.635  27.640  30.912  1.00  0.00     0.029 A 
ATOM     30  N   UNL A   1      41.596  29.200  32.108  1.00  0.00    -0.354 N 
ATOM     31  N   UNL A   1      41.192  30.907  34.475  1.00  0.00    -0.248 NA
ATOM     32  C   UNL A   1      41.723  31.501  36.670  1.00  0.00     0.031 C 
ATOM     33  C   UNL A   1      43.222  27.688  32.181  1.00  0.00     0.029 A 
ATOM     34  C   UNL A   1      42.595  28.682  32.918  1.00  0.00     0.049 A 
ATOM     35  H   UNL A   1      40.977  29.920  32.367  1.00  0.00     0.167 HD
ATOM     36  C   UNL A   1      42.235  30.107  34.920  1.00  0.00     0.074 A 
ATOM     37  C   UNL A   1      42.534  30.529  36.274  1.00  0.00     0.031 C 
ATOM     38  C   UNL A   1      42.888  29.120  34.260  1.00  0.00     0.037 A 
BRANCH  25  39
ATOM     39  C   UNL A   1      40.720  27.958  28.581  1.00  0.00     0.064 A 
ATOM     40  C   UNL A   1      41.478  28.322  27.457  1.00  0.00     0.173 A 
ATOM     41  C   UNL A   1      40.012  26.748  28.528  1.00  0.00     0.173 A 
ATOM     42  F   UNL A   1      42.168  29.472  27.449  1.00  0.00    -0.203 F 
ATOM     43  C   UNL A   1      41.487  27.528  26.311  1.00  0.00     0.198 A 
ATOM     44  C   UNL A   1      40.051  25.941  27.393  1.00  0.00     0.198 A 
ATOM     45  F   UNL A   1      39.278  26.346  29.576  1.00  0.00    -0.203 F 
ATOM     46  F   UNL A   1      42.165  27.931  25.227  1.00  0.00    -0.200 F 
ATOM     47  C   UNL A   1      40.778  26.337  26.281  1.00  0.00     0.200 A 
ATOM     48  F   UNL A   1      39.376  24.783  27.373  1.00  0.00    -0.200 F 
ATOM     49  F   UNL A   1      40.786  25.578  25.178  1.00  0.00    -0.200 F 
ENDBRANCH  25  39
BRANCH  26  50
ATOM     50  C   UNL A   1      39.665  33.610  36.761  1.00  0.00     0.064 A 
ATOM     51  C   UNL A   1      40.269  34.864  36.920  1.00  0.00     0.173 A 
ATOM     52  C   UNL A   1      38.800  33.167  37.773  1.00  0.00     0.173 A 
ATOM     53  F   UNL A   1      41.115  35.323  35.986  1.00  0.00    -0.203 F 
ATOM     54  C   UNL A   1      40.018  35.643  38.047  1.00  0.00     0.198 A 
ATOM     55  C   UNL A   1      38.527  33.959  38.884  1.00  0.00     0.198 A 
ATOM     56  F   UNL A   1      38.189  31.978  37.660  1.00  0.00    -0.203 F 
ATOM     57  F   UNL A   1      40.626  36.829  38.187  1.00  0.00    -0.200 F 
ATOM     58  C   UNL A   1      39.139  35.196  39.023  1.00  0.00     0.200 A 
ATOM     59  F   UNL A   1      37.661  33.532  39.813  1.00  0.00    -0.200 F 
ATOM     60  F   UNL A   1      38.880  35.956  40.095  1.00  0.00    -0.200 F 
ENDBRANCH  26  50
BRANCH  38  61
ATOM     61  C   UNL A   1      44.031  28.452  34.967  1.00  0.00     0.064 A 
ATOM     62  C   UNL A   1      45.318  29.008  34.984  1.00  0.00     0.173 A 
ATOM     63  C   UNL A   1      43.812  27.276  35.703  1.00  0.00     0.173 A 
ATOM     64  F   UNL A   1      45.583  30.120  34.281  1.00  0.00    -0.203 F 
ATOM     65  C   UNL A   1      46.346  28.407  35.706  1.00  0.00     0.198 A 
ATOM     66  C   UNL A   1      44.834  26.696  36.447  1.00  0.00     0.198 A 
ATOM     67  F   UNL A   1      42.597  26.708  35.722  1.00  0.00    -0.203 F 
ATOM     68  F   UNL A   1      47.576  28.938  35.684  1.00  0.00    -0.200 F 
ATOM     69  C   UNL A   1      46.101  27.259  36.446  1.00  0.00     0.200 A 
ATOM     70  F   UNL A   1      44.590  25.596  37.173  1.00  0.00    -0.200 F 
ATOM     71  F   UNL A   1      47.087  26.695  37.157  1.00  0.00    -0.200 F 
ENDBRANCH  38  61
ENDBRANCH  12  13
ENDBRANCH   5   7
ENDBRANCH   2   3
ENDBRANCH   1   2
BRANCH   1  72
ATOM     72  C   UNL A   1      31.640  30.600  26.626  1.00  0.00     0.002 C 
BRANCH  72  73
ATOM     73  C   UNL A   1      32.899  29.990  27.251  1.00  0.00     0.002 C 
BRANCH  73  74
ATOM     74  C   UNL A   1      32.800  28.507  27.613  1.00  0.00     0.021 C 
BRANCH  74  75
ATOM     75  C   UNL A   1      31.403  27.910  27.493  1.00  0.00     0.116 C 
BRANCH  75  76
ATOM     76  N   UNL A   1      31.421  26.624  26.833  1.00  0.00    -0.356 N 
ATOM     77  C   UNL A   1      31.443  26.247  25.535  1.00  0.00     0.223 C 
ATOM     78  H   UNL A   1      31.417  25.865  27.459  1.00  0.00     0.163 HD
ATOM     79  O   UNL A   1      31.440  25.026  25.333  1.00  0.00    -0.275 OA
BRANCH  77  80
ATOM     80  C   UNL A   1      31.414  27.189  24.336  1.00  0.00     0.083 C 
ATOM     81  C   UNL A   1      32.538  28.227  24.132  1.00  0.00     0.020 C 
ATOM     82  C   UNL A   1      30.014  27.852  24.251  1.00  0.00     0.052 C 
ATOM     83  C   UNL A   1      32.490  28.866  22.728  1.00  0.00     0.057 C 
ATOM     84  C   UNL A   1      29.961  28.789  23.095  1.00  0.00    -0.006 A 
ATOM     85  C   UNL A   1      31.085  29.241  22.438  1.00  0.00     0.038 A 
ATOM     86  C   UNL A   1      28.893  29.406  22.423  1.00  0.00     0.138 A 
ATOM     87  N   UNL A   1      30.653  30.078  21.456  1.00  0.00    -0.282 N 
ATOM     88  N   UNL A   1      29.312  30.198  21.429  1.00  0.00    -0.184 NA
ATOM     89  H   UNL A   1      31.255  30.546  20.833  1.00  0.00     0.190 HD
ENDBRANCH  77  80
ENDBRANCH  75  76
ENDBRANCH  74  75
ENDBRANCH  73  74
ENDBRANCH  72  73
ENDBRANCH   1  72
TORSDOF 13
ENDMDL
MODEL 2
REMARK VINA RESULT:     -11.9      4.189     10.050
REMARK SMILES O=C(NCCCCCCNC(=O)[C@@H]1CCc2[nH]ncc2C1)c1ccc(-c2c3nc(c(-c4c(F)c(F)c(F)c(F)c4F)c4ccc([nH]4)c(-c4c(F)c(F)c(F)c(F)c4F)c4nc(c(-c5c(F)c(F)c(F)c(F)c5F)c5ccc2[nH]5)C=C4)C=C3)cc1
REMARK SMILES IDX 5 1 4 2 3 3 1 4 2 5 22 7 23 8 84 9 24 10 83 11 25 12 26 13
REMARK SMILES IDX 27 14 77 15 28 16 82 17 76 18 78 19 29 20 81 21 75 22 74 23
REMARK SMILES IDX 30 25 62 26 42 27 61 28 43 29 46 30 60 31 79 32 44 33 45 34
REMARK SMILES IDX 59 36 80 37 47 38 31 39 32 40 40 41 33 42 34 43 38 44 41 45
REMARK SMILES IDX 35 46 36 47 39 48 37 49 63 50 64 51 72 52 65 53 66 54 70 55
REMARK SMILES IDX 73 56 67 57 68 58 71 59 69 60 48 61 49 62 57 63 50 64 51 65
REMARK SMILES IDX 55 66 58 67 52 68 53 69 56 70 54 71 6 72 7 73 8 74 9 75
REMARK SMILES IDX 10 76 11 77 12 79 13 80 14 81 21 82 15 83 20 84 16 85 19 86
REMARK SMILES IDX 17 87 18 88
REMARK H PARENT 3 6 78 24 46 35 10 78 17 89
REMARK Flexibility Score: inf
ROOT
ATOM      1  C   UNL A   1      35.794  33.183  28.229  1.00  0.00     0.021 C 
ENDROOT
BRANCH   1   2
ATOM      2  C   UNL A   1      34.813  32.386  29.082  1.00  0.00     0.116 C 
BRANCH   2   3
ATOM      3  N   UNL A   1      34.213  31.292  28.338  1.00  0.00    -0.352 N 
ATOM      4  O   UNL A   1      34.192  29.449  27.039  1.00  0.00    -0.269 OA
ATOM      5  C   UNL A   1      34.801  30.164  27.837  1.00  0.00     0.251 C 
ATOM      6  H   UNL A   1      33.247  31.375  28.171  1.00  0.00     0.163 HD
BRANCH   5   7
ATOM      7  C   UNL A   1      36.172  29.805  28.244  1.00  0.00     0.039 A 
ATOM      8  C   UNL A   1      36.432  29.316  29.530  1.00  0.00     0.014 A 
ATOM      9  C   UNL A   1      37.204  29.925  27.312  1.00  0.00     0.014 A 
ATOM     10  C   UNL A   1      37.740  29.042  29.916  1.00  0.00     0.010 A 
ATOM     11  C   UNL A   1      38.506  29.583  27.678  1.00  0.00     0.010 A 
ATOM     12  C   UNL A   1      38.784  29.155  28.987  1.00  0.00    -0.014 A 
BRANCH  12  13
ATOM     13  C   UNL A   1      40.165  28.765  29.358  1.00  0.00     0.031 A 
ATOM     14  C   UNL A   1      41.038  29.701  30.138  1.00  0.00     0.074 A 
ATOM     15  C   UNL A   1      40.642  27.580  28.938  1.00  0.00     0.049 A 
ATOM     16  N   UNL A   1      42.305  29.588  30.447  1.00  0.00    -0.248 NA
ATOM     17  C   UNL A   1      40.408  30.939  30.621  1.00  0.00     0.031 C 
ATOM     18  C   UNL A   1      39.881  26.592  28.172  1.00  0.00     0.029 A 
ATOM     19  N   UNL A   1      41.884  27.015  29.072  1.00  0.00    -0.354 N 
ATOM     20  C   UNL A   1      42.631  30.747  31.138  1.00  0.00     0.074 A 
ATOM     21  C   UNL A   1      41.434  31.562  31.182  1.00  0.00     0.031 C 
ATOM     22  C   UNL A   1      40.671  25.543  27.902  1.00  0.00     0.029 A 
ATOM     23  C   UNL A   1      42.008  25.814  28.419  1.00  0.00     0.049 A 
ATOM     24  H   UNL A   1      42.615  27.429  29.586  1.00  0.00     0.167 HD
ATOM     25  C   UNL A   1      43.820  31.093  31.685  1.00  0.00     0.037 A 
ATOM     26  C   UNL A   1      43.088  25.036  28.221  1.00  0.00     0.037 A 
ATOM     27  C   UNL A   1      45.001  30.270  31.632  1.00  0.00     0.049 A 
ATOM     28  C   UNL A   1      44.408  25.458  28.797  1.00  0.00     0.074 A 
ATOM     29  C   UNL A   1      46.245  30.505  32.189  1.00  0.00     0.029 A 
ATOM     30  N   UNL A   1      45.087  29.053  30.966  1.00  0.00    -0.354 N 
ATOM     31  N   UNL A   1      44.700  26.537  29.484  1.00  0.00    -0.248 NA
ATOM     32  C   UNL A   1      45.547  24.559  28.575  1.00  0.00     0.031 C 
ATOM     33  C   UNL A   1      47.100  29.465  31.810  1.00  0.00     0.029 A 
ATOM     34  C   UNL A   1      46.371  28.543  31.074  1.00  0.00     0.049 A 
ATOM     35  H   UNL A   1      44.345  28.617  30.488  1.00  0.00     0.167 HD
ATOM     36  C   UNL A   1      46.047  26.434  29.802  1.00  0.00     0.074 A 
ATOM     37  C   UNL A   1      46.515  25.186  29.232  1.00  0.00     0.031 C 
ATOM     38  C   UNL A   1      46.820  27.294  30.509  1.00  0.00     0.037 A 
BRANCH  25  39
ATOM     39  C   UNL A   1      43.912  32.437  32.351  1.00  0.00     0.064 A 
ATOM     40  C   UNL A   1      43.646  32.610  33.718  1.00  0.00     0.173 A 
ATOM     41  C   UNL A   1      44.282  33.570  31.609  1.00  0.00     0.173 A 
ATOM     42  F   UNL A   1      43.280  31.563  34.473  1.00  0.00    -0.203 F 
ATOM     43  C   UNL A   1      43.703  33.872  34.306  1.00  0.00     0.198 A 
ATOM     44  C   UNL A   1      44.370  34.825  32.209  1.00  0.00     0.198 A 
ATOM     45  F   UNL A   1      44.557  33.464  30.301  1.00  0.00    -0.203 F 
ATOM     46  F   UNL A   1      43.379  34.020  35.598  1.00  0.00    -0.200 F 
ATOM     47  C   UNL A   1      44.069  34.977  33.553  1.00  0.00     0.200 A 
ATOM     48  F   UNL A   1      44.738  35.889  31.481  1.00  0.00    -0.200 F 
ATOM     49  F   UNL A   1      44.119  36.190  34.120  1.00  0.00    -0.200 F 
ENDBRANCH  25  39
BRANCH  26  50
ATOM     50  C   UNL A   1      42.943  23.789  27.428  1.00  0.00     0.064 A 
ATOM     51  C   UNL A   1      43.277  23.756  26.069  1.00  0.00     0.173 A 
ATOM     52  C   UNL A   1      42.529  22.591  28.031  1.00  0.00     0.173 A 
ATOM     53  F   UNL A   1      43.664  24.879  25.447  1.00  0.00    -0.203 F 
ATOM     54  C   UNL A   1      43.200  22.571  25.340  1.00  0.00     0.198 A 
ATOM     55  C   UNL A   1      42.481  21.402  27.309  1.00  0.00     0.198 A 
ATOM     56  F   UNL A   1      42.211  22.570  29.333  1.00  0.00    -0.203 F 
ATOM     57  F   UNL A   1      43.503  22.570  24.034  1.00  0.00    -0.200 F 
ATOM     58  C   UNL A   1      42.812  21.393  25.962  1.00  0.00     0.200 A 
ATOM     59  F   UNL A   1      42.126  20.263  27.919  1.00  0.00    -0.200 F 
ATOM     60  F   UNL A   1      42.761  20.250  25.266  1.00  0.00    -0.200 F 
ENDBRANCH  26  50
BRANCH  38  61
ATOM     61  C   UNL A   1      48.246  26.899  30.759  1.00  0.00     0.064 A 
ATOM     62  C   UNL A   1      48.608  26.063  31.824  1.00  0.00     0.173 A 
ATOM     63  C   UNL A   1      49.254  27.305  29.869  1.00  0.00     0.173 A 
ATOM     64  F   UNL A   1      47.685  25.663  32.713  1.00  0.00    -0.203 F 
ATOM     65  C   UNL A   1      49.928  25.653  31.993  1.00  0.00     0.198 A 
ATOM     66  C   UNL A   1      50.565  26.869  30.024  1.00  0.00     0.198 A 
ATOM     67  F   UNL A   1      48.957  28.102  28.832  1.00  0.00    -0.203 F 
ATOM     68  F   UNL A   1      50.258  24.878  33.036  1.00  0.00    -0.200 F 
ATOM     69  C   UNL A   1      50.902  26.046  31.088  1.00  0.00     0.200 A 
ATOM     70  F   UNL A   1      51.502  27.238  29.139  1.00  0.00    -0.200 F 
ATOM     71  F   UNL A   1      52.168  25.632  31.241  1.00  0.00    -0.200 F 
ENDBRANCH  38  61
ENDBRANCH  12  13
ENDBRANCH   5   7
ENDBRANCH   2   3
ENDBRANCH   1   2
BRANCH   1  72
ATOM     72  C   UNL A   1      37.231  33.205  28.758  1.00  0.00     0.002 C 
BRANCH  72  73
ATOM     73  C   UNL A   1      37.416  33.852  30.135  1.00  0.00     0.002 C 
BRANCH  73  74
ATOM     74  C   UNL A   1      37.575  32.876  31.302  1.00  0.00     0.021 C 
BRANCH  74  75
ATOM     75  C   UNL A   1      37.878  33.527  32.646  1.00  0.00     0.116 C 
BRANCH  75  76
ATOM     76  N   UNL A   1      36.799  33.343  33.589  1.00  0.00    -0.356 N 
ATOM     77  C   UNL A   1      35.597  33.940  33.753  1.00  0.00     0.223 C 
ATOM     78  H   UNL A   1      36.975  32.635  34.250  1.00  0.00     0.163 HD
ATOM     79  O   UNL A   1      34.918  33.523  34.701  1.00  0.00    -0.275 OA
BRANCH  77  80
ATOM     80  C   UNL A   1      35.057  35.094  32.915  1.00  0.00     0.083 C 
ATOM     81  C   UNL A   1      34.269  36.241  33.585  1.00  0.00     0.020 C 
ATOM     82  C   UNL A   1      34.286  34.516  31.699  1.00  0.00     0.052 C 
ATOM     83  C   UNL A   1      34.075  37.442  32.636  1.00  0.00     0.057 C 
ATOM     84  C   UNL A   1      33.735  35.625  30.871  1.00  0.00    -0.006 A 
ATOM     85  C   UNL A   1      33.637  36.925  31.317  1.00  0.00     0.038 A 
ATOM     86  C   UNL A   1      33.222  35.665  29.564  1.00  0.00     0.138 A 
ATOM     87  N   UNL A   1      33.084  37.645  30.303  1.00  0.00    -0.282 N 
ATOM     88  N   UNL A   1      32.816  36.893  29.219  1.00  0.00    -0.184 NA
ATOM     89  H   UNL A   1      32.898  38.609  30.358  1.00  0.00     0.190 HD
ENDBRANCH  77  80
ENDBRANCH  75  76
ENDBRANCH  74  75
ENDBRANCH  73  74
ENDBRANCH  72  73
ENDBRANCH   1  72
TORSDOF 13
ENDMDL
MODEL 3
REMARK VINA RESULT:     -11.9      0.997      1.691
REMARK SMILES O=C(NCCCCCCNC(=O)[C@@H]1CCc2[nH]ncc2C1)c1ccc(-c2c3nc(c(-c4c(F)c(F)c(F)c(F)c4F)c4ccc([nH]4)c(-c4c(F)c(F)c(F)c(F)c4F)c4nc(c(-c5c(F)c(F)c(F)c(F)c5F)c5ccc2[nH]5)C=C4)C=C3)cc1
REMARK SMILES IDX 5 1 4 2 3 3 1 4 2 5 22 7 23 8 84 9 24 10 83 11 25 12 26 13
REMARK SMILES IDX 27 14 77 15 28 16 82 17 76 18 78 19 29 20 81 21 75 22 74 23
REMARK SMILES IDX 30 25 62 26 42 27 61 28 43 29 46 30 60 31 79 32 44 33 45 34
REMARK SMILES IDX 59 36 80 37 47 38 31 39 32 40 40 41 33 42 34 43 38 44 41 45
REMARK SMILES IDX 35 46 36 47 39 48 37 49 63 50 64 51 72 52 65 53 66 54 70 55
REMARK SMILES IDX 73 56 67 57 68 58 71 59 69 60 48 61 49 62 57 63 50 64 51 65
REMARK SMILES IDX 55 66 58 67 52 68 53 69 56 70 54 71 6 72 7 73 8 74 9 75
REMARK SMILES IDX 10 76 11 77 12 79 13 80 14 81 21 82 15 83 20 84 16 85 19 86
REMARK SMILES IDX 17 87 18 88
REMARK H PARENT 3 6 78 24 46 35 10 78 17 89
REMARK Flexibility Score: inf
ROOT
ATOM      1  C   UNL A   1      31.407  32.155  26.843  1.00  0.00     0.021 C 
ENDROOT
BRANCH   1   2
ATOM      2  C   UNL A   1      32.717  32.868  27.161  1.00  0.00     0.116 C 
BRANCH   2   3
ATOM      3  N   UNL A   1      32.494  34.211  27.667  1.00  0.00    -0.352 N 
ATOM      4  O   UNL A   1      32.604  35.897  29.160  1.00  0.00    -0.269 OA
ATOM      5  C   UNL A   1      33.070  34.838  28.736  1.00  0.00     0.251 C 
ATOM      6  H   UNL A   1      31.833  34.745  27.169  1.00  0.00     0.163 HD
BRANCH   5   7
ATOM      7  C   UNL A   1      34.248  34.242  29.393  1.00  0.00     0.039 A 
ATOM      8  C   UNL A   1      34.099  33.369  30.476  1.00  0.00     0.014 A 
ATOM      9  C   UNL A   1      35.518  34.534  28.890  1.00  0.00     0.014 A 
ATOM     10  C   UNL A   1      35.224  32.866  31.121  1.00  0.00     0.010 A 
ATOM     11  C   UNL A   1      36.643  33.973  29.495  1.00  0.00     0.010 A 
ATOM     12  C   UNL A   1      36.504  33.148  30.624  1.00  0.00    -0.014 A 
BRANCH  12  13
ATOM     13  C   UNL A   1      37.703  32.533  31.240  1.00  0.00     0.031 A 
ATOM     14  C   UNL A   1      38.417  31.405  30.558  1.00  0.00     0.074 A 
ATOM     15  C   UNL A   1      38.108  32.965  32.448  1.00  0.00     0.049 A 
ATOM     16  N   UNL A   1      39.402  30.664  30.997  1.00  0.00    -0.248 NA
ATOM     17  C   UNL A   1      37.952  31.054  29.208  1.00  0.00     0.031 C 
ATOM     18  C   UNL A   1      37.486  34.054  33.203  1.00  0.00     0.029 A 
ATOM     19  N   UNL A   1      39.120  32.528  33.263  1.00  0.00    -0.354 N 
ATOM     20  C   UNL A   1      39.659  29.743  29.991  1.00  0.00     0.074 A 
ATOM     21  C   UNL A   1      38.710  30.004  28.928  1.00  0.00     0.031 C 
ATOM     22  C   UNL A   1      38.127  34.199  34.371  1.00  0.00     0.029 A 
ATOM     23  C   UNL A   1      39.160  33.175  34.473  1.00  0.00     0.049 A 
ATOM     24  H   UNL A   1      39.755  31.820  33.006  1.00  0.00     0.167 HD
ATOM     25  C   UNL A   1      40.604  28.772  29.961  1.00  0.00     0.037 A 
ATOM     26  C   UNL A   1      39.916  32.942  35.562  1.00  0.00     0.037 A 
ATOM     27  C   UNL A   1      41.540  28.527  31.028  1.00  0.00     0.049 A 
ATOM     28  C   UNL A   1      40.927  31.833  35.526  1.00  0.00     0.074 A 
ATOM     29  C   UNL A   1      42.564  27.598  31.082  1.00  0.00     0.029 A 
ATOM     30  N   UNL A   1      41.556  29.208  32.238  1.00  0.00    -0.354 N 
ATOM     31  N   UNL A   1      41.192  30.991  34.556  1.00  0.00    -0.248 NA
ATOM     32  C   UNL A   1      41.744  31.640  36.730  1.00  0.00     0.031 C 
ATOM     33  C   UNL A   1      43.159  27.675  32.346  1.00  0.00     0.029 A 
ATOM     34  C   UNL A   1      42.552  28.699  33.057  1.00  0.00     0.049 A 
ATOM     35  H   UNL A   1      40.949  29.945  32.479  1.00  0.00     0.167 HD
ATOM     36  C   UNL A   1      42.225  30.188  35.019  1.00  0.00     0.074 A 
ATOM     37  C   UNL A   1      42.539  30.644  36.358  1.00  0.00     0.031 C 
ATOM     38  C   UNL A   1      42.859  29.171  34.385  1.00  0.00     0.037 A 
BRANCH  25  39
ATOM     39  C   UNL A   1      40.641  27.878  28.753  1.00  0.00     0.064 A 
ATOM     40  C   UNL A   1      41.435  28.172  27.634  1.00  0.00     0.173 A 
ATOM     41  C   UNL A   1      39.874  26.702  28.720  1.00  0.00     0.173 A 
ATOM     42  F   UNL A   1      42.180  29.287  27.608  1.00  0.00    -0.203 F 
ATOM     43  C   UNL A   1      41.426  27.347  26.512  1.00  0.00     0.198 A 
ATOM     44  C   UNL A   1      39.894  25.862  27.609  1.00  0.00     0.198 A 
ATOM     45  F   UNL A   1      39.104  26.366  29.765  1.00  0.00    -0.203 F 
ATOM     46  F   UNL A   1      42.141  27.685  25.430  1.00  0.00    -0.200 F 
ATOM     47  C   UNL A   1      40.659  26.191  26.501  1.00  0.00     0.200 A 
ATOM     48  F   UNL A   1      39.164  24.739  27.608  1.00  0.00    -0.200 F 
ATOM     49  F   UNL A   1      40.649  25.402  25.419  1.00  0.00    -0.200 F 
ENDBRANCH  25  39
BRANCH  26  50
ATOM     50  C   UNL A   1      39.720  33.782  36.769  1.00  0.00     0.064 A 
ATOM     51  C   UNL A   1      40.329  35.038  36.881  1.00  0.00     0.173 A 
ATOM     52  C   UNL A   1      38.868  33.373  37.807  1.00  0.00     0.173 A 
ATOM     53  F   UNL A   1      41.163  35.465  35.921  1.00  0.00    -0.203 F 
ATOM     54  C   UNL A   1      40.096  35.854  37.986  1.00  0.00     0.198 A 
ATOM     55  C   UNL A   1      38.613  34.201  38.897  1.00  0.00     0.198 A 
ATOM     56  F   UNL A   1      38.253  32.184  37.740  1.00  0.00    -0.203 F 
ATOM     57  F   UNL A   1      40.708  37.042  38.080  1.00  0.00    -0.200 F 
ATOM     58  C   UNL A   1      39.230  35.439  38.988  1.00  0.00     0.200 A 
ATOM     59  F   UNL A   1      37.760  33.806  39.851  1.00  0.00    -0.200 F 
ATOM     60  F   UNL A   1      38.988  36.234  40.039  1.00  0.00    -0.200 F 
ENDBRANCH  26  50
BRANCH  38  61
ATOM     61  C   UNL A   1      43.996  28.507  35.104  1.00  0.00     0.064 A 
ATOM     62  C   UNL A   1      43.805  27.371  35.902  1.00  0.00     0.173 A 
ATOM     63  C   UNL A   1      45.308  28.974  34.926  1.00  0.00     0.173 A 
ATOM     64  F   UNL A   1      42.568  26.897  36.119  1.00  0.00    -0.203 F 
ATOM     65  C   UNL A   1      44.887  26.730  36.502  1.00  0.00     0.198 A 
ATOM     66  C   UNL A   1      46.388  28.314  35.502  1.00  0.00     0.198 A 
ATOM     67  F   UNL A   1      45.543  30.055  34.168  1.00  0.00    -0.203 F 
ATOM     68  F   UNL A   1      44.679  25.663  37.287  1.00  0.00    -0.200 F 
ATOM     69  C   UNL A   1      46.177  27.194  36.293  1.00  0.00     0.200 A 
ATOM     70  F   UNL A   1      47.635  28.755  35.286  1.00  0.00    -0.200 F 
ATOM     71  F   UNL A   1      47.217  26.563  36.854  1.00  0.00    -0.200 F 
ENDBRANCH  38  61
ENDBRANCH  12  13
ENDBRANCH   5   7
ENDBRANCH   2   3
ENDBRANCH   1   2
BRANCH   1  72
ATOM     72  C   UNL A   1      31.561  30.855  26.049  1.00  0.00     0.002 C 
BRANCH  72  73
ATOM     73  C   UNL A   1      31.989  29.631  26.867  1.00  0.00     0.002 C 
BRANCH  73  74
ATOM     74  C   UNL A   1      33.449  29.209  26.700  1.00  0.00     0.021 C 
BRANCH  74  75
ATOM     75  C   UNL A   1      33.653  27.864  26.012  1.00  0.00     0.116 C 
BRANCH  75  76
ATOM     76  N   UNL A   1      33.771  28.004  24.579  1.00  0.00    -0.356 N 
ATOM     77  C   UNL A   1      32.871  28.011  23.570  1.00  0.00     0.223 C 
ATOM     78  H   UNL A   1      34.700  28.117  24.273  1.00  0.00     0.163 HD
ATOM     79  O   UNL A   1      33.345  28.143  22.433  1.00  0.00    -0.275 OA
BRANCH  77  80
ATOM     80  C   UNL A   1      31.367  27.816  23.720  1.00  0.00     0.083 C 
ATOM     81  C   UNL A   1      30.722  26.450  23.402  1.00  0.00     0.020 C 
ATOM     82  C   UNL A   1      30.634  28.970  22.986  1.00  0.00     0.052 C 
ATOM     83  C   UNL A   1      29.263  26.367  23.898  1.00  0.00     0.057 C 
ATOM     84  C   UNL A   1      29.159  28.796  23.106  1.00  0.00    -0.006 A 
ATOM     85  C   UNL A   1      28.568  27.616  23.502  1.00  0.00     0.038 A 
ATOM     86  C   UNL A   1      28.081  29.668  22.879  1.00  0.00     0.138 A 
ATOM     87  N   UNL A   1      27.224  27.828  23.483  1.00  0.00    -0.282 N 
ATOM     88  N   UNL A   1      26.901  29.078  23.100  1.00  0.00    -0.184 NA
ATOM     89  H   UNL A   1      26.560  27.142  23.722  1.00  0.00     0.190 HD
ENDBRANCH  77  80
ENDBRANCH  75  76
ENDBRANCH  74  75
ENDBRANCH  73  74
ENDBRANCH  72  73
ENDBRANCH   1  72
TORSDOF 13
ENDMDL
