MODEL 1
REMARK VINA RESULT:     -13.0      0.000      0.000
REMARK SMILES Cc1cc(C)c(S(=O)(=O)n2cc([C@@H](C)[C@@H]([NH3+])C(=O)NCCCCCCNC(=O)c3ccc(-c4c5nc(c(-c6c(F)c(F)c(F)c(F)c6F)c6ccc([nH]6)c(-c6c(F)c(F)c(F)c(F)c6F)c6nc(c(-c7c(F)c(F)c(F)c(F)c7F)c7ccc4[nH]7)C=C6)C=C5)cc3)c3ccccc32)c(C)c1
REMARK SMILES IDX 21 1 20 2 19 3 17 4 18 5 15 7 13 8 14 9 12 10 10 11 11 12
REMARK SMILES IDX 97 13 92 14 96 15 93 16 95 17 94 18 7 19 8 20 9 21 6 22 1 23
REMARK SMILES IDX 2 24 3 25 100 26 4 27 98 28 5 29 99 30 16 31 22 35 23 36
REMARK SMILES IDX 24 37 25 38 26 39 27 40 28 42 29 43 30 44 91 45 31 46 90 47
REMARK SMILES IDX 32 48 33 49 34 50 84 51 35 52 89 53 83 54 85 55 36 56 88 57
REMARK SMILES IDX 82 58 81 59 37 61 69 62 49 63 68 64 50 65 53 66 67 67 86 68
REMARK SMILES IDX 51 69 52 70 66 72 87 73 54 74 38 75 39 76 47 77 40 78 41 79
REMARK SMILES IDX 45 80 48 81 42 82 43 83 46 84 44 85 70 86 71 87 79 88 72 89
REMARK SMILES IDX 73 90 77 91 80 92 74 93 75 94 78 95 76 96 55 97 56 98 64 99
REMARK SMILES IDX 57 100 58 101 62 102 65 103 59 104 60 105 63 106 61 107
REMARK H PARENT 19 6 16 32 16 33 16 34 26 41 85 60 53 71
REMARK Flexibility Score: inf
ROOT
ATOM      1  C   UNL A   1      40.279  21.810  26.122  1.00  0.00     0.021 C 
ENDROOT
BRANCH   1   2
ATOM      2  C   UNL A   1      38.829  22.297  26.129  1.00  0.00     0.116 C 
BRANCH   2   3
ATOM      3  N   UNL A   1      37.948  21.266  25.614  1.00  0.00    -0.351 N 
ATOM      4  C   UNL A   1      36.599  21.287  25.427  1.00  0.00     0.278 C 
ATOM      5  O   UNL A   1      36.052  20.254  25.029  1.00  0.00    -0.268 OA
ATOM      6  H   UNL A   1      38.392  20.424  25.361  1.00  0.00     0.163 HD
BRANCH   4   7
ATOM      7  C   UNL A   1      35.770  22.562  25.683  1.00  0.00     0.278 C 
BRANCH   7   8
ATOM      8  C   UNL A   1      34.760  22.868  24.545  1.00  0.00     0.086 C 
ATOM      9  C   UNL A   1      35.438  23.031  23.179  1.00  0.00     0.020 C 
BRANCH   8  10
ATOM     10  C   UNL A   1      33.883  24.057  24.874  1.00  0.00    -0.012 A 
ATOM     11  N   UNL A   1      33.164  26.160  25.004  1.00  0.00    -0.241 N 
ATOM     12  C   UNL A   1      34.204  25.370  24.594  1.00  0.00     0.109 A 
ATOM     13  C   UNL A   1      32.112  25.397  25.463  1.00  0.00     0.064 A 
ATOM     14  C   UNL A   1      32.575  24.071  25.468  1.00  0.00     0.004 A 
ATOM     15  C   UNL A   1      30.830  25.737  25.931  1.00  0.00     0.028 A 
ATOM     16  C   UNL A   1      31.739  23.069  26.003  1.00  0.00     0.010 A 
ATOM     17  C   UNL A   1      30.032  24.720  26.462  1.00  0.00     0.002 A 
ATOM     18  C   UNL A   1      30.483  23.407  26.511  1.00  0.00     0.001 A 
BRANCH  11  19
ATOM     19  S   UNL A   1      33.227  27.853  24.966  1.00  0.00     0.268 S 
ATOM     20  O   UNL A   1      34.397  28.145  24.158  1.00  0.00    -0.201 OA
ATOM     21  O   UNL A   1      33.147  28.267  26.359  1.00  0.00    -0.201 OA
BRANCH  19  22
ATOM     22  C   UNL A   1      31.803  28.566  24.139  1.00  0.00     0.094 A 
ATOM     23  C   UNL A   1      28.175  29.767  22.091  1.00  0.00     0.044 C 
ATOM     24  C   UNL A   1      29.439  29.364  22.787  1.00  0.00    -0.051 A 
ATOM     25  C   UNL A   1      30.221  28.329  22.286  1.00  0.00     0.008 A 
ATOM     26  C   UNL A   1      29.875  30.034  23.927  1.00  0.00     0.008 A 
ATOM     27  C   UNL A   1      31.399  27.916  22.938  1.00  0.00    -0.030 A 
ATOM     28  C   UNL A   1      31.071  29.688  24.595  1.00  0.00    -0.030 A 
ATOM     29  C   UNL A   1      32.156  26.807  22.244  1.00  0.00     0.046 C 
ATOM     30  C   UNL A   1      31.417  30.600  25.735  1.00  0.00     0.046 C 
ENDBRANCH  19  22
ENDBRANCH  11  19
ENDBRANCH   8  10
ENDBRANCH   7   8
BRANCH   7  31
ATOM     31  N   UNL A   1      35.149  22.463  27.033  1.00  0.00    -0.347 N 
ATOM     32  H   UNL A   1      34.410  21.761  27.016  1.00  0.00     0.345 HD
ATOM     33  H   UNL A   1      34.754  23.367  27.292  1.00  0.00     0.345 HD
ATOM     34  H   UNL A   1      35.858  22.194  27.714  1.00  0.00     0.345 HD
ENDBRANCH   7  31
ENDBRANCH   4   7
ENDBRANCH   2   3
ENDBRANCH   1   2
BRANCH   1  35
ATOM     35  C   UNL A   1      40.745  21.255  27.472  1.00  0.00     0.002 C 
BRANCH  35  36
ATOM     36  C   UNL A   1      41.969  20.336  27.397  1.00  0.00     0.002 C 
BRANCH  36  37
ATOM     37  C   UNL A   1      41.977  19.366  26.209  1.00  0.00     0.021 C 
BRANCH  37  38
ATOM     38  C   UNL A   1      43.343  18.738  25.926  1.00  0.00     0.116 C 
BRANCH  38  39
ATOM     39  N   UNL A   1      43.940  19.195  24.688  1.00  0.00    -0.352 N 
ATOM     40  C   UNL A   1      44.446  20.382  24.243  1.00  0.00     0.251 C 
ATOM     41  H   UNL A   1      43.994  18.483  24.009  1.00  0.00     0.163 HD
ATOM     42  O   UNL A   1      44.952  20.370  23.117  1.00  0.00    -0.269 OA
BRANCH  40  43
ATOM     43  C   UNL A   1      44.379  21.674  24.980  1.00  0.00     0.039 A 
ATOM     44  C   UNL A   1      45.121  22.009  26.112  1.00  0.00     0.014 A 
ATOM     45  C   UNL A   1      43.444  22.608  24.493  1.00  0.00     0.014 A 
ATOM     46  C   UNL A   1      44.873  23.197  26.793  1.00  0.00     0.010 A 
ATOM     47  C   UNL A   1      43.207  23.808  25.155  1.00  0.00     0.010 A 
ATOM     48  C   UNL A   1      43.894  24.080  26.332  1.00  0.00    -0.014 A 
BRANCH  48  49
ATOM     49  C   UNL A   1      43.710  25.331  27.062  1.00  0.00     0.031 A 
ATOM     50  C   UNL A   1      44.760  26.362  26.826  1.00  0.00     0.074 A 
ATOM     51  C   UNL A   1      42.630  25.597  27.822  1.00  0.00     0.049 A 
ATOM     52  N   UNL A   1      45.532  26.927  27.697  1.00  0.00    -0.248 NA
ATOM     53  C   UNL A   1      45.049  26.746  25.435  1.00  0.00     0.031 C 
ATOM     54  C   UNL A   1      41.403  24.811  27.962  1.00  0.00     0.029 A 
ATOM     55  N   UNL A   1      42.372  26.705  28.576  1.00  0.00    -0.354 N 
ATOM     56  C   UNL A   1      46.311  27.843  26.993  1.00  0.00     0.074 A 
ATOM     57  C   UNL A   1      46.050  27.612  25.596  1.00  0.00     0.031 C 
ATOM     58  C   UNL A   1      40.459  25.565  28.569  1.00  0.00     0.029 A 
ATOM     59  C   UNL A   1      41.047  26.833  28.968  1.00  0.00     0.049 A 
ATOM     60  H   UNL A   1      43.067  27.358  28.821  1.00  0.00     0.167 HD
ATOM     61  C   UNL A   1      46.984  28.846  27.626  1.00  0.00     0.037 A 
ATOM     62  C   UNL A   1      40.465  27.924  29.526  1.00  0.00     0.037 A 
ATOM     63  C   UNL A   1      47.164  28.555  29.023  1.00  0.00     0.049 A 
ATOM     64  C   UNL A   1      41.546  28.765  30.098  1.00  0.00     0.074 A 
ATOM     65  C   UNL A   1      47.804  27.551  29.724  1.00  0.00     0.029 A 
ATOM     66  N   UNL A   1      46.355  29.184  29.936  1.00  0.00    -0.354 N 
ATOM     67  N   UNL A   1      42.236  28.442  31.155  1.00  0.00    -0.248 NA
ATOM     68  C   UNL A   1      42.155  29.770  29.236  1.00  0.00     0.031 C 
ATOM     69  C   UNL A   1      46.979  27.312  30.860  1.00  0.00     0.029 A 
ATOM     70  C   UNL A   1      45.922  28.221  30.809  1.00  0.00     0.049 A 
ATOM     71  H   UNL A   1      46.130  30.142  29.959  1.00  0.00     0.167 HD
ATOM     72  C   UNL A   1      43.527  28.855  30.866  1.00  0.00     0.074 A 
ATOM     73  C   UNL A   1      43.399  29.751  29.720  1.00  0.00     0.031 C 
ATOM     74  C   UNL A   1      44.607  28.212  31.397  1.00  0.00     0.037 A 
BRANCH  61  75
ATOM     75  C   UNL A   1      47.192  30.230  27.062  1.00  0.00     0.064 A 
ATOM     76  C   UNL A   1      48.474  30.817  27.130  1.00  0.00     0.173 A 
ATOM     77  C   UNL A   1      46.136  31.113  26.753  1.00  0.00     0.173 A 
ATOM     78  F   UNL A   1      49.553  30.076  27.426  1.00  0.00    -0.203 F 
ATOM     79  C   UNL A   1      48.664  32.195  26.995  1.00  0.00     0.198 A 
ATOM     80  C   UNL A   1      46.339  32.480  26.566  1.00  0.00     0.198 A 
ATOM     81  F   UNL A   1      44.859  30.715  26.731  1.00  0.00    -0.203 F 
ATOM     82  F   UNL A   1      49.879  32.722  27.202  1.00  0.00    -0.200 F 
ATOM     83  C   UNL A   1      47.595  33.026  26.723  1.00  0.00     0.200 A 
ATOM     84  F   UNL A   1      45.286  33.272  26.318  1.00  0.00    -0.200 F 
ATOM     85  F   UNL A   1      47.762  34.354  26.660  1.00  0.00    -0.200 F 
ENDBRANCH  61  75
BRANCH  62  86
ATOM     86  C   UNL A   1      39.069  28.407  29.395  1.00  0.00     0.064 A 
ATOM     87  C   UNL A   1      38.250  28.588  30.524  1.00  0.00     0.173 A 
ATOM     88  C   UNL A   1      38.591  28.954  28.187  1.00  0.00     0.173 A 
ATOM     89  F   UNL A   1      38.645  28.143  31.724  1.00  0.00    -0.203 F 
ATOM     90  C   UNL A   1      37.042  29.292  30.451  1.00  0.00     0.198 A 
ATOM     91  C   UNL A   1      37.380  29.644  28.113  1.00  0.00     0.198 A 
ATOM     92  F   UNL A   1      39.332  28.913  27.071  1.00  0.00    -0.203 F 
ATOM     93  F   UNL A   1      36.320  29.498  31.561  1.00  0.00    -0.200 F 
ATOM     94  C   UNL A   1      36.612  29.826  29.248  1.00  0.00     0.200 A 
ATOM     95  F   UNL A   1      36.995  30.186  26.949  1.00  0.00    -0.200 F 
ATOM     96  F   UNL A   1      35.486  30.549  29.188  1.00  0.00    -0.200 F 
ENDBRANCH  62  86
BRANCH  74  97
ATOM     97  C   UNL A   1      44.372  27.211  32.492  1.00  0.00     0.064 A 
ATOM     98  C   UNL A   1      44.171  25.839  32.265  1.00  0.00     0.173 A 
ATOM     99  C   UNL A   1      44.542  27.628  33.820  1.00  0.00     0.173 A 
ATOM    100  F   UNL A   1      44.103  25.346  31.022  1.00  0.00    -0.203 F 
ATOM    101  C   UNL A   1      44.111  24.934  33.323  1.00  0.00     0.198 A 
ATOM    102  C   UNL A   1      44.520  26.717  34.871  1.00  0.00     0.198 A 
ATOM    103  F   UNL A   1      44.793  28.919  34.092  1.00  0.00    -0.203 F 
ATOM    104  F   UNL A   1      43.918  23.628  33.080  1.00  0.00    -0.200 F 
ATOM    105  C   UNL A   1      44.297  25.372  34.622  1.00  0.00     0.200 A 
ATOM    106  F   UNL A   1      44.754  27.137  36.121  1.00  0.00    -0.200 F 
ATOM    107  F   UNL A   1      44.295  24.493  35.636  1.00  0.00    -0.200 F 
ENDBRANCH  74  97
ENDBRANCH  48  49
ENDBRANCH  40  43
ENDBRANCH  38  39
ENDBRANCH  37  38
ENDBRANCH  36  37
ENDBRANCH  35  36
ENDBRANCH   1  35
TORSDOF 18
ENDMDL
MODEL 2
REMARK VINA RESULT:     -12.9      2.637      3.880
REMARK SMILES Cc1cc(C)c(S(=O)(=O)n2cc([C@@H](C)[C@@H]([NH3+])C(=O)NCCCCCCNC(=O)c3ccc(-c4c5nc(c(-c6c(F)c(F)c(F)c(F)c6F)c6ccc([nH]6)c(-c6c(F)c(F)c(F)c(F)c6F)c6nc(c(-c7c(F)c(F)c(F)c(F)c7F)c7ccc4[nH]7)C=C6)C=C5)cc3)c3ccccc32)c(C)c1
REMARK SMILES IDX 21 1 20 2 19 3 17 4 18 5 15 7 13 8 14 9 12 10 10 11 11 12
REMARK SMILES IDX 97 13 92 14 96 15 93 16 95 17 94 18 7 19 8 20 9 21 6 22 1 23
REMARK SMILES IDX 2 24 3 25 100 26 4 27 98 28 5 29 99 30 16 31 22 35 23 36
REMARK SMILES IDX 24 37 25 38 26 39 27 40 28 42 29 43 30 44 91 45 31 46 90 47
REMARK SMILES IDX 32 48 33 49 34 50 84 51 35 52 89 53 83 54 85 55 36 56 88 57
REMARK SMILES IDX 82 58 81 59 37 61 69 62 49 63 68 64 50 65 53 66 67 67 86 68
REMARK SMILES IDX 51 69 52 70 66 72 87 73 54 74 38 75 39 76 47 77 40 78 41 79
REMARK SMILES IDX 45 80 48 81 42 82 43 83 46 84 44 85 70 86 71 87 79 88 72 89
REMARK SMILES IDX 73 90 77 91 80 92 74 93 75 94 78 95 76 96 55 97 56 98 64 99
REMARK SMILES IDX 57 100 58 101 62 102 65 103 59 104 60 105 63 106 61 107
REMARK H PARENT 19 6 16 32 16 33 16 34 26 41 85 60 53 71
REMARK Flexibility Score: inf
ROOT
ATOM      1  C   UNL A   1      36.880  22.909  24.882  1.00  0.00     0.021 C 
ENDROOT
BRANCH   1   2
ATOM      2  C   UNL A   1      35.583  22.200  25.277  1.00  0.00     0.116 C 
BRANCH   2   3
ATOM      3  N   UNL A   1      35.601  20.825  24.814  1.00  0.00    -0.351 N 
ATOM      4  C   UNL A   1      34.660  19.849  24.949  1.00  0.00     0.278 C 
ATOM      5  O   UNL A   1      34.926  18.722  24.522  1.00  0.00    -0.268 OA
ATOM      6  H   UNL A   1      36.414  20.556  24.329  1.00  0.00     0.163 HD
BRANCH   4   7
ATOM      7  C   UNL A   1      33.290  20.136  25.597  1.00  0.00     0.278 C 
BRANCH   7   8
ATOM      8  C   UNL A   1      32.197  20.518  24.563  1.00  0.00     0.086 C 
ATOM      9  C   UNL A   1      32.484  19.959  23.164  1.00  0.00     0.020 C 
BRANCH   8  10
ATOM     10  C   UNL A   1      31.956  22.012  24.524  1.00  0.00    -0.012 A 
ATOM     11  N   UNL A   1      32.054  24.135  23.861  1.00  0.00    -0.241 N 
ATOM     12  C   UNL A   1      32.526  22.875  23.609  1.00  0.00     0.109 A 
ATOM     13  C   UNL A   1      31.106  24.120  24.862  1.00  0.00     0.064 A 
ATOM     14  C   UNL A   1      31.089  22.804  25.351  1.00  0.00     0.004 A 
ATOM     15  C   UNL A   1      30.311  25.132  25.427  1.00  0.00     0.028 A 
ATOM     16  C   UNL A   1      30.283  22.514  26.472  1.00  0.00     0.010 A 
ATOM     17  C   UNL A   1      29.531  24.812  26.542  1.00  0.00     0.002 A 
ATOM     18  C   UNL A   1      29.526  23.525  27.067  1.00  0.00     0.001 A 
BRANCH  11  19
ATOM     19  S   UNL A   1      32.622  25.508  23.045  1.00  0.00     0.268 S 
ATOM     20  O   UNL A   1      31.578  25.803  22.081  1.00  0.00    -0.201 OA
ATOM     21  O   UNL A   1      33.971  25.166  22.620  1.00  0.00    -0.201 OA
BRANCH  19  22
ATOM     22  C   UNL A   1      32.773  26.927  24.133  1.00  0.00     0.094 A 
ATOM     23  C   UNL A   1      33.687  30.255  26.759  1.00  0.00     0.044 C 
ATOM     24  C   UNL A   1      33.356  29.100  25.863  1.00  0.00    -0.051 A 
ATOM     25  C   UNL A   1      33.883  27.838  26.116  1.00  0.00     0.008 A 
ATOM     26  C   UNL A   1      32.493  29.256  24.782  1.00  0.00     0.008 A 
ATOM     27  C   UNL A   1      33.607  26.744  25.273  1.00  0.00    -0.030 A 
ATOM     28  C   UNL A   1      32.150  28.182  23.931  1.00  0.00    -0.030 A 
ATOM     29  C   UNL A   1      34.221  25.434  25.708  1.00  0.00     0.046 C 
ATOM     30  C   UNL A   1      31.123  28.532  22.893  1.00  0.00     0.046 C 
ENDBRANCH  19  22
ENDBRANCH  11  19
ENDBRANCH   8  10
ENDBRANCH   7   8
BRANCH   7  31
ATOM     31  N   UNL A   1      32.924  18.983  26.466  1.00  0.00    -0.347 N 
ATOM     32  H   UNL A   1      32.048  18.576  26.139  1.00  0.00     0.345 HD
ATOM     33  H   UNL A   1      32.811  19.305  27.427  1.00  0.00     0.345 HD
ATOM     34  H   UNL A   1      33.662  18.281  26.427  1.00  0.00     0.345 HD
ENDBRANCH   7  31
ENDBRANCH   4   7
ENDBRANCH   2   3
ENDBRANCH   1   2
BRANCH   1  35
ATOM     35  C   UNL A   1      37.422  23.844  25.969  1.00  0.00     0.002 C 
BRANCH  35  36
ATOM     36  C   UNL A   1      38.789  23.442  26.534  1.00  0.00     0.002 C 
BRANCH  36  37
ATOM     37  C   UNL A   1      39.288  22.060  26.097  1.00  0.00     0.021 C 
BRANCH  37  38
ATOM     38  C   UNL A   1      40.697  21.722  26.588  1.00  0.00     0.116 C 
BRANCH  38  39
ATOM     39  N   UNL A   1      41.741  22.169  25.690  1.00  0.00    -0.352 N 
ATOM     40  C   UNL A   1      42.417  23.340  25.506  1.00  0.00     0.251 C 
ATOM     41  H   UNL A   1      42.032  21.463  25.067  1.00  0.00     0.163 HD
ATOM     42  O   UNL A   1      43.320  23.321  24.665  1.00  0.00    -0.269 OA
BRANCH  40  43
ATOM     43  C   UNL A   1      42.111  24.626  26.193  1.00  0.00     0.039 A 
ATOM     44  C   UNL A   1      41.447  25.715  25.630  1.00  0.00     0.014 A 
ATOM     45  C   UNL A   1      42.580  24.739  27.516  1.00  0.00     0.014 A 
ATOM     46  C   UNL A   1      41.339  26.914  26.329  1.00  0.00     0.010 A 
ATOM     47  C   UNL A   1      42.454  25.926  28.230  1.00  0.00     0.010 A 
ATOM     48  C   UNL A   1      41.871  27.028  27.615  1.00  0.00    -0.014 A 
BRANCH  48  49
ATOM     49  C   UNL A   1      41.686  28.295  28.317  1.00  0.00     0.031 A 
ATOM     50  C   UNL A   1      42.783  29.287  28.131  1.00  0.00     0.074 A 
ATOM     51  C   UNL A   1      40.574  28.607  29.009  1.00  0.00     0.049 A 
ATOM     52  N   UNL A   1      43.521  29.838  29.039  1.00  0.00    -0.248 NA
ATOM     53  C   UNL A   1      43.166  29.641  26.754  1.00  0.00     0.031 C 
ATOM     54  C   UNL A   1      39.314  27.865  29.085  1.00  0.00     0.029 A 
ATOM     55  N   UNL A   1      40.309  29.734  29.732  1.00  0.00    -0.354 N 
ATOM     56  C   UNL A   1      44.371  30.718  28.371  1.00  0.00     0.074 A 
ATOM     57  C   UNL A   1      44.185  30.475  26.964  1.00  0.00     0.031 C 
ATOM     58  C   UNL A   1      38.362  28.658  29.626  1.00  0.00     0.029 A 
ATOM     59  C   UNL A   1      38.969  29.912  30.043  1.00  0.00     0.049 A 
ATOM     60  H   UNL A   1      41.011  30.367  30.009  1.00  0.00     0.167 HD
ATOM     61  C   UNL A   1      45.039  31.707  29.030  1.00  0.00     0.037 A 
ATOM     62  C   UNL A   1      38.393  31.029  30.552  1.00  0.00     0.037 A 
ATOM     63  C   UNL A   1      45.126  31.430  30.439  1.00  0.00     0.049 A 
ATOM     64  C   UNL A   1      39.466  31.842  31.176  1.00  0.00     0.074 A 
ATOM     65  C   UNL A   1      45.690  30.416  31.189  1.00  0.00     0.029 A 
ATOM     66  N   UNL A   1      44.287  32.099  31.295  1.00  0.00    -0.354 N 
ATOM     67  N   UNL A   1      40.081  31.512  32.276  1.00  0.00    -0.248 NA
ATOM     68  C   UNL A   1      40.158  32.814  30.340  1.00  0.00     0.031 C 
ATOM     69  C   UNL A   1      44.792  30.221  32.277  1.00  0.00     0.029 A 
ATOM     70  C   UNL A   1      43.771  31.164  32.153  1.00  0.00     0.049 A 
ATOM     71  H   UNL A   1      44.094  33.064  31.292  1.00  0.00     0.167 HD
ATOM     72  C   UNL A   1      41.400  31.877  32.059  1.00  0.00     0.074 A 
ATOM     73  C   UNL A   1      41.370  32.760  30.897  1.00  0.00     0.031 C 
ATOM     74  C   UNL A   1      42.424  31.206  32.662  1.00  0.00     0.037 A 
BRANCH  61  75
ATOM     75  C   UNL A   1      45.327  33.075  28.463  1.00  0.00     0.064 A 
ATOM     76  C   UNL A   1      44.252  33.895  28.057  1.00  0.00     0.173 A 
ATOM     77  C   UNL A   1      46.601  33.480  28.012  1.00  0.00     0.173 A 
ATOM     78  F   UNL A   1      42.993  33.602  28.418  1.00  0.00    -0.203 F 
ATOM     79  C   UNL A   1      44.432  34.976  27.190  1.00  0.00     0.198 A 
ATOM     80  C   UNL A   1      46.783  34.591  27.190  1.00  0.00     0.198 A 
ATOM     81  F   UNL A   1      47.702  32.759  28.252  1.00  0.00    -0.203 F 
ATOM     82  F   UNL A   1      43.365  35.640  26.726  1.00  0.00    -0.200 F 
ATOM     83  C   UNL A   1      45.696  35.316  26.750  1.00  0.00     0.200 A 
ATOM     84  F   UNL A   1      48.016  34.896  26.761  1.00  0.00    -0.200 F 
ATOM     85  F   UNL A   1      45.865  36.309  25.865  1.00  0.00    -0.200 F 
ENDBRANCH  61  75
BRANCH  62  86
ATOM     86  C   UNL A   1      37.023  31.557  30.333  1.00  0.00     0.064 A 
ATOM     87  C   UNL A   1      36.144  31.775  31.408  1.00  0.00     0.173 A 
ATOM     88  C   UNL A   1      36.637  32.106  29.093  1.00  0.00     0.173 A 
ATOM     89  F   UNL A   1      36.451  31.330  32.634  1.00  0.00    -0.203 F 
ATOM     90  C   UNL A   1      34.967  32.517  31.256  1.00  0.00     0.198 A 
ATOM     91  C   UNL A   1      35.457  32.834  28.941  1.00  0.00     0.198 A 
ATOM     92  F   UNL A   1      37.443  32.030  28.024  1.00  0.00    -0.203 F 
ATOM     93  F   UNL A   1      34.187  32.759  32.318  1.00  0.00    -0.200 F 
ATOM     94  C   UNL A   1      34.629  33.053  30.025  1.00  0.00     0.200 A 
ATOM     95  F   UNL A   1      35.161  33.377  27.751  1.00  0.00    -0.200 F 
ATOM     96  F   UNL A   1      33.533  33.812  29.891  1.00  0.00    -0.200 F 
ENDBRANCH  62  86
BRANCH  74  97
ATOM     97  C   UNL A   1      42.091  30.230  33.753  1.00  0.00     0.064 A 
ATOM     98  C   UNL A   1      41.689  28.905  33.518  1.00  0.00     0.173 A 
ATOM     99  C   UNL A   1      42.370  30.595  35.077  1.00  0.00     0.173 A 
ATOM    100  F   UNL A   1      41.504  28.448  32.272  1.00  0.00    -0.203 F 
ATOM    101  C   UNL A   1      41.541  27.998  34.566  1.00  0.00     0.198 A 
ATOM    102  C   UNL A   1      42.259  29.678  36.117  1.00  0.00     0.198 A 
ATOM    103  F   UNL A   1      42.813  31.832  35.355  1.00  0.00    -0.203 F 
ATOM    104  F   UNL A   1      41.155  26.738  34.316  1.00  0.00    -0.200 F 
ATOM    105  C   UNL A   1      41.837  28.382  35.862  1.00  0.00     0.200 A 
ATOM    106  F   UNL A   1      42.598  30.039  37.363  1.00  0.00    -0.200 F 
ATOM    107  F   UNL A   1      41.749  27.495  36.864  1.00  0.00    -0.200 F 
ENDBRANCH  74  97
ENDBRANCH  48  49
ENDBRANCH  40  43
ENDBRANCH  38  39
ENDBRANCH  37  38
ENDBRANCH  36  37
ENDBRANCH  35  36
ENDBRANCH   1  35
TORSDOF 18
ENDMDL
MODEL 3
REMARK VINA RESULT:     -12.4      2.827      8.940
REMARK SMILES Cc1cc(C)c(S(=O)(=O)n2cc([C@@H](C)[C@@H]([NH3+])C(=O)NCCCCCCNC(=O)c3ccc(-c4c5nc(c(-c6c(F)c(F)c(F)c(F)c6F)c6ccc([nH]6)c(-c6c(F)c(F)c(F)c(F)c6F)c6nc(c(-c7c(F)c(F)c(F)c(F)c7F)c7ccc4[nH]7)C=C6)C=C5)cc3)c3ccccc32)c(C)c1
REMARK SMILES IDX 21 1 20 2 19 3 17 4 18 5 15 7 13 8 14 9 12 10 10 11 11 12
REMARK SMILES IDX 97 13 92 14 96 15 93 16 95 17 94 18 7 19 8 20 9 21 6 22 1 23
REMARK SMILES IDX 2 24 3 25 100 26 4 27 98 28 5 29 99 30 16 31 22 35 23 36
REMARK SMILES IDX 24 37 25 38 26 39 27 40 28 42 29 43 30 44 91 45 31 46 90 47
REMARK SMILES IDX 32 48 33 49 34 50 84 51 35 52 89 53 83 54 85 55 36 56 88 57
REMARK SMILES IDX 82 58 81 59 37 61 69 62 49 63 68 64 50 65 53 66 67 67 86 68
REMARK SMILES IDX 51 69 52 70 66 72 87 73 54 74 38 75 39 76 47 77 40 78 41 79
REMARK SMILES IDX 45 80 48 81 42 82 43 83 46 84 44 85 70 86 71 87 79 88 72 89
REMARK SMILES IDX 73 90 77 91 80 92 74 93 75 94 78 95 76 96 55 97 56 98 64 99
REMARK SMILES IDX 57 100 58 101 62 102 65 103 59 104 60 105 63 106 61 107
REMARK H PARENT 19 6 16 32 16 33 16 34 26 41 85 60 53 71
REMARK Flexibility Score: inf
ROOT
ATOM      1  C   UNL A   1      33.997  28.940  25.936  1.00  0.00     0.021 C 
ENDROOT
BRANCH   1   2
ATOM      2  C   UNL A   1      32.634  28.260  26.075  1.00  0.00     0.116 C 
BRANCH   2   3
ATOM      3  N   UNL A   1      31.576  29.165  25.664  1.00  0.00    -0.351 N 
ATOM      4  C   UNL A   1      31.116  29.457  24.415  1.00  0.00     0.278 C 
ATOM      5  O   UNL A   1      30.237  30.317  24.307  1.00  0.00    -0.268 OA
ATOM      6  H   UNL A   1      31.122  29.639  26.398  1.00  0.00     0.163 HD
BRANCH   4   7
ATOM      7  C   UNL A   1      31.655  28.727  23.168  1.00  0.00     0.278 C 
BRANCH   7   8
ATOM      8  C   UNL A   1      30.900  27.405  22.865  1.00  0.00     0.086 C 
ATOM      9  C   UNL A   1      29.403  27.490  23.186  1.00  0.00     0.020 C 
BRANCH   8  10
ATOM     10  C   UNL A   1      31.547  26.218  23.547  1.00  0.00    -0.012 A 
ATOM     11  N   UNL A   1      33.043  24.647  24.048  1.00  0.00    -0.241 N 
ATOM     12  C   UNL A   1      32.770  25.683  23.196  1.00  0.00     0.109 A 
ATOM     13  C   UNL A   1      32.074  24.539  25.024  1.00  0.00     0.064 A 
ATOM     14  C   UNL A   1      31.079  25.467  24.678  1.00  0.00     0.004 A 
ATOM     15  C   UNL A   1      31.940  23.685  26.133  1.00  0.00     0.028 A 
ATOM     16  C   UNL A   1      29.895  25.500  25.445  1.00  0.00     0.010 A 
ATOM     17  C   UNL A   1      30.751  23.738  26.865  1.00  0.00     0.002 A 
ATOM     18  C   UNL A   1      29.736  24.623  26.520  1.00  0.00     0.001 A 
BRANCH  11  19
ATOM     19  S   UNL A   1      34.389  23.635  23.862  1.00  0.00     0.268 S 
ATOM     20  O   UNL A   1      35.245  23.976  24.983  1.00  0.00    -0.201 OA
ATOM     21  O   UNL A   1      34.825  23.833  22.488  1.00  0.00    -0.201 OA
BRANCH  19  22
ATOM     22  C   UNL A   1      33.958  21.899  24.016  1.00  0.00     0.094 A 
ATOM     23  C   UNL A   1      33.052  17.758  24.926  1.00  0.00     0.044 C 
ATOM     24  C   UNL A   1      33.374  19.183  24.596  1.00  0.00    -0.051 A 
ATOM     25  C   UNL A   1      34.570  19.752  25.020  1.00  0.00     0.008 A 
ATOM     26  C   UNL A   1      32.504  19.957  23.833  1.00  0.00     0.008 A 
ATOM     27  C   UNL A   1      34.883  21.097  24.743  1.00  0.00    -0.030 A 
ATOM     28  C   UNL A   1      32.790  21.298  23.491  1.00  0.00    -0.030 A 
ATOM     29  C   UNL A   1      36.238  21.551  25.236  1.00  0.00     0.046 C 
ATOM     30  C   UNL A   1      31.778  21.921  22.574  1.00  0.00     0.046 C 
ENDBRANCH  19  22
ENDBRANCH  11  19
ENDBRANCH   8  10
ENDBRANCH   7   8
BRANCH   7  31
ATOM     31  N   UNL A   1      31.677  29.686  22.029  1.00  0.00    -0.347 N 
ATOM     32  H   UNL A   1      31.185  30.539  22.293  1.00  0.00     0.345 HD
ATOM     33  H   UNL A   1      31.219  29.264  21.222  1.00  0.00     0.345 HD
ATOM     34  H   UNL A   1      32.643  29.910  21.793  1.00  0.00     0.345 HD
ENDBRANCH   7  31
ENDBRANCH   4   7
ENDBRANCH   2   3
ENDBRANCH   1   2
BRANCH   1  35
ATOM     35  C   UNL A   1      34.803  28.968  27.240  1.00  0.00     0.002 C 
BRANCH  35  36
ATOM     36  C   UNL A   1      35.409  30.331  27.588  1.00  0.00     0.002 C 
BRANCH  36  37
ATOM     37  C   UNL A   1      34.418  31.501  27.576  1.00  0.00     0.021 C 
BRANCH  37  38
ATOM     38  C   UNL A   1      34.904  32.739  28.333  1.00  0.00     0.116 C 
BRANCH  38  39
ATOM     39  N   UNL A   1      34.605  32.700  29.749  1.00  0.00    -0.352 N 
ATOM     40  C   UNL A   1      35.263  32.258  30.861  1.00  0.00     0.251 C 
ATOM     41  H   UNL A   1      33.722  33.082  29.959  1.00  0.00     0.163 HD
ATOM     42  O   UNL A   1      34.705  32.466  31.942  1.00  0.00    -0.269 OA
BRANCH  40  43
ATOM     43  C   UNL A   1      36.549  31.508  30.856  1.00  0.00     0.039 A 
ATOM     44  C   UNL A   1      37.819  32.064  30.706  1.00  0.00     0.014 A 
ATOM     45  C   UNL A   1      36.442  30.109  30.974  1.00  0.00     0.014 A 
ATOM     46  C   UNL A   1      38.938  31.246  30.582  1.00  0.00     0.010 A 
ATOM     47  C   UNL A   1      37.558  29.286  30.875  1.00  0.00     0.010 A 
ATOM     48  C   UNL A   1      38.803  29.857  30.634  1.00  0.00    -0.014 A 
BRANCH  48  49
ATOM     49  C   UNL A   1      40.017  29.052  30.544  1.00  0.00     0.031 A 
ATOM     50  C   UNL A   1      40.763  28.886  31.825  1.00  0.00     0.074 A 
ATOM     51  C   UNL A   1      40.406  28.415  29.423  1.00  0.00     0.049 A 
ATOM     52  N   UNL A   1      41.987  29.214  32.081  1.00  0.00    -0.248 NA
ATOM     53  C   UNL A   1      40.025  28.374  32.990  1.00  0.00     0.031 C 
ATOM     54  C   UNL A   1      39.673  28.264  28.165  1.00  0.00     0.029 A 
ATOM     55  N   UNL A   1      41.533  27.675  29.212  1.00  0.00    -0.354 N 
ATOM     56  C   UNL A   1      42.230  28.824  33.397  1.00  0.00     0.074 A 
ATOM     57  C   UNL A   1      40.961  28.415  33.940  1.00  0.00     0.031 C 
ATOM     58  C   UNL A   1      40.271  27.312  27.413  1.00  0.00     0.029 A 
ATOM     59  C   UNL A   1      41.488  26.876  28.078  1.00  0.00     0.049 A 
ATOM     60  H   UNL A   1      42.312  27.706  29.814  1.00  0.00     0.167 HD
ATOM     61  C   UNL A   1      43.496  28.702  33.886  1.00  0.00     0.037 A 
ATOM     62  C   UNL A   1      42.356  25.889  27.744  1.00  0.00     0.037 A 
ATOM     63  C   UNL A   1      44.438  29.440  33.089  1.00  0.00     0.049 A 
ATOM     64  C   UNL A   1      43.611  26.119  28.501  1.00  0.00     0.074 A 
ATOM     65  C   UNL A   1      44.588  30.775  32.761  1.00  0.00     0.029 A 
ATOM     66  N   UNL A   1      45.236  28.753  32.208  1.00  0.00    -0.354 N 
ATOM     67  N   UNL A   1      44.438  27.096  28.257  1.00  0.00    -0.248 NA
ATOM     68  C   UNL A   1      43.731  25.512  29.820  1.00  0.00     0.031 C 
ATOM     69  C   UNL A   1      45.049  30.773  31.414  1.00  0.00     0.029 A 
ATOM     70  C   UNL A   1      45.204  29.442  31.025  1.00  0.00     0.049 A 
ATOM     71  H   UNL A   1      45.736  27.925  32.393  1.00  0.00     0.167 HD
ATOM     72  C   UNL A   1      44.862  27.512  29.508  1.00  0.00     0.074 A 
ATOM     73  C   UNL A   1      44.475  26.443  30.423  1.00  0.00     0.031 C 
ATOM     74  C   UNL A   1      45.230  28.807  29.732  1.00  0.00     0.037 A 
BRANCH  61  75
ATOM     75  C   UNL A   1      43.935  27.660  34.885  1.00  0.00     0.064 A 
ATOM     76  C   UNL A   1      43.745  26.294  34.586  1.00  0.00     0.173 A 
ATOM     77  C   UNL A   1      44.234  27.950  36.233  1.00  0.00     0.173 A 
ATOM     78  F   UNL A   1      43.445  25.901  33.338  1.00  0.00    -0.203 F 
ATOM     79  C   UNL A   1      43.759  25.311  35.579  1.00  0.00     0.198 A 
ATOM     80  C   UNL A   1      44.300  26.959  37.211  1.00  0.00     0.198 A 
ATOM     81  F   UNL A   1      44.363  29.204  36.679  1.00  0.00    -0.203 F 
ATOM     82  F   UNL A   1      43.439  24.047  35.268  1.00  0.00    -0.200 F 
ATOM     83  C   UNL A   1      44.027  25.646  36.892  1.00  0.00     0.200 A 
ATOM     84  F   UNL A   1      44.546  27.305  38.483  1.00  0.00    -0.200 F 
ATOM     85  F   UNL A   1      43.973  24.717  37.856  1.00  0.00    -0.200 F 
ENDBRANCH  61  75
BRANCH  62  86
ATOM     86  C   UNL A   1      42.098  24.632  26.998  1.00  0.00     0.064 A 
ATOM     87  C   UNL A   1      42.975  24.187  25.993  1.00  0.00     0.173 A 
ATOM     88  C   UNL A   1      41.130  23.705  27.432  1.00  0.00     0.173 A 
ATOM     89  F   UNL A   1      43.958  24.984  25.550  1.00  0.00    -0.203 F 
ATOM     90  C   UNL A   1      42.902  22.888  25.475  1.00  0.00     0.198 A 
ATOM     91  C   UNL A   1      41.050  22.416  26.906  1.00  0.00     0.198 A 
ATOM     92  F   UNL A   1      40.301  23.997  28.444  1.00  0.00    -0.203 F 
ATOM     93  F   UNL A   1      43.796  22.480  24.564  1.00  0.00    -0.200 F 
ATOM     94  C   UNL A   1      41.944  22.002  25.938  1.00  0.00     0.200 A 
ATOM     95  F   UNL A   1      40.141  21.556  27.390  1.00  0.00    -0.200 F 
ATOM     96  F   UNL A   1      41.910  20.741  25.485  1.00  0.00    -0.200 F 
ENDBRANCH  62  86
BRANCH  74  97
ATOM     97  C   UNL A   1      45.405  29.712  28.547  1.00  0.00     0.064 A 
ATOM     98  C   UNL A   1      44.346  30.389  27.919  1.00  0.00     0.173 A 
ATOM     99  C   UNL A   1      46.709  30.049  28.155  1.00  0.00     0.173 A 
ATOM    100  F   UNL A   1      43.078  30.201  28.307  1.00  0.00    -0.203 F 
ATOM    101  C   UNL A   1      44.583  31.334  26.922  1.00  0.00     0.198 A 
ATOM    102  C   UNL A   1      46.943  31.020  27.188  1.00  0.00     0.198 A 
ATOM    103  F   UNL A   1      47.762  29.476  28.761  1.00  0.00    -0.203 F 
ATOM    104  F   UNL A   1      43.554  31.966  26.337  1.00  0.00    -0.200 F 
ATOM    105  C   UNL A   1      45.880  31.657  26.566  1.00  0.00     0.200 A 
ATOM    106  F   UNL A   1      48.202  31.368  26.885  1.00  0.00    -0.200 F 
ATOM    107  F   UNL A   1      46.110  32.606  25.647  1.00  0.00    -0.200 F 
ENDBRANCH  74  97
ENDBRANCH  48  49
ENDBRANCH  40  43
ENDBRANCH  38  39
ENDBRANCH  37  38
ENDBRANCH  36  37
ENDBRANCH  35  36
ENDBRANCH   1  35
TORSDOF 18
ENDMDL
