MODEL 1
REMARK VINA RESULT:     -13.1      0.000      0.000
REMARK SMILES COc1ccc(NS(=O)(=O)c2ccc(NC(=O)[C@H]3CCCC[C@@H]3C(=O)NCCCCCCNC(=O)c3ccc(-c4c5nc(c(-c6c(F)c(F)c(F)c(F)c6F)c6ccc([nH]6)c(-c6c(F)c(F)c(F)c(F)c6F)c6nc(c(-c7c(F)c(F)c(F)c(F)c7F)c7ccc4[nH]7)C=C6)C=C5)cc3)cc2)cc1
REMARK SMILES IDX 27 1 26 2 24 3 25 4 23 6 18 7 19 8 20 9 22 10 21 11 16 12
REMARK SMILES IDX 15 13 17 15 14 16 11 17 12 18 100 19 13 20 99 21 8 22 9 23
REMARK SMILES IDX 10 24 7 25 6 27 3 28 4 29 102 30 5 31 101 32 2 33 1 34 28 35
REMARK SMILES IDX 29 36 30 37 31 38 32 39 33 40 34 41 35 43 36 44 37 45 98 46
REMARK SMILES IDX 38 47 97 48 39 49 40 50 41 51 91 52 42 53 96 54 90 55 92 56
REMARK SMILES IDX 43 57 95 58 89 59 88 60 44 62 76 63 56 64 75 65 57 66 60 67
REMARK SMILES IDX 74 68 93 69 58 70 59 71 73 73 94 74 61 75 45 76 46 77 54 78
REMARK SMILES IDX 47 79 48 80 52 81 55 82 49 83 50 84 53 85 51 86 77 87 78 88
REMARK SMILES IDX 86 89 79 90 80 91 84 92 87 93 81 94 82 95 85 96 83 97 62 98
REMARK SMILES IDX 63 99 71 100 64 101 65 102 69 103 72 104 66 105 67 106
REMARK SMILES IDX 70 107 68 108
REMARK H PARENT 26 5 15 14 7 26 33 42 92 61 60 72
REMARK Flexibility Score: inf
ROOT
ATOM      1  C   UNL A   1      32.465  27.492  27.183  1.00  0.00     0.116 C 
ENDROOT
BRANCH   1   2
ATOM      2  N   UNL A   1      31.082  27.304  26.801  1.00  0.00    -0.356 N 
ATOM      3  C   UNL A   1      30.635  26.363  25.911  1.00  0.00     0.223 C 
ATOM      4  O   UNL A   1      29.830  25.527  26.330  1.00  0.00    -0.275 OA
ATOM      5  H   UNL A   1      30.412  27.896  27.212  1.00  0.00     0.163 HD
BRANCH   3   6
ATOM      6  C   UNL A   1      30.838  26.553  24.393  1.00  0.00     0.091 C 
ATOM      7  C   UNL A   1      31.277  27.940  23.884  1.00  0.00     0.091 C 
ATOM      8  C   UNL A   1      30.176  28.926  23.473  1.00  0.00     0.014 C 
ATOM      9  C   UNL A   1      28.784  28.378  23.138  1.00  0.00     0.001 C 
ATOM     10  C   UNL A   1      29.575  25.966  23.753  1.00  0.00     0.014 C 
ATOM     11  C   UNL A   1      28.431  26.965  23.603  1.00  0.00     0.001 C 
BRANCH   7  12
ATOM     12  C   UNL A   1      32.561  27.954  22.990  1.00  0.00     0.228 C 
ATOM     13  N   UNL A   1      33.464  26.953  22.758  1.00  0.00    -0.326 N 
ATOM     14  H   UNL A   1      34.098  27.187  22.042  1.00  0.00     0.169 HD
ATOM     15  O   UNL A   1      32.793  29.002  22.362  1.00  0.00    -0.274 OA
BRANCH  13  16
ATOM     16  C   UNL A   1      33.714  25.677  23.288  1.00  0.00     0.041 A 
ATOM     17  C   UNL A   1      34.163  23.127  24.427  1.00  0.00     0.087 A 
ATOM     18  C   UNL A   1      34.482  24.271  25.132  1.00  0.00     0.024 A 
ATOM     19  C   UNL A   1      33.702  23.240  23.109  1.00  0.00     0.024 A 
ATOM     20  C   UNL A   1      34.260  25.505  24.535  1.00  0.00     0.027 A 
ATOM     21  C   UNL A   1      33.464  24.517  22.548  1.00  0.00     0.027 A 
BRANCH  17  22
ATOM     22  S   UNL A   1      34.415  21.551  25.213  1.00  0.00     0.261 S 
ATOM     23  O   UNL A   1      34.285  21.762  26.642  1.00  0.00    -0.201 OA
ATOM     24  O   UNL A   1      35.621  20.981  24.656  1.00  0.00    -0.201 OA
BRANCH  22  25
ATOM     25  N   UNL A   1      33.098  20.560  24.836  1.00  0.00    -0.280 N 
ATOM     26  H   UNL A   1      32.233  20.977  24.613  1.00  0.00     0.180 HD
BRANCH  25  27
ATOM     27  C   UNL A   1      33.202  19.146  24.832  1.00  0.00     0.049 A 
ATOM     28  C   UNL A   1      33.467  16.373  24.842  1.00  0.00     0.119 A 
ATOM     29  C   UNL A   1      32.706  17.001  25.824  1.00  0.00     0.048 A 
ATOM     30  C   UNL A   1      34.128  17.131  23.874  1.00  0.00     0.048 A 
ATOM     31  C   UNL A   1      32.615  18.390  25.848  1.00  0.00     0.030 A 
ATOM     32  C   UNL A   1      33.995  18.525  23.870  1.00  0.00     0.030 A 
BRANCH  28  33
ATOM     33  O   UNL A   1      33.430  15.008  24.810  1.00  0.00    -0.497 OA
ATOM     34  C   UNL A   1      32.515  14.453  25.751  1.00  0.00     0.278 C 
ENDBRANCH  28  33
ENDBRANCH  25  27
ENDBRANCH  22  25
ENDBRANCH  17  22
ENDBRANCH  13  16
ENDBRANCH   7  12
ENDBRANCH   3   6
ENDBRANCH   1   2
BRANCH   1  35
ATOM     35  C   UNL A   1      33.101  28.759  26.620  1.00  0.00     0.021 C 
BRANCH  35  36
ATOM     36  C   UNL A   1      32.641  30.092  27.212  1.00  0.00     0.002 C 
BRANCH  36  37
ATOM     37  C   UNL A   1      31.482  30.786  26.498  1.00  0.00     0.002 C 
BRANCH  37  38
ATOM     38  C   UNL A   1      31.371  32.298  26.706  1.00  0.00     0.021 C 
BRANCH  38  39
ATOM     39  C   UNL A   1      32.676  33.027  27.011  1.00  0.00     0.116 C 
BRANCH  39  40
ATOM     40  N   UNL A   1      32.466  34.314  27.643  1.00  0.00    -0.352 N 
ATOM     41  C   UNL A   1      33.079  34.854  28.745  1.00  0.00     0.251 C 
ATOM     42  H   UNL A   1      31.783  34.883  27.221  1.00  0.00     0.163 HD
ATOM     43  O   UNL A   1      32.662  35.903  29.225  1.00  0.00    -0.269 OA
BRANCH  41  44
ATOM     44  C   UNL A   1      34.231  34.171  29.375  1.00  0.00     0.039 A 
ATOM     45  C   UNL A   1      35.520  34.548  28.987  1.00  0.00     0.014 A 
ATOM     46  C   UNL A   1      34.054  33.139  30.303  1.00  0.00     0.014 A 
ATOM     47  C   UNL A   1      36.628  33.914  29.549  1.00  0.00     0.010 A 
ATOM     48  C   UNL A   1      35.162  32.553  30.915  1.00  0.00     0.010 A 
ATOM     49  C   UNL A   1      36.459  32.921  30.527  1.00  0.00    -0.014 A 
BRANCH  49  50
ATOM     50  C   UNL A   1      37.640  32.247  31.121  1.00  0.00     0.031 A 
ATOM     51  C   UNL A   1      38.115  32.617  32.498  1.00  0.00     0.074 A 
ATOM     52  C   UNL A   1      38.304  31.317  30.409  1.00  0.00     0.049 A 
ATOM     53  N   UNL A   1      39.094  32.107  33.202  1.00  0.00    -0.248 NA
ATOM     54  C   UNL A   1      37.413  33.725  33.163  1.00  0.00     0.031 C 
ATOM     55  C   UNL A   1      37.990  30.927  29.035  1.00  0.00     0.029 A 
ATOM     56  N   UNL A   1      39.379  30.534  30.742  1.00  0.00    -0.354 N 
ATOM     57  C   UNL A   1      39.130  32.836  34.383  1.00  0.00     0.074 A 
ATOM     58  C   UNL A   1      38.115  33.861  34.278  1.00  0.00     0.031 C 
ATOM     59  C   UNL A   1      38.840  29.963  28.648  1.00  0.00     0.029 A 
ATOM     60  C   UNL A   1      39.763  29.675  29.743  1.00  0.00     0.049 A 
ATOM     61  H   UNL A   1      39.832  30.584  31.615  1.00  0.00     0.167 HD
ATOM     62  C   UNL A   1      39.920  32.650  35.468  1.00  0.00     0.037 A 
ATOM     63  C   UNL A   1      40.740  28.748  29.718  1.00  0.00     0.037 A 
ATOM     64  C   UNL A   1      40.912  31.613  35.579  1.00  0.00     0.049 A 
ATOM     65  C   UNL A   1      41.564  28.516  30.954  1.00  0.00     0.074 A 
ATOM     66  C   UNL A   1      41.716  31.296  36.660  1.00  0.00     0.029 A 
ATOM     67  N   UNL A   1      41.239  30.725  34.563  1.00  0.00    -0.354 N 
ATOM     68  N   UNL A   1      41.524  29.146  32.103  1.00  0.00    -0.248 NA
ATOM     69  C   UNL A   1      42.550  27.429  30.898  1.00  0.00     0.031 C 
ATOM     70  C   UNL A   1      42.554  30.238  36.286  1.00  0.00     0.029 A 
ATOM     71  C   UNL A   1      42.243  29.869  34.987  1.00  0.00     0.049 A 
ATOM     72  H   UNL A   1      40.818  30.706  33.674  1.00  0.00     0.167 HD
ATOM     73  C   UNL A   1      42.463  28.523  32.913  1.00  0.00     0.074 A 
ATOM     74  C   UNL A   1      43.044  27.452  32.128  1.00  0.00     0.031 C 
ATOM     75  C   UNL A   1      42.812  28.811  34.191  1.00  0.00     0.037 A 
BRANCH  62  76
ATOM     76  C   UNL A   1      39.732  33.590  36.624  1.00  0.00     0.064 A 
ATOM     77  C   UNL A   1      38.856  33.292  37.679  1.00  0.00     0.173 A 
ATOM     78  C   UNL A   1      40.437  34.802  36.680  1.00  0.00     0.173 A 
ATOM     79  F   UNL A   1      38.147  32.153  37.667  1.00  0.00    -0.203 F 
ATOM     80  C   UNL A   1      38.663  34.189  38.726  1.00  0.00     0.198 A 
ATOM     81  C   UNL A   1      40.263  35.683  37.744  1.00  0.00     0.198 A 
ATOM     82  F   UNL A   1      41.291  35.135  35.700  1.00  0.00    -0.203 F 
ATOM     83  F   UNL A   1      37.774  33.909  39.691  1.00  0.00    -0.200 F 
ATOM     84  C   UNL A   1      39.369  35.382  38.761  1.00  0.00     0.200 A 
ATOM     85  F   UNL A   1      40.954  36.831  37.781  1.00  0.00    -0.200 F 
ATOM     86  F   UNL A   1      39.179  36.246  39.767  1.00  0.00    -0.200 F 
ENDBRANCH  62  76
BRANCH  63  87
ATOM     87  C   UNL A   1      40.943  27.938  28.492  1.00  0.00     0.064 A 
ATOM     88  C   UNL A   1      40.245  26.738  28.297  1.00  0.00     0.173 A 
ATOM     89  C   UNL A   1      41.803  28.369  27.473  1.00  0.00     0.173 A 
ATOM     90  F   UNL A   1      39.422  26.279  29.251  1.00  0.00    -0.203 F 
ATOM     91  C   UNL A   1      40.408  25.994  27.130  1.00  0.00     0.198 A 
ATOM     92  C   UNL A   1      41.949  27.635  26.297  1.00  0.00     0.198 A 
ATOM     93  F   UNL A   1      42.486  29.515  27.610  1.00  0.00    -0.203 F 
ATOM     94  F   UNL A   1      39.750  24.837  26.980  1.00  0.00    -0.200 F 
ATOM     95  C   UNL A   1      41.254  26.446  26.128  1.00  0.00     0.200 A 
ATOM     96  F   UNL A   1      42.756  28.084  25.325  1.00  0.00    -0.200 F 
ATOM     97  F   UNL A   1      41.400  25.737  25.002  1.00  0.00    -0.200 F 
ENDBRANCH  63  87
BRANCH  75  98
ATOM     98  C   UNL A   1      43.860  27.946  34.827  1.00  0.00     0.064 A 
ATOM     99  C   UNL A   1      43.525  26.756  35.490  1.00  0.00     0.173 A 
ATOM    100  C   UNL A   1      45.216  28.294  34.741  1.00  0.00     0.173 A 
ATOM    101  F   UNL A   1      42.241  26.388  35.610  1.00  0.00    -0.203 F 
ATOM    102  C   UNL A   1      44.510  25.958  36.066  1.00  0.00     0.198 A 
ATOM    103  C   UNL A   1      46.199  27.480  35.296  1.00  0.00     0.198 A 
ATOM    104  F   UNL A   1      45.587  29.420  34.113  1.00  0.00    -0.203 F 
ATOM    105  F   UNL A   1      44.164  24.848  36.732  1.00  0.00    -0.200 F 
ATOM    106  C   UNL A   1      45.846  26.317  35.964  1.00  0.00     0.200 A 
ATOM    107  F   UNL A   1      47.491  27.823  35.188  1.00  0.00    -0.200 F 
ATOM    108  F   UNL A   1      46.792  25.546  36.515  1.00  0.00    -0.200 F 
ENDBRANCH  75  98
ENDBRANCH  49  50
ENDBRANCH  41  44
ENDBRANCH  39  40
ENDBRANCH  38  39
ENDBRANCH  37  38
ENDBRANCH  36  37
ENDBRANCH  35  36
ENDBRANCH   1  35
TORSDOF 19
ENDMDL
MODEL 2
REMARK VINA RESULT:     -12.9      1.525      2.614
REMARK SMILES COc1ccc(NS(=O)(=O)c2ccc(NC(=O)[C@H]3CCCC[C@@H]3C(=O)NCCCCCCNC(=O)c3ccc(-c4c5nc(c(-c6c(F)c(F)c(F)c(F)c6F)c6ccc([nH]6)c(-c6c(F)c(F)c(F)c(F)c6F)c6nc(c(-c7c(F)c(F)c(F)c(F)c7F)c7ccc4[nH]7)C=C6)C=C5)cc3)cc2)cc1
REMARK SMILES IDX 27 1 26 2 24 3 25 4 23 6 18 7 19 8 20 9 22 10 21 11 16 12
REMARK SMILES IDX 15 13 17 15 14 16 11 17 12 18 100 19 13 20 99 21 8 22 9 23
REMARK SMILES IDX 10 24 7 25 6 27 3 28 4 29 102 30 5 31 101 32 2 33 1 34 28 35
REMARK SMILES IDX 29 36 30 37 31 38 32 39 33 40 34 41 35 43 36 44 37 45 98 46
REMARK SMILES IDX 38 47 97 48 39 49 40 50 41 51 91 52 42 53 96 54 90 55 92 56
REMARK SMILES IDX 43 57 95 58 89 59 88 60 44 62 76 63 56 64 75 65 57 66 60 67
REMARK SMILES IDX 74 68 93 69 58 70 59 71 73 73 94 74 61 75 45 76 46 77 54 78
REMARK SMILES IDX 47 79 48 80 52 81 55 82 49 83 50 84 53 85 51 86 77 87 78 88
REMARK SMILES IDX 86 89 79 90 80 91 84 92 87 93 81 94 82 95 85 96 83 97 62 98
REMARK SMILES IDX 63 99 71 100 64 101 65 102 69 103 72 104 66 105 67 106
REMARK SMILES IDX 70 107 68 108
REMARK H PARENT 26 5 15 14 7 26 33 42 92 61 60 72
REMARK Flexibility Score: inf
ROOT
ATOM      1  C   UNL A   1      32.485  27.514  27.269  1.00  0.00     0.116 C 
ENDROOT
BRANCH   1   2
ATOM      2  N   UNL A   1      31.099  27.342  26.892  1.00  0.00    -0.356 N 
ATOM      3  C   UNL A   1      30.635  26.392  26.020  1.00  0.00     0.223 C 
ATOM      4  O   UNL A   1      29.817  25.576  26.455  1.00  0.00    -0.275 OA
ATOM      5  H   UNL A   1      30.439  27.952  27.292  1.00  0.00     0.163 HD
BRANCH   3   6
ATOM      6  C   UNL A   1      30.839  26.551  24.498  1.00  0.00     0.091 C 
ATOM      7  C   UNL A   1      31.299  27.921  23.963  1.00  0.00     0.091 C 
ATOM      8  C   UNL A   1      30.213  28.916  23.535  1.00  0.00     0.014 C 
ATOM      9  C   UNL A   1      28.812  28.385  23.212  1.00  0.00     0.001 C 
ATOM     10  C   UNL A   1      29.567  25.972  23.870  1.00  0.00     0.014 C 
ATOM     11  C   UNL A   1      28.437  26.986  23.703  1.00  0.00     0.001 C 
BRANCH   7  12
ATOM     12  C   UNL A   1      32.582  27.899  23.068  1.00  0.00     0.228 C 
ATOM     13  N   UNL A   1      33.479  26.886  22.868  1.00  0.00    -0.326 N 
ATOM     14  H   UNL A   1      34.113  27.093  22.144  1.00  0.00     0.169 HD
ATOM     15  O   UNL A   1      32.819  28.925  22.405  1.00  0.00    -0.274 OA
BRANCH  13  16
ATOM     16  C   UNL A   1      33.724  25.627  23.440  1.00  0.00     0.041 A 
ATOM     17  C   UNL A   1      34.159  23.113  24.661  1.00  0.00     0.087 A 
ATOM     18  C   UNL A   1      34.463  24.279  25.337  1.00  0.00     0.024 A 
ATOM     19  C   UNL A   1      33.721  23.186  23.333  1.00  0.00     0.024 A 
ATOM     20  C   UNL A   1      34.249  25.494  24.700  1.00  0.00     0.027 A 
ATOM     21  C   UNL A   1      33.489  24.445  22.730  1.00  0.00     0.027 A 
BRANCH  17  22
ATOM     22  S   UNL A   1      34.401  21.562  25.497  1.00  0.00     0.261 S 
ATOM     23  O   UNL A   1      33.205  20.772  25.283  1.00  0.00    -0.201 OA
ATOM     24  O   UNL A   1      34.860  21.862  26.835  1.00  0.00    -0.201 OA
BRANCH  22  25
ATOM     25  N   UNL A   1      35.600  20.702  24.671  1.00  0.00    -0.280 N 
ATOM     26  H   UNL A   1      35.350  20.176  23.876  1.00  0.00     0.180 HD
BRANCH  25  27
ATOM     27  C   UNL A   1      36.954  20.714  25.091  1.00  0.00     0.049 A 
ATOM     28  C   UNL A   1      39.632  20.730  25.859  1.00  0.00     0.119 A 
ATOM     29  C   UNL A   1      38.908  21.919  25.843  1.00  0.00     0.048 A 
ATOM     30  C   UNL A   1      39.031  19.536  25.455  1.00  0.00     0.048 A 
ATOM     31  C   UNL A   1      37.584  21.918  25.412  1.00  0.00     0.030 A 
ATOM     32  C   UNL A   1      37.685  19.530  25.069  1.00  0.00     0.030 A 
BRANCH  28  33
ATOM     33  O   UNL A   1      40.889  20.779  26.391  1.00  0.00    -0.497 OA
ATOM     34  C   UNL A   1      41.448  22.090  26.381  1.00  0.00     0.278 C 
ENDBRANCH  28  33
ENDBRANCH  25  27
ENDBRANCH  22  25
ENDBRANCH  17  22
ENDBRANCH  13  16
ENDBRANCH   7  12
ENDBRANCH   3   6
ENDBRANCH   1   2
BRANCH   1  35
ATOM     35  C   UNL A   1      33.132  28.777  26.708  1.00  0.00     0.021 C 
BRANCH  35  36
ATOM     36  C   UNL A   1      32.632  30.116  27.251  1.00  0.00     0.002 C 
BRANCH  36  37
ATOM     37  C   UNL A   1      31.532  30.806  26.446  1.00  0.00     0.002 C 
BRANCH  37  38
ATOM     38  C   UNL A   1      31.377  32.312  26.668  1.00  0.00     0.021 C 
BRANCH  38  39
ATOM     39  C   UNL A   1      32.661  33.076  26.975  1.00  0.00     0.116 C 
BRANCH  39  40
ATOM     40  N   UNL A   1      32.417  34.341  27.637  1.00  0.00    -0.352 N 
ATOM     41  C   UNL A   1      33.013  34.871  28.754  1.00  0.00     0.251 C 
ATOM     42  H   UNL A   1      31.721  34.903  27.226  1.00  0.00     0.163 HD
ATOM     43  O   UNL A   1      32.568  35.898  29.257  1.00  0.00    -0.269 OA
BRANCH  41  44
ATOM     44  C   UNL A   1      34.180  34.203  29.371  1.00  0.00     0.039 A 
ATOM     45  C   UNL A   1      35.457  34.537  28.910  1.00  0.00     0.014 A 
ATOM     46  C   UNL A   1      34.027  33.225  30.360  1.00  0.00     0.014 A 
ATOM     47  C   UNL A   1      36.578  33.915  29.459  1.00  0.00     0.010 A 
ATOM     48  C   UNL A   1      35.152  32.653  30.955  1.00  0.00     0.010 A 
ATOM     49  C   UNL A   1      36.436  32.978  30.495  1.00  0.00    -0.014 A 
BRANCH  49  50
ATOM     50  C   UNL A   1      37.632  32.317  31.074  1.00  0.00     0.031 A 
ATOM     51  C   UNL A   1      38.120  32.694  32.445  1.00  0.00     0.074 A 
ATOM     52  C   UNL A   1      38.295  31.392  30.356  1.00  0.00     0.049 A 
ATOM     53  N   UNL A   1      39.113  32.194  33.137  1.00  0.00    -0.248 NA
ATOM     54  C   UNL A   1      37.416  33.796  33.117  1.00  0.00     0.031 C 
ATOM     55  C   UNL A   1      37.967  30.996  28.986  1.00  0.00     0.029 A 
ATOM     56  N   UNL A   1      39.382  30.620  30.676  1.00  0.00    -0.354 N 
ATOM     57  C   UNL A   1      39.158  32.925  34.316  1.00  0.00     0.074 A 
ATOM     58  C   UNL A   1      38.131  33.940  34.223  1.00  0.00     0.031 C 
ATOM     59  C   UNL A   1      38.822  30.040  28.590  1.00  0.00     0.029 A 
ATOM     60  C   UNL A   1      39.761  29.763  29.674  1.00  0.00     0.049 A 
ATOM     61  H   UNL A   1      39.846  30.675  31.543  1.00  0.00     0.167 HD
ATOM     62  C   UNL A   1      39.963  32.749  35.392  1.00  0.00     0.037 A 
ATOM     63  C   UNL A   1      40.746  28.845  29.638  1.00  0.00     0.037 A 
ATOM     64  C   UNL A   1      40.967  31.722  35.491  1.00  0.00     0.049 A 
ATOM     65  C   UNL A   1      41.588  28.623  30.863  1.00  0.00     0.074 A 
ATOM     66  C   UNL A   1      41.787  31.414  36.562  1.00  0.00     0.029 A 
ATOM     67  N   UNL A   1      41.289  30.835  34.473  1.00  0.00    -0.354 N 
ATOM     68  N   UNL A   1      41.558  29.255  32.012  1.00  0.00    -0.248 NA
ATOM     69  C   UNL A   1      42.584  27.546  30.796  1.00  0.00     0.031 C 
ATOM     70  C   UNL A   1      42.631  30.364  36.179  1.00  0.00     0.029 A 
ATOM     71  C   UNL A   1      42.306  29.989  34.884  1.00  0.00     0.049 A 
ATOM     72  H   UNL A   1      40.857  30.811  33.589  1.00  0.00     0.167 HD
ATOM     73  C   UNL A   1      42.513  28.642  32.810  1.00  0.00     0.074 A 
ATOM     74  C   UNL A   1      43.094  27.576  32.020  1.00  0.00     0.031 C 
ATOM     75  C   UNL A   1      42.875  28.936  34.084  1.00  0.00     0.037 A 
BRANCH  62  76
ATOM     76  C   UNL A   1      39.781  33.689  36.548  1.00  0.00     0.064 A 
ATOM     77  C   UNL A   1      40.444  34.924  36.604  1.00  0.00     0.173 A 
ATOM     78  C   UNL A   1      38.930  33.354  37.612  1.00  0.00     0.173 A 
ATOM     79  F   UNL A   1      41.279  35.287  35.618  1.00  0.00    -0.203 F 
ATOM     80  C   UNL A   1      40.294  35.771  37.699  1.00  0.00     0.198 A 
ATOM     81  C   UNL A   1      38.759  34.216  38.693  1.00  0.00     0.198 A 
ATOM     82  F   UNL A   1      38.267  32.187  37.608  1.00  0.00    -0.203 F 
ATOM     83  F   UNL A   1      40.987  36.917  37.758  1.00  0.00    -0.200 F 
ATOM     84  C   UNL A   1      39.449  35.418  38.741  1.00  0.00     0.200 A 
ATOM     85  F   UNL A   1      37.935  33.879  39.694  1.00  0.00    -0.200 F 
ATOM     86  F   UNL A   1      39.310  36.232  39.796  1.00  0.00    -0.200 F 
ENDBRANCH  62  76
BRANCH  63  87
ATOM     87  C   UNL A   1      40.941  28.035  28.410  1.00  0.00     0.064 A 
ATOM     88  C   UNL A   1      41.900  28.395  27.453  1.00  0.00     0.173 A 
ATOM     89  C   UNL A   1      40.206  26.861  28.192  1.00  0.00     0.173 A 
ATOM     90  F   UNL A   1      42.615  29.518  27.613  1.00  0.00    -0.203 F 
ATOM     91  C   UNL A   1      42.108  27.616  26.317  1.00  0.00     0.198 A 
ATOM     92  C   UNL A   1      40.431  26.071  27.066  1.00  0.00     0.198 A 
ATOM     93  F   UNL A   1      39.285  26.470  29.084  1.00  0.00    -0.203 F 
ATOM     94  F   UNL A   1      43.012  27.997  25.404  1.00  0.00    -0.200 F 
ATOM     95  C   UNL A   1      41.380  26.451  26.128  1.00  0.00     0.200 A 
ATOM     96  F   UNL A   1      39.736  24.938  26.896  1.00  0.00    -0.200 F 
ATOM     97  F   UNL A   1      41.591  25.695  25.043  1.00  0.00    -0.200 F 
ENDBRANCH  63  87
BRANCH  75  98
ATOM     98  C   UNL A   1      43.939  28.082  34.707  1.00  0.00     0.064 A 
ATOM     99  C   UNL A   1      43.625  26.889  35.374  1.00  0.00     0.173 A 
ATOM    100  C   UNL A   1      45.291  28.445  34.606  1.00  0.00     0.173 A 
ATOM    101  F   UNL A   1      42.346  26.506  35.507  1.00  0.00    -0.203 F 
ATOM    102  C   UNL A   1      44.625  26.101  35.938  1.00  0.00     0.198 A 
ATOM    103  C   UNL A   1      46.289  27.642  35.150  1.00  0.00     0.198 A 
ATOM    104  F   UNL A   1      45.642  29.574  33.974  1.00  0.00    -0.203 F 
ATOM    105  F   UNL A   1      44.299  24.987  36.608  1.00  0.00    -0.200 F 
ATOM    106  C   UNL A   1      45.956  26.474  35.821  1.00  0.00     0.200 A 
ATOM    107  F   UNL A   1      47.575  27.998  35.027  1.00  0.00    -0.200 F 
ATOM    108  F   UNL A   1      46.917  25.713  36.361  1.00  0.00    -0.200 F 
ENDBRANCH  75  98
ENDBRANCH  49  50
ENDBRANCH  41  44
ENDBRANCH  39  40
ENDBRANCH  38  39
ENDBRANCH  37  38
ENDBRANCH  36  37
ENDBRANCH  35  36
ENDBRANCH   1  35
TORSDOF 19
ENDMDL
MODEL 3
REMARK VINA RESULT:     -12.8      1.626      7.264
REMARK SMILES COc1ccc(NS(=O)(=O)c2ccc(NC(=O)[C@H]3CCCC[C@@H]3C(=O)NCCCCCCNC(=O)c3ccc(-c4c5nc(c(-c6c(F)c(F)c(F)c(F)c6F)c6ccc([nH]6)c(-c6c(F)c(F)c(F)c(F)c6F)c6nc(c(-c7c(F)c(F)c(F)c(F)c7F)c7ccc4[nH]7)C=C6)C=C5)cc3)cc2)cc1
REMARK SMILES IDX 27 1 26 2 24 3 25 4 23 6 18 7 19 8 20 9 22 10 21 11 16 12
REMARK SMILES IDX 15 13 17 15 14 16 11 17 12 18 100 19 13 20 99 21 8 22 9 23
REMARK SMILES IDX 10 24 7 25 6 27 3 28 4 29 102 30 5 31 101 32 2 33 1 34 28 35
REMARK SMILES IDX 29 36 30 37 31 38 32 39 33 40 34 41 35 43 36 44 37 45 98 46
REMARK SMILES IDX 38 47 97 48 39 49 40 50 41 51 91 52 42 53 96 54 90 55 92 56
REMARK SMILES IDX 43 57 95 58 89 59 88 60 44 62 76 63 56 64 75 65 57 66 60 67
REMARK SMILES IDX 74 68 93 69 58 70 59 71 73 73 94 74 61 75 45 76 46 77 54 78
REMARK SMILES IDX 47 79 48 80 52 81 55 82 49 83 50 84 53 85 51 86 77 87 78 88
REMARK SMILES IDX 86 89 79 90 80 91 84 92 87 93 81 94 82 95 85 96 83 97 62 98
REMARK SMILES IDX 63 99 71 100 64 101 65 102 69 103 72 104 66 105 67 106
REMARK SMILES IDX 70 107 68 108
REMARK H PARENT 26 5 15 14 7 26 33 42 92 61 60 72
REMARK Flexibility Score: inf
ROOT
ATOM      1  C   UNL A   1      32.414  27.543  27.266  1.00  0.00     0.116 C 
ENDROOT
BRANCH   1   2
ATOM      2  N   UNL A   1      31.034  27.324  26.889  1.00  0.00    -0.356 N 
ATOM      3  C   UNL A   1      30.601  26.350  26.028  1.00  0.00     0.223 C 
ATOM      4  O   UNL A   1      29.808  25.516  26.471  1.00  0.00    -0.275 OA
ATOM      5  H   UNL A   1      30.355  27.919  27.281  1.00  0.00     0.163 HD
BRANCH   3   6
ATOM      6  C   UNL A   1      30.804  26.497  24.505  1.00  0.00     0.091 C 
ATOM      7  C   UNL A   1      31.241  27.870  23.956  1.00  0.00     0.091 C 
ATOM      8  C   UNL A   1      30.139  28.842  23.518  1.00  0.00     0.014 C 
ATOM      9  C   UNL A   1      28.748  28.284  23.200  1.00  0.00     0.001 C 
ATOM     10  C   UNL A   1      29.541  25.891  23.882  1.00  0.00     0.014 C 
ATOM     11  C   UNL A   1      28.395  26.884  23.704  1.00  0.00     0.001 C 
BRANCH   7  12
ATOM     12  C   UNL A   1      32.525  27.859  23.061  1.00  0.00     0.228 C 
ATOM     13  N   UNL A   1      33.428  26.853  22.857  1.00  0.00    -0.326 N 
ATOM     14  H   UNL A   1      34.062  27.068  22.135  1.00  0.00     0.169 HD
ATOM     15  O   UNL A   1      32.756  28.891  22.404  1.00  0.00    -0.274 OA
BRANCH  13  16
ATOM     16  C   UNL A   1      33.680  25.593  23.422  1.00  0.00     0.041 A 
ATOM     17  C   UNL A   1      34.134  23.077  24.634  1.00  0.00     0.087 A 
ATOM     18  C   UNL A   1      34.490  24.240  25.288  1.00  0.00     0.024 A 
ATOM     19  C   UNL A   1      33.631  23.152  23.329  1.00  0.00     0.024 A 
ATOM     20  C   UNL A   1      34.265  25.456  24.656  1.00  0.00     0.027 A 
ATOM     21  C   UNL A   1      33.390  24.412  22.732  1.00  0.00     0.027 A 
BRANCH  17  22
ATOM     22  S   UNL A   1      34.391  21.526  25.465  1.00  0.00     0.261 S 
ATOM     23  O   UNL A   1      33.197  20.730  25.262  1.00  0.00    -0.201 OA
ATOM     24  O   UNL A   1      34.861  21.826  26.799  1.00  0.00    -0.201 OA
BRANCH  22  25
ATOM     25  N   UNL A   1      35.586  20.673  24.626  1.00  0.00    -0.280 N 
ATOM     26  H   UNL A   1      35.331  20.150  23.831  1.00  0.00     0.180 HD
BRANCH  25  27
ATOM     27  C   UNL A   1      36.943  20.688  25.036  1.00  0.00     0.049 A 
ATOM     28  C   UNL A   1      39.627  20.708  25.782  1.00  0.00     0.119 A 
ATOM     29  C   UNL A   1      38.899  21.895  25.779  1.00  0.00     0.048 A 
ATOM     30  C   UNL A   1      39.027  19.515  25.377  1.00  0.00     0.048 A 
ATOM     31  C   UNL A   1      37.571  21.892  25.358  1.00  0.00     0.030 A 
ATOM     32  C   UNL A   1      37.678  19.506  25.001  1.00  0.00     0.030 A 
BRANCH  28  33
ATOM     33  O   UNL A   1      40.888  20.759  26.305  1.00  0.00    -0.497 OA
ATOM     34  C   UNL A   1      41.405  22.084  26.388  1.00  0.00     0.278 C 
ENDBRANCH  28  33
ENDBRANCH  25  27
ENDBRANCH  22  25
ENDBRANCH  17  22
ENDBRANCH  13  16
ENDBRANCH   7  12
ENDBRANCH   3   6
ENDBRANCH   1   2
BRANCH   1  35
ATOM     35  C   UNL A   1      33.050  28.770  26.621  1.00  0.00     0.021 C 
BRANCH  35  36
ATOM     36  C   UNL A   1      32.623  30.139  27.154  1.00  0.00     0.002 C 
BRANCH  36  37
ATOM     37  C   UNL A   1      31.521  30.856  26.378  1.00  0.00     0.002 C 
BRANCH  37  38
ATOM     38  C   UNL A   1      31.400  32.363  26.615  1.00  0.00     0.021 C 
BRANCH  38  39
ATOM     39  C   UNL A   1      32.690  33.084  26.991  1.00  0.00     0.116 C 
BRANCH  39  40
ATOM     40  N   UNL A   1      32.452  34.365  27.626  1.00  0.00    -0.352 N 
ATOM     41  C   UNL A   1      33.036  34.905  28.744  1.00  0.00     0.251 C 
ATOM     42  H   UNL A   1      31.773  34.929  27.193  1.00  0.00     0.163 HD
ATOM     43  O   UNL A   1      32.598  35.948  29.221  1.00  0.00    -0.269 OA
BRANCH  41  44
ATOM     44  C   UNL A   1      34.182  34.231  29.394  1.00  0.00     0.039 A 
ATOM     45  C   UNL A   1      33.921  33.322  30.423  1.00  0.00     0.014 A 
ATOM     46  C   UNL A   1      35.503  34.519  29.033  1.00  0.00     0.014 A 
ATOM     47  C   UNL A   1      34.978  32.680  31.067  1.00  0.00     0.010 A 
ATOM     48  C   UNL A   1      36.556  33.827  29.632  1.00  0.00     0.010 A 
ATOM     49  C   UNL A   1      36.303  32.917  30.669  1.00  0.00    -0.014 A 
BRANCH  49  50
ATOM     50  C   UNL A   1      37.425  32.234  31.360  1.00  0.00     0.031 A 
ATOM     51  C   UNL A   1      38.147  31.095  30.696  1.00  0.00     0.074 A 
ATOM     52  C   UNL A   1      37.780  32.623  32.599  1.00  0.00     0.049 A 
ATOM     53  N   UNL A   1      39.179  30.410  31.119  1.00  0.00    -0.248 NA
ATOM     54  C   UNL A   1      37.624  30.650  29.396  1.00  0.00     0.031 C 
ATOM     55  C   UNL A   1      37.107  33.661  33.380  1.00  0.00     0.029 A 
ATOM     56  N   UNL A   1      38.790  32.189  33.418  1.00  0.00    -0.354 N 
ATOM     57  C   UNL A   1      39.421  29.451  30.144  1.00  0.00     0.074 A 
ATOM     58  C   UNL A   1      38.394  29.604  29.137  1.00  0.00     0.031 C 
ATOM     59  C   UNL A   1      37.737  33.800  34.558  1.00  0.00     0.029 A 
ATOM     60  C   UNL A   1      38.849  32.855  34.617  1.00  0.00     0.049 A 
ATOM     61  H   UNL A   1      39.415  31.470  33.169  1.00  0.00     0.167 HD
ATOM     62  C   UNL A   1      40.425  28.543  30.081  1.00  0.00     0.037 A 
ATOM     63  C   UNL A   1      39.712  32.728  35.642  1.00  0.00     0.037 A 
ATOM     64  C   UNL A   1      41.460  28.410  31.072  1.00  0.00     0.049 A 
ATOM     65  C   UNL A   1      40.854  31.758  35.526  1.00  0.00     0.074 A 
ATOM     66  C   UNL A   1      42.560  27.571  31.069  1.00  0.00     0.029 A 
ATOM     67  N   UNL A   1      41.517  29.139  32.253  1.00  0.00    -0.354 N 
ATOM     68  N   UNL A   1      41.132  30.922  34.554  1.00  0.00    -0.248 NA
ATOM     69  C   UNL A   1      41.816  31.731  36.635  1.00  0.00     0.031 C 
ATOM     70  C   UNL A   1      43.263  27.766  32.264  1.00  0.00     0.029 A 
ATOM     71  C   UNL A   1      42.625  28.758  32.992  1.00  0.00     0.049 A 
ATOM     72  H   UNL A   1      40.866  29.826  32.523  1.00  0.00     0.167 HD
ATOM     73  C   UNL A   1      42.308  30.285  34.924  1.00  0.00     0.074 A 
ATOM     74  C   UNL A   1      42.701  30.843  36.202  1.00  0.00     0.031 C 
ATOM     75  C   UNL A   1      43.000  29.323  34.263  1.00  0.00     0.037 A 
BRANCH  62  76
ATOM     76  C   UNL A   1      40.449  27.628  28.891  1.00  0.00     0.064 A 
ATOM     77  C   UNL A   1      39.677  26.457  28.847  1.00  0.00     0.173 A 
ATOM     78  C   UNL A   1      41.252  27.925  27.779  1.00  0.00     0.173 A 
ATOM     79  F   UNL A   1      38.903  26.120  29.890  1.00  0.00    -0.203 F 
ATOM     80  C   UNL A   1      39.737  25.598  27.753  1.00  0.00     0.198 A 
ATOM     81  C   UNL A   1      41.286  27.079  26.673  1.00  0.00     0.198 A 
ATOM     82  F   UNL A   1      42.007  29.034  27.765  1.00  0.00    -0.203 F 
ATOM     83  F   UNL A   1      39.037  24.455  27.761  1.00  0.00    -0.200 F 
ATOM     84  C   UNL A   1      40.537  25.912  26.665  1.00  0.00     0.200 A 
ATOM     85  F   UNL A   1      42.053  27.388  25.618  1.00  0.00    -0.200 F 
ATOM     86  F   UNL A   1      40.597  25.082  25.614  1.00  0.00    -0.200 F 
ENDBRANCH  62  76
BRANCH  63  87
ATOM     87  C   UNL A   1      39.550  33.589  36.841  1.00  0.00     0.064 A 
ATOM     88  C   UNL A   1      40.146  34.855  36.905  1.00  0.00     0.173 A 
ATOM     89  C   UNL A   1      38.760  33.181  37.924  1.00  0.00     0.173 A 
ATOM     90  F   UNL A   1      40.923  35.281  35.898  1.00  0.00    -0.203 F 
ATOM     91  C   UNL A   1      39.966  35.679  38.014  1.00  0.00     0.198 A 
ATOM     92  C   UNL A   1      38.562  34.014  39.024  1.00  0.00     0.198 A 
ATOM     93  F   UNL A   1      38.161  31.981  37.905  1.00  0.00    -0.203 F 
ATOM     94  F   UNL A   1      40.569  36.874  38.062  1.00  0.00    -0.200 F 
ATOM     95  C   UNL A   1      39.169  35.261  39.069  1.00  0.00     0.200 A 
ATOM     96  F   UNL A   1      37.778  33.613  40.034  1.00  0.00    -0.200 F 
ATOM     97  F   UNL A   1      38.985  36.059  40.129  1.00  0.00    -0.200 F 
ENDBRANCH  63  87
BRANCH  75  98
ATOM     98  C   UNL A   1      44.261  28.825  34.904  1.00  0.00     0.064 A 
ATOM     99  C   UNL A   1      45.502  29.423  34.642  1.00  0.00     0.173 A 
ATOM    100  C   UNL A   1      44.222  27.760  35.817  1.00  0.00     0.173 A 
ATOM    101  F   UNL A   1      45.592  30.436  33.766  1.00  0.00    -0.203 F 
ATOM    102  C   UNL A   1      46.664  28.957  35.252  1.00  0.00     0.198 A 
ATOM    103  C   UNL A   1      45.381  27.314  36.444  1.00  0.00     0.198 A 
ATOM    104  F   UNL A   1      43.058  27.159  36.105  1.00  0.00    -0.203 F 
ATOM    105  F   UNL A   1      47.845  29.514  34.954  1.00  0.00    -0.200 F 
ATOM    106  C   UNL A   1      46.602  27.907  36.157  1.00  0.00     0.200 A 
ATOM    107  F   UNL A   1      45.319  26.306  37.326  1.00  0.00    -0.200 F 
ATOM    108  F   UNL A   1      47.720  27.462  36.746  1.00  0.00    -0.200 F 
ENDBRANCH  75  98
ENDBRANCH  49  50
ENDBRANCH  41  44
ENDBRANCH  39  40
ENDBRANCH  38  39
ENDBRANCH  37  38
ENDBRANCH  36  37
ENDBRANCH  35  36
ENDBRANCH   1  35
TORSDOF 19
ENDMDL
