MODEL 1
REMARK VINA RESULT:     -10.0      0.000      0.000
REMARK SMILES Cn1c(C[NH+](C)C)nnc1[C@@H]1CCC[N@@H+](Cc2ccccc2C(=O)NCCCCCCNC(=O)c2ccc(-c3c4nc(c(-c5c(F)c(F)c(F)c(F)c5F)c5ccc([nH]5)c(-c5c(F)c(F)c(F)c(F)c5F)c5nc(c(-c6c(F)c(F)c(F)c(F)c6F)c6ccc3[nH]6)C=C5)C=C4)cc2)C1
REMARK SMILES IDX 27 1 26 2 25 3 23 4 24 5 22 7 17 8 18 9 19 10 21 11 20 12
REMARK SMILES IDX 16 13 15 14 11 15 12 16 98 17 13 18 14 19 10 21 3 22 8 23
REMARK SMILES IDX 2 24 9 25 1 26 4 27 5 28 6 29 7 30 28 32 29 33 30 34 31 35
REMARK SMILES IDX 32 36 33 37 34 39 35 40 36 41 97 42 37 43 96 44 38 45 39 46
REMARK SMILES IDX 40 47 90 48 41 49 95 50 89 51 91 52 42 53 94 54 88 55 87 56
REMARK SMILES IDX 43 58 75 59 55 60 74 61 56 62 59 63 73 64 92 65 57 66 58 67
REMARK SMILES IDX 72 69 93 70 60 71 44 72 45 73 53 74 46 75 47 76 51 77 54 78
REMARK SMILES IDX 48 79 49 80 52 81 50 82 76 83 77 84 85 85 78 86 79 87 83 88
REMARK SMILES IDX 86 89 80 90 81 91 84 92 82 93 61 94 62 95 70 96 63 97 64 98
REMARK SMILES IDX 68 99 71 100 65 101 66 102 69 103 67 104
REMARK H PARENT 25 6 15 20 5 31 32 38 91 57 59 68
REMARK Flexibility Score: inf
ROOT
ATOM      1  C   UNL A   1      44.558  23.242  29.845  1.00  0.00     0.021 C 
ENDROOT
BRANCH   1   2
ATOM      2  C   UNL A   1      45.037  24.533  29.184  1.00  0.00     0.116 C 
BRANCH   2   3
ATOM      3  N   UNL A   1      46.327  24.437  28.550  1.00  0.00    -0.352 N 
ATOM      4  C   UNL A   1      46.667  24.138  27.254  1.00  0.00     0.251 C 
ATOM      5  O   UNL A   1      47.861  24.179  26.953  1.00  0.00    -0.269 OA
ATOM      6  H   UNL A   1      47.091  24.615  29.143  1.00  0.00     0.163 HD
BRANCH   4   7
ATOM      7  C   UNL A   1      45.695  23.699  26.210  1.00  0.00     0.048 A 
ATOM      8  C   UNL A   1      44.628  24.429  25.637  1.00  0.00     0.019 A 
ATOM      9  C   UNL A   1      43.851  23.782  24.640  1.00  0.00     0.010 A 
ATOM     10  C   UNL A   1      44.161  22.510  24.162  1.00  0.00     0.001 A 
ATOM     11  C   UNL A   1      46.019  22.431  25.676  1.00  0.00     0.014 A 
ATOM     12  C   UNL A   1      45.267  21.844  24.660  1.00  0.00     0.001 A 
BRANCH   8  13
ATOM     13  C   UNL A   1      44.216  25.853  25.946  1.00  0.00     0.299 C 
BRANCH  13  14
ATOM     14  N   UNL A   1      45.147  26.956  25.681  1.00  0.00    -0.331 N 
ATOM     15  C   UNL A   1      46.400  28.902  26.616  1.00  0.00     0.113 C 
ATOM     16  C   UNL A   1      47.417  28.786  25.474  1.00  0.00     0.023 C 
ATOM     17  C   UNL A   1      45.683  27.584  26.888  1.00  0.00     0.274 C 
ATOM     18  C   UNL A   1      47.015  27.862  24.320  1.00  0.00     0.062 C 
ATOM     19  C   UNL A   1      46.220  26.618  24.744  1.00  0.00     0.262 C 
ATOM     20  H   UNL A   1      44.560  27.652  25.220  1.00  0.00     0.348 HD
BRANCH  15  21
ATOM     21  C   UNL A   1      45.483  30.099  26.589  1.00  0.00     0.141 A 
ATOM     22  C   UNL A   1      44.565  32.098  26.762  1.00  0.00     0.187 A 
ATOM     23  N   UNL A   1      43.617  31.233  26.466  1.00  0.00    -0.129 NA
ATOM     24  N   UNL A   1      45.775  31.437  26.725  1.00  0.00    -0.313 N 
ATOM     25  N   UNL A   1      44.185  29.994  26.361  1.00  0.00    -0.135 NA
ATOM     26  C   UNL A   1      47.058  32.074  26.755  1.00  0.00     0.153 C 
BRANCH  22  27
ATOM     27  C   UNL A   1      44.327  33.504  27.239  1.00  0.00     0.340 C 
BRANCH  27  28
ATOM     28  N   UNL A   1      44.221  34.581  26.251  1.00  0.00    -0.333 N 
ATOM     29  C   UNL A   1      43.674  34.236  24.955  1.00  0.00     0.332 C 
ATOM     30  C   UNL A   1      43.672  35.809  26.801  1.00  0.00     0.332 C 
ATOM     31  H   UNL A   1      45.198  34.765  26.026  1.00  0.00     0.348 HD
ENDBRANCH  27  28
ENDBRANCH  22  27
ENDBRANCH  15  21
ENDBRANCH  13  14
ENDBRANCH   8  13
ENDBRANCH   4   7
ENDBRANCH   2   3
ENDBRANCH   1   2
BRANCH   1  32
ATOM     32  C   UNL A   1      43.053  22.942  29.733  1.00  0.00     0.002 C 
BRANCH  32  33
ATOM     33  C   UNL A   1      42.369  23.207  28.386  1.00  0.00     0.002 C 
BRANCH  33  34
ATOM     34  C   UNL A   1      41.475  22.100  27.830  1.00  0.00     0.021 C 
BRANCH  34  35
ATOM     35  C   UNL A   1      41.195  22.128  26.330  1.00  0.00     0.116 C 
BRANCH  35  36
ATOM     36  N   UNL A   1      39.798  22.324  25.978  1.00  0.00    -0.352 N 
ATOM     37  C   UNL A   1      38.943  23.385  26.160  1.00  0.00     0.251 C 
ATOM     38  H   UNL A   1      39.388  21.553  25.524  1.00  0.00     0.163 HD
ATOM     39  O   UNL A   1      37.775  23.279  25.789  1.00  0.00    -0.269 OA
BRANCH  37  40
ATOM     40  C   UNL A   1      39.358  24.633  26.856  1.00  0.00     0.039 A 
ATOM     41  C   UNL A   1      38.958  24.813  28.192  1.00  0.00     0.014 A 
ATOM     42  C   UNL A   1      40.106  25.629  26.233  1.00  0.00     0.014 A 
ATOM     43  C   UNL A   1      39.356  25.945  28.912  1.00  0.00     0.010 A 
ATOM     44  C   UNL A   1      40.557  26.727  26.967  1.00  0.00     0.010 A 
ATOM     45  C   UNL A   1      40.172  26.907  28.307  1.00  0.00    -0.014 A 
BRANCH  45  46
ATOM     46  C   UNL A   1      40.534  28.176  28.991  1.00  0.00     0.031 A 
ATOM     47  C   UNL A   1      41.924  28.321  29.550  1.00  0.00     0.074 A 
ATOM     48  C   UNL A   1      39.631  29.157  29.177  1.00  0.00     0.049 A 
ATOM     49  N   UNL A   1      42.413  29.236  30.347  1.00  0.00    -0.248 NA
ATOM     50  C   UNL A   1      42.883  27.265  29.187  1.00  0.00     0.031 C 
ATOM     51  C   UNL A   1      38.256  29.155  28.683  1.00  0.00     0.029 A 
ATOM     52  N   UNL A   1      39.738  30.344  29.863  1.00  0.00    -0.354 N 
ATOM     53  C   UNL A   1      43.720  28.846  30.608  1.00  0.00     0.074 A 
ATOM     54  C   UNL A   1      43.935  27.591  29.921  1.00  0.00     0.031 C 
ATOM     55  C   UNL A   1      37.645  30.284  29.083  1.00  0.00     0.029 A 
ATOM     56  C   UNL A   1      38.572  31.071  29.896  1.00  0.00     0.049 A 
ATOM     57  H   UNL A   1      40.572  30.647  30.290  1.00  0.00     0.167 HD
ATOM     58  C   UNL A   1      44.665  29.484  31.340  1.00  0.00     0.037 A 
ATOM     59  C   UNL A   1      38.281  32.225  30.527  1.00  0.00     0.037 A 
ATOM     60  C   UNL A   1      44.468  30.755  31.982  1.00  0.00     0.049 A 
ATOM     61  C   UNL A   1      39.345  32.911  31.348  1.00  0.00     0.074 A 
ATOM     62  C   UNL A   1      45.379  31.506  32.703  1.00  0.00     0.029 A 
ATOM     63  N   UNL A   1      43.279  31.468  31.970  1.00  0.00    -0.354 N 
ATOM     64  N   UNL A   1      40.584  32.545  31.573  1.00  0.00    -0.248 NA
ATOM     65  C   UNL A   1      38.968  34.172  32.004  1.00  0.00     0.031 C 
ATOM     66  C   UNL A   1      44.729  32.658  33.161  1.00  0.00     0.029 A 
ATOM     67  C   UNL A   1      43.428  32.645  32.684  1.00  0.00     0.049 A 
ATOM     68  H   UNL A   1      42.452  31.180  31.521  1.00  0.00     0.167 HD
ATOM     69  C   UNL A   1      41.140  33.543  32.363  1.00  0.00     0.074 A 
ATOM     70  C   UNL A   1      40.108  34.536  32.572  1.00  0.00     0.031 C 
ATOM     71  C   UNL A   1      42.395  33.631  32.868  1.00  0.00     0.037 A 
BRANCH  58  72
ATOM     72  C   UNL A   1      45.997  28.809  31.485  1.00  0.00     0.064 A 
ATOM     73  C   UNL A   1      46.236  27.856  32.486  1.00  0.00     0.173 A 
ATOM     74  C   UNL A   1      47.042  29.106  30.598  1.00  0.00     0.173 A 
ATOM     75  F   UNL A   1      45.274  27.549  33.370  1.00  0.00    -0.203 F 
ATOM     76  C   UNL A   1      47.483  27.250  32.615  1.00  0.00     0.198 A 
ATOM     77  C   UNL A   1      48.277  28.473  30.709  1.00  0.00     0.198 A 
ATOM     78  F   UNL A   1      46.865  30.008  29.620  1.00  0.00    -0.203 F 
ATOM     79  F   UNL A   1      47.705  26.385  33.614  1.00  0.00    -0.200 F 
ATOM     80  C   UNL A   1      48.499  27.554  31.722  1.00  0.00     0.200 A 
ATOM     81  F   UNL A   1      49.255  28.760  29.839  1.00  0.00    -0.200 F 
ATOM     82  F   UNL A   1      49.698  26.966  31.845  1.00  0.00    -0.200 F 
ENDBRANCH  58  72
BRANCH  59  83
ATOM     83  C   UNL A   1      36.924  32.821  30.411  1.00  0.00     0.064 A 
ATOM     84  C   UNL A   1      36.551  33.542  29.266  1.00  0.00     0.173 A 
ATOM     85  C   UNL A   1      35.984  32.710  31.445  1.00  0.00     0.173 A 
ATOM     86  F   UNL A   1      37.426  33.700  28.263  1.00  0.00    -0.203 F 
ATOM     87  C   UNL A   1      35.300  34.147  29.171  1.00  0.00     0.198 A 
ATOM     88  C   UNL A   1      34.722  33.293  31.337  1.00  0.00     0.198 A 
ATOM     89  F   UNL A   1      36.289  32.032  32.561  1.00  0.00    -0.203 F 
ATOM     90  F   UNL A   1      34.991  34.874  28.089  1.00  0.00    -0.200 F 
ATOM     91  C   UNL A   1      34.385  34.018  30.205  1.00  0.00     0.200 A 
ATOM     92  F   UNL A   1      33.836  33.157  32.334  1.00  0.00    -0.200 F 
ATOM     93  F   UNL A   1      33.182  34.602  30.114  1.00  0.00    -0.200 F 
ENDBRANCH  59  83
BRANCH  71  94
ATOM     94  C   UNL A   1      42.741  34.860  33.658  1.00  0.00     0.064 A 
ATOM     95  C   UNL A   1      43.173  36.040  33.037  1.00  0.00     0.173 A 
ATOM     96  C   UNL A   1      42.586  34.871  35.054  1.00  0.00     0.173 A 
ATOM     97  F   UNL A   1      43.350  36.077  31.707  1.00  0.00    -0.203 F 
ATOM     98  C   UNL A   1      43.458  37.180  33.783  1.00  0.00     0.198 A 
ATOM     99  C   UNL A   1      42.844  36.021  35.794  1.00  0.00     0.198 A 
ATOM    100  F   UNL A   1      42.168  33.770  35.696  1.00  0.00    -0.203 F 
ATOM    101  F   UNL A   1      43.909  38.284  33.173  1.00  0.00    -0.200 F 
ATOM    102  C   UNL A   1      43.285  37.172  35.160  1.00  0.00     0.200 A 
ATOM    103  F   UNL A   1      42.663  36.016  37.123  1.00  0.00    -0.200 F 
ATOM    104  F   UNL A   1      43.550  38.274  35.877  1.00  0.00    -0.200 F 
ENDBRANCH  71  94
ENDBRANCH  45  46
ENDBRANCH  37  40
ENDBRANCH  35  36
ENDBRANCH  34  35
ENDBRANCH  33  34
ENDBRANCH  32  33
ENDBRANCH   1  32
TORSDOF 18
ENDMDL
MODEL 2
REMARK VINA RESULT:      -9.7      4.059     11.297
REMARK SMILES Cn1c(C[NH+](C)C)nnc1[C@@H]1CCC[N@@H+](Cc2ccccc2C(=O)NCCCCCCNC(=O)c2ccc(-c3c4nc(c(-c5c(F)c(F)c(F)c(F)c5F)c5ccc([nH]5)c(-c5c(F)c(F)c(F)c(F)c5F)c5nc(c(-c6c(F)c(F)c(F)c(F)c6F)c6ccc3[nH]6)C=C5)C=C4)cc2)C1
REMARK SMILES IDX 27 1 26 2 25 3 23 4 24 5 22 7 17 8 18 9 19 10 21 11 20 12
REMARK SMILES IDX 16 13 15 14 11 15 12 16 98 17 13 18 14 19 10 21 3 22 8 23
REMARK SMILES IDX 2 24 9 25 1 26 4 27 5 28 6 29 7 30 28 32 29 33 30 34 31 35
REMARK SMILES IDX 32 36 33 37 34 39 35 40 36 41 97 42 37 43 96 44 38 45 39 46
REMARK SMILES IDX 40 47 90 48 41 49 95 50 89 51 91 52 42 53 94 54 88 55 87 56
REMARK SMILES IDX 43 58 75 59 55 60 74 61 56 62 59 63 73 64 92 65 57 66 58 67
REMARK SMILES IDX 72 69 93 70 60 71 44 72 45 73 53 74 46 75 47 76 51 77 54 78
REMARK SMILES IDX 48 79 49 80 52 81 50 82 76 83 77 84 85 85 78 86 79 87 83 88
REMARK SMILES IDX 86 89 80 90 81 91 84 92 82 93 61 94 62 95 70 96 63 97 64 98
REMARK SMILES IDX 68 99 71 100 65 101 66 102 69 103 67 104
REMARK H PARENT 25 6 15 20 5 31 32 38 91 57 59 68
REMARK Flexibility Score: inf
ROOT
ATOM      1  C   UNL A   1      33.984  35.625  31.641  1.00  0.00     0.021 C 
ENDROOT
BRANCH   1   2
ATOM      2  C   UNL A   1      34.026  34.627  32.797  1.00  0.00     0.116 C 
BRANCH   2   3
ATOM      3  N   UNL A   1      34.291  33.266  32.402  1.00  0.00    -0.352 N 
ATOM      4  C   UNL A   1      35.406  32.699  31.839  1.00  0.00     0.251 C 
ATOM      5  O   UNL A   1      35.394  31.482  31.650  1.00  0.00    -0.269 OA
ATOM      6  H   UNL A   1      33.549  32.640  32.563  1.00  0.00     0.163 HD
BRANCH   4   7
ATOM      7  C   UNL A   1      36.599  33.469  31.379  1.00  0.00     0.048 A 
ATOM      8  C   UNL A   1      37.537  34.189  32.155  1.00  0.00     0.019 A 
ATOM      9  C   UNL A   1      38.602  34.830  31.471  1.00  0.00     0.010 A 
ATOM     10  C   UNL A   1      38.792  34.696  30.096  1.00  0.00     0.001 A 
ATOM     11  C   UNL A   1      36.839  33.308  29.995  1.00  0.00     0.014 A 
ATOM     12  C   UNL A   1      37.925  33.908  29.360  1.00  0.00     0.001 A 
BRANCH   8  13
ATOM     13  C   UNL A   1      37.557  34.347  33.662  1.00  0.00     0.299 C 
BRANCH  13  14
ATOM     14  N   UNL A   1      38.396  33.461  34.477  1.00  0.00    -0.331 N 
ATOM     15  C   UNL A   1      38.611  31.245  35.608  1.00  0.00     0.113 C 
ATOM     16  C   UNL A   1      40.137  31.374  35.552  1.00  0.00     0.023 C 
ATOM     17  C   UNL A   1      37.921  32.079  34.533  1.00  0.00     0.274 C 
ATOM     18  C   UNL A   1      40.673  32.758  35.172  1.00  0.00     0.062 C 
ATOM     19  C   UNL A   1      39.820  33.513  34.142  1.00  0.00     0.262 C 
ATOM     20  H   UNL A   1      38.299  33.846  35.417  1.00  0.00     0.348 HD
BRANCH  15  21
ATOM     21  C   UNL A   1      37.970  31.357  36.969  1.00  0.00     0.141 A 
ATOM     22  C   UNL A   1      37.317  31.973  38.985  1.00  0.00     0.187 A 
ATOM     23  N   UNL A   1      36.918  30.733  38.782  1.00  0.00    -0.129 NA
ATOM     24  N   UNL A   1      37.875  32.440  37.813  1.00  0.00    -0.313 N 
ATOM     25  N   UNL A   1      37.326  30.351  37.535  1.00  0.00    -0.135 NA
ATOM     26  C   UNL A   1      38.207  33.809  37.552  1.00  0.00     0.153 C 
BRANCH  22  27
ATOM     27  C   UNL A   1      37.323  32.667  40.318  1.00  0.00     0.340 C 
BRANCH  27  28
ATOM     28  N   UNL A   1      37.396  31.859  41.539  1.00  0.00    -0.333 N 
ATOM     29  C   UNL A   1      38.448  32.178  42.480  1.00  0.00     0.332 C 
ATOM     30  C   UNL A   1      36.101  31.655  42.167  1.00  0.00     0.332 C 
ATOM     31  H   UNL A   1      37.700  30.953  41.181  1.00  0.00     0.348 HD
ENDBRANCH  27  28
ENDBRANCH  22  27
ENDBRANCH  15  21
ENDBRANCH  13  14
ENDBRANCH   8  13
ENDBRANCH   4   7
ENDBRANCH   2   3
ENDBRANCH   1   2
BRANCH   1  32
ATOM     32  C   UNL A   1      33.191  35.188  30.397  1.00  0.00     0.002 C 
BRANCH  32  33
ATOM     33  C   UNL A   1      33.912  35.214  29.044  1.00  0.00     0.002 C 
BRANCH  33  34
ATOM     34  C   UNL A   1      33.573  34.101  28.053  1.00  0.00     0.021 C 
BRANCH  34  35
ATOM     35  C   UNL A   1      34.493  32.883  28.044  1.00  0.00     0.116 C 
BRANCH  35  36
ATOM     36  N   UNL A   1      33.814  31.613  27.846  1.00  0.00    -0.352 N 
ATOM     37  C   UNL A   1      34.264  30.314  27.873  1.00  0.00     0.251 C 
ATOM     38  H   UNL A   1      32.851  31.700  27.659  1.00  0.00     0.163 HD
ATOM     39  O   UNL A   1      33.470  29.404  27.636  1.00  0.00    -0.269 OA
BRANCH  37  40
ATOM     40  C   UNL A   1      35.692  29.970  28.106  1.00  0.00     0.039 A 
ATOM     41  C   UNL A   1      36.054  29.451  29.361  1.00  0.00     0.014 A 
ATOM     42  C   UNL A   1      36.679  30.157  27.140  1.00  0.00     0.014 A 
ATOM     43  C   UNL A   1      37.374  29.067  29.624  1.00  0.00     0.010 A 
ATOM     44  C   UNL A   1      37.982  29.717  27.377  1.00  0.00     0.010 A 
ATOM     45  C   UNL A   1      38.348  29.185  28.626  1.00  0.00    -0.014 A 
BRANCH  45  46
ATOM     46  C   UNL A   1      39.782  28.893  28.886  1.00  0.00     0.031 A 
ATOM     47  C   UNL A   1      40.623  29.950  29.549  1.00  0.00     0.074 A 
ATOM     48  C   UNL A   1      40.350  27.742  28.480  1.00  0.00     0.049 A 
ATOM     49  N   UNL A   1      41.921  30.012  29.703  1.00  0.00    -0.248 NA
ATOM     50  C   UNL A   1      39.899  31.117  30.080  1.00  0.00     0.031 C 
ATOM     51  C   UNL A   1      39.656  26.630  27.834  1.00  0.00     0.029 A 
ATOM     52  N   UNL A   1      41.662  27.332  28.532  1.00  0.00    -0.354 N 
ATOM     53  C   UNL A   1      42.169  31.235  30.312  1.00  0.00     0.074 A 
ATOM     54  C   UNL A   1      40.894  31.903  30.461  1.00  0.00     0.031 C 
ATOM     55  C   UNL A   1      40.547  25.664  27.548  1.00  0.00     0.029 A 
ATOM     56  C   UNL A   1      41.881  26.106  27.952  1.00  0.00     0.049 A 
ATOM     57  H   UNL A   1      42.377  27.866  28.948  1.00  0.00     0.167 HD
ATOM     58  C   UNL A   1      43.350  31.750  30.728  1.00  0.00     0.037 A 
ATOM     59  C   UNL A   1      43.029  25.430  27.751  1.00  0.00     0.037 A 
ATOM     60  C   UNL A   1      44.611  31.068  30.626  1.00  0.00     0.049 A 
ATOM     61  C   UNL A   1      44.335  26.029  28.210  1.00  0.00     0.074 A 
ATOM     62  C   UNL A   1      45.855  31.484  31.064  1.00  0.00     0.029 A 
ATOM     63  N   UNL A   1      44.786  29.816  30.053  1.00  0.00    -0.354 N 
ATOM     64  N   UNL A   1      44.558  27.177  28.802  1.00  0.00    -0.248 NA
ATOM     65  C   UNL A   1      45.550  25.237  27.970  1.00  0.00     0.031 C 
ATOM     66  C   UNL A   1      46.790  30.501  30.722  1.00  0.00     0.029 A 
ATOM     67  C   UNL A   1      46.120  29.452  30.114  1.00  0.00     0.049 A 
ATOM     68  H   UNL A   1      44.067  29.269  29.662  1.00  0.00     0.167 HD
ATOM     69  C   UNL A   1      45.926  27.228  29.037  1.00  0.00     0.074 A 
ATOM     70  C   UNL A   1      46.483  25.992  28.530  1.00  0.00     0.031 C 
ATOM     71  C   UNL A   1      46.656  28.210  29.621  1.00  0.00     0.037 A 
BRANCH  58  72
ATOM     72  C   UNL A   1      43.329  33.125  31.329  1.00  0.00     0.064 A 
ATOM     73  C   UNL A   1      43.356  33.324  32.717  1.00  0.00     0.173 A 
ATOM     74  C   UNL A   1      43.302  34.258  30.503  1.00  0.00     0.173 A 
ATOM     75  F   UNL A   1      43.366  32.272  33.550  1.00  0.00    -0.203 F 
ATOM     76  C   UNL A   1      43.323  34.607  33.257  1.00  0.00     0.198 A 
ATOM     77  C   UNL A   1      43.302  35.540  31.046  1.00  0.00     0.198 A 
ATOM     78  F   UNL A   1      43.279  34.124  29.168  1.00  0.00    -0.203 F 
ATOM     79  F   UNL A   1      43.291  34.771  34.587  1.00  0.00    -0.200 F 
ATOM     80  C   UNL A   1      43.303  35.714  32.421  1.00  0.00     0.200 A 
ATOM     81  F   UNL A   1      43.294  36.609  30.237  1.00  0.00    -0.200 F 
ATOM     82  F   UNL A   1      43.275  36.948  32.943  1.00  0.00    -0.200 F 
ENDBRANCH  58  72
BRANCH  59  83
ATOM     83  C   UNL A   1      43.007  24.099  27.087  1.00  0.00     0.064 A 
ATOM     84  C   UNL A   1      42.634  22.948  27.796  1.00  0.00     0.173 A 
ATOM     85  C   UNL A   1      43.385  23.943  25.745  1.00  0.00     0.173 A 
ATOM     86  F   UNL A   1      42.293  23.041  29.089  1.00  0.00    -0.203 F 
ATOM     87  C   UNL A   1      42.661  21.691  27.196  1.00  0.00     0.198 A 
ATOM     88  C   UNL A   1      43.385  22.689  25.138  1.00  0.00     0.198 A 
ATOM     89  F   UNL A   1      43.752  25.012  25.022  1.00  0.00    -0.203 F 
ATOM     90  F   UNL A   1      42.351  20.602  27.912  1.00  0.00    -0.200 F 
ATOM     91  C   UNL A   1      43.033  21.563  25.866  1.00  0.00     0.200 A 
ATOM     92  F   UNL A   1      43.735  22.570  23.850  1.00  0.00    -0.200 F 
ATOM     93  F   UNL A   1      43.060  20.353  25.289  1.00  0.00    -0.200 F 
ENDBRANCH  59  83
BRANCH  71  94
ATOM     94  C   UNL A   1      48.129  27.974  29.788  1.00  0.00     0.064 A 
ATOM     95  C   UNL A   1      49.062  28.430  28.846  1.00  0.00     0.173 A 
ATOM     96  C   UNL A   1      48.617  27.329  30.937  1.00  0.00     0.173 A 
ATOM     97  F   UNL A   1      48.646  29.041  27.726  1.00  0.00    -0.203 F 
ATOM     98  C   UNL A   1      50.426  28.231  29.035  1.00  0.00     0.198 A 
ATOM     99  C   UNL A   1      49.983  27.157  31.136  1.00  0.00     0.198 A 
ATOM    100  F   UNL A   1      47.766  26.881  31.873  1.00  0.00    -0.203 F 
ATOM    101  F   UNL A   1      51.297  28.638  28.102  1.00  0.00    -0.200 F 
ATOM    102  C   UNL A   1      50.887  27.602  30.184  1.00  0.00     0.200 A 
ATOM    103  F   UNL A   1      50.426  26.562  32.253  1.00  0.00    -0.200 F 
ATOM    104  F   UNL A   1      52.201  27.421  30.369  1.00  0.00    -0.200 F 
ENDBRANCH  71  94
ENDBRANCH  45  46
ENDBRANCH  37  40
ENDBRANCH  35  36
ENDBRANCH  34  35
ENDBRANCH  33  34
ENDBRANCH  32  33
ENDBRANCH   1  32
TORSDOF 18
ENDMDL
MODEL 3
REMARK VINA RESULT:      -9.5      3.881     11.423
REMARK SMILES Cn1c(C[NH+](C)C)nnc1[C@@H]1CCC[N@@H+](Cc2ccccc2C(=O)NCCCCCCNC(=O)c2ccc(-c3c4nc(c(-c5c(F)c(F)c(F)c(F)c5F)c5ccc([nH]5)c(-c5c(F)c(F)c(F)c(F)c5F)c5nc(c(-c6c(F)c(F)c(F)c(F)c6F)c6ccc3[nH]6)C=C5)C=C4)cc2)C1
REMARK SMILES IDX 27 1 26 2 25 3 23 4 24 5 22 7 17 8 18 9 19 10 21 11 20 12
REMARK SMILES IDX 16 13 15 14 11 15 12 16 98 17 13 18 14 19 10 21 3 22 8 23
REMARK SMILES IDX 2 24 9 25 1 26 4 27 5 28 6 29 7 30 28 32 29 33 30 34 31 35
REMARK SMILES IDX 32 36 33 37 34 39 35 40 36 41 97 42 37 43 96 44 38 45 39 46
REMARK SMILES IDX 40 47 90 48 41 49 95 50 89 51 91 52 42 53 94 54 88 55 87 56
REMARK SMILES IDX 43 58 75 59 55 60 74 61 56 62 59 63 73 64 92 65 57 66 58 67
REMARK SMILES IDX 72 69 93 70 60 71 44 72 45 73 53 74 46 75 47 76 51 77 54 78
REMARK SMILES IDX 48 79 49 80 52 81 50 82 76 83 77 84 85 85 78 86 79 87 83 88
REMARK SMILES IDX 86 89 80 90 81 91 84 92 82 93 61 94 62 95 70 96 63 97 64 98
REMARK SMILES IDX 68 99 71 100 65 101 66 102 69 103 67 104
REMARK H PARENT 25 6 15 20 5 31 32 38 91 57 59 68
REMARK Flexibility Score: inf
ROOT
ATOM      1  C   UNL A   1      33.745  35.911  31.333  1.00  0.00     0.021 C 
ENDROOT
BRANCH   1   2
ATOM      2  C   UNL A   1      33.840  34.952  32.519  1.00  0.00     0.116 C 
BRANCH   2   3
ATOM      3  N   UNL A   1      33.977  33.564  32.156  1.00  0.00    -0.352 N 
ATOM      4  C   UNL A   1      35.065  32.860  31.706  1.00  0.00     0.251 C 
ATOM      5  O   UNL A   1      34.925  31.650  31.519  1.00  0.00    -0.269 OA
ATOM      6  H   UNL A   1      33.153  33.033  32.246  1.00  0.00     0.163 HD
BRANCH   4   7
ATOM      7  C   UNL A   1      36.381  33.476  31.361  1.00  0.00     0.048 A 
ATOM      8  C   UNL A   1      37.262  34.200  32.198  1.00  0.00     0.019 A 
ATOM      9  C   UNL A   1      38.471  34.672  31.626  1.00  0.00     0.010 A 
ATOM     10  C   UNL A   1      38.843  34.372  30.316  1.00  0.00     0.001 A 
ATOM     11  C   UNL A   1      36.801  33.143  30.053  1.00  0.00     0.014 A 
ATOM     12  C   UNL A   1      38.020  33.579  29.536  1.00  0.00     0.001 A 
BRANCH   8  13
ATOM     13  C   UNL A   1      37.079  34.522  33.667  1.00  0.00     0.299 C 
BRANCH  13  14
ATOM     14  N   UNL A   1      37.669  33.645  34.685  1.00  0.00    -0.331 N 
ATOM     15  C   UNL A   1      37.775  33.025  37.101  1.00  0.00     0.113 C 
ATOM     16  C   UNL A   1      38.265  31.626  36.713  1.00  0.00     0.023 C 
ATOM     17  C   UNL A   1      36.990  33.695  35.978  1.00  0.00     0.274 C 
ATOM     18  C   UNL A   1      38.690  31.453  35.251  1.00  0.00     0.062 C 
ATOM     19  C   UNL A   1      37.857  32.262  34.244  1.00  0.00     0.262 C 
ATOM     20  H   UNL A   1      38.599  34.040  34.823  1.00  0.00     0.348 HD
BRANCH  15  21
ATOM     21  C   UNL A   1      38.778  33.935  37.768  1.00  0.00     0.141 A 
ATOM     22  C   UNL A   1      40.070  35.021  39.188  1.00  0.00     0.187 A 
ATOM     23  N   UNL A   1      40.150  35.619  38.016  1.00  0.00    -0.129 NA
ATOM     24  N   UNL A   1      39.310  33.880  39.036  1.00  0.00    -0.313 N 
ATOM     25  N   UNL A   1      39.346  34.948  37.138  1.00  0.00    -0.135 NA
ATOM     26  C   UNL A   1      39.189  32.840  40.013  1.00  0.00     0.153 C 
BRANCH  22  27
ATOM     27  C   UNL A   1      40.568  35.599  40.483  1.00  0.00     0.340 C 
BRANCH  27  28
ATOM     28  N   UNL A   1      39.652  36.399  41.303  1.00  0.00    -0.333 N 
ATOM     29  C   UNL A   1      38.924  35.707  42.345  1.00  0.00     0.332 C 
ATOM     30  C   UNL A   1      40.229  37.658  41.740  1.00  0.00     0.332 C 
ATOM     31  H   UNL A   1      38.910  36.624  40.640  1.00  0.00     0.348 HD
ENDBRANCH  27  28
ENDBRANCH  22  27
ENDBRANCH  15  21
ENDBRANCH  13  14
ENDBRANCH   8  13
ENDBRANCH   4   7
ENDBRANCH   2   3
ENDBRANCH   1   2
BRANCH   1  32
ATOM     32  C   UNL A   1      33.133  35.334  30.044  1.00  0.00     0.002 C 
BRANCH  32  33
ATOM     33  C   UNL A   1      33.975  35.395  28.764  1.00  0.00     0.002 C 
BRANCH  33  34
ATOM     34  C   UNL A   1      33.797  34.257  27.760  1.00  0.00     0.021 C 
BRANCH  34  35
ATOM     35  C   UNL A   1      34.562  32.966  28.038  1.00  0.00     0.116 C 
BRANCH  35  36
ATOM     36  N   UNL A   1      33.900  31.757  27.575  1.00  0.00    -0.352 N 
ATOM     37  C   UNL A   1      34.280  30.436  27.587  1.00  0.00     0.251 C 
ATOM     38  H   UNL A   1      33.012  31.915  27.179  1.00  0.00     0.163 HD
ATOM     39  O   UNL A   1      33.530  29.596  27.092  1.00  0.00    -0.269 OA
BRANCH  37  40
ATOM     40  C   UNL A   1      35.599  29.991  28.111  1.00  0.00     0.039 A 
ATOM     41  C   UNL A   1      36.710  30.052  27.252  1.00  0.00     0.014 A 
ATOM     42  C   UNL A   1      35.770  29.504  29.405  1.00  0.00     0.014 A 
ATOM     43  C   UNL A   1      37.985  29.690  27.703  1.00  0.00     0.010 A 
ATOM     44  C   UNL A   1      37.048  29.203  29.877  1.00  0.00     0.010 A 
ATOM     45  C   UNL A   1      38.166  29.274  29.027  1.00  0.00    -0.014 A 
BRANCH  45  46
ATOM     46  C   UNL A   1      39.475  28.778  29.525  1.00  0.00     0.031 A 
ATOM     47  C   UNL A   1      40.228  29.613  30.526  1.00  0.00     0.074 A 
ATOM     48  C   UNL A   1      40.025  27.644  29.050  1.00  0.00     0.049 A 
ATOM     49  N   UNL A   1      41.457  29.496  30.956  1.00  0.00    -0.248 NA
ATOM     50  C   UNL A   1      39.500  30.761  31.091  1.00  0.00     0.031 C 
ATOM     51  C   UNL A   1      39.406  26.735  28.088  1.00  0.00     0.029 A 
ATOM     52  N   UNL A   1      41.252  27.078  29.303  1.00  0.00    -0.354 N 
ATOM     53  C   UNL A   1      41.660  30.573  31.810  1.00  0.00     0.074 A 
ATOM     54  C   UNL A   1      40.443  31.356  31.804  1.00  0.00     0.031 C 
ATOM     55  C   UNL A   1      40.257  25.726  27.829  1.00  0.00     0.029 A 
ATOM     56  C   UNL A   1      41.497  25.939  28.574  1.00  0.00     0.049 A 
ATOM     57  H   UNL A   1      41.897  27.454  29.947  1.00  0.00     0.167 HD
ATOM     58  C   UNL A   1      42.754  30.874  32.549  1.00  0.00     0.037 A 
ATOM     59  C   UNL A   1      42.601  25.171  28.502  1.00  0.00     0.037 A 
ATOM     60  C   UNL A   1      43.946  30.071  32.594  1.00  0.00     0.049 A 
ATOM     61  C   UNL A   1      43.814  25.534  29.323  1.00  0.00     0.074 A 
ATOM     62  C   UNL A   1      45.088  30.265  33.350  1.00  0.00     0.029 A 
ATOM     63  N   UNL A   1      44.143  28.911  31.859  1.00  0.00    -0.354 N 
ATOM     64  N   UNL A   1      43.990  26.543  30.142  1.00  0.00    -0.248 NA
ATOM     65  C   UNL A   1      44.983  24.650  29.207  1.00  0.00     0.031 C 
ATOM     66  C   UNL A   1      45.993  29.243  33.043  1.00  0.00     0.029 A 
ATOM     67  C   UNL A   1      45.395  28.387  32.132  1.00  0.00     0.049 A 
ATOM     68  H   UNL A   1      43.489  28.520  31.236  1.00  0.00     0.167 HD
ATOM     69  C   UNL A   1      45.269  26.394  30.663  1.00  0.00     0.074 A 
ATOM     70  C   UNL A   1      45.824  25.194  30.075  1.00  0.00     0.031 C 
ATOM     71  C   UNL A   1      45.925  27.181  31.551  1.00  0.00     0.037 A 
BRANCH  58  72
ATOM     72  C   UNL A   1      42.710  32.132  33.365  1.00  0.00     0.064 A 
ATOM     73  C   UNL A   1      43.011  33.384  32.808  1.00  0.00     0.173 A 
ATOM     74  C   UNL A   1      42.344  32.086  34.718  1.00  0.00     0.173 A 
ATOM     75  F   UNL A   1      43.383  33.480  31.522  1.00  0.00    -0.203 F 
ATOM     76  C   UNL A   1      42.978  34.540  33.584  1.00  0.00     0.198 A 
ATOM     77  C   UNL A   1      42.280  33.248  35.482  1.00  0.00     0.198 A 
ATOM     78  F   UNL A   1      42.043  30.914  35.299  1.00  0.00    -0.203 F 
ATOM     79  F   UNL A   1      43.325  35.717  33.044  1.00  0.00    -0.200 F 
ATOM     80  C   UNL A   1      42.606  34.471  34.918  1.00  0.00     0.200 A 
ATOM     81  F   UNL A   1      41.910  33.182  36.769  1.00  0.00    -0.200 F 
ATOM     82  F   UNL A   1      42.571  35.585  35.663  1.00  0.00    -0.200 F 
ENDBRANCH  58  72
BRANCH  59  83
ATOM     83  C   UNL A   1      42.622  23.971  27.624  1.00  0.00     0.064 A 
ATOM     84  C   UNL A   1      42.277  22.707  28.126  1.00  0.00     0.173 A 
ATOM     85  C   UNL A   1      43.014  24.053  26.280  1.00  0.00     0.173 A 
ATOM     86  F   UNL A   1      41.924  22.573  29.413  1.00  0.00    -0.203 F 
ATOM     87  C   UNL A   1      42.344  21.570  27.324  1.00  0.00     0.198 A 
ATOM     88  C   UNL A   1      43.054  22.919  25.471  1.00  0.00     0.198 A 
ATOM     89  F   UNL A   1      43.355  25.237  25.751  1.00  0.00    -0.203 F 
ATOM     90  F   UNL A   1      42.060  20.369  27.844  1.00  0.00    -0.200 F 
ATOM     91  C   UNL A   1      42.728  21.678  25.996  1.00  0.00     0.200 A 
ATOM     92  F   UNL A   1      43.416  23.028  24.186  1.00  0.00    -0.200 F 
ATOM     93  F   UNL A   1      42.794  20.583  25.225  1.00  0.00    -0.200 F 
ENDBRANCH  59  83
BRANCH  71  94
ATOM     94  C   UNL A   1      47.298  26.750  31.979  1.00  0.00     0.064 A 
ATOM     95  C   UNL A   1      47.494  25.864  33.048  1.00  0.00     0.173 A 
ATOM     96  C   UNL A   1      48.430  27.189  31.274  1.00  0.00     0.173 A 
ATOM     97  F   UNL A   1      46.446  25.426  33.762  1.00  0.00    -0.203 F 
ATOM     98  C   UNL A   1      48.773  25.450  33.409  1.00  0.00     0.198 A 
ATOM     99  C   UNL A   1      49.704  26.750  31.619  1.00  0.00     0.198 A 
ATOM    100  F   UNL A   1      48.296  28.031  30.238  1.00  0.00    -0.203 F 
ATOM    101  F   UNL A   1      48.940  24.635  34.460  1.00  0.00    -0.200 F 
ATOM    102  C   UNL A   1      49.877  25.886  32.690  1.00  0.00     0.200 A 
ATOM    103  F   UNL A   1      50.768  27.162  30.914  1.00  0.00    -0.200 F 
ATOM    104  F   UNL A   1      51.106  25.478  33.032  1.00  0.00    -0.200 F 
ENDBRANCH  71  94
ENDBRANCH  45  46
ENDBRANCH  37  40
ENDBRANCH  35  36
ENDBRANCH  34  35
ENDBRANCH  33  34
ENDBRANCH  32  33
ENDBRANCH   1  32
TORSDOF 18
ENDMDL
