MODEL 1
REMARK VINA RESULT:     -12.1      0.000      0.000
REMARK SMILES COc1ccc(-n2c(C)nnc2SCC(=O)NCCCCCCNC(=O)c2ccc(-c3c4nc(c(-c5c(F)c(F)c(F)c(F)c5F)c5ccc([nH]5)c(-c5c(F)c(F)c(F)c(F)c5F)c5nc(c(-c6c(F)c(F)c(F)c(F)c6F)c6ccc3[nH]6)C=C5)C=C4)cc2)cc1F
REMARK SMILES IDX 19 1 18 2 17 3 15 4 16 5 14 7 13 8 12 9 7 10 8 11 9 12 10 13
REMARK SMILES IDX 11 14 6 15 3 16 4 17 91 18 5 19 90 20 92 21 2 22 1 23 20 24
REMARK SMILES IDX 21 25 22 26 23 27 24 28 25 29 26 31 27 32 28 33 89 34 29 35
REMARK SMILES IDX 88 36 30 37 31 38 32 39 82 40 33 41 87 42 81 43 83 44 34 45
REMARK SMILES IDX 86 46 80 47 79 48 35 50 67 51 47 52 66 53 48 54 51 55 65 56
REMARK SMILES IDX 84 57 49 58 50 59 64 61 85 62 52 63 36 64 37 65 45 66 38 67
REMARK SMILES IDX 39 68 43 69 46 70 40 71 41 72 44 73 42 74 68 75 69 76 77 77
REMARK SMILES IDX 70 78 71 79 75 80 78 81 72 82 73 83 76 84 74 85 53 86 54 87
REMARK SMILES IDX 62 88 55 89 56 90 60 91 63 92 57 93 58 94 61 95 59 96
REMARK H PARENT 17 6 24 30 83 49 51 60
REMARK Flexibility Score: inf
ROOT
ATOM      1  C   UNL A   1      39.153  22.367  25.975  1.00  0.00     0.021 C 
ENDROOT
BRANCH   1   2
ATOM      2  C   UNL A   1      38.026  21.402  25.615  1.00  0.00     0.116 C 
BRANCH   2   3
ATOM      3  N   UNL A   1      37.371  21.732  24.368  1.00  0.00    -0.355 N 
ATOM      4  C   UNL A   1      36.695  22.857  24.021  1.00  0.00     0.230 C 
ATOM      5  O   UNL A   1      36.733  23.163  22.822  1.00  0.00    -0.274 OA
ATOM      6  H   UNL A   1      37.422  21.040  23.669  1.00  0.00     0.163 HD
BRANCH   4   7
ATOM      7  C   UNL A   1      35.981  23.771  24.995  1.00  0.00     0.178 C 
BRANCH   7   8
ATOM      8  S   UNL A   1      34.494  24.597  24.462  1.00  0.00    -0.076 SA
BRANCH   8   9
ATOM      9  C   UNL A   1      33.115  24.237  25.437  1.00  0.00     0.196 A 
ATOM     10  N   UNL A   1      32.198  23.206  25.386  1.00  0.00    -0.274 N 
ATOM     11  C   UNL A   1      31.188  23.580  26.261  1.00  0.00     0.135 A 
ATOM     12  C   UNL A   1      29.968  22.799  26.576  1.00  0.00     0.090 C 
ATOM     13  N   UNL A   1      31.500  24.730  26.818  1.00  0.00    -0.134 NA
ATOM     14  N   UNL A   1      32.699  25.134  26.309  1.00  0.00    -0.123 NA
BRANCH  10  15
ATOM     15  C   UNL A   1      32.262  21.977  24.714  1.00  0.00     0.053 A 
ATOM     16  C   UNL A   1      32.374  19.538  23.357  1.00  0.00     0.154 A 
ATOM     17  C   UNL A   1      32.661  19.606  24.728  1.00  0.00     0.052 A 
ATOM     18  C   UNL A   1      32.095  20.723  22.669  1.00  0.00     0.167 A 
ATOM     19  C   UNL A   1      32.622  20.824  25.412  1.00  0.00     0.031 A 
ATOM     20  C   UNL A   1      32.040  21.946  23.338  1.00  0.00     0.070 A 
ATOM     21  F   UNL A   1      31.849  20.733  21.350  1.00  0.00    -0.203 F 
BRANCH  16  22
ATOM     22  O   UNL A   1      32.406  18.271  22.842  1.00  0.00    -0.494 OA
ATOM     23  C   UNL A   1      33.214  17.319  23.525  1.00  0.00     0.278 C 
ENDBRANCH  16  22
ENDBRANCH  10  15
ENDBRANCH   8   9
ENDBRANCH   7   8
ENDBRANCH   4   7
ENDBRANCH   2   3
ENDBRANCH   1   2
BRANCH   1  24
ATOM     24  C   UNL A   1      40.251  21.802  26.886  1.00  0.00     0.002 C 
BRANCH  24  25
ATOM     25  C   UNL A   1      40.437  20.277  26.897  1.00  0.00     0.002 C 
BRANCH  25  26
ATOM     26  C   UNL A   1      41.493  19.691  25.951  1.00  0.00     0.021 C 
BRANCH  26  27
ATOM     27  C   UNL A   1      42.839  19.400  26.595  1.00  0.00     0.116 C 
BRANCH  27  28
ATOM     28  N   UNL A   1      43.920  19.278  25.625  1.00  0.00    -0.352 N 
ATOM     29  C   UNL A   1      44.478  20.278  24.852  1.00  0.00     0.251 C 
ATOM     30  H   UNL A   1      44.298  18.377  25.508  1.00  0.00     0.163 HD
ATOM     31  O   UNL A   1      45.060  20.012  23.813  1.00  0.00    -0.269 OA
BRANCH  29  32
ATOM     32  C   UNL A   1      44.351  21.682  25.295  1.00  0.00     0.039 A 
ATOM     33  C   UNL A   1      43.405  22.523  24.709  1.00  0.00     0.014 A 
ATOM     34  C   UNL A   1      45.189  22.156  26.307  1.00  0.00     0.014 A 
ATOM     35  C   UNL A   1      43.255  23.813  25.206  1.00  0.00     0.010 A 
ATOM     36  C   UNL A   1      44.956  23.386  26.883  1.00  0.00     0.010 A 
ATOM     37  C   UNL A   1      44.010  24.230  26.320  1.00  0.00    -0.014 A 
BRANCH  37  38
ATOM     38  C   UNL A   1      43.685  25.495  26.976  1.00  0.00     0.031 A 
ATOM     39  C   UNL A   1      44.617  26.594  26.618  1.00  0.00     0.074 A 
ATOM     40  C   UNL A   1      42.589  25.735  27.728  1.00  0.00     0.049 A 
ATOM     41  N   UNL A   1      45.553  27.076  27.363  1.00  0.00    -0.248 NA
ATOM     42  C   UNL A   1      44.634  27.100  25.238  1.00  0.00     0.031 C 
ATOM     43  C   UNL A   1      41.421  24.870  27.926  1.00  0.00     0.029 A 
ATOM     44  N   UNL A   1      42.253  26.859  28.428  1.00  0.00    -0.354 N 
ATOM     45  C   UNL A   1      46.139  28.099  26.628  1.00  0.00     0.074 A 
ATOM     46  C   UNL A   1      45.666  27.949  25.277  1.00  0.00     0.031 C 
ATOM     47  C   UNL A   1      40.423  25.580  28.499  1.00  0.00     0.029 A 
ATOM     48  C   UNL A   1      40.934  26.887  28.873  1.00  0.00     0.049 A 
ATOM     49  H   UNL A   1      42.889  27.590  28.602  1.00  0.00     0.167 HD
ATOM     50  C   UNL A   1      46.731  29.141  27.273  1.00  0.00     0.037 A 
ATOM     51  C   UNL A   1      40.311  27.912  29.505  1.00  0.00     0.037 A 
ATOM     52  C   UNL A   1      46.912  28.833  28.670  1.00  0.00     0.049 A 
ATOM     53  C   UNL A   1      41.365  28.734  30.138  1.00  0.00     0.074 A 
ATOM     54  C   UNL A   1      47.686  27.964  29.407  1.00  0.00     0.029 A 
ATOM     55  N   UNL A   1      45.857  29.207  29.459  1.00  0.00    -0.354 N 
ATOM     56  N   UNL A   1      42.091  28.333  31.144  1.00  0.00    -0.248 NA
ATOM     57  C   UNL A   1      41.856  29.915  29.443  1.00  0.00     0.031 C 
ATOM     58  C   UNL A   1      46.913  27.640  30.563  1.00  0.00     0.029 A 
ATOM     59  C   UNL A   1      45.722  28.367  30.528  1.00  0.00     0.049 A 
ATOM     60  H   UNL A   1      45.273  29.979  29.279  1.00  0.00     0.167 HD
ATOM     61  C   UNL A   1      43.326  28.905  30.915  1.00  0.00     0.074 A 
ATOM     62  C   UNL A   1      43.069  30.004  29.993  1.00  0.00     0.031 C 
ATOM     63  C   UNL A   1      44.466  28.227  31.232  1.00  0.00     0.037 A 
BRANCH  50  64
ATOM     64  C   UNL A   1      46.685  30.578  26.801  1.00  0.00     0.064 A 
ATOM     65  C   UNL A   1      45.488  31.300  26.609  1.00  0.00     0.173 A 
ATOM     66  C   UNL A   1      47.860  31.358  26.862  1.00  0.00     0.173 A 
ATOM     67  F   UNL A   1      44.287  30.715  26.668  1.00  0.00    -0.203 F 
ATOM     68  C   UNL A   1      45.465  32.688  26.476  1.00  0.00     0.198 A 
ATOM     69  C   UNL A   1      47.826  32.754  26.782  1.00  0.00     0.198 A 
ATOM     70  F   UNL A   1      49.050  30.783  27.093  1.00  0.00    -0.203 F 
ATOM     71  F   UNL A   1      44.289  33.313  26.324  1.00  0.00    -0.200 F 
ATOM     72  C   UNL A   1      46.629  33.417  26.586  1.00  0.00     0.200 A 
ATOM     73  F   UNL A   1      48.951  33.460  26.963  1.00  0.00    -0.200 F 
ATOM     74  F   UNL A   1      46.586  34.756  26.559  1.00  0.00    -0.200 F 
ENDBRANCH  50  64
BRANCH  51  75
ATOM     75  C   UNL A   1      38.907  28.384  29.431  1.00  0.00     0.064 A 
ATOM     76  C   UNL A   1      38.408  29.006  28.273  1.00  0.00     0.173 A 
ATOM     77  C   UNL A   1      38.145  28.544  30.605  1.00  0.00     0.173 A 
ATOM     78  F   UNL A   1      39.084  28.946  27.118  1.00  0.00    -0.203 F 
ATOM     79  C   UNL A   1      37.259  29.801  28.304  1.00  0.00     0.198 A 
ATOM     80  C   UNL A   1      37.000  29.345  30.635  1.00  0.00     0.198 A 
ATOM     81  F   UNL A   1      38.557  28.000  31.759  1.00  0.00    -0.203 F 
ATOM     82  F   UNL A   1      36.868  30.447  27.197  1.00  0.00    -0.200 F 
ATOM     83  C   UNL A   1      36.570  29.990  29.489  1.00  0.00     0.200 A 
ATOM     84  F   UNL A   1      36.360  29.551  31.795  1.00  0.00    -0.200 F 
ATOM     85  F   UNL A   1      35.526  30.829  29.536  1.00  0.00    -0.200 F 
ENDBRANCH  51  75
BRANCH  63  86
ATOM     86  C   UNL A   1      44.368  27.160  32.283  1.00  0.00     0.064 A 
ATOM     87  C   UNL A   1      44.504  27.564  33.620  1.00  0.00     0.173 A 
ATOM     88  C   UNL A   1      44.227  25.785  32.035  1.00  0.00     0.173 A 
ATOM     89  F   UNL A   1      44.673  28.863  33.915  1.00  0.00    -0.203 F 
ATOM     90  C   UNL A   1      44.507  26.642  34.660  1.00  0.00     0.198 A 
ATOM     91  C   UNL A   1      44.186  24.867  33.083  1.00  0.00     0.198 A 
ATOM     92  F   UNL A   1      44.171  25.307  30.785  1.00  0.00    -0.203 F 
ATOM     93  F   UNL A   1      44.695  27.061  35.918  1.00  0.00    -0.200 F 
ATOM     94  C   UNL A   1      44.335  25.296  34.394  1.00  0.00     0.200 A 
ATOM     95  F   UNL A   1      44.026  23.560  32.828  1.00  0.00    -0.200 F 
ATOM     96  F   UNL A   1      44.335  24.409  35.398  1.00  0.00    -0.200 F 
ENDBRANCH  63  86
ENDBRANCH  37  38
ENDBRANCH  29  32
ENDBRANCH  27  28
ENDBRANCH  26  27
ENDBRANCH  25  26
ENDBRANCH  24  25
ENDBRANCH   1  24
TORSDOF 17
ENDMDL
MODEL 2
REMARK VINA RESULT:     -11.9      1.857      3.270
REMARK SMILES COc1ccc(-n2c(C)nnc2SCC(=O)NCCCCCCNC(=O)c2ccc(-c3c4nc(c(-c5c(F)c(F)c(F)c(F)c5F)c5ccc([nH]5)c(-c5c(F)c(F)c(F)c(F)c5F)c5nc(c(-c6c(F)c(F)c(F)c(F)c6F)c6ccc3[nH]6)C=C5)C=C4)cc2)cc1F
REMARK SMILES IDX 19 1 18 2 17 3 15 4 16 5 14 7 13 8 12 9 7 10 8 11 9 12 10 13
REMARK SMILES IDX 11 14 6 15 3 16 4 17 91 18 5 19 90 20 92 21 2 22 1 23 20 24
REMARK SMILES IDX 21 25 22 26 23 27 24 28 25 29 26 31 27 32 28 33 89 34 29 35
REMARK SMILES IDX 88 36 30 37 31 38 32 39 82 40 33 41 87 42 81 43 83 44 34 45
REMARK SMILES IDX 86 46 80 47 79 48 35 50 67 51 47 52 66 53 48 54 51 55 65 56
REMARK SMILES IDX 84 57 49 58 50 59 64 61 85 62 52 63 36 64 37 65 45 66 38 67
REMARK SMILES IDX 39 68 43 69 46 70 40 71 41 72 44 73 42 74 68 75 69 76 77 77
REMARK SMILES IDX 70 78 71 79 75 80 78 81 72 82 73 83 76 84 74 85 53 86 54 87
REMARK SMILES IDX 62 88 55 89 56 90 60 91 63 92 57 93 58 94 61 95 59 96
REMARK H PARENT 17 6 24 30 83 49 51 60
REMARK Flexibility Score: inf
ROOT
ATOM      1  C   UNL A   1      38.954  22.869  26.162  1.00  0.00     0.021 C 
ENDROOT
BRANCH   1   2
ATOM      2  C   UNL A   1      37.465  23.203  26.098  1.00  0.00     0.116 C 
BRANCH   2   3
ATOM      3  N   UNL A   1      36.620  22.028  26.067  1.00  0.00    -0.355 N 
ATOM      4  C   UNL A   1      35.693  21.658  25.147  1.00  0.00     0.230 C 
ATOM      5  O   UNL A   1      35.533  20.440  25.001  1.00  0.00    -0.274 OA
ATOM      6  H   UNL A   1      36.734  21.407  26.823  1.00  0.00     0.163 HD
BRANCH   4   7
ATOM      7  C   UNL A   1      34.921  22.616  24.264  1.00  0.00     0.178 C 
BRANCH   7   8
ATOM      8  S   UNL A   1      33.755  23.731  25.023  1.00  0.00    -0.076 SA
BRANCH   8   9
ATOM      9  C   UNL A   1      32.940  24.754  23.896  1.00  0.00     0.196 A 
ATOM     10  N   UNL A   1      32.420  26.028  24.020  1.00  0.00    -0.274 N 
ATOM     11  C   UNL A   1      31.678  26.226  22.865  1.00  0.00     0.135 A 
ATOM     12  C   UNL A   1      30.925  27.452  22.507  1.00  0.00     0.090 C 
ATOM     13  N   UNL A   1      31.779  25.164  22.095  1.00  0.00    -0.134 NA
ATOM     14  N   UNL A   1      32.568  24.253  22.735  1.00  0.00    -0.123 NA
BRANCH  10  15
ATOM     15  C   UNL A   1      32.644  26.998  25.006  1.00  0.00     0.053 A 
ATOM     16  C   UNL A   1      33.064  28.933  26.976  1.00  0.00     0.154 A 
ATOM     17  C   UNL A   1      34.004  28.740  25.954  1.00  0.00     0.052 A 
ATOM     18  C   UNL A   1      31.946  28.095  27.028  1.00  0.00     0.167 A 
ATOM     19  C   UNL A   1      33.810  27.764  24.972  1.00  0.00     0.031 A 
ATOM     20  C   UNL A   1      31.730  27.125  26.051  1.00  0.00     0.070 A 
ATOM     21  F   UNL A   1      31.028  28.203  28.001  1.00  0.00    -0.203 F 
BRANCH  16  22
ATOM     22  O   UNL A   1      33.371  29.957  27.830  1.00  0.00    -0.494 OA
ATOM     23  C   UNL A   1      33.557  31.244  27.251  1.00  0.00     0.278 C 
ENDBRANCH  16  22
ENDBRANCH  10  15
ENDBRANCH   8   9
ENDBRANCH   7   8
ENDBRANCH   4   7
ENDBRANCH   2   3
ENDBRANCH   1   2
BRANCH   1  24
ATOM     24  C   UNL A   1      39.315  21.387  25.996  1.00  0.00     0.002 C 
BRANCH  24  25
ATOM     25  C   UNL A   1      40.588  20.893  26.697  1.00  0.00     0.002 C 
BRANCH  25  26
ATOM     26  C   UNL A   1      41.256  19.631  26.136  1.00  0.00     0.021 C 
BRANCH  26  27
ATOM     27  C   UNL A   1      42.630  19.323  26.710  1.00  0.00     0.116 C 
BRANCH  27  28
ATOM     28  N   UNL A   1      43.659  19.194  25.686  1.00  0.00    -0.352 N 
ATOM     29  C   UNL A   1      44.188  20.193  24.891  1.00  0.00     0.251 C 
ATOM     30  H   UNL A   1      44.021  18.290  25.546  1.00  0.00     0.163 HD
ATOM     31  O   UNL A   1      44.713  19.926  23.822  1.00  0.00    -0.269 OA
BRANCH  29  32
ATOM     32  C   UNL A   1      44.098  21.596  25.347  1.00  0.00     0.039 A 
ATOM     33  C   UNL A   1      43.153  22.458  24.790  1.00  0.00     0.014 A 
ATOM     34  C   UNL A   1      44.970  22.047  26.339  1.00  0.00     0.014 A 
ATOM     35  C   UNL A   1      43.040  23.747  25.300  1.00  0.00     0.010 A 
ATOM     36  C   UNL A   1      44.775  23.277  26.930  1.00  0.00     0.010 A 
ATOM     37  C   UNL A   1      43.831  24.143  26.397  1.00  0.00    -0.014 A 
BRANCH  37  38
ATOM     38  C   UNL A   1      43.546  25.408  27.069  1.00  0.00     0.031 A 
ATOM     39  C   UNL A   1      44.499  26.488  26.707  1.00  0.00     0.074 A 
ATOM     40  C   UNL A   1      42.468  25.667  27.840  1.00  0.00     0.049 A 
ATOM     41  N   UNL A   1      45.457  26.941  27.441  1.00  0.00    -0.248 NA
ATOM     42  C   UNL A   1      44.508  27.007  25.331  1.00  0.00     0.031 C 
ATOM     43  C   UNL A   1      41.283  24.829  28.048  1.00  0.00     0.029 A 
ATOM     44  N   UNL A   1      42.170  26.793  28.555  1.00  0.00    -0.354 N 
ATOM     45  C   UNL A   1      46.057  27.957  26.707  1.00  0.00     0.074 A 
ATOM     46  C   UNL A   1      45.560  27.830  25.362  1.00  0.00     0.031 C 
ATOM     47  C   UNL A   1      40.311  25.557  28.643  1.00  0.00     0.029 A 
ATOM     48  C   UNL A   1      40.859  26.847  29.021  1.00  0.00     0.049 A 
ATOM     49  H   UNL A   1      42.826  27.506  28.726  1.00  0.00     0.167 HD
ATOM     50  C   UNL A   1      46.684  28.978  27.352  1.00  0.00     0.037 A 
ATOM     51  C   UNL A   1      40.271  27.881  29.672  1.00  0.00     0.037 A 
ATOM     52  C   UNL A   1      46.878  28.652  28.744  1.00  0.00     0.049 A 
ATOM     53  C   UNL A   1      41.354  28.671  30.296  1.00  0.00     0.074 A 
ATOM     54  C   UNL A   1      47.642  27.758  29.460  1.00  0.00     0.029 A 
ATOM     55  N   UNL A   1      45.845  29.044  29.552  1.00  0.00    -0.354 N 
ATOM     56  N   UNL A   1      42.085  28.244  31.287  1.00  0.00    -0.248 NA
ATOM     57  C   UNL A   1      41.862  29.847  29.604  1.00  0.00     0.031 C 
ATOM     58  C   UNL A   1      46.879  27.442  30.625  1.00  0.00     0.029 A 
ATOM     59  C   UNL A   1      45.706  28.197  30.615  1.00  0.00     0.049 A 
ATOM     60  H   UNL A   1      45.276  29.831  29.388  1.00  0.00     0.167 HD
ATOM     61  C   UNL A   1      43.329  28.788  31.044  1.00  0.00     0.074 A 
ATOM     62  C   UNL A   1      43.085  29.902  30.136  1.00  0.00     0.031 C 
ATOM     63  C   UNL A   1      44.458  28.080  31.337  1.00  0.00     0.037 A 
BRANCH  50  64
ATOM     64  C   UNL A   1      46.665  30.420  26.895  1.00  0.00     0.064 A 
ATOM     65  C   UNL A   1      45.483  31.173  26.729  1.00  0.00     0.173 A 
ATOM     66  C   UNL A   1      47.859  31.170  26.942  1.00  0.00     0.173 A 
ATOM     67  F   UNL A   1      44.269  30.616  26.803  1.00  0.00    -0.203 F 
ATOM     68  C   UNL A   1      45.491  32.562  26.609  1.00  0.00     0.198 A 
ATOM     69  C   UNL A   1      47.859  32.568  26.876  1.00  0.00     0.198 A 
ATOM     70  F   UNL A   1      49.038  30.564  27.148  1.00  0.00    -0.203 F 
ATOM     71  F   UNL A   1      44.329  33.217  26.484  1.00  0.00    -0.200 F 
ATOM     72  C   UNL A   1      46.675  33.261  26.707  1.00  0.00     0.200 A 
ATOM     73  F   UNL A   1      49.003  33.244  27.043  1.00  0.00    -0.200 F 
ATOM     74  F   UNL A   1      46.664  34.601  26.692  1.00  0.00    -0.200 F 
ENDBRANCH  50  64
BRANCH  51  75
ATOM     75  C   UNL A   1      38.878  28.387  29.624  1.00  0.00     0.064 A 
ATOM     76  C   UNL A   1      38.363  28.996  28.466  1.00  0.00     0.173 A 
ATOM     77  C   UNL A   1      38.151  28.592  30.813  1.00  0.00     0.173 A 
ATOM     78  F   UNL A   1      39.007  28.895  27.295  1.00  0.00    -0.203 F 
ATOM     79  C   UNL A   1      37.236  29.821  28.509  1.00  0.00     0.198 A 
ATOM     80  C   UNL A   1      37.028  29.422  30.855  1.00  0.00     0.198 A 
ATOM     81  F   UNL A   1      38.580  28.062  31.968  1.00  0.00    -0.203 F 
ATOM     82  F   UNL A   1      36.832  30.453  27.398  1.00  0.00    -0.200 F 
ATOM     83  C   UNL A   1      36.584  30.054  29.707  1.00  0.00     0.200 A 
ATOM     84  F   UNL A   1      36.424  29.670  32.027  1.00  0.00    -0.200 F 
ATOM     85  F   UNL A   1      35.563  30.920  29.763  1.00  0.00    -0.200 F 
ENDBRANCH  51  75
BRANCH  63  86
ATOM     86  C   UNL A   1      44.350  27.006  32.380  1.00  0.00     0.064 A 
ATOM     87  C   UNL A   1      44.484  27.399  33.720  1.00  0.00     0.173 A 
ATOM     88  C   UNL A   1      44.203  25.633  32.121  1.00  0.00     0.173 A 
ATOM     89  F   UNL A   1      44.658  28.695  34.026  1.00  0.00    -0.203 F 
ATOM     90  C   UNL A   1      44.477  26.469  34.753  1.00  0.00     0.198 A 
ATOM     91  C   UNL A   1      44.153  24.707  33.162  1.00  0.00     0.198 A 
ATOM     92  F   UNL A   1      44.148  25.165  30.867  1.00  0.00    -0.203 F 
ATOM     93  F   UNL A   1      44.663  26.877  36.016  1.00  0.00    -0.200 F 
ATOM     94  C   UNL A   1      44.299  25.126  34.476  1.00  0.00     0.200 A 
ATOM     95  F   UNL A   1      43.986  23.403  32.896  1.00  0.00    -0.200 F 
ATOM     96  F   UNL A   1      44.290  24.231  35.474  1.00  0.00    -0.200 F 
ENDBRANCH  63  86
ENDBRANCH  37  38
ENDBRANCH  29  32
ENDBRANCH  27  28
ENDBRANCH  26  27
ENDBRANCH  25  26
ENDBRANCH  24  25
ENDBRANCH   1  24
TORSDOF 17
ENDMDL
MODEL 3
REMARK VINA RESULT:     -11.6      4.865     10.222
REMARK SMILES COc1ccc(-n2c(C)nnc2SCC(=O)NCCCCCCNC(=O)c2ccc(-c3c4nc(c(-c5c(F)c(F)c(F)c(F)c5F)c5ccc([nH]5)c(-c5c(F)c(F)c(F)c(F)c5F)c5nc(c(-c6c(F)c(F)c(F)c(F)c6F)c6ccc3[nH]6)C=C5)C=C4)cc2)cc1F
REMARK SMILES IDX 19 1 18 2 17 3 15 4 16 5 14 7 13 8 12 9 7 10 8 11 9 12 10 13
REMARK SMILES IDX 11 14 6 15 3 16 4 17 91 18 5 19 90 20 92 21 2 22 1 23 20 24
REMARK SMILES IDX 21 25 22 26 23 27 24 28 25 29 26 31 27 32 28 33 89 34 29 35
REMARK SMILES IDX 88 36 30 37 31 38 32 39 82 40 33 41 87 42 81 43 83 44 34 45
REMARK SMILES IDX 86 46 80 47 79 48 35 50 67 51 47 52 66 53 48 54 51 55 65 56
REMARK SMILES IDX 84 57 49 58 50 59 64 61 85 62 52 63 36 64 37 65 45 66 38 67
REMARK SMILES IDX 39 68 43 69 46 70 40 71 41 72 44 73 42 74 68 75 69 76 77 77
REMARK SMILES IDX 70 78 71 79 75 80 78 81 72 82 73 83 76 84 74 85 53 86 54 87
REMARK SMILES IDX 62 88 55 89 56 90 60 91 63 92 57 93 58 94 61 95 59 96
REMARK H PARENT 17 6 24 30 83 49 51 60
REMARK Flexibility Score: inf
ROOT
ATOM      1  C   UNL A   1      34.992  32.334  27.641  1.00  0.00     0.021 C 
ENDROOT
BRANCH   1   2
ATOM      2  C   UNL A   1      33.990  31.240  28.004  1.00  0.00     0.116 C 
BRANCH   2   3
ATOM      3  N   UNL A   1      33.049  30.956  26.941  1.00  0.00    -0.355 N 
ATOM      4  C   UNL A   1      32.744  29.771  26.356  1.00  0.00     0.230 C 
ATOM      5  O   UNL A   1      31.586  29.660  25.931  1.00  0.00    -0.274 OA
ATOM      6  H   UNL A   1      32.560  31.736  26.593  1.00  0.00     0.163 HD
BRANCH   4   7
ATOM      7  C   UNL A   1      33.683  28.587  26.259  1.00  0.00     0.178 C 
BRANCH   7   8
ATOM      8  S   UNL A   1      33.000  26.975  25.921  1.00  0.00    -0.076 SA
BRANCH   8   9
ATOM      9  C   UNL A   1      33.154  26.489  24.272  1.00  0.00     0.196 A 
ATOM     10  N   UNL A   1      32.308  26.629  23.189  1.00  0.00    -0.274 N 
ATOM     11  C   UNL A   1      32.860  25.833  22.197  1.00  0.00     0.135 A 
ATOM     12  C   UNL A   1      32.331  25.651  20.824  1.00  0.00     0.090 C 
ATOM     13  N   UNL A   1      33.972  25.290  22.643  1.00  0.00    -0.134 NA
ATOM     14  N   UNL A   1      34.156  25.702  23.931  1.00  0.00    -0.123 NA
BRANCH  10  15
ATOM     15  C   UNL A   1      31.191  27.459  23.023  1.00  0.00     0.053 A 
ATOM     16  C   UNL A   1      28.950  29.093  22.690  1.00  0.00     0.154 A 
ATOM     17  C   UNL A   1      30.225  29.548  22.325  1.00  0.00     0.052 A 
ATOM     18  C   UNL A   1      28.830  27.833  23.284  1.00  0.00     0.167 A 
ATOM     19  C   UNL A   1      31.354  28.743  22.501  1.00  0.00     0.031 A 
ATOM     20  C   UNL A   1      29.944  27.012  23.457  1.00  0.00     0.070 A 
ATOM     21  F   UNL A   1      27.645  27.354  23.690  1.00  0.00    -0.203 F 
BRANCH  16  22
ATOM     22  O   UNL A   1      27.942  29.975  22.410  1.00  0.00    -0.494 OA
ATOM     23  C   UNL A   1      27.694  30.995  23.371  1.00  0.00     0.278 C 
ENDBRANCH  16  22
ENDBRANCH  10  15
ENDBRANCH   8   9
ENDBRANCH   7   8
ENDBRANCH   4   7
ENDBRANCH   2   3
ENDBRANCH   1   2
BRANCH   1  24
ATOM     24  C   UNL A   1      35.085  33.508  28.625  1.00  0.00     0.002 C 
BRANCH  24  25
ATOM     25  C   UNL A   1      34.767  34.907  28.079  1.00  0.00     0.002 C 
BRANCH  25  26
ATOM     26  C   UNL A   1      33.706  35.729  28.822  1.00  0.00     0.021 C 
BRANCH  26  27
ATOM     27  C   UNL A   1      33.077  35.031  30.018  1.00  0.00     0.116 C 
BRANCH  27  28
ATOM     28  N   UNL A   1      33.054  35.862  31.215  1.00  0.00    -0.352 N 
ATOM     29  C   UNL A   1      33.653  35.605  32.433  1.00  0.00     0.251 C 
ATOM     30  H   UNL A   1      32.553  36.706  31.147  1.00  0.00     0.163 HD
ATOM     31  O   UNL A   1      33.242  36.131  33.454  1.00  0.00    -0.269 OA
BRANCH  29  32
ATOM     32  C   UNL A   1      34.798  34.672  32.486  1.00  0.00     0.039 A 
ATOM     33  C   UNL A   1      34.593  33.298  32.353  1.00  0.00     0.014 A 
ATOM     34  C   UNL A   1      36.085  35.181  32.671  1.00  0.00     0.014 A 
ATOM     35  C   UNL A   1      35.699  32.455  32.324  1.00  0.00     0.010 A 
ATOM     36  C   UNL A   1      37.185  34.364  32.516  1.00  0.00     0.010 A 
ATOM     37  C   UNL A   1      36.999  32.997  32.370  1.00  0.00    -0.014 A 
BRANCH  37  38
ATOM     38  C   UNL A   1      38.148  32.133  32.108  1.00  0.00     0.031 A 
ATOM     39  C   UNL A   1      38.894  31.768  33.339  1.00  0.00     0.074 A 
ATOM     40  C   UNL A   1      38.466  31.583  30.916  1.00  0.00     0.049 A 
ATOM     41  N   UNL A   1      40.031  32.247  33.714  1.00  0.00    -0.248 NA
ATOM     42  C   UNL A   1      38.246  30.914  34.345  1.00  0.00     0.031 C 
ATOM     43  C   UNL A   1      37.676  31.582  29.681  1.00  0.00     0.029 A 
ATOM     44  N   UNL A   1      39.554  30.829  30.578  1.00  0.00    -0.354 N 
ATOM     45  C   UNL A   1      40.351  31.593  34.898  1.00  0.00     0.074 A 
ATOM     46  C   UNL A   1      39.148  30.931  35.331  1.00  0.00     0.031 C 
ATOM     47  C   UNL A   1      38.196  30.687  28.810  1.00  0.00     0.029 A 
ATOM     48  C   UNL A   1      39.449  30.187  29.347  1.00  0.00     0.049 A 
ATOM     49  H   UNL A   1      40.346  30.745  31.157  1.00  0.00     0.167 HD
ATOM     50  C   UNL A   1      41.655  31.430  35.250  1.00  0.00     0.037 A 
ATOM     51  C   UNL A   1      40.332  29.310  28.810  1.00  0.00     0.037 A 
ATOM     52  C   UNL A   1      42.505  32.264  34.437  1.00  0.00     0.049 A 
ATOM     53  C   UNL A   1      41.643  29.575  29.442  1.00  0.00     0.074 A 
ATOM     54  C   UNL A   1      42.734  33.615  34.296  1.00  0.00     0.029 A 
ATOM     55  N   UNL A   1      42.947  31.655  33.293  1.00  0.00    -0.354 N 
ATOM     56  N   UNL A   1      42.339  30.658  29.241  1.00  0.00    -0.248 NA
ATOM     57  C   UNL A   1      42.058  28.765  30.579  1.00  0.00     0.031 C 
ATOM     58  C   UNL A   1      43.089  33.808  32.926  1.00  0.00     0.029 A 
ATOM     59  C   UNL A   1      43.127  32.566  32.291  1.00  0.00     0.049 A 
ATOM     60  H   UNL A   1      43.112  30.688  33.205  1.00  0.00     0.167 HD
ATOM     61  C   UNL A   1      42.946  30.898  30.457  1.00  0.00     0.074 A 
ATOM     62  C   UNL A   1      42.902  29.621  31.160  1.00  0.00     0.031 C 
ATOM     63  C   UNL A   1      43.120  32.176  30.898  1.00  0.00     0.037 A 
BRANCH  50  64
ATOM     64  C   UNL A   1      42.211  30.199  35.932  1.00  0.00     0.064 A 
ATOM     65  C   UNL A   1      42.037  28.887  35.443  1.00  0.00     0.173 A 
ATOM     66  C   UNL A   1      43.217  30.353  36.910  1.00  0.00     0.173 A 
ATOM     67  F   UNL A   1      41.220  28.612  34.420  1.00  0.00    -0.203 F 
ATOM     68  C   UNL A   1      42.798  27.812  35.899  1.00  0.00     0.198 A 
ATOM     69  C   UNL A   1      44.015  29.281  37.325  1.00  0.00     0.198 A 
ATOM     70  F   UNL A   1      43.505  31.564  37.409  1.00  0.00    -0.203 F 
ATOM     71  F   UNL A   1      42.600  26.596  35.369  1.00  0.00    -0.200 F 
ATOM     72  C   UNL A   1      43.802  28.011  36.821  1.00  0.00     0.200 A 
ATOM     73  F   UNL A   1      45.035  29.496  38.167  1.00  0.00    -0.200 F 
ATOM     74  F   UNL A   1      44.595  26.992  37.179  1.00  0.00    -0.200 F 
ENDBRANCH  50  64
BRANCH  51  75
ATOM     75  C   UNL A   1      40.113  28.111  27.966  1.00  0.00     0.064 A 
ATOM     76  C   UNL A   1      39.477  26.966  28.479  1.00  0.00     0.173 A 
ATOM     77  C   UNL A   1      40.825  27.944  26.763  1.00  0.00     0.173 A 
ATOM     78  F   UNL A   1      38.811  27.014  29.640  1.00  0.00    -0.203 F 
ATOM     79  C   UNL A   1      39.610  25.717  27.867  1.00  0.00     0.198 A 
ATOM     80  C   UNL A   1      40.962  26.693  26.156  1.00  0.00     0.198 A 
ATOM     81  F   UNL A   1      41.477  28.979  26.213  1.00  0.00    -0.203 F 
ATOM     82  F   UNL A   1      39.061  24.635  28.437  1.00  0.00    -0.200 F 
ATOM     83  C   UNL A   1      40.372  25.576  26.720  1.00  0.00     0.200 A 
ATOM     84  F   UNL A   1      41.732  26.560  25.066  1.00  0.00    -0.200 F 
ATOM     85  F   UNL A   1      40.577  24.362  26.191  1.00  0.00    -0.200 F 
ENDBRANCH  51  75
BRANCH  63  86
ATOM     86  C   UNL A   1      43.158  33.265  29.866  1.00  0.00     0.064 A 
ATOM     87  C   UNL A   1      41.984  34.010  29.679  1.00  0.00     0.173 A 
ATOM     88  C   UNL A   1      44.245  33.549  29.022  1.00  0.00     0.173 A 
ATOM     89  F   UNL A   1      40.903  33.762  30.435  1.00  0.00    -0.203 F 
ATOM     90  C   UNL A   1      41.894  34.986  28.693  1.00  0.00     0.198 A 
ATOM     91  C   UNL A   1      44.166  34.559  28.064  1.00  0.00     0.198 A 
ATOM     92  F   UNL A   1      45.375  32.832  29.081  1.00  0.00    -0.203 F 
ATOM     93  F   UNL A   1      40.738  35.638  28.508  1.00  0.00    -0.200 F 
ATOM     94  C   UNL A   1      42.987  35.270  27.895  1.00  0.00     0.200 A 
ATOM     95  F   UNL A   1      45.223  34.832  27.285  1.00  0.00    -0.200 F 
ATOM     96  F   UNL A   1      42.899  36.214  26.948  1.00  0.00    -0.200 F 
ENDBRANCH  63  86
ENDBRANCH  37  38
ENDBRANCH  29  32
ENDBRANCH  27  28
ENDBRANCH  26  27
ENDBRANCH  25  26
ENDBRANCH  24  25
ENDBRANCH   1  24
TORSDOF 17
ENDMDL
