MODEL 1
REMARK VINA RESULT:     -13.3      0.000      0.000
REMARK SMILES O=C(NCCCCCCNC(=O)[C@H]1[C@H]2CC[C@H](C2)[C@@H]1C(=O)N1CCN(c2cccc(Cl)c2)CC1)c1ccc(-c2c3nc(c(-c4c(F)c(F)c(F)c(F)c4F)c4ccc([nH]4)c(-c4c(F)c(F)c(F)c(F)c4F)c4nc(c(-c5c(F)c(F)c(F)c(F)c5F)c5ccc2[nH]5)C=C4)C=C3)cc1
REMARK SMILES IDX 6 1 5 2 4 3 3 4 1 5 2 6 35 8 36 9 97 10 37 11 96 12 38 13
REMARK SMILES IDX 39 14 40 15 90 16 41 17 95 18 89 19 91 20 42 21 94 22 88 23
REMARK SMILES IDX 87 24 43 26 75 27 55 28 74 29 56 30 59 31 73 32 92 33 57 34
REMARK SMILES IDX 58 35 72 37 93 38 60 39 44 40 45 41 53 42 46 43 47 44 51 45
REMARK SMILES IDX 54 46 48 47 49 48 52 49 50 50 76 51 77 52 85 53 78 54 79 55
REMARK SMILES IDX 83 56 86 57 80 58 81 59 84 60 82 61 61 62 62 63 70 64 63 65
REMARK SMILES IDX 64 66 68 67 71 68 65 69 66 70 69 71 67 72 7 73 8 74 9 75
REMARK SMILES IDX 10 76 11 77 12 79 13 80 14 81 19 82 15 83 18 84 17 85 16 86
REMARK SMILES IDX 20 87 21 88 22 89 23 90 34 91 24 92 33 93 25 94 26 95 27 96
REMARK SMILES IDX 32 97 28 98 30 99 29 100 31 101
REMARK H PARENT 3 7 91 25 59 36 10 78
REMARK Flexibility Score: inf
ROOT
ATOM      1  C   UNL A   1      31.472  30.740  26.734  1.00  0.00     0.002 C 
ENDROOT
BRANCH   1   2
ATOM      2  C   UNL A   1      31.382  32.265  26.762  1.00  0.00     0.021 C 
BRANCH   2   3
ATOM      3  C   UNL A   1      32.654  32.962  27.224  1.00  0.00     0.116 C 
BRANCH   3   4
ATOM      4  N   UNL A   1      32.409  34.313  27.700  1.00  0.00    -0.352 N 
ATOM      5  O   UNL A   1      32.604  36.072  29.107  1.00  0.00    -0.269 OA
ATOM      6  C   UNL A   1      33.032  34.989  28.721  1.00  0.00     0.251 C 
ATOM      7  H   UNL A   1      31.703  34.810  27.229  1.00  0.00     0.163 HD
BRANCH   6   8
ATOM      8  C   UNL A   1      34.217  34.388  29.373  1.00  0.00     0.039 A 
ATOM      9  C   UNL A   1      35.500  34.675  28.906  1.00  0.00     0.014 A 
ATOM     10  C   UNL A   1      34.040  33.520  30.456  1.00  0.00     0.014 A 
ATOM     11  C   UNL A   1      36.590  33.987  29.421  1.00  0.00     0.010 A 
ATOM     12  C   UNL A   1      35.150  32.900  31.037  1.00  0.00     0.010 A 
ATOM     13  C   UNL A   1      36.432  33.107  30.506  1.00  0.00    -0.014 A 
BRANCH  13  14
ATOM     14  C   UNL A   1      37.646  32.490  31.099  1.00  0.00     0.031 A 
ATOM     15  C   UNL A   1      38.116  32.845  32.481  1.00  0.00     0.074 A 
ATOM     16  C   UNL A   1      38.283  31.540  30.388  1.00  0.00     0.049 A 
ATOM     17  N   UNL A   1      39.106  32.331  33.169  1.00  0.00    -0.248 NA
ATOM     18  C   UNL A   1      37.396  33.919  33.180  1.00  0.00     0.031 C 
ATOM     19  C   UNL A   1      37.932  31.137  29.024  1.00  0.00     0.029 A 
ATOM     20  N   UNL A   1      39.331  30.720  30.716  1.00  0.00    -0.354 N 
ATOM     21  C   UNL A   1      39.132  33.019  34.374  1.00  0.00     0.074 A 
ATOM     22  C   UNL A   1      38.079  34.012  34.314  1.00  0.00     0.031 C 
ATOM     23  C   UNL A   1      38.704  30.106  28.657  1.00  0.00     0.029 A 
ATOM     24  C   UNL A   1      39.643  29.813  29.733  1.00  0.00     0.049 A 
ATOM     25  H   UNL A   1      39.812  30.775  31.573  1.00  0.00     0.167 HD
ATOM     26  C   UNL A   1      39.952  32.829  35.435  1.00  0.00     0.037 A 
ATOM     27  C   UNL A   1      40.584  28.852  29.697  1.00  0.00     0.037 A 
ATOM     28  C   UNL A   1      40.995  31.834  35.491  1.00  0.00     0.049 A 
ATOM     29  C   UNL A   1      41.468  28.659  30.893  1.00  0.00     0.074 A 
ATOM     30  C   UNL A   1      41.877  31.562  36.523  1.00  0.00     0.029 A 
ATOM     31  N   UNL A   1      41.293  30.944  34.470  1.00  0.00    -0.354 N 
ATOM     32  N   UNL A   1      41.466  29.305  32.034  1.00  0.00    -0.248 NA
ATOM     33  C   UNL A   1      42.484  27.604  30.799  1.00  0.00     0.031 C 
ATOM     34  C   UNL A   1      42.730  30.530  36.113  1.00  0.00     0.029 A 
ATOM     35  C   UNL A   1      42.351  30.129  34.842  1.00  0.00     0.049 A 
ATOM     36  H   UNL A   1      40.821  30.897  33.606  1.00  0.00     0.167 HD
ATOM     37  C   UNL A   1      42.478  28.737  32.793  1.00  0.00     0.074 A 
ATOM     38  C   UNL A   1      43.046  27.667  31.997  1.00  0.00     0.031 C 
ATOM     39  C   UNL A   1      42.910  29.080  34.031  1.00  0.00     0.037 A 
BRANCH  26  40
ATOM     40  C   UNL A   1      39.766  33.718  36.631  1.00  0.00     0.064 A 
ATOM     41  C   UNL A   1      40.388  34.972  36.717  1.00  0.00     0.173 A 
ATOM     42  C   UNL A   1      38.903  33.342  37.673  1.00  0.00     0.173 A 
ATOM     43  F   UNL A   1      41.231  35.375  35.753  1.00  0.00    -0.203 F 
ATOM     44  C   UNL A   1      40.167  35.810  37.807  1.00  0.00     0.198 A 
ATOM     45  C   UNL A   1      38.665  34.192  38.750  1.00  0.00     0.198 A 
ATOM     46  F   UNL A   1      38.278  32.156  37.638  1.00  0.00    -0.203 F 
ATOM     47  F   UNL A   1      40.798  36.990  37.882  1.00  0.00    -0.200 F 
ATOM     48  C   UNL A   1      39.299  35.424  38.819  1.00  0.00     0.200 A 
ATOM     49  F   UNL A   1      37.817  33.823  39.720  1.00  0.00    -0.200 F 
ATOM     50  F   UNL A   1      39.078  36.237  39.860  1.00  0.00    -0.200 F 
ENDBRANCH  26  40
BRANCH  27  51
ATOM     51  C   UNL A   1      40.732  28.012  28.482  1.00  0.00     0.064 A 
ATOM     52  C   UNL A   1      41.537  28.418  27.411  1.00  0.00     0.173 A 
ATOM     53  C   UNL A   1      40.079  26.774  28.377  1.00  0.00     0.173 A 
ATOM     54  F   UNL A   1      42.167  29.602  27.458  1.00  0.00    -0.203 F 
ATOM     55  C   UNL A   1      41.671  27.627  26.272  1.00  0.00     0.198 A 
ATOM     56  C   UNL A   1      40.239  25.969  27.252  1.00  0.00     0.198 A 
ATOM     57  F   UNL A   1      39.303  26.336  29.379  1.00  0.00    -0.203 F 
ATOM     58  F   UNL A   1      42.414  28.058  25.243  1.00  0.00    -0.200 F 
ATOM     59  C   UNL A   1      41.029  26.400  26.198  1.00  0.00     0.200 A 
ATOM     60  F   UNL A   1      39.632  24.776  27.193  1.00  0.00    -0.200 F 
ATOM     61  F   UNL A   1      41.166  25.635  25.105  1.00  0.00    -0.200 F 
ENDBRANCH  27  51
BRANCH  39  62
ATOM     62  C   UNL A   1      44.050  28.281  34.590  1.00  0.00     0.064 A 
ATOM     63  C   UNL A   1      45.382  28.685  34.410  1.00  0.00     0.173 A 
ATOM     64  C   UNL A   1      43.810  27.104  35.312  1.00  0.00     0.173 A 
ATOM     65  F   UNL A   1      45.661  29.796  33.709  1.00  0.00    -0.203 F 
ATOM     66  C   UNL A   1      46.434  27.919  34.902  1.00  0.00     0.198 A 
ATOM     67  C   UNL A   1      44.865  26.354  35.827  1.00  0.00     0.198 A 
ATOM     68  F   UNL A   1      42.555  26.679  35.516  1.00  0.00    -0.203 F 
ATOM     69  F   UNL A   1      47.700  28.293  34.667  1.00  0.00    -0.200 F 
ATOM     70  C   UNL A   1      46.174  26.757  35.614  1.00  0.00     0.200 A 
ATOM     71  F   UNL A   1      44.613  25.236  36.522  1.00  0.00    -0.200 F 
ATOM     72  F   UNL A   1      47.189  26.017  36.082  1.00  0.00    -0.200 F 
ENDBRANCH  39  62
ENDBRANCH  13  14
ENDBRANCH   6   8
ENDBRANCH   3   4
ENDBRANCH   2   3
ENDBRANCH   1   2
BRANCH   1  73
ATOM     73  C   UNL A   1      32.897  30.172  26.710  1.00  0.00     0.002 C 
BRANCH  73  74
ATOM     74  C   UNL A   1      33.282  29.425  25.425  1.00  0.00     0.021 C 
BRANCH  74  75
ATOM     75  C   UNL A   1      34.041  28.122  25.674  1.00  0.00     0.116 C 
BRANCH  75  76
ATOM     76  N   UNL A   1      33.252  27.218  26.489  1.00  0.00    -0.356 N 
ATOM     77  C   UNL A   1      32.622  26.063  26.131  1.00  0.00     0.224 C 
ATOM     78  H   UNL A   1      33.159  27.476  27.435  1.00  0.00     0.163 HD
ATOM     79  O   UNL A   1      31.861  25.531  26.936  1.00  0.00    -0.275 OA
BRANCH  77  80
ATOM     80  C   UNL A   1      32.964  25.457  24.785  1.00  0.00     0.094 C 
ATOM     81  C   UNL A   1      34.464  25.077  24.699  1.00  0.00     0.002 C 
ATOM     82  C   UNL A   1      32.245  24.126  24.462  1.00  0.00     0.094 C 
ATOM     83  C   UNL A   1      34.857  24.056  25.783  1.00  0.00     0.005 C 
ATOM     84  C   UNL A   1      34.460  24.187  23.463  1.00  0.00     0.009 C 
ATOM     85  C   UNL A   1      33.419  23.218  24.037  1.00  0.00     0.002 C 
ATOM     86  C   UNL A   1      34.149  22.771  25.324  1.00  0.00     0.005 C 
BRANCH  82  87
ATOM     87  C   UNL A   1      31.085  24.386  23.491  1.00  0.00     0.226 C 
ATOM     88  O   UNL A   1      30.376  23.448  23.122  1.00  0.00    -0.275 OA
ATOM     89  N   UNL A   1      30.690  25.694  23.272  1.00  0.00    -0.339 N 
ATOM     90  C   UNL A   1      29.249  25.969  23.265  1.00  0.00     0.141 C 
ATOM     91  C   UNL A   1      31.450  26.605  22.412  1.00  0.00     0.141 C 
ATOM     92  C   UNL A   1      28.957  27.424  23.671  1.00  0.00     0.138 C 
ATOM     93  C   UNL A   1      31.179  28.084  22.748  1.00  0.00     0.138 C 
ATOM     94  N   UNL A   1      29.729  28.350  22.827  1.00  0.00    -0.368 N 
BRANCH  94  95
ATOM     95  C   UNL A   1      29.342  29.679  22.711  1.00  0.00     0.038 A 
ATOM     96  C   UNL A   1      29.487  30.534  23.815  1.00  0.00     0.026 A 
ATOM     97  C   UNL A   1      28.807  30.218  21.536  1.00  0.00     0.046 A 
ATOM     98  C   UNL A   1      29.119  31.880  23.754  1.00  0.00     0.004 A 
ATOM     99  C   UNL A   1      28.427  31.561  21.476  1.00  0.00     0.043 A 
ATOM    100  C   UNL A   1      28.582  32.396  22.580  1.00  0.00     0.020 A 
ATOM    101  Cl  UNL A   1      27.749  32.191  20.023  1.00  0.00    -0.084 Cl
ENDBRANCH  94  95
ENDBRANCH  82  87
ENDBRANCH  77  80
ENDBRANCH  75  76
ENDBRANCH  74  75
ENDBRANCH  73  74
ENDBRANCH   1  73
TORSDOF 15
ENDMDL
MODEL 2
REMARK VINA RESULT:     -13.2      2.447      4.433
REMARK SMILES O=C(NCCCCCCNC(=O)[C@H]1[C@H]2CC[C@H](C2)[C@@H]1C(=O)N1CCN(c2cccc(Cl)c2)CC1)c1ccc(-c2c3nc(c(-c4c(F)c(F)c(F)c(F)c4F)c4ccc([nH]4)c(-c4c(F)c(F)c(F)c(F)c4F)c4nc(c(-c5c(F)c(F)c(F)c(F)c5F)c5ccc2[nH]5)C=C4)C=C3)cc1
REMARK SMILES IDX 6 1 5 2 4 3 3 4 1 5 2 6 35 8 36 9 97 10 37 11 96 12 38 13
REMARK SMILES IDX 39 14 40 15 90 16 41 17 95 18 89 19 91 20 42 21 94 22 88 23
REMARK SMILES IDX 87 24 43 26 75 27 55 28 74 29 56 30 59 31 73 32 92 33 57 34
REMARK SMILES IDX 58 35 72 37 93 38 60 39 44 40 45 41 53 42 46 43 47 44 51 45
REMARK SMILES IDX 54 46 48 47 49 48 52 49 50 50 76 51 77 52 85 53 78 54 79 55
REMARK SMILES IDX 83 56 86 57 80 58 81 59 84 60 82 61 61 62 62 63 70 64 63 65
REMARK SMILES IDX 64 66 68 67 71 68 65 69 66 70 69 71 67 72 7 73 8 74 9 75
REMARK SMILES IDX 10 76 11 77 12 79 13 80 14 81 19 82 15 83 18 84 17 85 16 86
REMARK SMILES IDX 20 87 21 88 22 89 23 90 34 91 24 92 33 93 25 94 26 95 27 96
REMARK SMILES IDX 32 97 28 98 30 99 29 100 31 101
REMARK H PARENT 3 7 91 25 59 36 10 78
REMARK Flexibility Score: inf
ROOT
ATOM      1  C   UNL A   1      31.724  31.105  26.627  1.00  0.00     0.002 C 
ENDROOT
BRANCH   1   2
ATOM      2  C   UNL A   1      31.561  32.621  26.738  1.00  0.00     0.021 C 
BRANCH   2   3
ATOM      3  C   UNL A   1      32.784  33.347  27.277  1.00  0.00     0.116 C 
BRANCH   3   4
ATOM      4  N   UNL A   1      32.453  34.627  27.882  1.00  0.00    -0.352 N 
ATOM      5  O   UNL A   1      32.502  36.231  29.474  1.00  0.00    -0.269 OA
ATOM      6  C   UNL A   1      33.000  35.217  28.995  1.00  0.00     0.251 C 
ATOM      7  H   UNL A   1      31.742  35.139  27.434  1.00  0.00     0.163 HD
BRANCH   6   8
ATOM      8  C   UNL A   1      34.186  34.604  29.634  1.00  0.00     0.039 A 
ATOM      9  C   UNL A   1      35.440  34.703  29.030  1.00  0.00     0.014 A 
ATOM     10  C   UNL A   1      34.038  33.915  30.842  1.00  0.00     0.014 A 
ATOM     11  C   UNL A   1      36.513  33.994  29.554  1.00  0.00     0.010 A 
ATOM     12  C   UNL A   1      35.143  33.280  31.419  1.00  0.00     0.010 A 
ATOM     13  C   UNL A   1      36.384  33.291  30.764  1.00  0.00    -0.014 A 
BRANCH  13  14
ATOM     14  C   UNL A   1      37.592  32.652  31.344  1.00  0.00     0.031 A 
ATOM     15  C   UNL A   1      38.084  32.999  32.720  1.00  0.00     0.074 A 
ATOM     16  C   UNL A   1      38.204  31.690  30.627  1.00  0.00     0.049 A 
ATOM     17  N   UNL A   1      39.071  32.466  33.398  1.00  0.00    -0.248 NA
ATOM     18  C   UNL A   1      37.392  34.086  33.427  1.00  0.00     0.031 C 
ATOM     19  C   UNL A   1      37.829  31.293  29.266  1.00  0.00     0.029 A 
ATOM     20  N   UNL A   1      39.239  30.850  30.943  1.00  0.00    -0.354 N 
ATOM     21  C   UNL A   1      39.124  33.154  34.602  1.00  0.00     0.074 A 
ATOM     22  C   UNL A   1      38.089  34.167  34.553  1.00  0.00     0.031 C 
ATOM     23  C   UNL A   1      38.578  30.247  28.891  1.00  0.00     0.029 A 
ATOM     24  C   UNL A   1      39.523  29.937  29.957  1.00  0.00     0.049 A 
ATOM     25  H   UNL A   1      39.731  30.897  31.794  1.00  0.00     0.167 HD
ATOM     26  C   UNL A   1      39.953  32.949  35.654  1.00  0.00     0.037 A 
ATOM     27  C   UNL A   1      40.446  28.960  29.911  1.00  0.00     0.037 A 
ATOM     28  C   UNL A   1      40.977  31.936  35.699  1.00  0.00     0.049 A 
ATOM     29  C   UNL A   1      41.339  28.750  31.097  1.00  0.00     0.074 A 
ATOM     30  C   UNL A   1      41.865  31.647  36.721  1.00  0.00     0.029 A 
ATOM     31  N   UNL A   1      41.247  31.039  34.675  1.00  0.00    -0.354 N 
ATOM     32  N   UNL A   1      41.362  29.396  32.238  1.00  0.00    -0.248 NA
ATOM     33  C   UNL A   1      42.334  27.676  30.993  1.00  0.00     0.031 C 
ATOM     34  C   UNL A   1      42.694  30.600  36.302  1.00  0.00     0.029 A 
ATOM     35  C   UNL A   1      42.294  30.205  35.036  1.00  0.00     0.049 A 
ATOM     36  H   UNL A   1      40.764  31.000  33.816  1.00  0.00     0.167 HD
ATOM     37  C   UNL A   1      42.372  28.810  32.986  1.00  0.00     0.074 A 
ATOM     38  C   UNL A   1      42.911  27.729  32.184  1.00  0.00     0.031 C 
ATOM     39  C   UNL A   1      42.824  29.145  34.219  1.00  0.00     0.037 A 
BRANCH  26  40
ATOM     40  C   UNL A   1      39.796  33.842  36.852  1.00  0.00     0.064 A 
ATOM     41  C   UNL A   1      40.433  35.090  36.924  1.00  0.00     0.173 A 
ATOM     42  C   UNL A   1      38.948  33.477  37.908  1.00  0.00     0.173 A 
ATOM     43  F   UNL A   1      41.263  35.482  35.945  1.00  0.00    -0.203 F 
ATOM     44  C   UNL A   1      40.239  35.932  38.016  1.00  0.00     0.198 A 
ATOM     45  C   UNL A   1      38.737  34.331  38.988  1.00  0.00     0.198 A 
ATOM     46  F   UNL A   1      38.310  32.297  37.886  1.00  0.00    -0.203 F 
ATOM     47  F   UNL A   1      40.883  37.106  38.079  1.00  0.00    -0.200 F 
ATOM     48  C   UNL A   1      39.385  35.556  39.044  1.00  0.00     0.200 A 
ATOM     49  F   UNL A   1      37.903  33.972  39.973  1.00  0.00    -0.200 F 
ATOM     50  F   UNL A   1      39.190  36.374  40.087  1.00  0.00    -0.200 F 
ENDBRANCH  26  40
BRANCH  27  51
ATOM     51  C   UNL A   1      40.564  28.116  28.695  1.00  0.00     0.064 A 
ATOM     52  C   UNL A   1      41.369  28.505  27.617  1.00  0.00     0.173 A 
ATOM     53  C   UNL A   1      39.884  26.893  28.596  1.00  0.00     0.173 A 
ATOM     54  F   UNL A   1      42.025  29.675  27.658  1.00  0.00    -0.203 F 
ATOM     55  C   UNL A   1      41.475  27.711  26.477  1.00  0.00     0.198 A 
ATOM     56  C   UNL A   1      40.016  26.084  27.470  1.00  0.00     0.198 A 
ATOM     57  F   UNL A   1      39.107  26.472  29.605  1.00  0.00    -0.203 F 
ATOM     58  F   UNL A   1      42.218  28.125  25.441  1.00  0.00    -0.200 F 
ATOM     59  C   UNL A   1      40.806  26.498  26.408  1.00  0.00     0.200 A 
ATOM     60  F   UNL A   1      39.383  24.905  27.417  1.00  0.00    -0.200 F 
ATOM     61  F   UNL A   1      40.916  25.730  25.315  1.00  0.00    -0.200 F 
ENDBRANCH  27  51
BRANCH  39  62
ATOM     62  C   UNL A   1      43.955  28.326  34.766  1.00  0.00     0.064 A 
ATOM     63  C   UNL A   1      45.292  28.694  34.554  1.00  0.00     0.173 A 
ATOM     64  C   UNL A   1      43.701  27.163  35.508  1.00  0.00     0.173 A 
ATOM     65  F   UNL A   1      45.584  29.789  33.835  1.00  0.00    -0.203 F 
ATOM     66  C   UNL A   1      46.335  27.909  35.035  1.00  0.00     0.198 A 
ATOM     67  C   UNL A   1      44.747  26.394  36.011  1.00  0.00     0.198 A 
ATOM     68  F   UNL A   1      42.440  26.772  35.741  1.00  0.00    -0.203 F 
ATOM     69  F   UNL A   1      47.605  28.248  34.772  1.00  0.00    -0.200 F 
ATOM     70  C   UNL A   1      46.061  26.762  35.767  1.00  0.00     0.200 A 
ATOM     71  F   UNL A   1      44.482  25.292  36.725  1.00  0.00    -0.200 F 
ATOM     72  F   UNL A   1      47.067  26.003  36.224  1.00  0.00    -0.200 F 
ENDBRANCH  39  62
ENDBRANCH  13  14
ENDBRANCH   6   8
ENDBRANCH   3   4
ENDBRANCH   2   3
ENDBRANCH   1   2
BRANCH   1  73
ATOM     73  C   UNL A   1      32.955  30.529  27.337  1.00  0.00     0.002 C 
BRANCH  73  74
ATOM     74  C   UNL A   1      32.998  28.997  27.432  1.00  0.00     0.021 C 
BRANCH  74  75
ATOM     75  C   UNL A   1      34.229  28.374  26.773  1.00  0.00     0.116 C 
BRANCH  75  76
ATOM     76  N   UNL A   1      34.298  28.738  25.371  1.00  0.00    -0.356 N 
ATOM     77  C   UNL A   1      33.515  28.324  24.333  1.00  0.00     0.224 C 
ATOM     78  H   UNL A   1      35.013  29.373  25.135  1.00  0.00     0.163 HD
ATOM     79  O   UNL A   1      33.847  28.620  23.188  1.00  0.00    -0.275 OA
BRANCH  77  80
ATOM     80  C   UNL A   1      32.231  27.591  24.664  1.00  0.00     0.094 C 
ATOM     81  C   UNL A   1      31.005  28.267  23.998  1.00  0.00     0.002 C 
ATOM     82  C   UNL A   1      32.154  26.136  24.147  1.00  0.00     0.094 C 
ATOM     83  C   UNL A   1      31.137  28.306  22.465  1.00  0.00     0.005 C 
ATOM     84  C   UNL A   1      29.956  27.175  24.161  1.00  0.00     0.009 C 
ATOM     85  C   UNL A   1      30.789  26.120  23.423  1.00  0.00     0.002 C 
ATOM     86  C   UNL A   1      30.978  26.830  22.063  1.00  0.00     0.005 C 
BRANCH  82  87
ATOM     87  C   UNL A   1      32.421  25.161  25.302  1.00  0.00     0.226 C 
ATOM     88  O   UNL A   1      32.185  25.509  26.461  1.00  0.00    -0.275 OA
ATOM     89  N   UNL A   1      32.652  23.830  25.001  1.00  0.00    -0.339 N 
ATOM     90  C   UNL A   1      31.971  22.827  25.826  1.00  0.00     0.141 C 
ATOM     91  C   UNL A   1      33.936  23.362  24.474  1.00  0.00     0.141 C 
ATOM     92  C   UNL A   1      31.761  21.516  25.048  1.00  0.00     0.138 C 
ATOM     93  C   UNL A   1      33.800  22.033  23.707  1.00  0.00     0.138 C 
ATOM     94  N   UNL A   1      33.041  21.043  24.496  1.00  0.00    -0.368 N 
BRANCH  94  95
ATOM     95  C   UNL A   1      33.194  19.714  24.125  1.00  0.00     0.038 A 
ATOM     96  C   UNL A   1      32.397  19.194  23.093  1.00  0.00     0.026 A 
ATOM     97  C   UNL A   1      34.114  18.852  24.734  1.00  0.00     0.046 A 
ATOM     98  C   UNL A   1      32.511  17.866  22.675  1.00  0.00     0.004 A 
ATOM     99  C   UNL A   1      34.222  17.521  24.325  1.00  0.00     0.043 A 
ATOM    100  C   UNL A   1      33.426  17.024  23.296  1.00  0.00     0.020 A 
ATOM    101  Cl  UNL A   1      35.347  16.477  25.109  1.00  0.00    -0.084 Cl
ENDBRANCH  94  95
ENDBRANCH  82  87
ENDBRANCH  77  80
ENDBRANCH  75  76
ENDBRANCH  74  75
ENDBRANCH  73  74
ENDBRANCH   1  73
TORSDOF 15
ENDMDL
MODEL 3
REMARK VINA RESULT:     -13.2      2.737      8.407
REMARK SMILES O=C(NCCCCCCNC(=O)[C@H]1[C@H]2CC[C@H](C2)[C@@H]1C(=O)N1CCN(c2cccc(Cl)c2)CC1)c1ccc(-c2c3nc(c(-c4c(F)c(F)c(F)c(F)c4F)c4ccc([nH]4)c(-c4c(F)c(F)c(F)c(F)c4F)c4nc(c(-c5c(F)c(F)c(F)c(F)c5F)c5ccc2[nH]5)C=C4)C=C3)cc1
REMARK SMILES IDX 6 1 5 2 4 3 3 4 1 5 2 6 35 8 36 9 97 10 37 11 96 12 38 13
REMARK SMILES IDX 39 14 40 15 90 16 41 17 95 18 89 19 91 20 42 21 94 22 88 23
REMARK SMILES IDX 87 24 43 26 75 27 55 28 74 29 56 30 59 31 73 32 92 33 57 34
REMARK SMILES IDX 58 35 72 37 93 38 60 39 44 40 45 41 53 42 46 43 47 44 51 45
REMARK SMILES IDX 54 46 48 47 49 48 52 49 50 50 76 51 77 52 85 53 78 54 79 55
REMARK SMILES IDX 83 56 86 57 80 58 81 59 84 60 82 61 61 62 62 63 70 64 63 65
REMARK SMILES IDX 64 66 68 67 71 68 65 69 66 70 69 71 67 72 7 73 8 74 9 75
REMARK SMILES IDX 10 76 11 77 12 79 13 80 14 81 19 82 15 83 18 84 17 85 16 86
REMARK SMILES IDX 20 87 21 88 22 89 23 90 34 91 24 92 33 93 25 94 26 95 27 96
REMARK SMILES IDX 32 97 28 98 30 99 29 100 31 101
REMARK H PARENT 3 7 91 25 59 36 10 78
REMARK Flexibility Score: inf
ROOT
ATOM      1  C   UNL A   1      34.453  33.318  28.480  1.00  0.00     0.002 C 
ENDROOT
BRANCH   1   2
ATOM      2  C   UNL A   1      33.226  34.226  28.566  1.00  0.00     0.021 C 
BRANCH   2   3
ATOM      3  C   UNL A   1      33.533  35.661  28.972  1.00  0.00     0.116 C 
BRANCH   3   4
ATOM      4  N   UNL A   1      32.677  36.131  30.049  1.00  0.00    -0.352 N 
ATOM      5  O   UNL A   1      31.837  36.177  32.147  1.00  0.00    -0.269 OA
ATOM      6  C   UNL A   1      32.730  35.820  31.386  1.00  0.00     0.251 C 
ATOM      7  H   UNL A   1      31.965  36.757  29.785  1.00  0.00     0.163 HD
BRANCH   6   8
ATOM      8  C   UNL A   1      33.867  35.026  31.902  1.00  0.00     0.039 A 
ATOM      9  C   UNL A   1      35.144  35.584  31.967  1.00  0.00     0.014 A 
ATOM     10  C   UNL A   1      33.654  33.706  32.314  1.00  0.00     0.014 A 
ATOM     11  C   UNL A   1      36.228  34.784  32.304  1.00  0.00     0.010 A 
ATOM     12  C   UNL A   1      34.734  32.929  32.744  1.00  0.00     0.010 A 
ATOM     13  C   UNL A   1      36.035  33.454  32.715  1.00  0.00    -0.014 A 
BRANCH  13  14
ATOM     14  C   UNL A   1      37.213  32.679  33.181  1.00  0.00     0.031 A 
ATOM     15  C   UNL A   1      37.886  31.663  32.304  1.00  0.00     0.074 A 
ATOM     16  C   UNL A   1      37.713  32.962  34.399  1.00  0.00     0.049 A 
ATOM     17  N   UNL A   1      38.974  30.969  32.535  1.00  0.00    -0.248 NA
ATOM     18  C   UNL A   1      37.260  31.377  31.005  1.00  0.00     0.031 C 
ATOM     19  C   UNL A   1      37.122  33.908  35.349  1.00  0.00     0.029 A 
ATOM     20  N   UNL A   1      38.841  32.515  35.037  1.00  0.00    -0.354 N 
ATOM     21  C   UNL A   1      39.158  30.164  31.420  1.00  0.00     0.074 A 
ATOM     22  C   UNL A   1      38.053  30.429  30.523  1.00  0.00     0.031 C 
ATOM     23  C   UNL A   1      37.924  34.020  36.416  1.00  0.00     0.029 A 
ATOM     24  C   UNL A   1      39.052  33.112  36.255  1.00  0.00     0.049 A 
ATOM     25  H   UNL A   1      39.441  31.833  34.658  1.00  0.00     0.167 HD
ATOM     26  C   UNL A   1      40.165  29.293  31.167  1.00  0.00     0.037 A 
ATOM     27  C   UNL A   1      40.044  32.946  37.149  1.00  0.00     0.037 A 
ATOM     28  C   UNL A   1      41.266  29.038  32.063  1.00  0.00     0.049 A 
ATOM     29  C   UNL A   1      41.150  31.984  36.834  1.00  0.00     0.074 A 
ATOM     30  C   UNL A   1      42.336  28.176  31.895  1.00  0.00     0.029 A 
ATOM     31  N   UNL A   1      41.438  29.649  33.296  1.00  0.00    -0.354 N 
ATOM     32  N   UNL A   1      41.321  31.244  35.765  1.00  0.00    -0.248 NA
ATOM     33  C   UNL A   1      42.202  31.832  37.846  1.00  0.00     0.031 C 
ATOM     34  C   UNL A   1      43.138  28.241  33.041  1.00  0.00     0.029 A 
ATOM     35  C   UNL A   1      42.591  29.176  33.905  1.00  0.00     0.049 A 
ATOM     36  H   UNL A   1      40.831  30.322  33.684  1.00  0.00     0.167 HD
ATOM     37  C   UNL A   1      42.497  30.540  35.975  1.00  0.00     0.074 A 
ATOM     38  C   UNL A   1      43.018  30.971  37.257  1.00  0.00     0.031 C 
ATOM     39  C   UNL A   1      43.085  29.608  35.186  1.00  0.00     0.037 A 
BRANCH  26  40
ATOM     40  C   UNL A   1      40.128  28.540  29.868  1.00  0.00     0.064 A 
ATOM     41  C   UNL A   1      40.782  29.020  28.724  1.00  0.00     0.173 A 
ATOM     42  C   UNL A   1      39.489  27.293  29.784  1.00  0.00     0.173 A 
ATOM     43  F   UNL A   1      41.399  30.211  28.749  1.00  0.00    -0.203 F 
ATOM     44  C   UNL A   1      40.785  28.287  27.539  1.00  0.00     0.198 A 
ATOM     45  C   UNL A   1      39.514  26.552  28.604  1.00  0.00     0.198 A 
ATOM     46  F   UNL A   1      38.854  26.785  30.850  1.00  0.00    -0.203 F 
ATOM     47  F   UNL A   1      41.389  28.781  26.449  1.00  0.00    -0.200 F 
ATOM     48  C   UNL A   1      40.158  27.051  27.482  1.00  0.00     0.200 A 
ATOM     49  F   UNL A   1      38.919  25.353  28.554  1.00  0.00    -0.200 F 
ATOM     50  F   UNL A   1      40.173  26.343  26.345  1.00  0.00    -0.200 F 
ENDBRANCH  26  40
BRANCH  27  51
ATOM     51  C   UNL A   1      40.021  33.707  38.423  1.00  0.00     0.064 A 
ATOM     52  C   UNL A   1      39.256  33.276  39.514  1.00  0.00     0.173 A 
ATOM     53  C   UNL A   1      40.780  34.877  38.578  1.00  0.00     0.173 A 
ATOM     54  F   UNL A   1      38.500  32.173  39.408  1.00  0.00    -0.203 F 
ATOM     55  C   UNL A   1      39.237  33.996  40.707  1.00  0.00     0.198 A 
ATOM     56  C   UNL A   1      40.786  35.578  39.782  1.00  0.00     0.198 A 
ATOM     57  F   UNL A   1      41.536  35.327  37.566  1.00  0.00    -0.203 F 
ATOM     58  F   UNL A   1      38.464  33.586  41.722  1.00  0.00    -0.200 F 
ATOM     59  C   UNL A   1      40.008  35.141  40.842  1.00  0.00     0.200 A 
ATOM     60  F   UNL A   1      41.547  36.673  39.913  1.00  0.00    -0.200 F 
ATOM     61  F   UNL A   1      39.996  35.827  41.993  1.00  0.00    -0.200 F 
ENDBRANCH  27  51
BRANCH  39  62
ATOM     62  C   UNL A   1      44.358  29.001  35.696  1.00  0.00     0.064 A 
ATOM     63  C   UNL A   1      45.607  29.576  35.411  1.00  0.00     0.173 A 
ATOM     64  C   UNL A   1      44.332  27.837  36.477  1.00  0.00     0.173 A 
ATOM     65  F   UNL A   1      45.683  30.681  34.653  1.00  0.00    -0.203 F 
ATOM     66  C   UNL A   1      46.784  28.986  35.860  1.00  0.00     0.198 A 
ATOM     67  C   UNL A   1      45.511  27.265  36.948  1.00  0.00     0.198 A 
ATOM     68  F   UNL A   1      43.163  27.253  36.781  1.00  0.00    -0.203 F 
ATOM     69  F   UNL A   1      47.968  29.520  35.527  1.00  0.00    -0.200 F 
ATOM     70  C   UNL A   1      46.735  27.834  36.631  1.00  0.00     0.200 A 
ATOM     71  F   UNL A   1      45.462  26.157  37.700  1.00  0.00    -0.200 F 
ATOM     72  F   UNL A   1      47.871  27.264  37.057  1.00  0.00    -0.200 F 
ENDBRANCH  39  62
ENDBRANCH  13  14
ENDBRANCH   6   8
ENDBRANCH   3   4
ENDBRANCH   2   3
ENDBRANCH   1   2
BRANCH   1  73
ATOM     73  C   UNL A   1      34.148  31.816  28.422  1.00  0.00     0.002 C 
BRANCH  73  74
ATOM     74  C   UNL A   1      33.229  31.379  27.272  1.00  0.00     0.021 C 
BRANCH  74  75
ATOM     75  C   UNL A   1      33.263  29.877  26.994  1.00  0.00     0.116 C 
BRANCH  75  76
ATOM     76  N   UNL A   1      33.856  29.611  25.697  1.00  0.00    -0.356 N 
ATOM     77  C   UNL A   1      33.561  28.626  24.800  1.00  0.00     0.224 C 
ATOM     78  H   UNL A   1      34.574  30.228  25.426  1.00  0.00     0.163 HD
ATOM     79  O   UNL A   1      34.299  28.470  23.830  1.00  0.00    -0.275 OA
BRANCH  77  80
ATOM     80  C   UNL A   1      32.288  27.833  25.013  1.00  0.00     0.094 C 
ATOM     81  C   UNL A   1      31.077  28.508  24.320  1.00  0.00     0.002 C 
ATOM     82  C   UNL A   1      32.292  26.410  24.407  1.00  0.00     0.094 C 
ATOM     83  C   UNL A   1      31.292  28.645  22.801  1.00  0.00     0.005 C 
ATOM     84  C   UNL A   1      30.061  27.374  24.358  1.00  0.00     0.009 C 
ATOM     85  C   UNL A   1      30.970  26.394  23.607  1.00  0.00     0.002 C 
ATOM     86  C   UNL A   1      31.208  27.192  22.304  1.00  0.00     0.005 C 
BRANCH  82  87
ATOM     87  C   UNL A   1      32.529  25.376  25.516  1.00  0.00     0.226 C 
ATOM     88  O   UNL A   1      32.314  25.680  26.691  1.00  0.00    -0.275 OA
ATOM     89  N   UNL A   1      32.709  24.052  25.155  1.00  0.00    -0.339 N 
ATOM     90  C   UNL A   1      31.996  23.039  25.940  1.00  0.00     0.141 C 
ATOM     91  C   UNL A   1      33.972  23.560  24.598  1.00  0.00     0.141 C 
ATOM     92  C   UNL A   1      31.733  21.772  25.106  1.00  0.00     0.138 C 
ATOM     93  C   UNL A   1      33.781  22.273  23.774  1.00  0.00     0.138 C 
ATOM     94  N   UNL A   1      32.990  21.277  24.525  1.00  0.00    -0.368 N 
BRANCH  94  95
ATOM     95  C   UNL A   1      33.092  19.961  24.094  1.00  0.00     0.038 A 
ATOM     96  C   UNL A   1      32.279  19.521  23.037  1.00  0.00     0.026 A 
ATOM     97  C   UNL A   1      33.974  19.037  24.665  1.00  0.00     0.046 A 
ATOM     98  C   UNL A   1      32.342  18.210  22.559  1.00  0.00     0.004 A 
ATOM     99  C   UNL A   1      34.029  17.721  24.197  1.00  0.00     0.043 A 
ATOM    100  C   UNL A   1      33.219  17.304  23.145  1.00  0.00     0.020 A 
ATOM    101  Cl  UNL A   1      35.108  16.599  24.935  1.00  0.00    -0.084 Cl
ENDBRANCH  94  95
ENDBRANCH  82  87
ENDBRANCH  77  80
ENDBRANCH  75  76
ENDBRANCH  74  75
ENDBRANCH  73  74
ENDBRANCH   1  73
TORSDOF 15
ENDMDL
