MODEL 1
REMARK VINA RESULT:     -11.9      0.000      0.000
REMARK SMILES [NH3+][C@H](C(=O)NCCCCCCNC(=O)c1ccc(-c2c3nc(c(-c4c(F)c(F)c(F)c(F)c4F)c4ccc([nH]4)c(-c4c(F)c(F)c(F)c(F)c4F)c4nc(c(-c5c(F)c(F)c(F)c(F)c5F)c5ccc2[nH]5)C=C4)C=C3)cc1)c1c(F)cc(I)cc1F
REMARK SMILES IDX 9 1 8 2 7 3 6 4 5 5 3 6 4 7 2 9 1 10 78 14 79 15 85 16 80 17
REMARK SMILES IDX 81 18 84 19 86 20 82 21 83 22 10 23 11 24 12 25 13 26 14 28
REMARK SMILES IDX 15 29 16 30 77 31 17 32 76 33 18 34 19 35 20 36 70 37 21 38
REMARK SMILES IDX 75 39 69 40 71 41 22 42 74 43 68 44 67 45 23 47 55 48 35 49
REMARK SMILES IDX 54 50 36 51 39 52 53 53 72 54 37 55 38 56 52 58 73 59 40 60
REMARK SMILES IDX 24 61 25 62 33 63 26 64 27 65 31 66 34 67 28 68 29 69 32 70
REMARK SMILES IDX 30 71 56 72 57 73 65 74 58 75 59 76 63 77 66 78 60 79 61 80
REMARK SMILES IDX 64 81 62 82 41 83 42 84 50 85 43 86 44 87 48 88 51 89 45 90
REMARK SMILES IDX 46 91 49 92 47 93
REMARK H PARENT 5 8 1 11 1 12 1 13 12 27 71 46 39 57
REMARK Flexibility Score: inf
ROOT
ATOM      1  C   UNL A   1      31.265  30.946  25.766  1.00  0.00     0.002 C 
ENDROOT
BRANCH   1   2
ATOM      2  C   UNL A   1      32.332  29.988  26.298  1.00  0.00     0.002 C 
BRANCH   2   3
ATOM      3  C   UNL A   1      31.817  28.787  27.098  1.00  0.00     0.021 C 
BRANCH   3   4
ATOM      4  C   UNL A   1      32.399  27.425  26.700  1.00  0.00     0.116 C 
BRANCH   4   5
ATOM      5  N   UNL A   1      31.395  26.391  26.870  1.00  0.00    -0.351 N 
ATOM      6  C   UNL A   1      30.456  25.917  26.000  1.00  0.00     0.283 C 
ATOM      7  O   UNL A   1      29.525  25.270  26.500  1.00  0.00    -0.268 OA
ATOM      8  H   UNL A   1      31.389  25.963  27.756  1.00  0.00     0.163 HD
BRANCH   6   9
ATOM      9  C   UNL A   1      30.613  26.014  24.448  1.00  0.00     0.308 C 
BRANCH   9  10
ATOM     10  N   UNL A   1      30.058  24.759  23.873  1.00  0.00    -0.343 N 
ATOM     11  H   UNL A   1      29.647  24.957  22.960  1.00  0.00     0.345 HD
ATOM     12  H   UNL A   1      29.340  24.388  24.496  1.00  0.00     0.345 HD
ATOM     13  H   UNL A   1      30.805  24.074  23.768  1.00  0.00     0.345 HD
ENDBRANCH   9  10
BRANCH   9  14
ATOM     14  C   UNL A   1      30.038  27.206  23.714  1.00  0.00     0.090 A 
ATOM     15  C   UNL A   1      30.913  28.161  23.171  1.00  0.00     0.136 A 
ATOM     16  C   UNL A   1      28.678  27.455  23.557  1.00  0.00     0.136 A 
ATOM     17  F   UNL A   1      32.239  27.974  23.237  1.00  0.00    -0.206 F 
ATOM     18  C   UNL A   1      30.460  29.336  22.571  1.00  0.00     0.054 A 
ATOM     19  C   UNL A   1      28.200  28.656  23.025  1.00  0.00     0.054 A 
ATOM     20  F   UNL A   1      27.777  26.540  23.922  1.00  0.00    -0.206 F 
ATOM     21  C   UNL A   1      29.097  29.599  22.539  1.00  0.00     0.019 A 
ATOM     22  I   UNL A   1      28.403  31.402  21.782  1.00  0.00    -0.044 I 
ENDBRANCH   9  14
ENDBRANCH   6   9
ENDBRANCH   4   5
ENDBRANCH   3   4
ENDBRANCH   2   3
ENDBRANCH   1   2
BRANCH   1  23
ATOM     23  C   UNL A   1      31.173  32.309  26.458  1.00  0.00     0.021 C 
BRANCH  23  24
ATOM     24  C   UNL A   1      32.450  32.813  27.132  1.00  0.00     0.116 C 
BRANCH  24  25
ATOM     25  N   UNL A   1      32.332  34.173  27.628  1.00  0.00    -0.352 N 
ATOM     26  C   UNL A   1      33.045  34.829  28.597  1.00  0.00     0.251 C 
ATOM     27  H   UNL A   1      31.629  34.710  27.198  1.00  0.00     0.163 HD
ATOM     28  O   UNL A   1      32.685  35.951  28.962  1.00  0.00    -0.269 OA
BRANCH  26  29
ATOM     29  C   UNL A   1      34.224  34.206  29.237  1.00  0.00     0.039 A 
ATOM     30  C   UNL A   1      34.016  33.369  30.337  1.00  0.00     0.014 A 
ATOM     31  C   UNL A   1      35.526  34.470  28.802  1.00  0.00     0.014 A 
ATOM     32  C   UNL A   1      35.102  32.750  30.961  1.00  0.00     0.010 A 
ATOM     33  C   UNL A   1      36.606  33.806  29.388  1.00  0.00     0.010 A 
ATOM     34  C   UNL A   1      36.405  32.938  30.472  1.00  0.00    -0.014 A 
BRANCH  34  35
ATOM     35  C   UNL A   1      37.554  32.220  31.082  1.00  0.00     0.031 A 
ATOM     36  C   UNL A   1      38.044  32.583  32.456  1.00  0.00     0.074 A 
ATOM     37  C   UNL A   1      38.180  31.256  30.378  1.00  0.00     0.049 A 
ATOM     38  N   UNL A   1      39.046  32.083  33.136  1.00  0.00    -0.248 NA
ATOM     39  C   UNL A   1      37.326  33.663  33.152  1.00  0.00     0.031 C 
ATOM     40  C   UNL A   1      37.830  30.840  29.019  1.00  0.00     0.029 A 
ATOM     41  N   UNL A   1      39.246  30.456  30.706  1.00  0.00    -0.354 N 
ATOM     42  C   UNL A   1      39.082  32.787  34.332  1.00  0.00     0.074 A 
ATOM     43  C   UNL A   1      38.032  33.781  34.268  1.00  0.00     0.031 C 
ATOM     44  C   UNL A   1      38.653  29.852  28.636  1.00  0.00     0.029 A 
ATOM     45  C   UNL A   1      39.605  29.581  29.709  1.00  0.00     0.049 A 
ATOM     46  H   UNL A   1      39.708  30.503  31.574  1.00  0.00     0.167 HD
ATOM     47  C   UNL A   1      39.901  32.605  35.396  1.00  0.00     0.037 A 
ATOM     48  C   UNL A   1      40.593  28.667  29.663  1.00  0.00     0.037 A 
ATOM     49  C   UNL A   1      40.933  31.604  35.470  1.00  0.00     0.049 A 
ATOM     50  C   UNL A   1      41.484  28.484  30.862  1.00  0.00     0.074 A 
ATOM     51  C   UNL A   1      41.785  31.316  36.523  1.00  0.00     0.029 A 
ATOM     52  N   UNL A   1      41.253  30.724  34.447  1.00  0.00    -0.354 N 
ATOM     53  N   UNL A   1      41.467  29.117  32.009  1.00  0.00    -0.248 NA
ATOM     54  C   UNL A   1      42.526  27.453  30.761  1.00  0.00     0.031 C 
ATOM     55  C   UNL A   1      42.641  30.285  36.126  1.00  0.00     0.029 A 
ATOM     56  C   UNL A   1      42.298  29.902  34.841  1.00  0.00     0.049 A 
ATOM     57  H   UNL A   1      40.805  30.687  33.572  1.00  0.00     0.167 HD
ATOM     58  C   UNL A   1      42.477  28.548  32.773  1.00  0.00     0.074 A 
ATOM     59  C   UNL A   1      43.073  27.504  31.967  1.00  0.00     0.031 C 
ATOM     60  C   UNL A   1      42.878  28.864  34.028  1.00  0.00     0.037 A 
BRANCH  47  61
ATOM     61  C   UNL A   1      39.708  33.501  36.584  1.00  0.00     0.064 A 
ATOM     62  C   UNL A   1      40.337  34.753  36.663  1.00  0.00     0.173 A 
ATOM     63  C   UNL A   1      38.840  33.134  37.623  1.00  0.00     0.173 A 
ATOM     64  F   UNL A   1      41.183  35.144  35.700  1.00  0.00    -0.203 F 
ATOM     65  C   UNL A   1      40.118  35.597  37.749  1.00  0.00     0.198 A 
ATOM     66  C   UNL A   1      38.604  33.992  38.695  1.00  0.00     0.198 A 
ATOM     67  F   UNL A   1      38.209  31.951  37.592  1.00  0.00    -0.203 F 
ATOM     68  F   UNL A   1      40.756  36.773  37.821  1.00  0.00    -0.200 F 
ATOM     69  C   UNL A   1      39.246  35.219  38.759  1.00  0.00     0.200 A 
ATOM     70  F   UNL A   1      37.752  33.631  39.665  1.00  0.00    -0.200 F 
ATOM     71  F   UNL A   1      39.026  36.038  39.797  1.00  0.00    -0.200 F 
ENDBRANCH  47  61
BRANCH  48  72
ATOM     72  C   UNL A   1      40.783  27.836  28.447  1.00  0.00     0.064 A 
ATOM     73  C   UNL A   1      41.609  28.270  27.400  1.00  0.00     0.173 A 
ATOM     74  C   UNL A   1      40.132  26.603  28.298  1.00  0.00     0.173 A 
ATOM     75  F   UNL A   1      42.235  29.453  27.488  1.00  0.00    -0.203 F 
ATOM     76  C   UNL A   1      41.754  27.515  26.239  1.00  0.00     0.198 A 
ATOM     77  C   UNL A   1      40.300  25.836  27.147  1.00  0.00     0.198 A 
ATOM     78  F   UNL A   1      39.335  26.142  29.273  1.00  0.00    -0.203 F 
ATOM     79  F   UNL A   1      42.508  27.978  25.232  1.00  0.00    -0.200 F 
ATOM     80  C   UNL A   1      41.103  26.297  26.115  1.00  0.00     0.200 A 
ATOM     81  F   UNL A   1      39.680  24.654  27.037  1.00  0.00    -0.200 F 
ATOM     82  F   UNL A   1      41.242  25.572  24.998  1.00  0.00    -0.200 F 
ENDBRANCH  48  72
BRANCH  60  83
ATOM     83  C   UNL A   1      43.999  28.057  34.612  1.00  0.00     0.064 A 
ATOM     84  C   UNL A   1      43.757  26.857  35.296  1.00  0.00     0.173 A 
ATOM     85  C   UNL A   1      45.329  28.478  34.468  1.00  0.00     0.173 A 
ATOM     86  F   UNL A   1      42.501  26.422  35.474  1.00  0.00    -0.203 F 
ATOM     87  C   UNL A   1      44.806  26.120  35.840  1.00  0.00     0.198 A 
ATOM     88  C   UNL A   1      46.378  27.725  34.990  1.00  0.00     0.198 A 
ATOM     89  F   UNL A   1      45.612  29.615  33.818  1.00  0.00    -0.203 F 
ATOM     90  F   UNL A   1      44.549  25.002  36.533  1.00  0.00    -0.200 F 
ATOM     91  C   UNL A   1      46.115  26.552  35.682  1.00  0.00     0.200 A 
ATOM     92  F   UNL A   1      47.642  28.139  34.829  1.00  0.00    -0.200 F 
ATOM     93  F   UNL A   1      47.124  25.843  36.207  1.00  0.00    -0.200 F 
ENDBRANCH  60  83
ENDBRANCH  34  35
ENDBRANCH  26  29
ENDBRANCH  24  25
ENDBRANCH  23  24
ENDBRANCH   1  23
TORSDOF 15
ENDMDL
MODEL 2
REMARK VINA RESULT:     -11.8      0.570      7.449
REMARK SMILES [NH3+][C@H](C(=O)NCCCCCCNC(=O)c1ccc(-c2c3nc(c(-c4c(F)c(F)c(F)c(F)c4F)c4ccc([nH]4)c(-c4c(F)c(F)c(F)c(F)c4F)c4nc(c(-c5c(F)c(F)c(F)c(F)c5F)c5ccc2[nH]5)C=C4)C=C3)cc1)c1c(F)cc(I)cc1F
REMARK SMILES IDX 9 1 8 2 7 3 6 4 5 5 3 6 4 7 2 9 1 10 78 14 79 15 85 16 80 17
REMARK SMILES IDX 81 18 84 19 86 20 82 21 83 22 10 23 11 24 12 25 13 26 14 28
REMARK SMILES IDX 15 29 16 30 77 31 17 32 76 33 18 34 19 35 20 36 70 37 21 38
REMARK SMILES IDX 75 39 69 40 71 41 22 42 74 43 68 44 67 45 23 47 55 48 35 49
REMARK SMILES IDX 54 50 36 51 39 52 53 53 72 54 37 55 38 56 52 58 73 59 40 60
REMARK SMILES IDX 24 61 25 62 33 63 26 64 27 65 31 66 34 67 28 68 29 69 32 70
REMARK SMILES IDX 30 71 56 72 57 73 65 74 58 75 59 76 63 77 66 78 60 79 61 80
REMARK SMILES IDX 64 81 62 82 41 83 42 84 50 85 43 86 44 87 48 88 51 89 45 90
REMARK SMILES IDX 46 91 49 92 47 93
REMARK H PARENT 5 8 1 11 1 12 1 13 12 27 71 46 39 57
REMARK Flexibility Score: inf
ROOT
ATOM      1  C   UNL A   1      31.310  30.948  25.766  1.00  0.00     0.002 C 
ENDROOT
BRANCH   1   2
ATOM      2  C   UNL A   1      32.343  30.012  26.397  1.00  0.00     0.002 C 
BRANCH   2   3
ATOM      3  C   UNL A   1      31.780  28.787  27.126  1.00  0.00     0.021 C 
BRANCH   3   4
ATOM      4  C   UNL A   1      32.374  27.435  26.710  1.00  0.00     0.116 C 
BRANCH   4   5
ATOM      5  N   UNL A   1      31.381  26.389  26.876  1.00  0.00    -0.351 N 
ATOM      6  C   UNL A   1      30.450  25.905  26.003  1.00  0.00     0.283 C 
ATOM      7  O   UNL A   1      29.526  25.246  26.501  1.00  0.00    -0.268 OA
ATOM      8  H   UNL A   1      31.378  25.961  27.762  1.00  0.00     0.163 HD
BRANCH   6   9
ATOM      9  C   UNL A   1      30.611  26.005  24.452  1.00  0.00     0.308 C 
BRANCH   9  10
ATOM     10  N   UNL A   1      30.057  24.751  23.873  1.00  0.00    -0.343 N 
ATOM     11  H   UNL A   1      30.611  24.479  23.060  1.00  0.00     0.345 HD
ATOM     12  H   UNL A   1      29.089  24.906  23.589  1.00  0.00     0.345 HD
ATOM     13  H   UNL A   1      30.092  24.010  24.572  1.00  0.00     0.345 HD
ENDBRANCH   9  10
BRANCH   9  14
ATOM     14  C   UNL A   1      30.036  27.198  23.719  1.00  0.00     0.090 A 
ATOM     15  C   UNL A   1      30.911  28.153  23.177  1.00  0.00     0.136 A 
ATOM     16  C   UNL A   1      28.676  27.448  23.562  1.00  0.00     0.136 A 
ATOM     17  F   UNL A   1      32.238  27.966  23.243  1.00  0.00    -0.206 F 
ATOM     18  C   UNL A   1      30.459  29.329  22.578  1.00  0.00     0.054 A 
ATOM     19  C   UNL A   1      28.198  28.650  23.032  1.00  0.00     0.054 A 
ATOM     20  F   UNL A   1      27.775  26.533  23.927  1.00  0.00    -0.206 F 
ATOM     21  C   UNL A   1      29.096  29.593  22.547  1.00  0.00     0.019 A 
ATOM     22  I   UNL A   1      28.403  31.397  21.792  1.00  0.00    -0.044 I 
ENDBRANCH   9  14
ENDBRANCH   6   9
ENDBRANCH   4   5
ENDBRANCH   3   4
ENDBRANCH   2   3
ENDBRANCH   1   2
BRANCH   1  23
ATOM     23  C   UNL A   1      31.154  32.323  26.422  1.00  0.00     0.021 C 
BRANCH  23  24
ATOM     24  C   UNL A   1      32.356  32.834  27.217  1.00  0.00     0.116 C 
BRANCH  24  25
ATOM     25  N   UNL A   1      32.219  34.220  27.627  1.00  0.00    -0.352 N 
ATOM     26  C   UNL A   1      32.907  34.939  28.569  1.00  0.00     0.251 C 
ATOM     27  H   UNL A   1      31.520  34.724  27.152  1.00  0.00     0.163 HD
ATOM     28  O   UNL A   1      32.532  36.078  28.858  1.00  0.00    -0.269 OA
BRANCH  26  29
ATOM     29  C   UNL A   1      34.078  34.366  29.269  1.00  0.00     0.039 A 
ATOM     30  C   UNL A   1      33.857  33.634  30.439  1.00  0.00     0.014 A 
ATOM     31  C   UNL A   1      35.383  34.577  28.818  1.00  0.00     0.014 A 
ATOM     32  C   UNL A   1      34.934  33.064  31.122  1.00  0.00     0.010 A 
ATOM     33  C   UNL A   1      36.455  33.959  29.467  1.00  0.00     0.010 A 
ATOM     34  C   UNL A   1      36.241  33.195  30.624  1.00  0.00    -0.014 A 
BRANCH  34  35
ATOM     35  C   UNL A   1      37.381  32.524  31.303  1.00  0.00     0.031 A 
ATOM     36  C   UNL A   1      38.114  31.395  30.635  1.00  0.00     0.074 A 
ATOM     37  C   UNL A   1      37.734  32.915  32.543  1.00  0.00     0.049 A 
ATOM     38  N   UNL A   1      39.114  30.678  31.086  1.00  0.00    -0.248 NA
ATOM     39  C   UNL A   1      37.654  31.007  29.293  1.00  0.00     0.031 C 
ATOM     40  C   UNL A   1      37.073  33.968  33.317  1.00  0.00     0.029 A 
ATOM     41  N   UNL A   1      38.731  32.469  33.374  1.00  0.00    -0.354 N 
ATOM     42  C   UNL A   1      39.398  29.755  30.088  1.00  0.00     0.074 A 
ATOM     43  C   UNL A   1      38.437  29.970  29.027  1.00  0.00     0.031 C 
ATOM     44  C   UNL A   1      37.693  34.099  34.500  1.00  0.00     0.029 A 
ATOM     45  C   UNL A   1      38.776  33.122  34.581  1.00  0.00     0.049 A 
ATOM     46  H   UNL A   1      39.356  31.749  33.127  1.00  0.00     0.167 HD
ATOM     47  C   UNL A   1      40.385  28.827  30.050  1.00  0.00     0.037 A 
ATOM     48  C   UNL A   1      39.595  32.952  35.636  1.00  0.00     0.037 A 
ATOM     49  C   UNL A   1      41.355  28.624  31.095  1.00  0.00     0.049 A 
ATOM     50  C   UNL A   1      40.685  31.918  35.563  1.00  0.00     0.074 A 
ATOM     51  C   UNL A   1      42.418  27.738  31.127  1.00  0.00     0.029 A 
ATOM     52  N   UNL A   1      41.380  29.320  32.294  1.00  0.00    -0.354 N 
ATOM     53  N   UNL A   1      40.979  31.093  34.589  1.00  0.00    -0.248 NA
ATOM     54  C   UNL A   1      41.563  31.798  36.736  1.00  0.00     0.031 C 
ATOM     55  C   UNL A   1      43.066  27.874  32.359  1.00  0.00     0.029 A 
ATOM     56  C   UNL A   1      42.432  28.873  33.078  1.00  0.00     0.049 A 
ATOM     57  H   UNL A   1      40.745  30.027  32.551  1.00  0.00     0.167 HD
ATOM     58  C   UNL A   1      42.086  30.374  35.019  1.00  0.00     0.074 A 
ATOM     59  C   UNL A   1      42.424  30.874  36.334  1.00  0.00     0.031 C 
ATOM     60  C   UNL A   1      42.759  29.384  34.384  1.00  0.00     0.037 A 
BRANCH  47  61
ATOM     61  C   UNL A   1      40.481  27.963  28.827  1.00  0.00     0.064 A 
ATOM     62  C   UNL A   1      41.280  28.331  27.734  1.00  0.00     0.173 A 
ATOM     63  C   UNL A   1      39.818  26.728  28.770  1.00  0.00     0.173 A 
ATOM     64  F   UNL A   1      41.926  29.506  27.737  1.00  0.00    -0.203 F 
ATOM     65  C   UNL A   1      41.398  27.502  26.621  1.00  0.00     0.198 A 
ATOM     66  C   UNL A   1      39.958  25.890  27.666  1.00  0.00     0.198 A 
ATOM     67  F   UNL A   1      39.046  26.326  29.792  1.00  0.00    -0.203 F 
ATOM     68  F   UNL A   1      42.140  27.890  25.575  1.00  0.00    -0.200 F 
ATOM     69  C   UNL A   1      40.744  26.280  26.592  1.00  0.00     0.200 A 
ATOM     70  F   UNL A   1      39.334  24.704  27.643  1.00  0.00    -0.200 F 
ATOM     71  F   UNL A   1      40.868  25.478  25.525  1.00  0.00    -0.200 F 
ENDBRANCH  47  61
BRANCH  48  72
ATOM     72  C   UNL A   1      39.432  33.794  36.849  1.00  0.00     0.064 A 
ATOM     73  C   UNL A   1      40.057  35.045  36.947  1.00  0.00     0.173 A 
ATOM     74  C   UNL A   1      38.666  33.358  37.940  1.00  0.00     0.173 A 
ATOM     75  F   UNL A   1      40.818  35.493  35.938  1.00  0.00    -0.203 F 
ATOM     76  C   UNL A   1      39.944  35.816  38.102  1.00  0.00     0.198 A 
ATOM     77  C   UNL A   1      38.531  34.144  39.083  1.00  0.00     0.198 A 
ATOM     78  F   UNL A   1      38.045  32.171  37.893  1.00  0.00    -0.203 F 
ATOM     79  F   UNL A   1      40.594  36.985  38.189  1.00  0.00    -0.200 F 
ATOM     80  C   UNL A   1      39.178  35.367  39.167  1.00  0.00     0.200 A 
ATOM     81  F   UNL A   1      37.779  33.712  40.104  1.00  0.00    -0.200 F 
ATOM     82  F   UNL A   1      39.070  36.109  40.277  1.00  0.00    -0.200 F 
ENDBRANCH  48  72
BRANCH  60  83
ATOM     83  C   UNL A   1      43.940  28.795  35.095  1.00  0.00     0.064 A 
ATOM     84  C   UNL A   1      45.230  29.322  34.933  1.00  0.00     0.173 A 
ATOM     85  C   UNL A   1      43.778  27.705  35.963  1.00  0.00     0.173 A 
ATOM     86  F   UNL A   1      45.438  30.353  34.101  1.00  0.00    -0.203 F 
ATOM     87  C   UNL A   1      46.320  28.761  35.593  1.00  0.00     0.198 A 
ATOM     88  C   UNL A   1      44.866  27.163  36.642  1.00  0.00     0.198 A 
ATOM     89  F   UNL A   1      42.565  27.168  36.156  1.00  0.00    -0.203 F 
ATOM     90  F   UNL A   1      47.551  29.249  35.385  1.00  0.00    -0.200 F 
ATOM     91  C   UNL A   1      46.136  27.686  36.450  1.00  0.00     0.200 A 
ATOM     92  F   UNL A   1      44.686  26.131  37.477  1.00  0.00    -0.200 F 
ATOM     93  F   UNL A   1      47.187  27.146  37.085  1.00  0.00    -0.200 F 
ENDBRANCH  60  83
ENDBRANCH  34  35
ENDBRANCH  26  29
ENDBRANCH  24  25
ENDBRANCH  23  24
ENDBRANCH   1  23
TORSDOF 15
ENDMDL
MODEL 3
REMARK VINA RESULT:     -11.7      0.453      7.436
REMARK SMILES [NH3+][C@H](C(=O)NCCCCCCNC(=O)c1ccc(-c2c3nc(c(-c4c(F)c(F)c(F)c(F)c4F)c4ccc([nH]4)c(-c4c(F)c(F)c(F)c(F)c4F)c4nc(c(-c5c(F)c(F)c(F)c(F)c5F)c5ccc2[nH]5)C=C4)C=C3)cc1)c1c(F)cc(I)cc1F
REMARK SMILES IDX 9 1 8 2 7 3 6 4 5 5 3 6 4 7 2 9 1 10 78 14 79 15 85 16 80 17
REMARK SMILES IDX 81 18 84 19 86 20 82 21 83 22 10 23 11 24 12 25 13 26 14 28
REMARK SMILES IDX 15 29 16 30 77 31 17 32 76 33 18 34 19 35 20 36 70 37 21 38
REMARK SMILES IDX 75 39 69 40 71 41 22 42 74 43 68 44 67 45 23 47 55 48 35 49
REMARK SMILES IDX 54 50 36 51 39 52 53 53 72 54 37 55 38 56 52 58 73 59 40 60
REMARK SMILES IDX 24 61 25 62 33 63 26 64 27 65 31 66 34 67 28 68 29 69 32 70
REMARK SMILES IDX 30 71 56 72 57 73 65 74 58 75 59 76 63 77 66 78 60 79 61 80
REMARK SMILES IDX 64 81 62 82 41 83 42 84 50 85 43 86 44 87 48 88 51 89 45 90
REMARK SMILES IDX 46 91 49 92 47 93
REMARK H PARENT 5 8 1 11 1 12 1 13 12 27 71 46 39 57
REMARK Flexibility Score: inf
ROOT
ATOM      1  C   UNL A   1      31.401  30.447  25.882  1.00  0.00     0.002 C 
ENDROOT
BRANCH   1   2
ATOM      2  C   UNL A   1      32.735  29.729  26.093  1.00  0.00     0.002 C 
BRANCH   2   3
ATOM      3  C   UNL A   1      32.716  28.555  27.078  1.00  0.00     0.021 C 
BRANCH   3   4
ATOM      4  C   UNL A   1      32.912  27.165  26.459  1.00  0.00     0.116 C 
BRANCH   4   5
ATOM      5  N   UNL A   1      31.748  26.340  26.723  1.00  0.00    -0.351 N 
ATOM      6  C   UNL A   1      30.683  26.030  25.926  1.00  0.00     0.283 C 
ATOM      7  O   UNL A   1      29.684  25.578  26.502  1.00  0.00    -0.268 OA
ATOM      8  H   UNL A   1      31.721  25.939  27.621  1.00  0.00     0.163 HD
BRANCH   6   9
ATOM      9  C   UNL A   1      30.755  26.063  24.365  1.00  0.00     0.308 C 
BRANCH   9  10
ATOM     10  N   UNL A   1      30.165  24.790  23.874  1.00  0.00    -0.343 N 
ATOM     11  H   UNL A   1      30.505  24.600  22.930  1.00  0.00     0.345 HD
ATOM     12  H   UNL A   1      29.148  24.869  23.859  1.00  0.00     0.345 HD
ATOM     13  H   UNL A   1      30.438  24.027  24.493  1.00  0.00     0.345 HD
ENDBRANCH   9  10
BRANCH   9  14
ATOM     14  C   UNL A   1      30.143  27.228  23.617  1.00  0.00     0.090 A 
ATOM     15  C   UNL A   1      30.989  28.171  23.011  1.00  0.00     0.136 A 
ATOM     16  C   UNL A   1      28.776  27.463  23.503  1.00  0.00     0.136 A 
ATOM     17  F   UNL A   1      32.319  27.995  23.032  1.00  0.00    -0.206 F 
ATOM     18  C   UNL A   1      30.505  29.323  22.391  1.00  0.00     0.054 A 
ATOM     19  C   UNL A   1      28.269  28.643  22.952  1.00  0.00     0.054 A 
ATOM     20  F   UNL A   1      27.897  26.554  23.932  1.00  0.00    -0.206 F 
ATOM     21  C   UNL A   1      29.140  29.576  22.403  1.00  0.00     0.019 A 
ATOM     22  I   UNL A   1      28.404  31.349  21.615  1.00  0.00    -0.044 I 
ENDBRANCH   9  14
ENDBRANCH   6   9
ENDBRANCH   4   5
ENDBRANCH   3   4
ENDBRANCH   2   3
ENDBRANCH   1   2
BRANCH   1  23
ATOM     23  C   UNL A   1      31.290  31.855  26.473  1.00  0.00     0.021 C 
BRANCH  23  24
ATOM     24  C   UNL A   1      32.594  32.492  26.954  1.00  0.00     0.116 C 
BRANCH  24  25
ATOM     25  N   UNL A   1      32.421  33.855  27.426  1.00  0.00    -0.352 N 
ATOM     26  C   UNL A   1      33.072  34.539  28.419  1.00  0.00     0.251 C 
ATOM     27  H   UNL A   1      31.725  34.368  26.958  1.00  0.00     0.163 HD
ATOM     28  O   UNL A   1      32.669  35.656  28.752  1.00  0.00    -0.269 OA
BRANCH  26  29
ATOM     29  C   UNL A   1      34.235  33.953  29.121  1.00  0.00     0.039 A 
ATOM     30  C   UNL A   1      33.995  33.039  30.151  1.00  0.00     0.014 A 
ATOM     31  C   UNL A   1      35.546  34.323  28.813  1.00  0.00     0.014 A 
ATOM     32  C   UNL A   1      35.066  32.452  30.829  1.00  0.00     0.010 A 
ATOM     33  C   UNL A   1      36.618  33.694  29.450  1.00  0.00     0.010 A 
ATOM     34  C   UNL A   1      36.389  32.751  30.463  1.00  0.00    -0.014 A 
BRANCH  34  35
ATOM     35  C   UNL A   1      37.531  32.069  31.127  1.00  0.00     0.031 A 
ATOM     36  C   UNL A   1      38.315  31.008  30.408  1.00  0.00     0.074 A 
ATOM     37  C   UNL A   1      37.840  32.387  32.400  1.00  0.00     0.049 A 
ATOM     38  N   UNL A   1      39.324  30.291  30.838  1.00  0.00    -0.248 NA
ATOM     39  C   UNL A   1      37.901  30.696  29.031  1.00  0.00     0.031 C 
ATOM     40  C   UNL A   1      37.129  33.368  33.222  1.00  0.00     0.029 A 
ATOM     41  N   UNL A   1      38.829  31.916  33.226  1.00  0.00    -0.354 N 
ATOM     42  C   UNL A   1      39.661  29.444  29.790  1.00  0.00     0.074 A 
ATOM     43  C   UNL A   1      38.721  29.702  28.720  1.00  0.00     0.031 C 
ATOM     44  C   UNL A   1      37.715  33.438  34.427  1.00  0.00     0.029 A 
ATOM     45  C   UNL A   1      38.824  32.489  34.475  1.00  0.00     0.049 A 
ATOM     46  H   UNL A   1      39.482  31.232  32.950  1.00  0.00     0.167 HD
ATOM     47  C   UNL A   1      40.676  28.550  29.718  1.00  0.00     0.037 A 
ATOM     48  C   UNL A   1      39.621  32.274  35.538  1.00  0.00     0.037 A 
ATOM     49  C   UNL A   1      41.625  28.306  30.774  1.00  0.00     0.049 A 
ATOM     50  C   UNL A   1      40.743  31.278  35.428  1.00  0.00     0.074 A 
ATOM     51  C   UNL A   1      42.713  27.450  30.778  1.00  0.00     0.029 A 
ATOM     52  N   UNL A   1      41.598  28.922  32.016  1.00  0.00    -0.354 N 
ATOM     53  N   UNL A   1      41.086  30.527  34.410  1.00  0.00    -0.248 NA
ATOM     54  C   UNL A   1      41.594  31.106  36.614  1.00  0.00     0.031 C 
ATOM     55  C   UNL A   1      43.326  27.523  32.033  1.00  0.00     0.029 A 
ATOM     56  C   UNL A   1      42.643  28.454  32.798  1.00  0.00     0.049 A 
ATOM     57  H   UNL A   1      40.936  29.592  32.301  1.00  0.00     0.167 HD
ATOM     58  C   UNL A   1      42.203  29.813  34.822  1.00  0.00     0.074 A 
ATOM     59  C   UNL A   1      42.493  30.235  36.176  1.00  0.00     0.031 C 
ATOM     60  C   UNL A   1      42.921  28.887  34.143  1.00  0.00     0.037 A 
BRANCH  47  61
ATOM     61  C   UNL A   1      40.829  27.771  28.445  1.00  0.00     0.064 A 
ATOM     62  C   UNL A   1      41.634  28.239  27.396  1.00  0.00     0.173 A 
ATOM     63  C   UNL A   1      40.216  26.518  28.295  1.00  0.00     0.173 A 
ATOM     64  F   UNL A   1      42.233  29.435  27.488  1.00  0.00    -0.203 F 
ATOM     65  C   UNL A   1      41.805  27.490  26.235  1.00  0.00     0.198 A 
ATOM     66  C   UNL A   1      40.410  25.760  27.143  1.00  0.00     0.198 A 
ATOM     67  F   UNL A   1      39.442  26.022  29.272  1.00  0.00    -0.203 F 
ATOM     68  F   UNL A   1      42.551  27.972  25.231  1.00  0.00    -0.200 F 
ATOM     69  C   UNL A   1      41.200  26.248  26.113  1.00  0.00     0.200 A 
ATOM     70  F   UNL A   1      39.834  24.555  27.030  1.00  0.00    -0.200 F 
ATOM     71  F   UNL A   1      41.376  25.522  25.000  1.00  0.00    -0.200 F 
ENDBRANCH  47  61
BRANCH  48  72
ATOM     72  C   UNL A   1      39.402  33.028  36.799  1.00  0.00     0.064 A 
ATOM     73  C   UNL A   1      38.479  32.582  37.754  1.00  0.00     0.173 A 
ATOM     74  C   UNL A   1      40.095  34.218  37.065  1.00  0.00     0.173 A 
ATOM     75  F   UNL A   1      37.776  31.461  37.533  1.00  0.00    -0.203 F 
ATOM     76  C   UNL A   1      38.237  33.311  38.917  1.00  0.00     0.198 A 
ATOM     77  C   UNL A   1      39.873  34.931  38.241  1.00  0.00     0.198 A 
ATOM     78  F   UNL A   1      40.992  34.684  36.184  1.00  0.00    -0.203 F 
ATOM     79  F   UNL A   1      37.312  32.889  39.789  1.00  0.00    -0.200 F 
ATOM     80  C   UNL A   1      38.938  34.483  39.161  1.00  0.00     0.200 A 
ATOM     81  F   UNL A   1      40.561  36.056  38.478  1.00  0.00    -0.200 F 
ATOM     82  F   UNL A   1      38.705  35.184  40.278  1.00  0.00    -0.200 F 
ENDBRANCH  48  72
BRANCH  60  83
ATOM     83  C   UNL A   1      44.102  28.286  34.846  1.00  0.00     0.064 A 
ATOM     84  C   UNL A   1      43.987  27.103  35.590  1.00  0.00     0.173 A 
ATOM     85  C   UNL A   1      45.364  28.890  34.760  1.00  0.00     0.173 A 
ATOM     86  F   UNL A   1      42.796  26.498  35.716  1.00  0.00    -0.203 F 
ATOM     87  C   UNL A   1      45.088  26.561  36.246  1.00  0.00     0.198 A 
ATOM     88  C   UNL A   1      46.470  28.331  35.395  1.00  0.00     0.198 A 
ATOM     89  F   UNL A   1      45.528  30.020  34.057  1.00  0.00    -0.203 F 
ATOM     90  F   UNL A   1      44.945  25.456  36.992  1.00  0.00    -0.200 F 
ATOM     91  C   UNL A   1      46.329  27.171  36.143  1.00  0.00     0.200 A 
ATOM     92  F   UNL A   1      47.671  28.917  35.288  1.00  0.00    -0.200 F 
ATOM     93  F   UNL A   1      47.390  26.648  36.775  1.00  0.00    -0.200 F 
ENDBRANCH  60  83
ENDBRANCH  34  35
ENDBRANCH  26  29
ENDBRANCH  24  25
ENDBRANCH  23  24
ENDBRANCH   1  23
TORSDOF 15
ENDMDL
