MODEL 1
REMARK VINA RESULT:     -12.5      0.000      0.000
REMARK SMILES COc1ccc(NC(=O)[C@H](CC(=O)NCCCCCCNC(=O)c2ccc(-c3c4nc(c(-c5c(F)c(F)c(F)c(F)c5F)c5ccc([nH]5)c(-c5c(F)c(F)c(F)c(F)c5F)c5nc(c(-c6c(F)c(F)c(F)c(F)c6F)c6ccc3[nH]6)C=C5)C=C4)cc2)Cc2ccccc2)cc1
REMARK SMILES IDX 16 1 15 2 14 3 12 4 13 5 11 7 10 8 8 9 7 10 9 12 6 13 3 14
REMARK SMILES IDX 4 15 95 16 5 17 94 18 2 19 1 20 87 21 88 22 89 23 93 24
REMARK SMILES IDX 90 25 92 26 91 27 17 28 18 29 19 30 20 31 21 32 22 33 23 35
REMARK SMILES IDX 24 36 25 37 86 38 26 39 85 40 27 41 28 42 29 43 79 44 30 45
REMARK SMILES IDX 84 46 78 47 80 48 31 49 83 50 77 51 76 52 32 54 64 55 44 56
REMARK SMILES IDX 63 57 45 58 48 59 62 60 81 61 46 62 47 63 61 65 82 66 49 67
REMARK SMILES IDX 33 68 34 69 42 70 35 71 36 72 40 73 43 74 37 75 38 76 41 77
REMARK SMILES IDX 39 78 65 79 66 80 74 81 67 82 68 83 72 84 75 85 69 86 70 87
REMARK SMILES IDX 73 88 71 89 50 90 51 91 59 92 52 93 53 94 57 95 60 96 54 97
REMARK SMILES IDX 55 98 58 99 56 100
REMARK H PARENT 14 6 7 11 21 34 80 53 48 64
REMARK Flexibility Score: inf
ROOT
ATOM      1  C   UNL A   1      32.432  28.483  27.233  1.00  0.00     0.021 C 
ENDROOT
BRANCH   1   2
ATOM      2  C   UNL A   1      31.258  27.799  26.544  1.00  0.00     0.116 C 
BRANCH   2   3
ATOM      3  N   UNL A   1      31.264  26.372  26.722  1.00  0.00    -0.356 N 
ATOM      4  C   UNL A   1      31.945  25.423  26.027  1.00  0.00     0.220 C 
ATOM      5  O   UNL A   1      31.989  24.288  26.509  1.00  0.00    -0.275 OA
ATOM      6  H   UNL A   1      30.694  26.036  27.450  1.00  0.00     0.163 HD
BRANCH   4   7
ATOM      7  C   UNL A   1      32.746  25.767  24.777  1.00  0.00     0.113 C 
BRANCH   7   8
ATOM      8  C   UNL A   1      32.360  25.246  23.373  1.00  0.00     0.092 C 
BRANCH   8   9
ATOM      9  C   UNL A   1      32.791  26.226  22.285  1.00  0.00     0.228 C 
ATOM     10  N   UNL A   1      32.104  27.364  21.984  1.00  0.00    -0.326 N 
ATOM     11  H   UNL A   1      32.553  27.890  21.284  1.00  0.00     0.169 HD
ATOM     12  O   UNL A   1      33.756  25.982  21.553  1.00  0.00    -0.274 OA
BRANCH  10  13
ATOM     13  C   UNL A   1      30.914  27.977  22.421  1.00  0.00     0.041 A 
ATOM     14  C   UNL A   1      28.576  29.407  23.074  1.00  0.00     0.119 A 
ATOM     15  C   UNL A   1      28.660  28.044  23.323  1.00  0.00     0.048 A 
ATOM     16  C   UNL A   1      29.671  30.079  22.546  1.00  0.00     0.048 A 
ATOM     17  C   UNL A   1      29.819  27.336  22.995  1.00  0.00     0.030 A 
ATOM     18  C   UNL A   1      30.831  29.365  22.221  1.00  0.00     0.030 A 
BRANCH  14  19
ATOM     19  O   UNL A   1      27.406  30.018  23.428  1.00  0.00    -0.497 OA
ATOM     20  C   UNL A   1      27.510  31.438  23.443  1.00  0.00     0.278 C 
ENDBRANCH  14  19
ENDBRANCH  10  13
ENDBRANCH   8   9
BRANCH   8  21
ATOM     21  C   UNL A   1      32.840  23.844  22.928  1.00  0.00     0.049 C 
BRANCH  21  22
ATOM     22  C   UNL A   1      34.020  23.154  23.604  1.00  0.00    -0.047 A 
ATOM     23  C   UNL A   1      35.357  23.536  23.430  1.00  0.00     0.004 A 
ATOM     24  C   UNL A   1      33.783  21.965  24.321  1.00  0.00     0.004 A 
ATOM     25  C   UNL A   1      36.413  22.732  23.874  1.00  0.00     0.000 A 
ATOM     26  C   UNL A   1      34.837  21.176  24.794  1.00  0.00     0.000 A 
ATOM     27  C   UNL A   1      36.154  21.548  24.549  1.00  0.00     0.000 A 
ENDBRANCH  21  22
ENDBRANCH   8  21
ENDBRANCH   7   8
ENDBRANCH   4   7
ENDBRANCH   2   3
ENDBRANCH   1   2
BRANCH   1  28
ATOM     28  C   UNL A   1      32.895  29.730  26.485  1.00  0.00     0.002 C 
BRANCH  28  29
ATOM     29  C   UNL A   1      31.751  30.580  25.914  1.00  0.00     0.002 C 
BRANCH  29  30
ATOM     30  C   UNL A   1      31.457  31.880  26.669  1.00  0.00     0.021 C 
BRANCH  30  31
ATOM     31  C   UNL A   1      32.681  32.541  27.296  1.00  0.00     0.116 C 
BRANCH  31  32
ATOM     32  N   UNL A   1      32.463  33.959  27.550  1.00  0.00    -0.352 N 
ATOM     33  C   UNL A   1      33.022  34.782  28.489  1.00  0.00     0.251 C 
ATOM     34  H   UNL A   1      31.812  34.394  26.952  1.00  0.00     0.163 HD
ATOM     35  O   UNL A   1      32.539  35.893  28.710  1.00  0.00    -0.269 OA
BRANCH  33  36
ATOM     36  C   UNL A   1      34.202  34.332  29.246  1.00  0.00     0.039 A 
ATOM     37  C   UNL A   1      34.019  33.683  30.469  1.00  0.00     0.014 A 
ATOM     38  C   UNL A   1      35.488  34.557  28.747  1.00  0.00     0.014 A 
ATOM     39  C   UNL A   1      35.128  33.190  31.158  1.00  0.00     0.010 A 
ATOM     40  C   UNL A   1      36.584  34.005  29.400  1.00  0.00     0.010 A 
ATOM     41  C   UNL A   1      36.413  33.308  30.606  1.00  0.00    -0.014 A 
BRANCH  41  42
ATOM     42  C   UNL A   1      37.594  32.686  31.252  1.00  0.00     0.031 A 
ATOM     43  C   UNL A   1      38.305  31.544  30.584  1.00  0.00     0.074 A 
ATOM     44  C   UNL A   1      37.961  33.092  32.483  1.00  0.00     0.049 A 
ATOM     45  N   UNL A   1      39.277  30.795  31.039  1.00  0.00    -0.248 NA
ATOM     46  C   UNL A   1      37.847  31.179  29.234  1.00  0.00     0.031 C 
ATOM     47  C   UNL A   1      37.323  34.168  33.244  1.00  0.00     0.029 A 
ATOM     48  N   UNL A   1      38.949  32.636  33.320  1.00  0.00    -0.354 N 
ATOM     49  C   UNL A   1      39.530  29.860  30.044  1.00  0.00     0.074 A 
ATOM     50  C   UNL A   1      38.588  30.110  28.976  1.00  0.00     0.031 C 
ATOM     51  C   UNL A   1      37.946  34.300  34.426  1.00  0.00     0.029 A 
ATOM     52  C   UNL A   1      38.990  33.286  34.530  1.00  0.00     0.049 A 
ATOM     53  H   UNL A   1      39.569  31.911  33.077  1.00  0.00     0.167 HD
ATOM     54  C   UNL A   1      40.475  28.891  30.025  1.00  0.00     0.037 A 
ATOM     55  C   UNL A   1      39.767  33.072  35.608  1.00  0.00     0.037 A 
ATOM     56  C   UNL A   1      41.428  28.669  31.081  1.00  0.00     0.049 A 
ATOM     57  C   UNL A   1      40.786  31.963  35.564  1.00  0.00     0.074 A 
ATOM     58  C   UNL A   1      42.477  27.768  31.118  1.00  0.00     0.029 A 
ATOM     59  N   UNL A   1      41.441  29.349  32.290  1.00  0.00    -0.354 N 
ATOM     60  N   UNL A   1      41.074  31.140  34.585  1.00  0.00    -0.248 NA
ATOM     61  C   UNL A   1      41.587  31.753  36.778  1.00  0.00     0.031 C 
ATOM     62  C   UNL A   1      43.083  27.854  32.375  1.00  0.00     0.029 A 
ATOM     63  C   UNL A   1      42.454  28.855  33.097  1.00  0.00     0.049 A 
ATOM     64  H   UNL A   1      40.822  30.073  32.537  1.00  0.00     0.167 HD
ATOM     65  C   UNL A   1      42.108  30.340  35.052  1.00  0.00     0.074 A 
ATOM     66  C   UNL A   1      42.410  30.789  36.395  1.00  0.00     0.031 C 
ATOM     67  C   UNL A   1      42.749  29.322  34.427  1.00  0.00     0.037 A 
BRANCH  54  68
ATOM     68  C   UNL A   1      40.528  27.982  28.831  1.00  0.00     0.064 A 
ATOM     69  C   UNL A   1      39.793  26.790  28.774  1.00  0.00     0.173 A 
ATOM     70  C   UNL A   1      41.269  28.350  27.696  1.00  0.00     0.173 A 
ATOM     71  F   UNL A   1      39.076  26.387  29.834  1.00  0.00    -0.203 F 
ATOM     72  C   UNL A   1      39.809  25.991  27.633  1.00  0.00     0.198 A 
ATOM     73  C   UNL A   1      41.258  27.566  26.546  1.00  0.00     0.198 A 
ATOM     74  F   UNL A   1      41.986  29.484  27.695  1.00  0.00    -0.203 F 
ATOM     75  F   UNL A   1      39.127  24.838  27.614  1.00  0.00    -0.200 F 
ATOM     76  C   UNL A   1      40.533  26.385  26.517  1.00  0.00     0.200 A 
ATOM     77  F   UNL A   1      41.946  27.957  25.464  1.00  0.00    -0.200 F 
ATOM     78  F   UNL A   1      40.532  25.625  25.413  1.00  0.00    -0.200 F 
ENDBRANCH  54  68
BRANCH  55  79
ATOM     79  C   UNL A   1      39.622  33.916  36.824  1.00  0.00     0.064 A 
ATOM     80  C   UNL A   1      38.829  33.494  37.901  1.00  0.00     0.173 A 
ATOM     81  C   UNL A   1      40.235  35.174  36.922  1.00  0.00     0.173 A 
ATOM     82  F   UNL A   1      38.205  32.308  37.846  1.00  0.00    -0.203 F 
ATOM     83  C   UNL A   1      38.623  34.312  39.009  1.00  0.00     0.198 A 
ATOM     84  C   UNL A   1      40.058  35.977  38.048  1.00  0.00     0.198 A 
ATOM     85  F   UNL A   1      41.009  35.626  35.925  1.00  0.00    -0.203 F 
ATOM     86  F   UNL A   1      37.805  33.910  39.992  1.00  0.00    -0.200 F 
ATOM     87  C   UNL A   1      39.241  35.551  39.084  1.00  0.00     0.200 A 
ATOM     88  F   UNL A   1      40.669  37.167  38.123  1.00  0.00    -0.200 F 
ATOM     89  F   UNL A   1      39.038  36.340  40.147  1.00  0.00    -0.200 F 
ENDBRANCH  55  79
BRANCH  67  90
ATOM     90  C   UNL A   1      43.867  28.651  35.171  1.00  0.00     0.064 A 
ATOM     91  C   UNL A   1      43.644  27.528  35.982  1.00  0.00     0.173 A 
ATOM     92  C   UNL A   1      45.186  29.114  35.040  1.00  0.00     0.173 A 
ATOM     93  F   UNL A   1      42.400  27.055  36.154  1.00  0.00    -0.203 F 
ATOM     94  C   UNL A   1      44.695  26.911  36.655  1.00  0.00     0.198 A 
ATOM     95  C   UNL A   1      46.239  28.473  35.685  1.00  0.00     0.198 A 
ATOM     96  F   UNL A   1      45.455  30.180  34.272  1.00  0.00    -0.203 F 
ATOM     97  F   UNL A   1      44.450  25.872  37.466  1.00  0.00    -0.200 F 
ATOM     98  C   UNL A   1      45.992  27.377  36.499  1.00  0.00     0.200 A 
ATOM     99  F   UNL A   1      47.493  28.915  35.519  1.00  0.00    -0.200 F 
ATOM    100  F   UNL A   1      47.004  26.775  37.139  1.00  0.00    -0.200 F 
ENDBRANCH  67  90
ENDBRANCH  41  42
ENDBRANCH  33  36
ENDBRANCH  31  32
ENDBRANCH  30  31
ENDBRANCH  29  30
ENDBRANCH  28  29
ENDBRANCH   1  28
TORSDOF 19
ENDMDL
MODEL 2
REMARK VINA RESULT:     -12.4      0.340      7.170
REMARK SMILES COc1ccc(NC(=O)[C@H](CC(=O)NCCCCCCNC(=O)c2ccc(-c3c4nc(c(-c5c(F)c(F)c(F)c(F)c5F)c5ccc([nH]5)c(-c5c(F)c(F)c(F)c(F)c5F)c5nc(c(-c6c(F)c(F)c(F)c(F)c6F)c6ccc3[nH]6)C=C5)C=C4)cc2)Cc2ccccc2)cc1
REMARK SMILES IDX 16 1 15 2 14 3 12 4 13 5 11 7 10 8 8 9 7 10 9 12 6 13 3 14
REMARK SMILES IDX 4 15 95 16 5 17 94 18 2 19 1 20 87 21 88 22 89 23 93 24
REMARK SMILES IDX 90 25 92 26 91 27 17 28 18 29 19 30 20 31 21 32 22 33 23 35
REMARK SMILES IDX 24 36 25 37 86 38 26 39 85 40 27 41 28 42 29 43 79 44 30 45
REMARK SMILES IDX 84 46 78 47 80 48 31 49 83 50 77 51 76 52 32 54 64 55 44 56
REMARK SMILES IDX 63 57 45 58 48 59 62 60 81 61 46 62 47 63 61 65 82 66 49 67
REMARK SMILES IDX 33 68 34 69 42 70 35 71 36 72 40 73 43 74 37 75 38 76 41 77
REMARK SMILES IDX 39 78 65 79 66 80 74 81 67 82 68 83 72 84 75 85 69 86 70 87
REMARK SMILES IDX 73 88 71 89 50 90 51 91 59 92 52 93 53 94 57 95 60 96 54 97
REMARK SMILES IDX 55 98 58 99 56 100
REMARK H PARENT 14 6 7 11 21 34 80 53 48 64
REMARK Flexibility Score: inf
ROOT
ATOM      1  C   UNL A   1      31.755  28.694  27.483  1.00  0.00     0.021 C 
ENDROOT
BRANCH   1   2
ATOM      2  C   UNL A   1      31.229  27.820  26.351  1.00  0.00     0.116 C 
BRANCH   2   3
ATOM      3  N   UNL A   1      31.297  26.417  26.656  1.00  0.00    -0.356 N 
ATOM      4  C   UNL A   1      32.038  25.444  26.063  1.00  0.00     0.220 C 
ATOM      5  O   UNL A   1      32.123  24.359  26.645  1.00  0.00    -0.275 OA
ATOM      6  H   UNL A   1      30.726  26.119  27.400  1.00  0.00     0.163 HD
BRANCH   4   7
ATOM      7  C   UNL A   1      32.852  25.715  24.803  1.00  0.00     0.113 C 
BRANCH   7   8
ATOM      8  C   UNL A   1      32.428  25.192  23.411  1.00  0.00     0.092 C 
BRANCH   8   9
ATOM      9  C   UNL A   1      32.832  26.169  22.310  1.00  0.00     0.228 C 
ATOM     10  N   UNL A   1      32.118  27.288  21.998  1.00  0.00    -0.326 N 
ATOM     11  H   UNL A   1      32.552  27.815  21.291  1.00  0.00     0.169 HD
ATOM     12  O   UNL A   1      33.800  25.939  21.578  1.00  0.00    -0.274 OA
BRANCH  10  13
ATOM     13  C   UNL A   1      30.916  27.878  22.432  1.00  0.00     0.041 A 
ATOM     14  C   UNL A   1      28.554  29.269  23.086  1.00  0.00     0.119 A 
ATOM     15  C   UNL A   1      28.646  27.900  23.297  1.00  0.00     0.048 A 
ATOM     16  C   UNL A   1      29.652  29.964  22.597  1.00  0.00     0.048 A 
ATOM     17  C   UNL A   1      29.817  27.212  22.969  1.00  0.00     0.030 A 
ATOM     18  C   UNL A   1      30.823  29.270  22.270  1.00  0.00     0.030 A 
BRANCH  14  19
ATOM     19  O   UNL A   1      27.373  29.859  23.437  1.00  0.00    -0.497 OA
ATOM     20  C   UNL A   1      27.480  31.275  23.557  1.00  0.00     0.278 C 
ENDBRANCH  14  19
ENDBRANCH  10  13
ENDBRANCH   8   9
BRANCH   8  21
ATOM     21  C   UNL A   1      32.893  23.788  22.956  1.00  0.00     0.049 C 
BRANCH  21  22
ATOM     22  C   UNL A   1      34.060  23.078  23.631  1.00  0.00    -0.047 A 
ATOM     23  C   UNL A   1      35.408  23.394  23.406  1.00  0.00     0.004 A 
ATOM     24  C   UNL A   1      33.793  21.932  24.405  1.00  0.00     0.004 A 
ATOM     25  C   UNL A   1      36.441  22.565  23.858  1.00  0.00     0.000 A 
ATOM     26  C   UNL A   1      34.827  21.120  24.886  1.00  0.00     0.000 A 
ATOM     27  C   UNL A   1      36.151  21.423  24.591  1.00  0.00     0.000 A 
ENDBRANCH  21  22
ENDBRANCH   8  21
ENDBRANCH   7   8
ENDBRANCH   4   7
ENDBRANCH   2   3
ENDBRANCH   1   2
BRANCH   1  28
ATOM     28  C   UNL A   1      32.397  29.980  26.970  1.00  0.00     0.002 C 
BRANCH  28  29
ATOM     29  C   UNL A   1      31.447  30.879  26.165  1.00  0.00     0.002 C 
BRANCH  29  30
ATOM     30  C   UNL A   1      31.331  32.324  26.660  1.00  0.00     0.021 C 
BRANCH  30  31
ATOM     31  C   UNL A   1      32.627  32.913  27.211  1.00  0.00     0.116 C 
BRANCH  31  32
ATOM     32  N   UNL A   1      32.464  34.305  27.609  1.00  0.00    -0.352 N 
ATOM     33  C   UNL A   1      33.021  34.993  28.652  1.00  0.00     0.251 C 
ATOM     34  H   UNL A   1      31.860  34.834  27.039  1.00  0.00     0.163 HD
ATOM     35  O   UNL A   1      32.581  36.097  28.974  1.00  0.00    -0.269 OA
BRANCH  33  36
ATOM     36  C   UNL A   1      34.146  34.405  29.399  1.00  0.00     0.039 A 
ATOM     37  C   UNL A   1      33.898  33.781  30.623  1.00  0.00     0.014 A 
ATOM     38  C   UNL A   1      35.445  34.476  28.889  1.00  0.00     0.014 A 
ATOM     39  C   UNL A   1      34.946  33.159  31.303  1.00  0.00     0.010 A 
ATOM     40  C   UNL A   1      36.473  33.797  29.531  1.00  0.00     0.010 A 
ATOM     41  C   UNL A   1      36.231  33.124  30.739  1.00  0.00    -0.014 A 
BRANCH  41  42
ATOM     42  C   UNL A   1      37.335  32.365  31.375  1.00  0.00     0.031 A 
ATOM     43  C   UNL A   1      37.843  32.765  32.731  1.00  0.00     0.074 A 
ATOM     44  C   UNL A   1      37.937  31.377  30.685  1.00  0.00     0.049 A 
ATOM     45  N   UNL A   1      38.870  32.304  33.398  1.00  0.00    -0.248 NA
ATOM     46  C   UNL A   1      37.115  33.843  33.419  1.00  0.00     0.031 C 
ATOM     47  C   UNL A   1      37.552  30.924  29.346  1.00  0.00     0.029 A 
ATOM     48  N   UNL A   1      39.012  30.586  31.005  1.00  0.00    -0.354 N 
ATOM     49  C   UNL A   1      38.924  33.048  34.569  1.00  0.00     0.074 A 
ATOM     50  C   UNL A   1      37.851  34.015  34.508  1.00  0.00     0.031 C 
ATOM     51  C   UNL A   1      38.366  29.926  28.968  1.00  0.00     0.029 A 
ATOM     52  C   UNL A   1      39.362  29.704  30.010  1.00  0.00     0.049 A 
ATOM     53  H   UNL A   1      39.488  30.645  31.864  1.00  0.00     0.167 HD
ATOM     54  C   UNL A   1      39.787  32.921  35.604  1.00  0.00     0.037 A 
ATOM     55  C   UNL A   1      40.385  28.831  29.941  1.00  0.00     0.037 A 
ATOM     56  C   UNL A   1      40.835  31.935  35.668  1.00  0.00     0.049 A 
ATOM     57  C   UNL A   1      41.346  28.740  31.098  1.00  0.00     0.074 A 
ATOM     58  C   UNL A   1      41.706  31.671  36.710  1.00  0.00     0.029 A 
ATOM     59  N   UNL A   1      41.157  31.057  34.645  1.00  0.00    -0.354 N 
ATOM     60  N   UNL A   1      41.337  29.390  32.236  1.00  0.00    -0.248 NA
ATOM     61  C   UNL A   1      42.460  27.793  30.957  1.00  0.00     0.031 C 
ATOM     62  C   UNL A   1      42.600  30.682  36.292  1.00  0.00     0.029 A 
ATOM     63  C   UNL A   1      42.244  30.280  35.015  1.00  0.00     0.049 A 
ATOM     64  H   UNL A   1      40.685  30.995  33.783  1.00  0.00     0.167 HD
ATOM     65  C   UNL A   1      42.420  28.908  32.958  1.00  0.00     0.074 A 
ATOM     66  C   UNL A   1      43.053  27.897  32.137  1.00  0.00     0.031 C 
ATOM     67  C   UNL A   1      42.855  29.270  34.190  1.00  0.00     0.037 A 
BRANCH  54  68
ATOM     68  C   UNL A   1      39.651  33.875  36.756  1.00  0.00     0.064 A 
ATOM     69  C   UNL A   1      38.880  33.567  37.885  1.00  0.00     0.173 A 
ATOM     70  C   UNL A   1      40.367  35.083  36.759  1.00  0.00     0.173 A 
ATOM     71  F   UNL A   1      38.170  32.430  37.930  1.00  0.00    -0.203 F 
ATOM     72  C   UNL A   1      38.816  34.441  38.969  1.00  0.00     0.198 A 
ATOM     73  C   UNL A   1      40.325  35.939  37.856  1.00  0.00     0.198 A 
ATOM     74  F   UNL A   1      41.125  35.423  35.705  1.00  0.00    -0.203 F 
ATOM     75  F   UNL A   1      38.044  34.143  40.023  1.00  0.00    -0.200 F 
ATOM     76  C   UNL A   1      39.547  35.620  38.957  1.00  0.00     0.200 A 
ATOM     77  F   UNL A   1      41.045  37.070  37.849  1.00  0.00    -0.200 F 
ATOM     78  F   UNL A   1      39.499  36.450  40.009  1.00  0.00    -0.200 F 
ENDBRANCH  54  68
BRANCH  55  79
ATOM     79  C   UNL A   1      40.565  27.971  28.741  1.00  0.00     0.064 A 
ATOM     80  C   UNL A   1      41.357  28.397  27.665  1.00  0.00     0.173 A 
ATOM     81  C   UNL A   1      39.920  26.731  28.622  1.00  0.00     0.173 A 
ATOM     82  F   UNL A   1      41.977  29.585  27.720  1.00  0.00    -0.203 F 
ATOM     83  C   UNL A   1      41.467  27.635  26.504  1.00  0.00     0.198 A 
ATOM     84  C   UNL A   1      40.060  25.952  27.475  1.00  0.00     0.198 A 
ATOM     85  F   UNL A   1      39.154  26.272  29.623  1.00  0.00    -0.203 F 
ATOM     86  F   UNL A   1      42.176  28.099  25.466  1.00  0.00    -0.200 F 
ATOM     87  C   UNL A   1      40.822  26.411  26.412  1.00  0.00     0.200 A 
ATOM     88  F   UNL A   1      39.448  24.763  27.396  1.00  0.00    -0.200 F 
ATOM     89  F   UNL A   1      40.923  25.681  25.293  1.00  0.00    -0.200 F 
ENDBRANCH  55  79
BRANCH  67  90
ATOM     90  C   UNL A   1      44.047  28.544  34.742  1.00  0.00     0.064 A 
ATOM     91  C   UNL A   1      45.351  29.037  34.581  1.00  0.00     0.173 A 
ATOM     92  C   UNL A   1      43.880  27.358  35.475  1.00  0.00     0.173 A 
ATOM     93  F   UNL A   1      45.567  30.157  33.876  1.00  0.00    -0.203 F 
ATOM     94  C   UNL A   1      46.444  28.356  35.111  1.00  0.00     0.198 A 
ATOM     95  C   UNL A   1      44.971  26.700  36.034  1.00  0.00     0.198 A 
ATOM     96  F   UNL A   1      42.654  26.847  35.663  1.00  0.00    -0.203 F 
ATOM     97  F   UNL A   1      47.684  28.818  34.899  1.00  0.00    -0.200 F 
ATOM     98  C   UNL A   1      46.253  27.195  35.844  1.00  0.00     0.200 A 
ATOM     99  F   UNL A   1      44.782  25.587  36.756  1.00  0.00    -0.200 F 
ATOM    100  F   UNL A   1      47.305  26.546  36.362  1.00  0.00    -0.200 F 
ENDBRANCH  67  90
ENDBRANCH  41  42
ENDBRANCH  33  36
ENDBRANCH  31  32
ENDBRANCH  30  31
ENDBRANCH  29  30
ENDBRANCH  28  29
ENDBRANCH   1  28
TORSDOF 19
ENDMDL
MODEL 3
REMARK VINA RESULT:     -12.2      3.751      8.606
REMARK SMILES COc1ccc(NC(=O)[C@H](CC(=O)NCCCCCCNC(=O)c2ccc(-c3c4nc(c(-c5c(F)c(F)c(F)c(F)c5F)c5ccc([nH]5)c(-c5c(F)c(F)c(F)c(F)c5F)c5nc(c(-c6c(F)c(F)c(F)c(F)c6F)c6ccc3[nH]6)C=C5)C=C4)cc2)Cc2ccccc2)cc1
REMARK SMILES IDX 16 1 15 2 14 3 12 4 13 5 11 7 10 8 8 9 7 10 9 12 6 13 3 14
REMARK SMILES IDX 4 15 95 16 5 17 94 18 2 19 1 20 87 21 88 22 89 23 93 24
REMARK SMILES IDX 90 25 92 26 91 27 17 28 18 29 19 30 20 31 21 32 22 33 23 35
REMARK SMILES IDX 24 36 25 37 86 38 26 39 85 40 27 41 28 42 29 43 79 44 30 45
REMARK SMILES IDX 84 46 78 47 80 48 31 49 83 50 77 51 76 52 32 54 64 55 44 56
REMARK SMILES IDX 63 57 45 58 48 59 62 60 81 61 46 62 47 63 61 65 82 66 49 67
REMARK SMILES IDX 33 68 34 69 42 70 35 71 36 72 40 73 43 74 37 75 38 76 41 77
REMARK SMILES IDX 39 78 65 79 66 80 74 81 67 82 68 83 72 84 75 85 69 86 70 87
REMARK SMILES IDX 73 88 71 89 50 90 51 91 59 92 52 93 53 94 57 95 60 96 54 97
REMARK SMILES IDX 55 98 58 99 56 100
REMARK H PARENT 14 6 7 11 21 34 80 53 48 64
REMARK Flexibility Score: inf
ROOT
ATOM      1  C   UNL A   1      33.991  25.347  23.061  1.00  0.00     0.021 C 
ENDROOT
BRANCH   1   2
ATOM      2  C   UNL A   1      32.874  24.803  22.180  1.00  0.00     0.116 C 
BRANCH   2   3
ATOM      3  N   UNL A   1      32.874  23.367  22.109  1.00  0.00    -0.356 N 
ATOM      4  C   UNL A   1      32.161  22.470  22.841  1.00  0.00     0.220 C 
ATOM      5  O   UNL A   1      32.137  21.302  22.444  1.00  0.00    -0.275 OA
ATOM      6  H   UNL A   1      33.475  22.978  21.434  1.00  0.00     0.163 HD
BRANCH   4   7
ATOM      7  C   UNL A   1      31.305  22.905  24.025  1.00  0.00     0.113 C 
BRANCH   7   8
ATOM      8  C   UNL A   1      31.909  23.539  25.299  1.00  0.00     0.092 C 
BRANCH   8   9
ATOM      9  C   UNL A   1      30.814  24.014  26.250  1.00  0.00     0.228 C 
ATOM     10  N   UNL A   1      30.176  25.212  26.123  1.00  0.00    -0.326 N 
ATOM     11  H   UNL A   1      29.474  25.329  26.802  1.00  0.00     0.169 HD
ATOM     12  O   UNL A   1      30.509  23.357  27.250  1.00  0.00    -0.274 OA
BRANCH  10  13
ATOM     13  C   UNL A   1      30.269  26.326  25.267  1.00  0.00     0.041 A 
ATOM     14  C   UNL A   1      30.224  28.436  23.400  1.00  0.00     0.119 A 
ATOM     15  C   UNL A   1      30.665  28.654  24.698  1.00  0.00     0.048 A 
ATOM     16  C   UNL A   1      29.851  27.157  23.006  1.00  0.00     0.048 A 
ATOM     17  C   UNL A   1      30.684  27.607  25.623  1.00  0.00     0.030 A 
ATOM     18  C   UNL A   1      29.872  26.112  23.937  1.00  0.00     0.030 A 
BRANCH  14  19
ATOM     19  O   UNL A   1      30.242  29.516  22.564  1.00  0.00    -0.497 OA
ATOM     20  C   UNL A   1      28.961  29.805  22.011  1.00  0.00     0.278 C 
ENDBRANCH  14  19
ENDBRANCH  10  13
ENDBRANCH   8   9
BRANCH   8  21
ATOM     21  C   UNL A   1      32.914  22.723  26.147  1.00  0.00     0.049 C 
BRANCH  21  22
ATOM     22  C   UNL A   1      34.397  22.675  25.798  1.00  0.00    -0.047 A 
ATOM     23  C   UNL A   1      35.316  23.680  26.134  1.00  0.00     0.004 A 
ATOM     24  C   UNL A   1      34.856  21.648  24.951  1.00  0.00     0.004 A 
ATOM     25  C   UNL A   1      36.604  23.709  25.589  1.00  0.00     0.000 A 
ATOM     26  C   UNL A   1      36.155  21.657  24.431  1.00  0.00     0.000 A 
ATOM     27  C   UNL A   1      37.022  22.701  24.731  1.00  0.00     0.000 A 
ENDBRANCH  21  22
ENDBRANCH   8  21
ENDBRANCH   7   8
ENDBRANCH   4   7
ENDBRANCH   2   3
ENDBRANCH   1   2
BRANCH   1  28
ATOM     28  C   UNL A   1      33.662  26.727  23.624  1.00  0.00     0.002 C 
BRANCH  28  29
ATOM     29  C   UNL A   1      33.980  26.889  25.118  1.00  0.00     0.002 C 
BRANCH  29  30
ATOM     30  C   UNL A   1      34.125  28.334  25.607  1.00  0.00     0.021 C 
BRANCH  30  31
ATOM     31  C   UNL A   1      33.737  28.552  27.067  1.00  0.00     0.116 C 
BRANCH  31  32
ATOM     32  N   UNL A   1      33.758  29.963  27.429  1.00  0.00    -0.352 N 
ATOM     33  C   UNL A   1      34.696  30.681  28.119  1.00  0.00     0.251 C 
ATOM     34  H   UNL A   1      32.976  30.482  27.130  1.00  0.00     0.163 HD
ATOM     35  O   UNL A   1      34.432  31.807  28.540  1.00  0.00    -0.269 OA
BRANCH  33  36
ATOM     36  C   UNL A   1      36.025  30.097  28.370  1.00  0.00     0.039 A 
ATOM     37  C   UNL A   1      37.003  30.181  27.377  1.00  0.00     0.014 A 
ATOM     38  C   UNL A   1      36.299  29.465  29.586  1.00  0.00     0.014 A 
ATOM     39  C   UNL A   1      38.286  29.695  27.633  1.00  0.00     0.010 A 
ATOM     40  C   UNL A   1      37.595  29.046  29.864  1.00  0.00     0.010 A 
ATOM     41  C   UNL A   1      38.602  29.165  28.894  1.00  0.00    -0.014 A 
BRANCH  41  42
ATOM     42  C   UNL A   1      39.985  28.757  29.237  1.00  0.00     0.031 A 
ATOM     43  C   UNL A   1      40.885  29.697  29.988  1.00  0.00     0.074 A 
ATOM     44  C   UNL A   1      40.455  27.577  28.788  1.00  0.00     0.049 A 
ATOM     45  N   UNL A   1      42.155  29.572  30.278  1.00  0.00    -0.248 NA
ATOM     46  C   UNL A   1      40.284  30.956  30.456  1.00  0.00     0.031 C 
ATOM     47  C   UNL A   1      39.683  26.597  28.019  1.00  0.00     0.029 A 
ATOM     48  N   UNL A   1      41.699  27.007  28.895  1.00  0.00    -0.354 N 
ATOM     49  C   UNL A   1      42.508  30.741  30.938  1.00  0.00     0.074 A 
ATOM     50  C   UNL A   1      41.330  31.580  30.976  1.00  0.00     0.031 C 
ATOM     51  C   UNL A   1      40.466  25.542  27.740  1.00  0.00     0.029 A 
ATOM     52  C   UNL A   1      41.805  25.792  28.261  1.00  0.00     0.049 A 
ATOM     53  H   UNL A   1      42.444  27.428  29.380  1.00  0.00     0.167 HD
ATOM     54  C   UNL A   1      43.706  31.073  31.474  1.00  0.00     0.037 A 
ATOM     55  C   UNL A   1      42.869  24.983  28.102  1.00  0.00     0.037 A 
ATOM     56  C   UNL A   1      44.865  30.218  31.457  1.00  0.00     0.049 A 
ATOM     57  C   UNL A   1      44.195  25.399  28.683  1.00  0.00     0.074 A 
ATOM     58  C   UNL A   1      46.098  30.428  32.046  1.00  0.00     0.029 A 
ATOM     59  N   UNL A   1      44.934  28.993  30.809  1.00  0.00    -0.354 N 
ATOM     60  N   UNL A   1      44.497  26.468  29.379  1.00  0.00    -0.248 NA
ATOM     61  C   UNL A   1      45.330  24.494  28.454  1.00  0.00     0.031 C 
ATOM     62  C   UNL A   1      46.936  29.365  31.698  1.00  0.00     0.029 A 
ATOM     63  C   UNL A   1      46.205  28.458  30.948  1.00  0.00     0.049 A 
ATOM     64  H   UNL A   1      44.191  28.569  30.322  1.00  0.00     0.167 HD
ATOM     65  C   UNL A   1      45.843  26.348  29.698  1.00  0.00     0.074 A 
ATOM     66  C   UNL A   1      46.295  25.093  29.135  1.00  0.00     0.031 C 
ATOM     67  C   UNL A   1      46.635  27.201  30.392  1.00  0.00     0.037 A 
BRANCH  54  68
ATOM     68  C   UNL A   1      43.841  32.422  32.120  1.00  0.00     0.064 A 
ATOM     69  C   UNL A   1      44.221  33.557  31.391  1.00  0.00     0.173 A 
ATOM     70  C   UNL A   1      43.509  32.592  33.474  1.00  0.00     0.173 A 
ATOM     71  F   UNL A   1      44.557  33.448  30.097  1.00  0.00    -0.203 F 
ATOM     72  C   UNL A   1      44.281  34.810  31.997  1.00  0.00     0.198 A 
ATOM     73  C   UNL A   1      43.540  33.850  34.068  1.00  0.00     0.198 A 
ATOM     74  F   UNL A   1      43.133  31.538  34.216  1.00  0.00    -0.203 F 
ATOM     75  F   UNL A   1      44.682  35.876  31.289  1.00  0.00    -0.200 F 
ATOM     76  C   UNL A   1      43.931  34.957  33.331  1.00  0.00     0.200 A 
ATOM     77  F   UNL A   1      43.186  33.992  35.353  1.00  0.00    -0.200 F 
ATOM     78  F   UNL A   1      43.971  36.167  33.906  1.00  0.00    -0.200 F 
ENDBRANCH  54  68
BRANCH  55  79
ATOM     79  C   UNL A   1      42.739  23.699  27.362  1.00  0.00     0.064 A 
ATOM     80  C   UNL A   1      42.260  22.547  28.001  1.00  0.00     0.173 A 
ATOM     81  C   UNL A   1      43.126  23.584  26.018  1.00  0.00     0.173 A 
ATOM     82  F   UNL A   1      41.897  22.600  29.291  1.00  0.00    -0.203 F 
ATOM     83  C   UNL A   1      42.210  21.323  27.339  1.00  0.00     0.198 A 
ATOM     84  C   UNL A   1      43.041  22.366  25.346  1.00  0.00     0.198 A 
ATOM     85  F   UNL A   1      43.586  24.655  25.355  1.00  0.00    -0.203 F 
ATOM     86  F   UNL A   1      41.812  20.224  27.996  1.00  0.00    -0.200 F 
ATOM     87  C   UNL A   1      42.597  21.234  26.010  1.00  0.00     0.200 A 
ATOM     88  F   UNL A   1      43.401  22.289  24.057  1.00  0.00    -0.200 F 
ATOM     89  F   UNL A   1      42.554  20.055  25.375  1.00  0.00    -0.200 F 
ENDBRANCH  55  79
BRANCH  67  90
ATOM     90  C   UNL A   1      48.061  26.789  30.616  1.00  0.00     0.064 A 
ATOM     91  C   UNL A   1      48.429  25.951  31.680  1.00  0.00     0.173 A 
ATOM     92  C   UNL A   1      49.068  27.207  29.731  1.00  0.00     0.173 A 
ATOM     93  F   UNL A   1      47.508  25.537  32.562  1.00  0.00    -0.203 F 
ATOM     94  C   UNL A   1      49.755  25.570  31.864  1.00  0.00     0.198 A 
ATOM     95  C   UNL A   1      50.386  26.794  29.898  1.00  0.00     0.198 A 
ATOM     96  F   UNL A   1      48.770  28.004  28.694  1.00  0.00    -0.203 F 
ATOM     97  F   UNL A   1      50.091  24.812  32.918  1.00  0.00    -0.200 F 
ATOM     98  C   UNL A   1      50.731  25.983  30.969  1.00  0.00     0.200 A 
ATOM     99  F   UNL A   1      51.324  27.181  29.022  1.00  0.00    -0.200 F 
ATOM    100  F   UNL A   1      52.005  25.606  31.143  1.00  0.00    -0.200 F 
ENDBRANCH  67  90
ENDBRANCH  41  42
ENDBRANCH  33  36
ENDBRANCH  31  32
ENDBRANCH  30  31
ENDBRANCH  29  30
ENDBRANCH  28  29
ENDBRANCH   1  28
TORSDOF 19
ENDMDL
