MODEL 1
REMARK VINA RESULT:     -13.0      0.000      0.000
REMARK SMILES O=C(NCCCCCCNC(=O)c1ccc(-c2c3nc(c(-c4c(F)c(F)c(F)c(F)c4F)c4ccc([nH]4)c(-c4c(F)c(F)c(F)c(F)c4F)c4nc(c(-c5c(F)c(F)c(F)c(F)c5F)c5ccc2[nH]5)C=C4)C=C3)cc1)C1=Cc2cc(S(F)(F)(F)(F)F)cc(Br)c2O[C@H]1C(F)(F)F
REMARK SMILES IDX 7 1 6 2 5 3 4 4 3 5 1 6 2 7 76 9 77 10 92 11 78 12 91 13
REMARK SMILES IDX 79 14 90 15 80 16 88 17 87 18 89 19 93 20 94 21 95 22 96 23
REMARK SMILES IDX 81 24 82 25 83 26 84 27 85 28 86 29 8 30 9 31 10 32 11 33
REMARK SMILES IDX 12 35 13 36 14 37 75 38 15 39 74 40 16 41 17 42 18 43 68 44
REMARK SMILES IDX 19 45 73 46 67 47 69 48 20 49 72 50 66 51 65 52 21 54 53 55
REMARK SMILES IDX 33 56 52 57 34 58 37 59 51 60 70 61 35 62 36 63 50 65 71 66
REMARK SMILES IDX 38 67 22 68 23 69 31 70 24 71 25 72 29 73 32 74 26 75 27 76
REMARK SMILES IDX 30 77 28 78 54 79 55 80 63 81 56 82 57 83 61 84 64 85 58 86
REMARK SMILES IDX 59 87 62 88 60 89 39 90 40 91 48 92 41 93 42 94 46 95 49 96
REMARK SMILES IDX 43 97 44 98 47 99 45 100
REMARK H PARENT 3 8 10 34 69 53 37 64
REMARK Flexibility Score: inf
ROOT
ATOM      1  C   UNL A   1      37.061  20.719  25.055  1.00  0.00     0.002 C 
ENDROOT
BRANCH   1   2
ATOM      2  C   UNL A   1      37.726  22.085  25.070  1.00  0.00     0.002 C 
BRANCH   2   3
ATOM      3  C   UNL A   1      36.829  23.095  24.374  1.00  0.00     0.021 C 
BRANCH   3   4
ATOM      4  C   UNL A   1      35.379  22.828  24.749  1.00  0.00     0.116 C 
BRANCH   4   5
ATOM      5  N   UNL A   1      34.590  22.616  23.528  1.00  0.00    -0.352 N 
ATOM      6  O   UNL A   1      32.504  22.003  22.569  1.00  0.00    -0.270 OA
ATOM      7  C   UNL A   1      33.187  22.187  23.625  1.00  0.00     0.251 C 
ATOM      8  H   UNL A   1      35.000  22.761  22.643  1.00  0.00     0.163 HD
BRANCH   7   9
ATOM      9  C   UNL A   1      32.553  21.963  24.988  1.00  0.00     0.067 C 
ATOM     10  C   UNL A   1      32.141  23.026  25.729  1.00  0.00     0.025 C 
ATOM     11  C   UNL A   1      32.380  20.551  25.523  1.00  0.00     0.314 C 
ATOM     12  C   UNL A   1      32.315  24.438  25.194  1.00  0.00     0.020 A 
ATOM     13  O   UNL A   1      31.540  23.772  23.048  1.00  0.00    -0.474 OA
ATOM     14  C   UNL A   1      32.918  25.344  26.050  1.00  0.00     0.036 A 
ATOM     15  C   UNL A   1      32.010  24.768  23.944  1.00  0.00     0.142 A 
ATOM     16  C   UNL A   1      32.898  26.679  25.578  1.00  0.00     0.109 A 
ATOM     17  C   UNL A   1      32.144  26.066  23.511  1.00  0.00     0.062 A 
ATOM     18  C   UNL A   1      32.677  27.026  24.323  1.00  0.00     0.044 A 
ATOM     19  Br  UNL A   1      31.560  26.545  21.703  1.00  0.00    -0.047 Br
BRANCH  11  20
ATOM     20  C   UNL A   1      32.918  19.554  24.508  1.00  0.00     0.429 C 
ATOM     21  F   UNL A   1      34.199  19.819  24.265  1.00  0.00    -0.167 F 
ATOM     22  F   UNL A   1      32.805  18.322  24.993  1.00  0.00    -0.167 F 
ATOM     23  F   UNL A   1      32.223  19.652  23.378  1.00  0.00    -0.167 F 
ENDBRANCH  11  20
BRANCH  16  24
ATOM     24  S   UNL A   1      33.196  28.001  26.779  1.00  0.00     0.310 S 
ATOM     25  F   UNL A   1      33.163  29.110  25.646  1.00  0.00    -0.094 F 
ATOM     26  F   UNL A   1      34.744  27.873  26.516  1.00  0.00    -0.094 F 
ATOM     27  F   UNL A   1      33.435  29.143  27.806  1.00  0.00    -0.094 F 
ATOM     28  F   UNL A   1      31.637  28.207  26.926  1.00  0.00    -0.094 F 
ATOM     29  F   UNL A   1      32.932  26.920  25.656  1.00  0.00    -0.094 F 
ENDBRANCH  16  24
ENDBRANCH   7   9
ENDBRANCH   4   5
ENDBRANCH   3   4
ENDBRANCH   2   3
ENDBRANCH   1   2
BRANCH   1  30
ATOM     30  C   UNL A   1      38.123  19.641  24.909  1.00  0.00     0.021 C 
BRANCH  30  31
ATOM     31  C   UNL A   1      39.268  19.924  25.867  1.00  0.00     0.116 C 
BRANCH  31  32
ATOM     32  N   UNL A   1      40.248  18.831  25.796  1.00  0.00    -0.352 N 
ATOM     33  C   UNL A   1      41.667  19.095  26.076  1.00  0.00     0.251 C 
ATOM     34  H   UNL A   1      39.955  17.921  25.559  1.00  0.00     0.163 HD
ATOM     35  O   UNL A   1      42.514  18.151  26.013  1.00  0.00    -0.269 OA
BRANCH  33  36
ATOM     36  C   UNL A   1      42.120  20.500  26.440  1.00  0.00     0.039 A 
ATOM     37  C   UNL A   1      42.213  20.859  27.775  1.00  0.00     0.014 A 
ATOM     38  C   UNL A   1      42.419  21.359  25.473  1.00  0.00     0.014 A 
ATOM     39  C   UNL A   1      42.355  22.250  27.986  1.00  0.00     0.010 A 
ATOM     40  C   UNL A   1      42.680  22.676  25.764  1.00  0.00     0.010 A 
ATOM     41  C   UNL A   1      42.730  23.114  27.059  1.00  0.00    -0.014 A 
BRANCH  41  42
ATOM     42  C   UNL A   1      43.191  24.519  27.412  1.00  0.00     0.031 A 
ATOM     43  C   UNL A   1      42.218  25.466  27.736  1.00  0.00     0.074 A 
ATOM     44  C   UNL A   1      44.551  24.781  27.393  1.00  0.00     0.049 A 
ATOM     45  N   UNL A   1      42.407  26.734  28.105  1.00  0.00    -0.248 NA
ATOM     46  C   UNL A   1      40.772  25.199  27.721  1.00  0.00     0.031 C 
ATOM     47  C   UNL A   1      45.538  23.829  27.077  1.00  0.00     0.029 A 
ATOM     48  N   UNL A   1      45.185  25.971  27.669  1.00  0.00    -0.354 N 
ATOM     49  C   UNL A   1      41.234  27.321  28.351  1.00  0.00     0.074 A 
ATOM     50  C   UNL A   1      40.165  26.345  28.102  1.00  0.00     0.031 C 
ATOM     51  C   UNL A   1      46.751  24.439  27.148  1.00  0.00     0.029 A 
ATOM     52  C   UNL A   1      46.540  25.784  27.512  1.00  0.00     0.049 A 
ATOM     53  H   UNL A   1      44.746  26.812  27.932  1.00  0.00     0.167 HD
ATOM     54  C   UNL A   1      41.015  28.633  28.775  1.00  0.00     0.037 A 
ATOM     55  C   UNL A   1      47.551  26.718  27.670  1.00  0.00     0.037 A 
ATOM     56  C   UNL A   1      42.030  29.556  28.975  1.00  0.00     0.049 A 
ATOM     57  C   UNL A   1      47.327  28.047  28.038  1.00  0.00     0.074 A 
ATOM     58  C   UNL A   1      41.826  30.880  29.409  1.00  0.00     0.029 A 
ATOM     59  N   UNL A   1      43.383  29.374  28.793  1.00  0.00    -0.354 N 
ATOM     60  N   UNL A   1      46.158  28.624  28.323  1.00  0.00    -0.248 NA
ATOM     61  C   UNL A   1      48.387  29.054  28.177  1.00  0.00     0.031 C 
ATOM     62  C   UNL A   1      43.039  31.491  29.481  1.00  0.00     0.029 A 
ATOM     63  C   UNL A   1      44.020  30.559  29.091  1.00  0.00     0.049 A 
ATOM     64  H   UNL A   1      43.820  28.542  28.502  1.00  0.00     0.167 HD
ATOM     65  C   UNL A   1      46.345  29.903  28.651  1.00  0.00     0.074 A 
ATOM     66  C   UNL A   1      47.782  30.201  28.555  1.00  0.00     0.031 C 
ATOM     67  C   UNL A   1      45.377  30.834  29.030  1.00  0.00     0.037 A 
BRANCH  54  68
ATOM     68  C   UNL A   1      39.583  29.074  29.032  1.00  0.00     0.064 A 
ATOM     69  C   UNL A   1      39.051  29.075  30.310  1.00  0.00     0.173 A 
ATOM     70  C   UNL A   1      38.851  29.425  27.981  1.00  0.00     0.173 A 
ATOM     71  F   UNL A   1      39.797  28.980  31.407  1.00  0.00    -0.203 F 
ATOM     72  C   UNL A   1      37.641  29.186  30.344  1.00  0.00     0.198 A 
ATOM     73  C   UNL A   1      37.502  29.651  28.111  1.00  0.00     0.198 A 
ATOM     74  F   UNL A   1      39.430  29.558  26.790  1.00  0.00    -0.203 F 
ATOM     75  F   UNL A   1      37.020  28.839  31.468  1.00  0.00    -0.200 F 
ATOM     76  C   UNL A   1      36.898  29.610  29.337  1.00  0.00     0.200 A 
ATOM     77  F   UNL A   1      36.773  29.912  27.030  1.00  0.00    -0.200 F 
ATOM     78  F   UNL A   1      35.632  29.976  29.506  1.00  0.00    -0.200 F 
ENDBRANCH  54  68
BRANCH  55  79
ATOM     79  C   UNL A   1      48.984  26.272  27.430  1.00  0.00     0.064 A 
ATOM     80  C   UNL A   1      49.723  25.894  28.538  1.00  0.00     0.173 A 
ATOM     81  C   UNL A   1      49.503  26.228  26.208  1.00  0.00     0.173 A 
ATOM     82  F   UNL A   1      49.181  25.680  29.734  1.00  0.00    -0.203 F 
ATOM     83  C   UNL A   1      51.108  25.755  28.284  1.00  0.00     0.198 A 
ATOM     84  C   UNL A   1      50.836  25.953  26.024  1.00  0.00     0.198 A 
ATOM     85  F   UNL A   1      48.725  26.453  25.153  1.00  0.00    -0.203 F 
ATOM     86  F   UNL A   1      51.932  25.752  29.328  1.00  0.00    -0.200 F 
ATOM     87  C   UNL A   1      51.640  25.627  27.082  1.00  0.00     0.200 A 
ATOM     88  F   UNL A   1      51.353  26.001  24.800  1.00  0.00    -0.200 F 
ATOM     89  F   UNL A   1      52.890  25.207  26.909  1.00  0.00    -0.200 F 
ENDBRANCH  55  79
BRANCH  67  90
ATOM     90  C   UNL A   1      45.839  32.234  29.401  1.00  0.00     0.064 A 
ATOM     91  C   UNL A   1      46.159  32.518  30.717  1.00  0.00     0.173 A 
ATOM     92  C   UNL A   1      45.927  33.162  28.455  1.00  0.00     0.173 A 
ATOM     93  F   UNL A   1      46.330  31.576  31.641  1.00  0.00    -0.203 F 
ATOM     94  C   UNL A   1      46.289  33.899  30.991  1.00  0.00     0.198 A 
ATOM     95  C   UNL A   1      46.191  34.470  28.781  1.00  0.00     0.198 A 
ATOM     96  F   UNL A   1      45.758  32.822  27.180  1.00  0.00    -0.203 F 
ATOM     97  F   UNL A   1      46.236  34.287  32.263  1.00  0.00    -0.200 F 
ATOM     98  C   UNL A   1      46.459  34.832  30.072  1.00  0.00     0.200 A 
ATOM     99  F   UNL A   1      46.185  35.398  27.828  1.00  0.00    -0.200 F 
ATOM    100  F   UNL A   1      46.869  36.059  30.385  1.00  0.00    -0.200 F 
ENDBRANCH  67  90
ENDBRANCH  41  42
ENDBRANCH  33  36
ENDBRANCH  31  32
ENDBRANCH  30  31
ENDBRANCH   1  30
TORSDOF 15
ENDMDL
MODEL 2
REMARK VINA RESULT:     -13.0      5.198      8.935
REMARK SMILES O=C(NCCCCCCNC(=O)c1ccc(-c2c3nc(c(-c4c(F)c(F)c(F)c(F)c4F)c4ccc([nH]4)c(-c4c(F)c(F)c(F)c(F)c4F)c4nc(c(-c5c(F)c(F)c(F)c(F)c5F)c5ccc2[nH]5)C=C4)C=C3)cc1)C1=Cc2cc(S(F)(F)(F)(F)F)cc(Br)c2O[C@H]1C(F)(F)F
REMARK SMILES IDX 7 1 6 2 5 3 4 4 3 5 1 6 2 7 76 9 77 10 92 11 78 12 91 13
REMARK SMILES IDX 79 14 90 15 80 16 88 17 87 18 89 19 93 20 94 21 95 22 96 23
REMARK SMILES IDX 81 24 82 25 83 26 84 27 85 28 86 29 8 30 9 31 10 32 11 33
REMARK SMILES IDX 12 35 13 36 14 37 75 38 15 39 74 40 16 41 17 42 18 43 68 44
REMARK SMILES IDX 19 45 73 46 67 47 69 48 20 49 72 50 66 51 65 52 21 54 53 55
REMARK SMILES IDX 33 56 52 57 34 58 37 59 51 60 70 61 35 62 36 63 50 65 71 66
REMARK SMILES IDX 38 67 22 68 23 69 31 70 24 71 25 72 29 73 32 74 26 75 27 76
REMARK SMILES IDX 30 77 28 78 54 79 55 80 63 81 56 82 57 83 61 84 64 85 58 86
REMARK SMILES IDX 59 87 62 88 60 89 39 90 40 91 48 92 41 93 42 94 46 95 49 96
REMARK SMILES IDX 43 97 44 98 47 99 45 100
REMARK H PARENT 3 8 10 34 69 53 37 64
REMARK Flexibility Score: inf
ROOT
ATOM      1  C   UNL A   1      31.795  30.291  25.758  1.00  0.00     0.002 C 
ENDROOT
BRANCH   1   2
ATOM      2  C   UNL A   1      32.150  29.106  26.641  1.00  0.00     0.002 C 
BRANCH   2   3
ATOM      3  C   UNL A   1      33.060  28.159  25.876  1.00  0.00     0.021 C 
BRANCH   3   4
ATOM      4  C   UNL A   1      32.988  26.773  26.497  1.00  0.00     0.116 C 
BRANCH   4   5
ATOM      5  N   UNL A   1      33.639  25.802  25.606  1.00  0.00    -0.352 N 
ATOM      6  O   UNL A   1      33.540  23.687  24.529  1.00  0.00    -0.270 OA
ATOM      7  C   UNL A   1      32.977  24.526  25.300  1.00  0.00     0.251 C 
ATOM      8  H   UNL A   1      34.519  26.007  25.213  1.00  0.00     0.163 HD
BRANCH   7   9
ATOM      9  C   UNL A   1      31.619  24.210  25.905  1.00  0.00     0.067 C 
ATOM     10  C   UNL A   1      30.499  24.797  25.406  1.00  0.00     0.025 C 
ATOM     11  C   UNL A   1      31.513  23.237  27.068  1.00  0.00     0.314 C 
ATOM     12  C   UNL A   1      30.604  25.770  24.242  1.00  0.00     0.020 A 
ATOM     13  O   UNL A   1      32.120  24.329  23.112  1.00  0.00    -0.474 OA
ATOM     14  C   UNL A   1      29.966  26.988  24.406  1.00  0.00     0.036 A 
ATOM     15  C   UNL A   1      31.353  25.522  23.173  1.00  0.00     0.142 A 
ATOM     16  C   UNL A   1      29.944  27.785  23.237  1.00  0.00     0.109 A 
ATOM     17  C   UNL A   1      31.390  26.410  22.125  1.00  0.00     0.062 A 
ATOM     18  C   UNL A   1      30.734  27.607  22.193  1.00  0.00     0.044 A 
ATOM     19  Br  UNL A   1      32.398  25.953  20.507  1.00  0.00    -0.047 Br
BRANCH  11  20
ATOM     20  C   UNL A   1      32.899  22.728  27.431  1.00  0.00     0.429 C 
ATOM     21  F   UNL A   1      33.761  23.741  27.413  1.00  0.00    -0.167 F 
ATOM     22  F   UNL A   1      32.871  22.191  28.646  1.00  0.00    -0.167 F 
ATOM     23  F   UNL A   1      33.279  21.807  26.548  1.00  0.00    -0.167 F 
ENDBRANCH  11  20
BRANCH  16  24
ATOM     24  S   UNL A   1      28.747  29.142  23.166  1.00  0.00     0.310 S 
ATOM     25  F   UNL A   1      28.981  29.338  21.610  1.00  0.00    -0.094 F 
ATOM     26  F   UNL A   1      29.917  30.169  23.404  1.00  0.00    -0.094 F 
ATOM     27  F   UNL A   1      27.709  30.297  23.094  1.00  0.00    -0.094 F 
ATOM     28  F   UNL A   1      27.611  28.110  22.791  1.00  0.00    -0.094 F 
ATOM     29  F   UNL A   1      29.806  27.968  23.125  1.00  0.00    -0.094 F 
ENDBRANCH  16  24
ENDBRANCH   7   9
ENDBRANCH   4   5
ENDBRANCH   3   4
ENDBRANCH   2   3
ENDBRANCH   1   2
BRANCH   1  30
ATOM     30  C   UNL A   1      31.446  31.485  26.631  1.00  0.00     0.021 C 
BRANCH  30  31
ATOM     31  C   UNL A   1      32.697  32.311  26.884  1.00  0.00     0.116 C 
BRANCH  31  32
ATOM     32  N   UNL A   1      32.313  33.681  27.252  1.00  0.00    -0.352 N 
ATOM     33  C   UNL A   1      33.069  34.404  28.286  1.00  0.00     0.251 C 
ATOM     34  H   UNL A   1      31.549  34.115  26.808  1.00  0.00     0.163 HD
ATOM     35  O   UNL A   1      32.737  35.587  28.605  1.00  0.00    -0.269 OA
BRANCH  33  36
ATOM     36  C   UNL A   1      34.248  33.733  28.973  1.00  0.00     0.039 A 
ATOM     37  C   UNL A   1      35.528  34.215  28.750  1.00  0.00     0.014 A 
ATOM     38  C   UNL A   1      34.031  32.698  29.775  1.00  0.00     0.014 A 
ATOM     39  C   UNL A   1      36.552  33.347  29.196  1.00  0.00     0.010 A 
ATOM     40  C   UNL A   1      35.084  31.977  30.286  1.00  0.00     0.010 A 
ATOM     41  C   UNL A   1      36.376  32.360  30.057  1.00  0.00    -0.014 A 
BRANCH  41  42
ATOM     42  C   UNL A   1      37.547  31.687  30.754  1.00  0.00     0.031 A 
ATOM     43  C   UNL A   1      37.830  32.062  32.069  1.00  0.00     0.074 A 
ATOM     44  C   UNL A   1      38.268  30.740  30.047  1.00  0.00     0.049 A 
ATOM     45  N   UNL A   1      38.782  31.576  32.866  1.00  0.00    -0.248 NA
ATOM     46  C   UNL A   1      37.088  33.093  32.809  1.00  0.00     0.031 C 
ATOM     47  C   UNL A   1      37.983  30.350  28.724  1.00  0.00     0.029 A 
ATOM     48  N   UNL A   1      39.360  30.018  30.474  1.00  0.00    -0.354 N 
ATOM     49  C   UNL A   1      38.730  32.171  34.060  1.00  0.00     0.074 A 
ATOM     50  C   UNL A   1      37.644  33.159  34.039  1.00  0.00     0.031 C 
ATOM     51  C   UNL A   1      38.898  29.415  28.354  1.00  0.00     0.029 A 
ATOM     52  C   UNL A   1      39.769  29.205  29.440  1.00  0.00     0.049 A 
ATOM     53  H   UNL A   1      39.777  30.074  31.363  1.00  0.00     0.167 HD
ATOM     54  C   UNL A   1      39.546  31.924  35.167  1.00  0.00     0.037 A 
ATOM     55  C   UNL A   1      40.839  28.325  29.424  1.00  0.00     0.037 A 
ATOM     56  C   UNL A   1      40.589  31.013  35.165  1.00  0.00     0.049 A 
ATOM     57  C   UNL A   1      41.691  28.121  30.513  1.00  0.00     0.074 A 
ATOM     58  C   UNL A   1      41.415  30.747  36.274  1.00  0.00     0.029 A 
ATOM     59  N   UNL A   1      41.013  30.218  34.123  1.00  0.00    -0.354 N 
ATOM     60  N   UNL A   1      41.615  28.686  31.719  1.00  0.00    -0.248 NA
ATOM     61  C   UNL A   1      42.847  27.215  30.498  1.00  0.00     0.031 C 
ATOM     62  C   UNL A   1      42.330  29.813  35.904  1.00  0.00     0.029 A 
ATOM     63  C   UNL A   1      42.091  29.479  34.557  1.00  0.00     0.049 A 
ATOM     64  H   UNL A   1      40.614  30.183  33.224  1.00  0.00     0.167 HD
ATOM     65  C   UNL A   1      42.593  28.229  32.503  1.00  0.00     0.074 A 
ATOM     66  C   UNL A   1      43.405  27.282  31.726  1.00  0.00     0.031 C 
ATOM     67  C   UNL A   1      42.840  28.562  33.836  1.00  0.00     0.037 A 
BRANCH  54  68
ATOM     68  C   UNL A   1      39.273  32.701  36.445  1.00  0.00     0.064 A 
ATOM     69  C   UNL A   1      38.319  32.275  37.354  1.00  0.00     0.173 A 
ATOM     70  C   UNL A   1      39.958  33.822  36.640  1.00  0.00     0.173 A 
ATOM     71  F   UNL A   1      37.795  31.053  37.337  1.00  0.00    -0.203 F 
ATOM     72  C   UNL A   1      37.954  33.258  38.304  1.00  0.00     0.198 A 
ATOM     73  C   UNL A   1      39.634  34.671  37.670  1.00  0.00     0.198 A 
ATOM     74  F   UNL A   1      40.969  34.126  35.829  1.00  0.00    -0.203 F 
ATOM     75  F   UNL A   1      36.817  33.080  38.972  1.00  0.00    -0.200 F 
ATOM     76  C   UNL A   1      38.661  34.341  38.573  1.00  0.00     0.200 A 
ATOM     77  F   UNL A   1      40.274  35.830  37.792  1.00  0.00    -0.200 F 
ATOM     78  F   UNL A   1      38.439  35.070  39.662  1.00  0.00    -0.200 F 
ENDBRANCH  54  68
BRANCH  55  79
ATOM     79  C   UNL A   1      41.100  27.535  28.152  1.00  0.00     0.064 A 
ATOM     80  C   UNL A   1      41.931  28.114  27.207  1.00  0.00     0.173 A 
ATOM     81  C   UNL A   1      40.570  26.333  27.960  1.00  0.00     0.173 A 
ATOM     82  F   UNL A   1      42.679  29.185  27.457  1.00  0.00    -0.203 F 
ATOM     83  C   UNL A   1      41.914  27.462  25.952  1.00  0.00     0.198 A 
ATOM     84  C   UNL A   1      40.707  25.694  26.751  1.00  0.00     0.198 A 
ATOM     85  F   UNL A   1      39.900  25.742  28.945  1.00  0.00    -0.203 F 
ATOM     86  F   UNL A   1      42.380  28.130  24.901  1.00  0.00    -0.200 F 
ATOM     87  C   UNL A   1      41.466  26.235  25.751  1.00  0.00     0.200 A 
ATOM     88  F   UNL A   1      40.093  24.531  26.551  1.00  0.00    -0.200 F 
ATOM     89  F   UNL A   1      41.739  25.564  24.636  1.00  0.00    -0.200 F 
ENDBRANCH  55  79
BRANCH  67  90
ATOM     90  C   UNL A   1      44.000  27.877  34.539  1.00  0.00     0.064 A 
ATOM     91  C   UNL A   1      45.249  28.474  34.531  1.00  0.00     0.173 A 
ATOM     92  C   UNL A   1      43.797  26.715  35.150  1.00  0.00     0.173 A 
ATOM     93  F   UNL A   1      45.446  29.737  34.161  1.00  0.00    -0.203 F 
ATOM     94  C   UNL A   1      46.296  27.622  34.954  1.00  0.00     0.198 A 
ATOM     95  C   UNL A   1      44.852  25.998  35.660  1.00  0.00     0.198 A 
ATOM     96  F   UNL A   1      42.559  26.241  35.269  1.00  0.00    -0.203 F 
ATOM     97  F   UNL A   1      47.542  27.972  34.644  1.00  0.00    -0.200 F 
ATOM     98  C   UNL A   1      46.123  26.503  35.633  1.00  0.00     0.200 A 
ATOM     99  F   UNL A   1      44.636  24.796  36.186  1.00  0.00    -0.200 F 
ATOM    100  F   UNL A   1      47.130  25.899  36.257  1.00  0.00    -0.200 F 
ENDBRANCH  67  90
ENDBRANCH  41  42
ENDBRANCH  33  36
ENDBRANCH  31  32
ENDBRANCH  30  31
ENDBRANCH   1  30
TORSDOF 15
ENDMDL
MODEL 3
REMARK VINA RESULT:     -13.0      5.380      9.509
REMARK SMILES O=C(NCCCCCCNC(=O)c1ccc(-c2c3nc(c(-c4c(F)c(F)c(F)c(F)c4F)c4ccc([nH]4)c(-c4c(F)c(F)c(F)c(F)c4F)c4nc(c(-c5c(F)c(F)c(F)c(F)c5F)c5ccc2[nH]5)C=C4)C=C3)cc1)C1=Cc2cc(S(F)(F)(F)(F)F)cc(Br)c2O[C@H]1C(F)(F)F
REMARK SMILES IDX 7 1 6 2 5 3 4 4 3 5 1 6 2 7 76 9 77 10 92 11 78 12 91 13
REMARK SMILES IDX 79 14 90 15 80 16 88 17 87 18 89 19 93 20 94 21 95 22 96 23
REMARK SMILES IDX 81 24 82 25 83 26 84 27 85 28 86 29 8 30 9 31 10 32 11 33
REMARK SMILES IDX 12 35 13 36 14 37 75 38 15 39 74 40 16 41 17 42 18 43 68 44
REMARK SMILES IDX 19 45 73 46 67 47 69 48 20 49 72 50 66 51 65 52 21 54 53 55
REMARK SMILES IDX 33 56 52 57 34 58 37 59 51 60 70 61 35 62 36 63 50 65 71 66
REMARK SMILES IDX 38 67 22 68 23 69 31 70 24 71 25 72 29 73 32 74 26 75 27 76
REMARK SMILES IDX 30 77 28 78 54 79 55 80 63 81 56 82 57 83 61 84 64 85 58 86
REMARK SMILES IDX 59 87 62 88 60 89 39 90 40 91 48 92 41 93 42 94 46 95 49 96
REMARK SMILES IDX 43 97 44 98 47 99 45 100
REMARK H PARENT 3 8 10 34 69 53 37 64
REMARK Flexibility Score: inf
ROOT
ATOM      1  C   UNL A   1      31.778  30.807  26.170  1.00  0.00     0.002 C 
ENDROOT
BRANCH   1   2
ATOM      2  C   UNL A   1      32.805  30.231  27.129  1.00  0.00     0.002 C 
BRANCH   2   3
ATOM      3  C   UNL A   1      32.615  28.727  27.233  1.00  0.00     0.021 C 
BRANCH   3   4
ATOM      4  C   UNL A   1      32.393  28.146  25.846  1.00  0.00     0.116 C 
BRANCH   4   5
ATOM      5  N   UNL A   1      31.107  27.433  25.814  1.00  0.00    -0.352 N 
ATOM      6  O   UNL A   1      29.437  26.367  24.503  1.00  0.00    -0.270 OA
ATOM      7  C   UNL A   1      30.549  26.983  24.531  1.00  0.00     0.251 C 
ATOM      8  H   UNL A   1      30.620  27.258  26.652  1.00  0.00     0.163 HD
BRANCH   7   9
ATOM      9  C   UNL A   1      31.300  27.254  23.238  1.00  0.00     0.067 C 
ATOM     10  C   UNL A   1      32.362  26.477  22.893  1.00  0.00     0.025 C 
ATOM     11  C   UNL A   1      30.865  28.392  22.330  1.00  0.00     0.314 C 
ATOM     12  C   UNL A   1      32.797  25.339  23.801  1.00  0.00     0.020 A 
ATOM     13  O   UNL A   1      30.541  24.662  24.117  1.00  0.00    -0.474 OA
ATOM     14  C   UNL A   1      34.143  25.298  24.125  1.00  0.00     0.036 A 
ATOM     15  C   UNL A   1      31.931  24.492  24.346  1.00  0.00     0.142 A 
ATOM     16  C   UNL A   1      34.529  24.129  24.824  1.00  0.00     0.109 A 
ATOM     17  C   UNL A   1      32.370  23.451  25.130  1.00  0.00     0.062 A 
ATOM     18  C   UNL A   1      33.693  23.315  25.442  1.00  0.00     0.044 A 
ATOM     19  Br  UNL A   1      31.078  22.143  25.809  1.00  0.00    -0.047 Br
BRANCH  11  20
ATOM     20  C   UNL A   1      29.664  29.098  22.941  1.00  0.00     0.429 C 
ATOM     21  F   UNL A   1      28.631  28.260  22.978  1.00  0.00    -0.167 F 
ATOM     22  F   UNL A   1      29.961  29.490  24.176  1.00  0.00    -0.167 F 
ATOM     23  F   UNL A   1      29.349  30.158  22.202  1.00  0.00    -0.167 F 
ENDBRANCH  11  20
BRANCH  16  24
ATOM     24  S   UNL A   1      36.293  23.721  24.871  1.00  0.00     0.310 S 
ATOM     25  F   UNL A   1      36.018  22.394  25.696  1.00  0.00    -0.094 F 
ATOM     26  F   UNL A   1      36.416  24.472  26.250  1.00  0.00    -0.094 F 
ATOM     27  F   UNL A   1      37.803  23.355  24.903  1.00  0.00    -0.094 F 
ATOM     28  F   UNL A   1      36.119  22.855  23.561  1.00  0.00    -0.094 F 
ATOM     29  F   UNL A   1      34.735  23.988  24.882  1.00  0.00    -0.094 F 
ENDBRANCH  16  24
ENDBRANCH   7   9
ENDBRANCH   4   5
ENDBRANCH   3   4
ENDBRANCH   2   3
ENDBRANCH   1   2
BRANCH   1  30
ATOM     30  C   UNL A   1      31.385  32.203  26.627  1.00  0.00     0.021 C 
BRANCH  30  31
ATOM     31  C   UNL A   1      32.591  32.893  27.243  1.00  0.00     0.116 C 
BRANCH  31  32
ATOM     32  N   UNL A   1      32.230  34.266  27.621  1.00  0.00    -0.352 N 
ATOM     33  C   UNL A   1      33.024  34.985  28.628  1.00  0.00     0.251 C 
ATOM     34  H   UNL A   1      31.456  34.706  27.200  1.00  0.00     0.163 HD
ATOM     35  O   UNL A   1      32.711  36.171  28.956  1.00  0.00    -0.269 OA
BRANCH  33  36
ATOM     36  C   UNL A   1      34.219  34.306  29.279  1.00  0.00     0.039 A 
ATOM     37  C   UNL A   1      35.498  34.626  28.851  1.00  0.00     0.014 A 
ATOM     38  C   UNL A   1      34.017  33.419  30.246  1.00  0.00     0.014 A 
ATOM     39  C   UNL A   1      36.495  33.735  29.311  1.00  0.00     0.010 A 
ATOM     40  C   UNL A   1      35.063  32.678  30.744  1.00  0.00     0.010 A 
ATOM     41  C   UNL A   1      36.345  32.900  30.323  1.00  0.00    -0.014 A 
BRANCH  41  42
ATOM     42  C   UNL A   1      37.533  32.221  30.985  1.00  0.00     0.031 A 
ATOM     43  C   UNL A   1      37.905  32.649  32.260  1.00  0.00     0.074 A 
ATOM     44  C   UNL A   1      38.181  31.216  30.286  1.00  0.00     0.049 A 
ATOM     45  N   UNL A   1      38.887  32.169  33.025  1.00  0.00    -0.248 NA
ATOM     46  C   UNL A   1      37.242  33.740  32.990  1.00  0.00     0.031 C 
ATOM     47  C   UNL A   1      37.805  30.773  29.003  1.00  0.00     0.029 A 
ATOM     48  N   UNL A   1      39.272  30.478  30.684  1.00  0.00    -0.354 N 
ATOM     49  C   UNL A   1      38.925  32.822  34.189  1.00  0.00     0.074 A 
ATOM     50  C   UNL A   1      37.871  33.845  34.180  1.00  0.00     0.031 C 
ATOM     51  C   UNL A   1      38.666  29.790  28.628  1.00  0.00     0.029 A 
ATOM     52  C   UNL A   1      39.593  29.602  29.671  1.00  0.00     0.049 A 
ATOM     53  H   UNL A   1      39.743  30.562  31.545  1.00  0.00     0.167 HD
ATOM     54  C   UNL A   1      39.796  32.602  35.257  1.00  0.00     0.037 A 
ATOM     55  C   UNL A   1      40.632  28.686  29.638  1.00  0.00     0.037 A 
ATOM     56  C   UNL A   1      40.808  31.655  35.241  1.00  0.00     0.049 A 
ATOM     57  C   UNL A   1      41.540  28.505  30.684  1.00  0.00     0.074 A 
ATOM     58  C   UNL A   1      41.690  31.415  36.313  1.00  0.00     0.029 A 
ATOM     59  N   UNL A   1      41.144  30.797  34.218  1.00  0.00    -0.354 N 
ATOM     60  N   UNL A   1      41.553  29.130  31.863  1.00  0.00    -0.248 NA
ATOM     61  C   UNL A   1      42.664  27.561  30.648  1.00  0.00     0.031 C 
ATOM     62  C   UNL A   1      42.551  30.433  35.938  1.00  0.00     0.029 A 
ATOM     63  C   UNL A   1      42.222  30.043  34.626  1.00  0.00     0.049 A 
ATOM     64  H   UNL A   1      40.692  30.733  33.346  1.00  0.00     0.167 HD
ATOM     65  C   UNL A   1      42.562  28.678  32.612  1.00  0.00     0.074 A 
ATOM     66  C   UNL A   1      43.295  27.667  31.837  1.00  0.00     0.031 C 
ATOM     67  C   UNL A   1      42.898  29.067  33.909  1.00  0.00     0.037 A 
BRANCH  54  68
ATOM     68  C   UNL A   1      39.625  33.448  36.508  1.00  0.00     0.064 A 
ATOM     69  C   UNL A   1      38.827  33.025  37.557  1.00  0.00     0.173 A 
ATOM     70  C   UNL A   1      40.241  34.624  36.542  1.00  0.00     0.173 A 
ATOM     71  F   UNL A   1      38.400  31.771  37.685  1.00  0.00    -0.203 F 
ATOM     72  C   UNL A   1      38.507  34.046  38.483  1.00  0.00     0.198 A 
ATOM     73  C   UNL A   1      39.982  35.521  37.551  1.00  0.00     0.198 A 
ATOM     74  F   UNL A   1      41.117  34.937  35.591  1.00  0.00    -0.203 F 
ATOM     75  F   UNL A   1      37.479  33.839  39.302  1.00  0.00    -0.200 F 
ATOM     76  C   UNL A   1      39.156  35.191  38.590  1.00  0.00     0.200 A 
ATOM     77  F   UNL A   1      40.541  36.727  37.516  1.00  0.00    -0.200 F 
ATOM     78  F   UNL A   1      39.016  35.980  39.650  1.00  0.00    -0.200 F 
ENDBRANCH  54  68
BRANCH  55  79
ATOM     79  C   UNL A   1      40.792  27.827  28.394  1.00  0.00     0.064 A 
ATOM     80  C   UNL A   1      41.629  28.304  27.399  1.00  0.00     0.173 A 
ATOM     81  C   UNL A   1      40.170  26.660  28.271  1.00  0.00     0.173 A 
ATOM     82  F   UNL A   1      42.460  29.326  27.579  1.00  0.00    -0.203 F 
ATOM     83  C   UNL A   1      41.522  27.603  26.175  1.00  0.00     0.198 A 
ATOM     84  C   UNL A   1      40.219  25.963  27.088  1.00  0.00     0.198 A 
ATOM     85  F   UNL A   1      39.494  26.161  29.302  1.00  0.00    -0.203 F 
ATOM     86  F   UNL A   1      41.999  28.191  25.081  1.00  0.00    -0.200 F 
ATOM     87  C   UNL A   1      40.981  26.405  26.042  1.00  0.00     0.200 A 
ATOM     88  F   UNL A   1      39.517  24.841  26.959  1.00  0.00    -0.200 F 
ATOM     89  F   UNL A   1      41.166  25.670  24.949  1.00  0.00    -0.200 F 
ENDBRANCH  55  79
BRANCH  67  90
ATOM     90  C   UNL A   1      44.075  28.376  34.578  1.00  0.00     0.064 A 
ATOM     91  C   UNL A   1      43.868  27.192  35.265  1.00  0.00     0.173 A 
ATOM     92  C   UNL A   1      45.284  28.920  34.492  1.00  0.00     0.173 A 
ATOM     93  F   UNL A   1      42.746  26.484  35.168  1.00  0.00    -0.203 F 
ATOM     94  C   UNL A   1      44.957  26.804  36.080  1.00  0.00     0.198 A 
ATOM     95  C   UNL A   1      46.335  28.407  35.212  1.00  0.00     0.198 A 
ATOM     96  F   UNL A   1      45.478  29.973  33.703  1.00  0.00    -0.203 F 
ATOM     97  F   UNL A   1      44.727  25.904  37.034  1.00  0.00    -0.200 F 
ATOM     98  C   UNL A   1      46.186  27.271  35.960  1.00  0.00     0.200 A 
ATOM     99  F   UNL A   1      47.514  29.021  35.182  1.00  0.00    -0.200 F 
ATOM    100  F   UNL A   1      47.224  26.671  36.537  1.00  0.00    -0.200 F 
ENDBRANCH  67  90
ENDBRANCH  41  42
ENDBRANCH  33  36
ENDBRANCH  31  32
ENDBRANCH  30  31
ENDBRANCH   1  30
TORSDOF 15
ENDMDL
