MODEL 1
REMARK VINA RESULT:     -12.0      0.000      0.000
REMARK SMILES O=C(Nc1c(F)cc(F)cc1F)N[C@H]1C=C[C@H](C(=O)NCCCCCCNC(=O)c2ccc(-c3c4nc(c(-c5c(F)c(F)c(F)c(F)c5F)c5ccc([nH]5)c(-c5c(F)c(F)c(F)c(F)c5F)c5nc(c(-c6c(F)c(F)c(F)c(F)c6F)c6ccc3[nH]6)C=C5)C=C4)cc2)C1
REMARK SMILES IDX 23 1 22 2 21 3 20 4 18 5 19 6 17 8 14 9 15 10 93 11 16 12
REMARK SMILES IDX 13 13 1 14 2 15 3 16 4 19 5 20 11 21 6 22 7 23 10 24 12 25
REMARK SMILES IDX 8 26 9 27 24 28 25 29 26 30 27 31 28 32 29 34 30 35 31 36
REMARK SMILES IDX 92 37 32 38 91 39 33 40 34 41 35 42 85 43 36 44 90 45 84 46
REMARK SMILES IDX 86 47 37 48 89 49 83 50 82 51 38 53 70 54 50 55 69 56 51 57
REMARK SMILES IDX 54 58 68 59 87 60 52 61 53 62 67 64 88 65 55 66 39 67 40 68
REMARK SMILES IDX 48 69 41 70 42 71 46 72 49 73 43 74 44 75 47 76 45 77 71 78
REMARK SMILES IDX 72 79 80 80 73 81 74 82 78 83 81 84 75 85 76 86 79 87 77 88
REMARK SMILES IDX 56 89 57 90 65 91 58 92 59 93 63 94 66 95 60 96 61 97 64 98
REMARK SMILES IDX 62 99
REMARK H PARENT 20 7 3 17 13 18 27 33 86 52 54 63
REMARK Flexibility Score: inf
ROOT
ATOM      1  C   UNL A   1      41.087  21.873  26.153  1.00  0.00     0.002 C 
ENDROOT
BRANCH   1   2
ATOM      2  C   UNL A   1      40.233  22.709  27.115  1.00  0.00     0.021 C 
BRANCH   2   3
ATOM      3  C   UNL A   1      38.888  23.160  26.544  1.00  0.00     0.116 C 
BRANCH   3   4
ATOM      4  N   UNL A   1      38.087  22.026  26.126  1.00  0.00    -0.356 N 
ATOM      5  C   UNL A   1      36.851  21.969  25.557  1.00  0.00     0.227 C 
ATOM      6  O   UNL A   1      36.351  20.854  25.390  1.00  0.00    -0.274 OA
ATOM      7  H   UNL A   1      38.506  21.149  26.281  1.00  0.00     0.163 HD
BRANCH   5   8
ATOM      8  C   UNL A   1      36.138  23.253  25.131  1.00  0.00     0.103 C 
ATOM      9  C   UNL A   1      33.707  23.200  25.501  1.00  0.00     0.107 C 
ATOM     10  C   UNL A   1      34.060  22.980  24.067  1.00  0.00    -0.006 C 
ATOM     11  C   UNL A   1      35.040  23.630  26.134  1.00  0.00     0.047 C 
ATOM     12  C   UNL A   1      35.380  23.015  23.859  1.00  0.00    -0.016 C 
BRANCH   9  13
ATOM     13  N   UNL A   1      32.745  24.270  25.549  1.00  0.00    -0.332 N 
ATOM     14  O   UNL A   1      31.688  23.583  27.435  1.00  0.00    -0.248 OA
ATOM     15  C   UNL A   1      31.834  24.411  26.538  1.00  0.00     0.319 C 
ATOM     16  N   UNL A   1      31.142  25.582  26.609  1.00  0.00    -0.303 N 
ATOM     17  H   UNL A   1      30.579  25.654  27.413  1.00  0.00     0.172 HD
ATOM     18  H   UNL A   1      32.751  24.934  24.823  1.00  0.00     0.165 HD
BRANCH  16  19
ATOM     19  C   UNL A   1      31.064  26.712  25.768  1.00  0.00     0.115 A 
ATOM     20  C   UNL A   1      31.757  27.915  25.939  1.00  0.00     0.152 A 
ATOM     21  C   UNL A   1      30.216  26.611  24.657  1.00  0.00     0.152 A 
ATOM     22  F   UNL A   1      32.652  28.066  26.924  1.00  0.00    -0.204 F 
ATOM     23  C   UNL A   1      31.568  28.994  25.079  1.00  0.00     0.081 A 
ATOM     24  C   UNL A   1      30.001  27.683  23.795  1.00  0.00     0.081 A 
ATOM     25  F   UNL A   1      29.548  25.467  24.438  1.00  0.00    -0.204 F 
ATOM     26  C   UNL A   1      30.677  28.871  24.024  1.00  0.00     0.129 A 
ATOM     27  F   UNL A   1      30.471  29.915  23.210  1.00  0.00    -0.207 F 
ENDBRANCH  16  19
ENDBRANCH   9  13
ENDBRANCH   5   8
ENDBRANCH   3   4
ENDBRANCH   2   3
ENDBRANCH   1   2
BRANCH   1  28
ATOM     28  C   UNL A   1      41.716  20.614  26.757  1.00  0.00     0.002 C 
BRANCH  28  29
ATOM     29  C   UNL A   1      42.006  19.486  25.764  1.00  0.00     0.021 C 
BRANCH  29  30
ATOM     30  C   UNL A   1      43.283  18.698  26.041  1.00  0.00     0.116 C 
BRANCH  30  31
ATOM     31  N   UNL A   1      44.137  18.592  24.868  1.00  0.00    -0.352 N 
ATOM     32  C   UNL A   1      44.791  19.577  24.173  1.00  0.00     0.251 C 
ATOM     33  H   UNL A   1      44.263  17.678  24.522  1.00  0.00     0.163 HD
ATOM     34  O   UNL A   1      45.334  19.317  23.100  1.00  0.00    -0.269 OA
BRANCH  32  35
ATOM     35  C   UNL A   1      44.825  20.960  24.692  1.00  0.00     0.039 A 
ATOM     36  C   UNL A   1      45.337  21.187  25.972  1.00  0.00     0.014 A 
ATOM     37  C   UNL A   1      44.349  22.030  23.930  1.00  0.00     0.014 A 
ATOM     38  C   UNL A   1      45.434  22.491  26.461  1.00  0.00     0.010 A 
ATOM     39  C   UNL A   1      44.512  23.337  24.388  1.00  0.00     0.010 A 
ATOM     40  C   UNL A   1      45.058  23.581  25.656  1.00  0.00    -0.014 A 
BRANCH  40  41
ATOM     41  C   UNL A   1      45.253  24.977  26.124  1.00  0.00     0.031 A 
ATOM     42  C   UNL A   1      46.608  25.624  26.053  1.00  0.00     0.074 A 
ATOM     43  C   UNL A   1      44.214  25.646  26.660  1.00  0.00     0.049 A 
ATOM     44  N   UNL A   1      46.977  26.814  26.454  1.00  0.00    -0.248 NA
ATOM     45  C   UNL A   1      47.698  24.821  25.477  1.00  0.00     0.031 C 
ATOM     46  C   UNL A   1      42.862  25.111  26.824  1.00  0.00     0.029 A 
ATOM     47  N   UNL A   1      44.130  26.918  27.169  1.00  0.00    -0.354 N 
ATOM     48  C   UNL A   1      48.336  26.901  26.182  1.00  0.00     0.074 A 
ATOM     49  C   UNL A   1      48.741  25.624  25.636  1.00  0.00     0.031 C 
ATOM     50  C   UNL A   1      42.076  26.058  27.360  1.00  0.00     0.029 A 
ATOM     51  C   UNL A   1      42.876  27.252  27.616  1.00  0.00     0.049 A 
ATOM     52  H   UNL A   1      44.898  27.534  27.209  1.00  0.00     0.167 HD
ATOM     53  C   UNL A   1      49.163  27.961  26.348  1.00  0.00     0.037 A 
ATOM     54  C   UNL A   1      42.418  28.390  28.173  1.00  0.00     0.037 A 
ATOM     55  C   UNL A   1      48.752  29.237  26.871  1.00  0.00     0.049 A 
ATOM     56  C   UNL A   1      43.364  29.545  28.365  1.00  0.00     0.074 A 
ATOM     57  C   UNL A   1      49.506  30.387  27.029  1.00  0.00     0.029 A 
ATOM     58  N   UNL A   1      47.473  29.534  27.321  1.00  0.00    -0.354 N 
ATOM     59  N   UNL A   1      44.634  29.634  28.051  1.00  0.00    -0.248 NA
ATOM     60  C   UNL A   1      42.814  30.758  28.984  1.00  0.00     0.031 C 
ATOM     61  C   UNL A   1      48.699  31.362  27.620  1.00  0.00     0.029 A 
ATOM     62  C   UNL A   1      47.425  30.840  27.781  1.00  0.00     0.049 A 
ATOM     63  H   UNL A   1      46.713  28.908  27.316  1.00  0.00     0.167 HD
ATOM     64  C   UNL A   1      45.029  30.912  28.416  1.00  0.00     0.074 A 
ATOM     65  C   UNL A   1      43.860  31.573  28.957  1.00  0.00     0.031 C 
ATOM     66  C   UNL A   1      46.254  31.485  28.318  1.00  0.00     0.037 A 
BRANCH  53  67
ATOM     67  C   UNL A   1      50.600  27.797  25.945  1.00  0.00     0.064 A 
ATOM     68  C   UNL A   1      51.583  27.502  26.902  1.00  0.00     0.173 A 
ATOM     69  C   UNL A   1      51.017  28.004  24.620  1.00  0.00     0.173 A 
ATOM     70  F   UNL A   1      51.240  27.301  28.184  1.00  0.00    -0.203 F 
ATOM     71  C   UNL A   1      52.929  27.435  26.551  1.00  0.00     0.198 A 
ATOM     72  C   UNL A   1      52.361  27.905  24.268  1.00  0.00     0.198 A 
ATOM     73  F   UNL A   1      50.117  28.279  23.664  1.00  0.00    -0.203 F 
ATOM     74  F   UNL A   1      53.853  27.184  27.490  1.00  0.00    -0.200 F 
ATOM     75  C   UNL A   1      53.316  27.631  25.235  1.00  0.00     0.200 A 
ATOM     76  F   UNL A   1      52.730  28.073  22.990  1.00  0.00    -0.200 F 
ATOM     77  F   UNL A   1      54.611  27.555  24.897  1.00  0.00    -0.200 F 
ENDBRANCH  53  67
BRANCH  54  78
ATOM     78  C   UNL A   1      40.986  28.501  28.556  1.00  0.00     0.064 A 
ATOM     79  C   UNL A   1      40.023  28.987  27.659  1.00  0.00     0.173 A 
ATOM     80  C   UNL A   1      40.558  28.145  29.843  1.00  0.00     0.173 A 
ATOM     81  F   UNL A   1      40.382  29.345  26.417  1.00  0.00    -0.203 F 
ATOM     82  C   UNL A   1      38.692  29.130  28.041  1.00  0.00     0.198 A 
ATOM     83  C   UNL A   1      39.221  28.261  30.214  1.00  0.00     0.198 A 
ATOM     84  F   UNL A   1      41.438  27.656  30.729  1.00  0.00    -0.203 F 
ATOM     85  F   UNL A   1      37.798  29.630  27.176  1.00  0.00    -0.200 F 
ATOM     86  C   UNL A   1      38.290  28.763  29.317  1.00  0.00     0.200 A 
ATOM     87  F   UNL A   1      38.833  27.882  31.438  1.00  0.00    -0.200 F 
ATOM     88  F   UNL A   1      37.006  28.887  29.679  1.00  0.00    -0.200 F 
ENDBRANCH  54  78
BRANCH  66  89
ATOM     89  C   UNL A   1      46.398  32.901  28.794  1.00  0.00     0.064 A 
ATOM     90  C   UNL A   1      46.212  33.974  27.908  1.00  0.00     0.173 A 
ATOM     91  C   UNL A   1      46.788  33.195  30.109  1.00  0.00     0.173 A 
ATOM     92  F   UNL A   1      45.848  33.746  26.638  1.00  0.00    -0.203 F 
ATOM     93  C   UNL A   1      46.425  35.288  28.318  1.00  0.00     0.198 A 
ATOM     94  C   UNL A   1      46.970  34.512  30.524  1.00  0.00     0.198 A 
ATOM     95  F   UNL A   1      46.966  32.206  30.997  1.00  0.00    -0.203 F 
ATOM     96  F   UNL A   1      46.276  36.293  27.445  1.00  0.00    -0.200 F 
ATOM     97  C   UNL A   1      46.799  35.556  29.626  1.00  0.00     0.200 A 
ATOM     98  F   UNL A   1      47.306  34.772  31.795  1.00  0.00    -0.200 F 
ATOM     99  F   UNL A   1      46.992  36.820  30.023  1.00  0.00    -0.200 F 
ENDBRANCH  66  89
ENDBRANCH  40  41
ENDBRANCH  32  35
ENDBRANCH  30  31
ENDBRANCH  29  30
ENDBRANCH  28  29
ENDBRANCH   1  28
TORSDOF 15
ENDMDL
MODEL 2
REMARK VINA RESULT:     -12.0      0.290      1.419
REMARK SMILES O=C(Nc1c(F)cc(F)cc1F)N[C@H]1C=C[C@H](C(=O)NCCCCCCNC(=O)c2ccc(-c3c4nc(c(-c5c(F)c(F)c(F)c(F)c5F)c5ccc([nH]5)c(-c5c(F)c(F)c(F)c(F)c5F)c5nc(c(-c6c(F)c(F)c(F)c(F)c6F)c6ccc3[nH]6)C=C5)C=C4)cc2)C1
REMARK SMILES IDX 23 1 22 2 21 3 20 4 18 5 19 6 17 8 14 9 15 10 93 11 16 12
REMARK SMILES IDX 13 13 1 14 2 15 3 16 4 19 5 20 11 21 6 22 7 23 10 24 12 25
REMARK SMILES IDX 8 26 9 27 24 28 25 29 26 30 27 31 28 32 29 34 30 35 31 36
REMARK SMILES IDX 92 37 32 38 91 39 33 40 34 41 35 42 85 43 36 44 90 45 84 46
REMARK SMILES IDX 86 47 37 48 89 49 83 50 82 51 38 53 70 54 50 55 69 56 51 57
REMARK SMILES IDX 54 58 68 59 87 60 52 61 53 62 67 64 88 65 55 66 39 67 40 68
REMARK SMILES IDX 48 69 41 70 42 71 46 72 49 73 43 74 44 75 47 76 45 77 71 78
REMARK SMILES IDX 72 79 80 80 73 81 74 82 78 83 81 84 75 85 76 86 79 87 77 88
REMARK SMILES IDX 56 89 57 90 65 91 58 92 59 93 63 94 66 95 60 96 61 97 64 98
REMARK SMILES IDX 62 99
REMARK H PARENT 20 7 3 17 13 18 27 33 86 52 54 63
REMARK Flexibility Score: inf
ROOT
ATOM      1  C   UNL A   1      41.283  21.667  26.361  1.00  0.00     0.002 C 
ENDROOT
BRANCH   1   2
ATOM      2  C   UNL A   1      40.389  22.583  27.206  1.00  0.00     0.021 C 
BRANCH   2   3
ATOM      3  C   UNL A   1      39.092  23.013  26.522  1.00  0.00     0.116 C 
BRANCH   3   4
ATOM      4  N   UNL A   1      38.378  21.873  25.981  1.00  0.00    -0.356 N 
ATOM      5  C   UNL A   1      37.165  21.789  25.368  1.00  0.00     0.227 C 
ATOM      6  O   UNL A   1      36.744  20.664  25.089  1.00  0.00    -0.274 OA
ATOM      7  H   UNL A   1      38.849  21.014  26.073  1.00  0.00     0.163 HD
BRANCH   5   8
ATOM      8  C   UNL A   1      36.381  23.058  25.032  1.00  0.00     0.103 C 
ATOM      9  C   UNL A   1      33.964  22.861  25.440  1.00  0.00     0.107 C 
ATOM     10  C   UNL A   1      34.298  22.743  23.989  1.00  0.00    -0.006 C 
ATOM     11  C   UNL A   1      35.286  23.319  26.074  1.00  0.00     0.047 C 
ATOM     12  C   UNL A   1      35.610  22.857  23.761  1.00  0.00    -0.016 C 
BRANCH   9  13
ATOM     13  N   UNL A   1      32.951  23.876  25.568  1.00  0.00    -0.332 N 
ATOM     14  O   UNL A   1      32.103  23.148  27.542  1.00  0.00    -0.248 OA
ATOM     15  C   UNL A   1      32.123  23.975  26.632  1.00  0.00     0.319 C 
ATOM     16  N   UNL A   1      31.375  25.106  26.760  1.00  0.00    -0.303 N 
ATOM     17  H   UNL A   1      30.882  25.154  27.610  1.00  0.00     0.172 HD
ATOM     18  H   UNL A   1      32.856  24.534  24.842  1.00  0.00     0.165 HD
BRANCH  16  19
ATOM     19  C   UNL A   1      31.162  26.223  25.925  1.00  0.00     0.115 A 
ATOM     20  C   UNL A   1      30.488  26.219  24.699  1.00  0.00     0.152 A 
ATOM     21  C   UNL A   1      31.670  27.449  26.374  1.00  0.00     0.152 A 
ATOM     22  F   UNL A   1      29.896  25.109  24.237  1.00  0.00    -0.204 F 
ATOM     23  C   UNL A   1      30.379  27.370  23.922  1.00  0.00     0.081 A 
ATOM     24  C   UNL A   1      31.586  28.607  25.606  1.00  0.00     0.081 A 
ATOM     25  F   UNL A   1      32.304  27.508  27.556  1.00  0.00    -0.204 F 
ATOM     26  C   UNL A   1      30.945  28.550  24.378  1.00  0.00     0.129 A 
ATOM     27  F   UNL A   1      30.866  29.653  23.622  1.00  0.00    -0.207 F 
ENDBRANCH  16  19
ENDBRANCH   9  13
ENDBRANCH   5   8
ENDBRANCH   3   4
ENDBRANCH   2   3
ENDBRANCH   1   2
BRANCH   1  28
ATOM     28  C   UNL A   1      41.616  20.310  26.989  1.00  0.00     0.002 C 
BRANCH  28  29
ATOM     29  C   UNL A   1      41.990  19.204  25.999  1.00  0.00     0.021 C 
BRANCH  29  30
ATOM     30  C   UNL A   1      43.406  18.657  26.150  1.00  0.00     0.116 C 
BRANCH  30  31
ATOM     31  N   UNL A   1      44.117  18.596  24.883  1.00  0.00    -0.352 N 
ATOM     32  C   UNL A   1      44.648  19.612  24.130  1.00  0.00     0.251 C 
ATOM     33  H   UNL A   1      44.234  17.691  24.511  1.00  0.00     0.163 HD
ATOM     34  O   UNL A   1      45.068  19.384  22.996  1.00  0.00    -0.269 OA
BRANCH  32  35
ATOM     35  C   UNL A   1      44.692  20.990  24.662  1.00  0.00     0.039 A 
ATOM     36  C   UNL A   1      45.216  21.202  25.940  1.00  0.00     0.014 A 
ATOM     37  C   UNL A   1      44.215  22.070  23.914  1.00  0.00     0.014 A 
ATOM     38  C   UNL A   1      45.323  22.501  26.440  1.00  0.00     0.010 A 
ATOM     39  C   UNL A   1      44.387  23.371  24.384  1.00  0.00     0.010 A 
ATOM     40  C   UNL A   1      44.946  23.600  25.649  1.00  0.00    -0.014 A 
BRANCH  40  41
ATOM     41  C   UNL A   1      45.151  24.991  26.129  1.00  0.00     0.031 A 
ATOM     42  C   UNL A   1      46.511  25.628  26.065  1.00  0.00     0.074 A 
ATOM     43  C   UNL A   1      44.117  25.664  26.668  1.00  0.00     0.049 A 
ATOM     44  N   UNL A   1      46.889  26.812  26.476  1.00  0.00    -0.248 NA
ATOM     45  C   UNL A   1      47.596  24.820  25.485  1.00  0.00     0.031 C 
ATOM     46  C   UNL A   1      42.760  25.139  26.825  1.00  0.00     0.029 A 
ATOM     47  N   UNL A   1      44.042  26.933  27.187  1.00  0.00    -0.354 N 
ATOM     48  C   UNL A   1      48.249  26.889  26.208  1.00  0.00     0.074 A 
ATOM     49  C   UNL A   1      48.645  25.614  25.652  1.00  0.00     0.031 C 
ATOM     50  C   UNL A   1      41.980  26.088  27.367  1.00  0.00     0.029 A 
ATOM     51  C   UNL A   1      42.790  27.273  27.635  1.00  0.00     0.049 A 
ATOM     52  H   UNL A   1      44.815  27.542  27.234  1.00  0.00     0.167 HD
ATOM     53  C   UNL A   1      49.085  27.941  26.383  1.00  0.00     0.037 A 
ATOM     54  C   UNL A   1      42.341  28.411  28.200  1.00  0.00     0.037 A 
ATOM     55  C   UNL A   1      48.683  29.216  26.916  1.00  0.00     0.049 A 
ATOM     56  C   UNL A   1      43.295  29.556  28.403  1.00  0.00     0.074 A 
ATOM     57  C   UNL A   1      49.446  30.359  27.085  1.00  0.00     0.029 A 
ATOM     58  N   UNL A   1      47.406  29.520  27.367  1.00  0.00    -0.354 N 
ATOM     59  N   UNL A   1      44.567  29.637  28.092  1.00  0.00    -0.248 NA
ATOM     60  C   UNL A   1      42.754  30.769  29.031  1.00  0.00     0.031 C 
ATOM     61  C   UNL A   1      48.646  31.336  27.683  1.00  0.00     0.029 A 
ATOM     62  C   UNL A   1      47.368  30.823  27.837  1.00  0.00     0.049 A 
ATOM     63  H   UNL A   1      46.641  28.901  27.355  1.00  0.00     0.167 HD
ATOM     64  C   UNL A   1      44.971  30.909  28.468  1.00  0.00     0.074 A 
ATOM     65  C   UNL A   1      43.806  31.575  29.012  1.00  0.00     0.031 C 
ATOM     66  C   UNL A   1      46.201  31.473  28.377  1.00  0.00     0.037 A 
BRANCH  53  67
ATOM     67  C   UNL A   1      50.522  27.769  25.982  1.00  0.00     0.064 A 
ATOM     68  C   UNL A   1      50.907  27.874  24.637  1.00  0.00     0.173 A 
ATOM     69  C   UNL A   1      51.508  27.428  26.921  1.00  0.00     0.173 A 
ATOM     70  F   UNL A   1      50.002  28.191  23.697  1.00  0.00    -0.203 F 
ATOM     71  C   UNL A   1      52.221  27.630  24.245  1.00  0.00     0.198 A 
ATOM     72  C   UNL A   1      52.828  27.215  26.529  1.00  0.00     0.198 A 
ATOM     73  F   UNL A   1      51.196  27.324  28.221  1.00  0.00    -0.203 F 
ATOM     74  F   UNL A   1      52.557  27.704  22.949  1.00  0.00    -0.200 F 
ATOM     75  C   UNL A   1      53.180  27.306  25.191  1.00  0.00     0.200 A 
ATOM     76  F   UNL A   1      53.758  26.925  27.449  1.00  0.00    -0.200 F 
ATOM     77  F   UNL A   1      54.447  27.083  24.815  1.00  0.00    -0.200 F 
ENDBRANCH  53  67
BRANCH  54  78
ATOM     78  C   UNL A   1      40.909  28.530  28.581  1.00  0.00     0.064 A 
ATOM     79  C   UNL A   1      39.948  29.011  27.679  1.00  0.00     0.173 A 
ATOM     80  C   UNL A   1      40.479  28.188  29.871  1.00  0.00     0.173 A 
ATOM     81  F   UNL A   1      40.308  29.356  26.434  1.00  0.00    -0.203 F 
ATOM     82  C   UNL A   1      38.616  29.162  28.059  1.00  0.00     0.198 A 
ATOM     83  C   UNL A   1      39.142  28.313  30.241  1.00  0.00     0.198 A 
ATOM     84  F   UNL A   1      41.357  27.705  30.762  1.00  0.00    -0.203 F 
ATOM     85  F   UNL A   1      37.725  29.657  27.188  1.00  0.00    -0.200 F 
ATOM     86  C   UNL A   1      38.213  28.809  29.338  1.00  0.00     0.200 A 
ATOM     87  F   UNL A   1      38.752  27.946  31.469  1.00  0.00    -0.200 F 
ATOM     88  F   UNL A   1      36.930  28.941  29.699  1.00  0.00    -0.200 F 
ENDBRANCH  54  78
BRANCH  66  89
ATOM     89  C   UNL A   1      46.356  32.884  28.865  1.00  0.00     0.064 A 
ATOM     90  C   UNL A   1      46.177  33.966  27.988  1.00  0.00     0.173 A 
ATOM     91  C   UNL A   1      46.749  33.164  30.181  1.00  0.00     0.173 A 
ATOM     92  F   UNL A   1      45.810  33.751  26.716  1.00  0.00    -0.203 F 
ATOM     93  C   UNL A   1      46.400  35.274  28.409  1.00  0.00     0.198 A 
ATOM     94  C   UNL A   1      46.941  34.476  30.608  1.00  0.00     0.198 A 
ATOM     95  F   UNL A   1      46.921  32.167  31.061  1.00  0.00    -0.203 F 
ATOM     96  F   UNL A   1      46.257  36.288  27.544  1.00  0.00    -0.200 F 
ATOM     97  C   UNL A   1      46.777  35.528  29.718  1.00  0.00     0.200 A 
ATOM     98  F   UNL A   1      47.280  34.723  31.880  1.00  0.00    -0.200 F 
ATOM     99  F   UNL A   1      46.979  36.788  30.126  1.00  0.00    -0.200 F 
ENDBRANCH  66  89
ENDBRANCH  40  41
ENDBRANCH  32  35
ENDBRANCH  30  31
ENDBRANCH  29  30
ENDBRANCH  28  29
ENDBRANCH   1  28
TORSDOF 15
ENDMDL
MODEL 3
REMARK VINA RESULT:     -11.8      6.675     11.771
REMARK SMILES O=C(Nc1c(F)cc(F)cc1F)N[C@H]1C=C[C@H](C(=O)NCCCCCCNC(=O)c2ccc(-c3c4nc(c(-c5c(F)c(F)c(F)c(F)c5F)c5ccc([nH]5)c(-c5c(F)c(F)c(F)c(F)c5F)c5nc(c(-c6c(F)c(F)c(F)c(F)c6F)c6ccc3[nH]6)C=C5)C=C4)cc2)C1
REMARK SMILES IDX 23 1 22 2 21 3 20 4 18 5 19 6 17 8 14 9 15 10 93 11 16 12
REMARK SMILES IDX 13 13 1 14 2 15 3 16 4 19 5 20 11 21 6 22 7 23 10 24 12 25
REMARK SMILES IDX 8 26 9 27 24 28 25 29 26 30 27 31 28 32 29 34 30 35 31 36
REMARK SMILES IDX 92 37 32 38 91 39 33 40 34 41 35 42 85 43 36 44 90 45 84 46
REMARK SMILES IDX 86 47 37 48 89 49 83 50 82 51 38 53 70 54 50 55 69 56 51 57
REMARK SMILES IDX 54 58 68 59 87 60 52 61 53 62 67 64 88 65 55 66 39 67 40 68
REMARK SMILES IDX 48 69 41 70 42 71 46 72 49 73 43 74 44 75 47 76 45 77 71 78
REMARK SMILES IDX 72 79 80 80 73 81 74 82 78 83 81 84 75 85 76 86 79 87 77 88
REMARK SMILES IDX 56 89 57 90 65 91 58 92 59 93 63 94 66 95 60 96 61 97 64 98
REMARK SMILES IDX 62 99
REMARK H PARENT 20 7 3 17 13 18 27 33 86 52 54 63
REMARK Flexibility Score: inf
ROOT
ATOM      1  C   UNL A   1      35.211  32.395  28.109  1.00  0.00     0.002 C 
ENDROOT
BRANCH   1   2
ATOM      2  C   UNL A   1      35.269  30.901  28.453  1.00  0.00     0.021 C 
BRANCH   2   3
ATOM      3  C   UNL A   1      35.056  29.965  27.263  1.00  0.00     0.116 C 
BRANCH   3   4
ATOM      4  N   UNL A   1      33.847  30.302  26.537  1.00  0.00    -0.356 N 
ATOM      5  C   UNL A   1      32.891  29.509  25.981  1.00  0.00     0.227 C 
ATOM      6  O   UNL A   1      32.004  30.060  25.325  1.00  0.00    -0.274 OA
ATOM      7  H   UNL A   1      33.691  31.268  26.428  1.00  0.00     0.163 HD
BRANCH   5   8
ATOM      8  C   UNL A   1      32.927  27.995  26.190  1.00  0.00     0.103 C 
ATOM      9  C   UNL A   1      32.514  26.704  24.137  1.00  0.00     0.107 C 
ATOM     10  C   UNL A   1      31.312  26.749  25.022  1.00  0.00    -0.006 C 
ATOM     11  C   UNL A   1      33.627  27.294  25.019  1.00  0.00     0.047 C 
ATOM     12  C   UNL A   1      31.533  27.443  26.143  1.00  0.00    -0.016 C 
BRANCH   9  13
ATOM     13  N   UNL A   1      32.776  25.322  23.833  1.00  0.00    -0.332 N 
ATOM     14  O   UNL A   1      33.815  25.685  21.849  1.00  0.00    -0.248 OA
ATOM     15  C   UNL A   1      33.448  24.913  22.734  1.00  0.00     0.319 C 
ATOM     16  N   UNL A   1      33.845  23.612  22.672  1.00  0.00    -0.303 N 
ATOM     17  H   UNL A   1      34.420  23.416  21.898  1.00  0.00     0.172 HD
ATOM     18  H   UNL A   1      32.448  24.637  24.459  1.00  0.00     0.165 HD
BRANCH  16  19
ATOM     19  C   UNL A   1      33.602  22.487  23.488  1.00  0.00     0.115 A 
ATOM     20  C   UNL A   1      32.595  21.535  23.301  1.00  0.00     0.152 A 
ATOM     21  C   UNL A   1      34.457  22.311  24.585  1.00  0.00     0.152 A 
ATOM     22  F   UNL A   1      31.790  21.579  22.231  1.00  0.00    -0.204 F 
ATOM     23  C   UNL A   1      32.405  20.488  24.199  1.00  0.00     0.081 A 
ATOM     24  C   UNL A   1      34.274  21.281  25.503  1.00  0.00     0.081 A 
ATOM     25  F   UNL A   1      35.453  23.186  24.793  1.00  0.00    -0.204 F 
ATOM     26  C   UNL A   1      33.238  20.382  25.302  1.00  0.00     0.129 A 
ATOM     27  F   UNL A   1      33.042  19.393  26.183  1.00  0.00    -0.207 F 
ENDBRANCH  16  19
ENDBRANCH   9  13
ENDBRANCH   5   8
ENDBRANCH   3   4
ENDBRANCH   2   3
ENDBRANCH   1   2
BRANCH   1  28
ATOM     28  C   UNL A   1      34.708  33.309  29.230  1.00  0.00     0.002 C 
BRANCH  28  29
ATOM     29  C   UNL A   1      33.514  34.196  28.867  1.00  0.00     0.021 C 
BRANCH  29  30
ATOM     30  C   UNL A   1      33.573  35.614  29.425  1.00  0.00     0.116 C 
BRANCH  30  31
ATOM     31  N   UNL A   1      32.629  35.825  30.511  1.00  0.00    -0.352 N 
ATOM     32  C   UNL A   1      32.702  35.426  31.821  1.00  0.00     0.251 C 
ATOM     33  H   UNL A   1      31.817  36.328  30.269  1.00  0.00     0.163 HD
ATOM     34  O   UNL A   1      31.725  35.550  32.559  1.00  0.00    -0.269 OA
BRANCH  32  35
ATOM     35  C   UNL A   1      33.943  34.821  32.348  1.00  0.00     0.039 A 
ATOM     36  C   UNL A   1      33.892  33.522  32.862  1.00  0.00     0.014 A 
ATOM     37  C   UNL A   1      35.149  35.526  32.346  1.00  0.00     0.014 A 
ATOM     38  C   UNL A   1      35.063  32.907  33.312  1.00  0.00     0.010 A 
ATOM     39  C   UNL A   1      36.328  34.887  32.728  1.00  0.00     0.010 A 
ATOM     40  C   UNL A   1      36.298  33.571  33.211  1.00  0.00    -0.014 A 
BRANCH  40  41
ATOM     41  C   UNL A   1      37.562  32.890  33.589  1.00  0.00     0.031 A 
ATOM     42  C   UNL A   1      38.179  31.865  32.678  1.00  0.00     0.074 A 
ATOM     43  C   UNL A   1      38.130  33.162  34.780  1.00  0.00     0.049 A 
ATOM     44  N   UNL A   1      39.252  31.138  32.860  1.00  0.00    -0.248 NA
ATOM     45  C   UNL A   1      37.487  31.605  31.406  1.00  0.00     0.031 C 
ATOM     46  C   UNL A   1      37.604  34.103  35.769  1.00  0.00     0.029 A 
ATOM     47  N   UNL A   1      39.272  32.672  35.364  1.00  0.00    -0.354 N 
ATOM     48  C   UNL A   1      39.362  30.336  31.731  1.00  0.00     0.074 A 
ATOM     49  C   UNL A   1      38.216  30.622  30.896  1.00  0.00     0.031 C 
ATOM     50  C   UNL A   1      38.438  34.150  36.819  1.00  0.00     0.029 A 
ATOM     51  C   UNL A   1      39.534  33.212  36.599  1.00  0.00     0.049 A 
ATOM     52  H   UNL A   1      39.848  31.996  34.938  1.00  0.00     0.167 HD
ATOM     53  C   UNL A   1      40.346  29.462  31.410  1.00  0.00     0.037 A 
ATOM     54  C   UNL A   1      40.544  32.978  37.460  1.00  0.00     0.037 A 
ATOM     55  C   UNL A   1      41.496  29.196  32.234  1.00  0.00     0.049 A 
ATOM     56  C   UNL A   1      41.612  31.986  37.087  1.00  0.00     0.074 A 
ATOM     57  C   UNL A   1      42.570  28.364  31.971  1.00  0.00     0.029 A 
ATOM     58  N   UNL A   1      41.722  29.757  33.483  1.00  0.00    -0.354 N 
ATOM     59  N   UNL A   1      41.735  31.276  35.991  1.00  0.00    -0.248 NA
ATOM     60  C   UNL A   1      42.684  31.764  38.068  1.00  0.00     0.031 C 
ATOM     61  C   UNL A   1      43.421  28.384  33.079  1.00  0.00     0.029 A 
ATOM     62  C   UNL A   1      42.906  29.269  34.012  1.00  0.00     0.049 A 
ATOM     63  H   UNL A   1      41.129  30.405  33.927  1.00  0.00     0.167 HD
ATOM     64  C   UNL A   1      42.901  30.540  36.142  1.00  0.00     0.074 A 
ATOM     65  C   UNL A   1      43.462  30.904  37.425  1.00  0.00     0.031 C 
ATOM     66  C   UNL A   1      43.453  29.639  35.293  1.00  0.00     0.037 A 
BRANCH  53  67
ATOM     67  C   UNL A   1      40.236  28.734  30.102  1.00  0.00     0.064 A 
ATOM     68  C   UNL A   1      39.574  27.499  30.023  1.00  0.00     0.173 A 
ATOM     69  C   UNL A   1      40.849  29.223  28.938  1.00  0.00     0.173 A 
ATOM     70  F   UNL A   1      38.975  26.982  31.107  1.00  0.00    -0.203 F 
ATOM     71  C   UNL A   1      39.542  26.776  28.833  1.00  0.00     0.198 A 
ATOM     72  C   UNL A   1      40.789  28.512  27.741  1.00  0.00     0.198 A 
ATOM     73  F   UNL A   1      41.487  30.403  28.956  1.00  0.00    -0.203 F 
ATOM     74  F   UNL A   1      38.932  25.583  28.791  1.00  0.00    -0.200 F 
ATOM     75  C   UNL A   1      40.145  27.285  27.693  1.00  0.00     0.200 A 
ATOM     76  F   UNL A   1      41.353  29.017  26.635  1.00  0.00    -0.200 F 
ATOM     77  F   UNL A   1      40.104  26.593  26.546  1.00  0.00    -0.200 F 
ENDBRANCH  53  67
BRANCH  54  78
ATOM     78  C   UNL A   1      40.606  33.725  38.744  1.00  0.00     0.064 A 
ATOM     79  C   UNL A   1      39.846  33.335  39.856  1.00  0.00     0.173 A 
ATOM     80  C   UNL A   1      41.412  34.865  38.873  1.00  0.00     0.173 A 
ATOM     81  F   UNL A   1      39.055  32.254  39.784  1.00  0.00    -0.203 F 
ATOM     82  C   UNL A   1      39.876  34.066  41.041  1.00  0.00     0.198 A 
ATOM     83  C   UNL A   1      41.464  35.579  40.067  1.00  0.00     0.198 A 
ATOM     84  F   UNL A   1      42.172  35.265  37.843  1.00  0.00    -0.203 F 
ATOM     85  F   UNL A   1      39.113  33.692  42.078  1.00  0.00    -0.200 F 
ATOM     86  C   UNL A   1      40.688  35.185  41.148  1.00  0.00     0.200 A 
ATOM     87  F   UNL A   1      42.269  36.644  40.174  1.00  0.00    -0.200 F 
ATOM     88  F   UNL A   1      40.728  35.881  42.292  1.00  0.00    -0.200 F 
ENDBRANCH  54  78
BRANCH  66  89
ATOM     89  C   UNL A   1      44.737  28.985  35.715  1.00  0.00     0.064 A 
ATOM     90  C   UNL A   1      45.974  29.529  35.333  1.00  0.00     0.173 A 
ATOM     91  C   UNL A   1      44.744  27.783  36.437  1.00  0.00     0.173 A 
ATOM     92  F   UNL A   1      46.022  30.673  34.634  1.00  0.00    -0.203 F 
ATOM     93  C   UNL A   1      47.168  28.886  35.647  1.00  0.00     0.198 A 
ATOM     94  C   UNL A   1      45.941  27.158  36.776  1.00  0.00     0.198 A 
ATOM     95  F   UNL A   1      43.589  27.229  36.836  1.00  0.00    -0.203 F 
ATOM     96  F   UNL A   1      48.334  29.406  35.240  1.00  0.00    -0.200 F 
ATOM     97  C   UNL A   1      47.150  27.704  36.371  1.00  0.00     0.200 A 
ATOM     98  F   UNL A   1      45.925  26.030  37.498  1.00  0.00    -0.200 F 
ATOM     99  F   UNL A   1      48.300  27.092  36.684  1.00  0.00    -0.200 F 
ENDBRANCH  66  89
ENDBRANCH  40  41
ENDBRANCH  32  35
ENDBRANCH  30  31
ENDBRANCH  29  30
ENDBRANCH  28  29
ENDBRANCH   1  28
TORSDOF 15
ENDMDL
