MODEL 1
REMARK VINA RESULT:     -11.7      0.000      0.000
REMARK SMILES CCOc1ccc(NC(=O)CC2(CC(=O)NCCCCCCNC(=O)c3ccc(-c4c5nc(c(-c6c(F)c(F)c(F)c(F)c6F)c6ccc([nH]6)c(-c6c(F)c(F)c(F)c(F)c6F)c6nc(c(-c7c(F)c(F)c(F)c(F)c7F)c7ccc4[nH]7)C=C6)C=C5)cc3)CCCCC2)cc1
REMARK SMILES IDX 17 1 16 2 14 3 15 4 13 6 12 7 89 8 93 9 90 10 92 11 91 12
REMARK SMILES IDX 11 13 9 14 8 15 10 17 7 18 4 19 5 20 95 21 6 22 94 23 3 24
REMARK SMILES IDX 2 25 1 26 18 27 19 28 20 29 21 30 22 31 23 32 24 33 25 35
REMARK SMILES IDX 26 36 27 37 88 38 28 39 87 40 29 41 30 42 31 43 81 44 32 45
REMARK SMILES IDX 86 46 80 47 82 48 33 49 85 50 79 51 78 52 34 54 66 55 46 56
REMARK SMILES IDX 65 57 47 58 50 59 64 60 83 61 48 62 49 63 63 65 84 66 51 67
REMARK SMILES IDX 35 68 36 69 44 70 37 71 38 72 42 73 45 74 39 75 40 76 43 77
REMARK SMILES IDX 41 78 67 79 68 80 76 81 69 82 70 83 74 84 77 85 71 86 72 87
REMARK SMILES IDX 75 88 73 89 52 90 53 91 61 92 54 93 55 94 59 95 62 96 56 97
REMARK SMILES IDX 57 98 60 99 58 100
REMARK H PARENT 16 5 8 16 23 34 82 53 50 64
REMARK Flexibility Score: inf
ROOT
ATOM      1  C   UNL A   1      35.579  24.084  25.234  1.00  0.00     0.116 C 
ENDROOT
BRANCH   1   2
ATOM      2  N   UNL A   1      34.760  23.975  24.065  1.00  0.00    -0.356 N 
ATOM      3  C   UNL A   1      34.053  24.943  23.449  1.00  0.00     0.220 C 
ATOM      4  O   UNL A   1      33.928  24.800  22.230  1.00  0.00    -0.275 OA
ATOM      5  H   UNL A   1      34.708  23.079  23.659  1.00  0.00     0.163 HD
BRANCH   3   6
ATOM      6  C   UNL A   1      33.546  26.197  24.160  1.00  0.00     0.107 C 
BRANCH   6   7
ATOM      7  C   UNL A   1      32.150  26.327  24.872  1.00  0.00    -0.012 C 
ATOM      8  C   UNL A   1      31.045  25.946  23.816  1.00  0.00     0.008 C 
ATOM      9  C   UNL A   1      31.794  27.794  25.265  1.00  0.00     0.008 C 
ATOM     10  C   UNL A   1      30.968  26.882  22.609  1.00  0.00     0.001 C 
ATOM     11  C   UNL A   1      31.743  28.777  24.090  1.00  0.00     0.001 C 
ATOM     12  C   UNL A   1      30.748  28.331  23.026  1.00  0.00     0.000 C 
BRANCH   7  13
ATOM     13  C   UNL A   1      31.878  25.406  26.116  1.00  0.00     0.108 C 
BRANCH  13  14
ATOM     14  C   UNL A   1      30.697  24.457  26.171  1.00  0.00     0.224 C 
ATOM     15  N   UNL A   1      30.767  23.151  25.784  1.00  0.00    -0.326 N 
ATOM     16  H   UNL A   1      29.894  22.698  25.731  1.00  0.00     0.169 HD
ATOM     17  O   UNL A   1      29.612  24.870  26.601  1.00  0.00    -0.275 OA
BRANCH  15  18
ATOM     18  C   UNL A   1      31.861  22.334  25.448  1.00  0.00     0.041 A 
ATOM     19  C   UNL A   1      33.487  20.148  24.845  1.00  0.00     0.119 A 
ATOM     20  C   UNL A   1      33.680  20.853  26.028  1.00  0.00     0.048 A 
ATOM     21  C   UNL A   1      32.578  20.612  23.903  1.00  0.00     0.048 A 
ATOM     22  C   UNL A   1      32.880  21.962  26.318  1.00  0.00     0.030 A 
ATOM     23  C   UNL A   1      31.807  21.742  24.182  1.00  0.00     0.030 A 
BRANCH  19  24
ATOM     24  O   UNL A   1      34.063  18.916  24.739  1.00  0.00    -0.494 OA
BRANCH  24  25
ATOM     25  C   UNL A   1      33.214  17.930  24.152  1.00  0.00     0.226 C 
ATOM     26  C   UNL A   1      33.954  17.093  23.123  1.00  0.00     0.049 C 
ENDBRANCH  24  25
ENDBRANCH  19  24
ENDBRANCH  15  18
ENDBRANCH  13  14
ENDBRANCH   7  13
ENDBRANCH   6   7
ENDBRANCH   3   6
ENDBRANCH   1   2
BRANCH   1  27
ATOM     27  C   UNL A   1      36.974  23.534  24.981  1.00  0.00     0.021 C 
BRANCH  27  28
ATOM     28  C   UNL A   1      37.221  22.159  25.604  1.00  0.00     0.002 C 
BRANCH  28  29
ATOM     29  C   UNL A   1      37.141  20.979  24.629  1.00  0.00     0.002 C 
BRANCH  29  30
ATOM     30  C   UNL A   1      38.140  19.847  24.885  1.00  0.00     0.021 C 
BRANCH  30  31
ATOM     31  C   UNL A   1      39.128  20.109  26.015  1.00  0.00     0.116 C 
BRANCH  31  32
ATOM     32  N   UNL A   1      40.249  19.193  25.976  1.00  0.00    -0.352 N 
ATOM     33  C   UNL A   1      41.590  19.462  25.996  1.00  0.00     0.251 C 
ATOM     34  H   UNL A   1      40.011  18.239  25.926  1.00  0.00     0.163 HD
ATOM     35  O   UNL A   1      42.400  18.579  25.737  1.00  0.00    -0.269 OA
BRANCH  33  36
ATOM     36  C   UNL A   1      42.063  20.821  26.329  1.00  0.00     0.039 A 
ATOM     37  C   UNL A   1      42.295  21.132  27.671  1.00  0.00     0.014 A 
ATOM     38  C   UNL A   1      42.223  21.796  25.340  1.00  0.00     0.014 A 
ATOM     39  C   UNL A   1      42.701  22.418  28.019  1.00  0.00     0.010 A 
ATOM     40  C   UNL A   1      42.698  23.060  25.681  1.00  0.00     0.010 A 
ATOM     41  C   UNL A   1      42.913  23.389  27.026  1.00  0.00    -0.014 A 
BRANCH  41  42
ATOM     42  C   UNL A   1      43.311  24.766  27.402  1.00  0.00     0.031 A 
ATOM     43  C   UNL A   1      44.713  25.242  27.142  1.00  0.00     0.074 A 
ATOM     44  C   UNL A   1      42.411  25.581  27.982  1.00  0.00     0.049 A 
ATOM     45  N   UNL A   1      45.239  26.421  27.356  1.00  0.00    -0.248 NA
ATOM     46  C   UNL A   1      45.655  24.257  26.589  1.00  0.00     0.031 C 
ATOM     47  C   UNL A   1      41.039  25.208  28.328  1.00  0.00     0.029 A 
ATOM     48  N   UNL A   1      42.512  26.891  28.372  1.00  0.00    -0.354 N 
ATOM     49  C   UNL A   1      46.569  26.316  26.971  1.00  0.00     0.074 A 
ATOM     50  C   UNL A   1      46.787  24.945  26.568  1.00  0.00     0.031 C 
ATOM     51  C   UNL A   1      40.412  26.278  28.844  1.00  0.00     0.029 A 
ATOM     52  C   UNL A   1      41.344  27.401  28.884  1.00  0.00     0.049 A 
ATOM     53  H   UNL A   1      43.341  27.414  28.294  1.00  0.00     0.167 HD
ATOM     54  C   UNL A   1      47.514  27.284  26.929  1.00  0.00     0.037 A 
ATOM     55  C   UNL A   1      41.058  28.642  29.317  1.00  0.00     0.037 A 
ATOM     56  C   UNL A   1      47.285  28.653  27.311  1.00  0.00     0.049 A 
ATOM     57  C   UNL A   1      42.119  29.706  29.242  1.00  0.00     0.074 A 
ATOM     58  C   UNL A   1      48.160  29.723  27.268  1.00  0.00     0.029 A 
ATOM     59  N   UNL A   1      46.084  29.138  27.808  1.00  0.00    -0.354 N 
ATOM     60  N   UNL A   1      43.354  29.614  28.809  1.00  0.00    -0.248 NA
ATOM     61  C   UNL A   1      41.741  31.049  29.700  1.00  0.00     0.031 C 
ATOM     62  C   UNL A   1      47.499  30.848  27.772  1.00  0.00     0.029 A 
ATOM     63  C   UNL A   1      46.198  30.489  28.088  1.00  0.00     0.049 A 
ATOM     64  H   UNL A   1      45.269  28.600  27.943  1.00  0.00     0.167 HD
ATOM     65  C   UNL A   1      43.890  30.890  28.911  1.00  0.00     0.074 A 
ATOM     66  C   UNL A   1      42.841  31.740  29.436  1.00  0.00     0.031 C 
ATOM     67  C   UNL A   1      45.137  31.319  28.598  1.00  0.00     0.037 A 
BRANCH  54  68
ATOM     68  C   UNL A   1      48.882  26.893  26.446  1.00  0.00     0.064 A 
ATOM     69  C   UNL A   1      49.260  27.050  25.103  1.00  0.00     0.173 A 
ATOM     70  C   UNL A   1      49.832  26.372  27.337  1.00  0.00     0.173 A 
ATOM     71  F   UNL A   1      48.384  27.532  24.208  1.00  0.00    -0.203 F 
ATOM     72  C   UNL A   1      50.525  26.667  24.664  1.00  0.00     0.198 A 
ATOM     73  C   UNL A   1      51.106  26.019  26.900  1.00  0.00     0.198 A 
ATOM     74  F   UNL A   1      49.526  26.204  28.632  1.00  0.00    -0.203 F 
ATOM     75  F   UNL A   1      50.843  26.776  23.367  1.00  0.00    -0.200 F 
ATOM     76  C   UNL A   1      51.449  26.158  25.564  1.00  0.00     0.200 A 
ATOM     77  F   UNL A   1      52.003  25.537  27.773  1.00  0.00    -0.200 F 
ATOM     78  F   UNL A   1      52.667  25.794  25.141  1.00  0.00    -0.200 F 
ENDBRANCH  54  68
BRANCH  55  79
ATOM     79  C   UNL A   1      39.689  28.957  29.799  1.00  0.00     0.064 A 
ATOM     80  C   UNL A   1      39.337  28.754  31.141  1.00  0.00     0.173 A 
ATOM     81  C   UNL A   1      38.712  29.477  28.938  1.00  0.00     0.173 A 
ATOM     82  F   UNL A   1      40.233  28.243  31.998  1.00  0.00    -0.203 F 
ATOM     83  C   UNL A   1      38.055  29.045  31.601  1.00  0.00     0.198 A 
ATOM     84  C   UNL A   1      37.437  29.791  29.405  1.00  0.00     0.198 A 
ATOM     85  F   UNL A   1      39.002  29.696  27.648  1.00  0.00    -0.203 F 
ATOM     86  F   UNL A   1      37.734  28.807  32.880  1.00  0.00    -0.200 F 
ATOM     87  C   UNL A   1      37.107  29.569  30.734  1.00  0.00     0.200 A 
ATOM     88  F   UNL A   1      36.529  30.311  28.568  1.00  0.00    -0.200 F 
ATOM     89  F   UNL A   1      35.877  29.855  31.178  1.00  0.00    -0.200 F 
ENDBRANCH  55  79
BRANCH  67  90
ATOM     90  C   UNL A   1      45.420  32.781  28.776  1.00  0.00     0.064 A 
ATOM     91  C   UNL A   1      45.173  33.710  27.754  1.00  0.00     0.173 A 
ATOM     92  C   UNL A   1      45.916  33.262  29.998  1.00  0.00     0.173 A 
ATOM     93  F   UNL A   1      44.712  33.297  26.564  1.00  0.00    -0.203 F 
ATOM     94  C   UNL A   1      45.440  35.064  27.940  1.00  0.00     0.198 A 
ATOM     95  C   UNL A   1      46.155  34.620  30.189  1.00  0.00     0.198 A 
ATOM     96  F   UNL A   1      46.162  32.416  31.008  1.00  0.00    -0.203 F 
ATOM     97  F   UNL A   1      45.244  35.926  26.933  1.00  0.00    -0.200 F 
ATOM     98  C   UNL A   1      45.925  35.518  29.157  1.00  0.00     0.200 A 
ATOM     99  F   UNL A   1      46.612  35.059  31.369  1.00  0.00    -0.200 F 
ATOM    100  F   UNL A   1      46.179  36.821  29.334  1.00  0.00    -0.200 F 
ENDBRANCH  67  90
ENDBRANCH  41  42
ENDBRANCH  33  36
ENDBRANCH  31  32
ENDBRANCH  30  31
ENDBRANCH  29  30
ENDBRANCH  28  29
ENDBRANCH  27  28
ENDBRANCH   1  27
TORSDOF 19
ENDMDL
MODEL 2
REMARK VINA RESULT:     -11.7      5.015     10.703
REMARK SMILES CCOc1ccc(NC(=O)CC2(CC(=O)NCCCCCCNC(=O)c3ccc(-c4c5nc(c(-c6c(F)c(F)c(F)c(F)c6F)c6ccc([nH]6)c(-c6c(F)c(F)c(F)c(F)c6F)c6nc(c(-c7c(F)c(F)c(F)c(F)c7F)c7ccc4[nH]7)C=C6)C=C5)cc3)CCCCC2)cc1
REMARK SMILES IDX 17 1 16 2 14 3 15 4 13 6 12 7 89 8 93 9 90 10 92 11 91 12
REMARK SMILES IDX 11 13 9 14 8 15 10 17 7 18 4 19 5 20 95 21 6 22 94 23 3 24
REMARK SMILES IDX 2 25 1 26 18 27 19 28 20 29 21 30 22 31 23 32 24 33 25 35
REMARK SMILES IDX 26 36 27 37 88 38 28 39 87 40 29 41 30 42 31 43 81 44 32 45
REMARK SMILES IDX 86 46 80 47 82 48 33 49 85 50 79 51 78 52 34 54 66 55 46 56
REMARK SMILES IDX 65 57 47 58 50 59 64 60 83 61 48 62 49 63 63 65 84 66 51 67
REMARK SMILES IDX 35 68 36 69 44 70 37 71 38 72 42 73 45 74 39 75 40 76 43 77
REMARK SMILES IDX 41 78 67 79 68 80 76 81 69 82 70 83 74 84 77 85 71 86 72 87
REMARK SMILES IDX 75 88 73 89 52 90 53 91 61 92 54 93 55 94 59 95 62 96 56 97
REMARK SMILES IDX 57 98 60 99 58 100
REMARK H PARENT 16 5 8 16 23 34 82 53 50 64
REMARK Flexibility Score: inf
ROOT
ATOM      1  C   UNL A   1      33.471  27.416  26.077  1.00  0.00     0.116 C 
ENDROOT
BRANCH   1   2
ATOM      2  N   UNL A   1      32.473  26.414  26.298  1.00  0.00    -0.356 N 
ATOM      3  C   UNL A   1      32.642  25.083  26.426  1.00  0.00     0.220 C 
ATOM      4  O   UNL A   1      31.821  24.523  27.156  1.00  0.00    -0.275 OA
ATOM      5  H   UNL A   1      31.545  26.738  26.366  1.00  0.00     0.163 HD
BRANCH   3   6
ATOM      6  C   UNL A   1      33.827  24.323  25.831  1.00  0.00     0.107 C 
BRANCH   6   7
ATOM      7  C   UNL A   1      33.713  23.049  24.918  1.00  0.00    -0.012 C 
ATOM      8  C   UNL A   1      34.443  21.869  25.664  1.00  0.00     0.008 C 
ATOM      9  C   UNL A   1      34.499  23.180  23.577  1.00  0.00     0.008 C 
ATOM     10  C   UNL A   1      35.944  22.079  25.873  1.00  0.00     0.001 C 
ATOM     11  C   UNL A   1      36.004  23.430  23.739  1.00  0.00     0.001 C 
ATOM     12  C   UNL A   1      36.671  22.334  24.560  1.00  0.00     0.000 C 
BRANCH   7  13
ATOM     13  C   UNL A   1      32.273  22.511  24.592  1.00  0.00     0.108 C 
BRANCH  13  14
ATOM     14  C   UNL A   1      31.690  22.567  23.194  1.00  0.00     0.224 C 
ATOM     15  N   UNL A   1      31.100  23.682  22.674  1.00  0.00    -0.326 N 
ATOM     16  H   UNL A   1      30.634  23.531  21.819  1.00  0.00     0.169 HD
ATOM     17  O   UNL A   1      31.759  21.565  22.472  1.00  0.00    -0.275 OA
BRANCH  15  18
ATOM     18  C   UNL A   1      31.037  25.008  23.137  1.00  0.00     0.041 A 
ATOM     19  C   UNL A   1      30.290  27.661  23.572  1.00  0.00     0.119 A 
ATOM     20  C   UNL A   1      31.480  27.373  22.913  1.00  0.00     0.048 A 
ATOM     21  C   UNL A   1      29.542  26.633  24.131  1.00  0.00     0.048 A 
ATOM     22  C   UNL A   1      31.865  26.044  22.716  1.00  0.00     0.030 A 
ATOM     23  C   UNL A   1      29.950  25.310  23.964  1.00  0.00     0.030 A 
BRANCH  19  24
ATOM     24  O   UNL A   1      29.804  28.933  23.477  1.00  0.00    -0.494 OA
BRANCH  24  25
ATOM     25  C   UNL A   1      29.963  29.516  22.185  1.00  0.00     0.226 C 
ATOM     26  C   UNL A   1      28.683  30.182  21.709  1.00  0.00     0.049 C 
ENDBRANCH  24  25
ENDBRANCH  19  24
ENDBRANCH  15  18
ENDBRANCH  13  14
ENDBRANCH   7  13
ENDBRANCH   6   7
ENDBRANCH   3   6
ENDBRANCH   1   2
BRANCH   1  27
ATOM     27  C   UNL A   1      33.230  28.635  26.954  1.00  0.00     0.021 C 
BRANCH  27  28
ATOM     28  C   UNL A   1      31.791  29.154  26.912  1.00  0.00     0.002 C 
BRANCH  28  29
ATOM     29  C   UNL A   1      31.575  30.406  26.055  1.00  0.00     0.002 C 
BRANCH  29  30
ATOM     30  C   UNL A   1      31.447  31.719  26.833  1.00  0.00     0.021 C 
BRANCH  30  31
ATOM     31  C   UNL A   1      32.716  32.563  26.875  1.00  0.00     0.116 C 
BRANCH  31  32
ATOM     32  N   UNL A   1      32.468  33.882  27.418  1.00  0.00    -0.352 N 
ATOM     33  C   UNL A   1      33.015  34.485  28.518  1.00  0.00     0.251 C 
ATOM     34  H   UNL A   1      31.811  34.424  26.924  1.00  0.00     0.163 HD
ATOM     35  O   UNL A   1      32.531  35.522  28.957  1.00  0.00    -0.269 OA
BRANCH  33  36
ATOM     36  C   UNL A   1      34.190  33.882  29.180  1.00  0.00     0.039 A 
ATOM     37  C   UNL A   1      35.460  34.321  28.803  1.00  0.00     0.014 A 
ATOM     38  C   UNL A   1      34.046  32.856  30.119  1.00  0.00     0.014 A 
ATOM     39  C   UNL A   1      36.588  33.740  29.380  1.00  0.00     0.010 A 
ATOM     40  C   UNL A   1      35.170  32.327  30.747  1.00  0.00     0.010 A 
ATOM     41  C   UNL A   1      36.451  32.745  30.361  1.00  0.00    -0.014 A 
BRANCH  41  42
ATOM     42  C   UNL A   1      37.652  32.104  30.947  1.00  0.00     0.031 A 
ATOM     43  C   UNL A   1      38.111  32.485  32.327  1.00  0.00     0.074 A 
ATOM     44  C   UNL A   1      38.329  31.187  30.233  1.00  0.00     0.049 A 
ATOM     45  N   UNL A   1      39.107  32.007  33.029  1.00  0.00    -0.248 NA
ATOM     46  C   UNL A   1      37.366  33.561  33.000  1.00  0.00     0.031 C 
ATOM     47  C   UNL A   1      38.005  30.778  28.866  1.00  0.00     0.029 A 
ATOM     48  N   UNL A   1      39.422  30.427  30.560  1.00  0.00    -0.354 N 
ATOM     49  C   UNL A   1      39.111  32.726  34.217  1.00  0.00     0.074 A 
ATOM     50  C   UNL A   1      38.058  33.713  34.118  1.00  0.00     0.031 C 
ATOM     51  C   UNL A   1      38.856  29.812  28.484  1.00  0.00     0.029 A 
ATOM     52  C   UNL A   1      39.796  29.551  29.571  1.00  0.00     0.049 A 
ATOM     53  H   UNL A   1      39.893  30.502  31.421  1.00  0.00     0.167 HD
ATOM     54  C   UNL A   1      39.900  32.557  35.303  1.00  0.00     0.037 A 
ATOM     55  C   UNL A   1      40.776  28.630  29.555  1.00  0.00     0.037 A 
ATOM     56  C   UNL A   1      40.932  31.558  35.403  1.00  0.00     0.049 A 
ATOM     57  C   UNL A   1      41.628  28.448  30.781  1.00  0.00     0.074 A 
ATOM     58  C   UNL A   1      41.761  31.274  36.472  1.00  0.00     0.029 A 
ATOM     59  N   UNL A   1      41.271  30.677  34.387  1.00  0.00    -0.354 N 
ATOM     60  N   UNL A   1      41.577  29.084  31.927  1.00  0.00    -0.248 NA
ATOM     61  C   UNL A   1      42.662  27.407  30.718  1.00  0.00     0.031 C 
ATOM     62  C   UNL A   1      42.627  30.243  36.091  1.00  0.00     0.029 A 
ATOM     63  C   UNL A   1      42.307  29.855  34.799  1.00  0.00     0.049 A 
ATOM     64  H   UNL A   1      40.839  30.641  33.502  1.00  0.00     0.167 HD
ATOM     65  C   UNL A   1      42.547  28.503  32.731  1.00  0.00     0.074 A 
ATOM     66  C   UNL A   1      43.163  27.452  31.944  1.00  0.00     0.031 C 
ATOM     67  C   UNL A   1      42.896  28.808  34.004  1.00  0.00     0.037 A 
BRANCH  54  68
ATOM     68  C   UNL A   1      39.672  33.473  36.472  1.00  0.00     0.064 A 
ATOM     69  C   UNL A   1      38.814  33.120  37.525  1.00  0.00     0.173 A 
ATOM     70  C   UNL A   1      40.330  34.710  36.550  1.00  0.00     0.173 A 
ATOM     71  F   UNL A   1      38.151  31.954  37.493  1.00  0.00    -0.203 F 
ATOM     72  C   UNL A   1      38.597  33.985  38.595  1.00  0.00     0.198 A 
ATOM     73  C   UNL A   1      40.134  35.559  37.636  1.00  0.00     0.198 A 
ATOM     74  F   UNL A   1      41.164  35.097  35.573  1.00  0.00    -0.203 F 
ATOM     75  F   UNL A   1      37.731  33.648  39.561  1.00  0.00    -0.200 F 
ATOM     76  C   UNL A   1      39.261  35.200  38.652  1.00  0.00     0.200 A 
ATOM     77  F   UNL A   1      40.785  36.729  37.697  1.00  0.00    -0.200 F 
ATOM     78  F   UNL A   1      39.054  36.030  39.684  1.00  0.00    -0.200 F 
ENDBRANCH  54  68
BRANCH  55  79
ATOM     79  C   UNL A   1      40.959  27.769  28.359  1.00  0.00     0.064 A 
ATOM     80  C   UNL A   1      40.228  26.581  28.211  1.00  0.00     0.173 A 
ATOM     81  C   UNL A   1      41.853  28.118  27.337  1.00  0.00     0.173 A 
ATOM     82  F   UNL A   1      39.373  26.198  29.170  1.00  0.00    -0.203 F 
ATOM     83  C   UNL A   1      40.396  25.768  27.093  1.00  0.00     0.198 A 
ATOM     84  C   UNL A   1      42.001  27.316  26.207  1.00  0.00     0.198 A 
ATOM     85  F   UNL A   1      42.570  29.247  27.428  1.00  0.00    -0.203 F 
ATOM     86  F   UNL A   1      39.712  24.619  26.995  1.00  0.00    -0.200 F 
ATOM     87  C   UNL A   1      41.279  26.138  26.090  1.00  0.00     0.200 A 
ATOM     88  F   UNL A   1      42.844  27.684  25.232  1.00  0.00    -0.200 F 
ATOM     89  F   UNL A   1      41.434  25.359  25.012  1.00  0.00    -0.200 F 
ENDBRANCH  55  79
BRANCH  67  90
ATOM     90  C   UNL A   1      43.965  27.968  34.640  1.00  0.00     0.064 A 
ATOM     91  C   UNL A   1      45.318  28.332  34.584  1.00  0.00     0.173 A 
ATOM     92  C   UNL A   1      43.624  26.802  35.341  1.00  0.00     0.173 A 
ATOM     93  F   UNL A   1      45.694  29.432  33.914  1.00  0.00    -0.203 F 
ATOM     94  C   UNL A   1      46.295  27.541  35.182  1.00  0.00     0.198 A 
ATOM     95  C   UNL A   1      44.601  26.028  35.961  1.00  0.00     0.198 A 
ATOM     96  F   UNL A   1      42.343  26.415  35.429  1.00  0.00    -0.203 F 
ATOM     97  F   UNL A   1      47.587  27.881  35.073  1.00  0.00    -0.200 F 
ATOM     98  C   UNL A   1      45.936  26.394  35.874  1.00  0.00     0.200 A 
ATOM     99  F   UNL A   1      44.252  24.928  36.640  1.00  0.00    -0.200 F 
ATOM    100  F   UNL A   1      46.878  25.636  36.450  1.00  0.00    -0.200 F 
ENDBRANCH  67  90
ENDBRANCH  41  42
ENDBRANCH  33  36
ENDBRANCH  31  32
ENDBRANCH  30  31
ENDBRANCH  29  30
ENDBRANCH  28  29
ENDBRANCH  27  28
ENDBRANCH   1  27
TORSDOF 19
ENDMDL
MODEL 3
REMARK VINA RESULT:     -11.5      1.333      3.795
REMARK SMILES CCOc1ccc(NC(=O)CC2(CC(=O)NCCCCCCNC(=O)c3ccc(-c4c5nc(c(-c6c(F)c(F)c(F)c(F)c6F)c6ccc([nH]6)c(-c6c(F)c(F)c(F)c(F)c6F)c6nc(c(-c7c(F)c(F)c(F)c(F)c7F)c7ccc4[nH]7)C=C6)C=C5)cc3)CCCCC2)cc1
REMARK SMILES IDX 17 1 16 2 14 3 15 4 13 6 12 7 89 8 93 9 90 10 92 11 91 12
REMARK SMILES IDX 11 13 9 14 8 15 10 17 7 18 4 19 5 20 95 21 6 22 94 23 3 24
REMARK SMILES IDX 2 25 1 26 18 27 19 28 20 29 21 30 22 31 23 32 24 33 25 35
REMARK SMILES IDX 26 36 27 37 88 38 28 39 87 40 29 41 30 42 31 43 81 44 32 45
REMARK SMILES IDX 86 46 80 47 82 48 33 49 85 50 79 51 78 52 34 54 66 55 46 56
REMARK SMILES IDX 65 57 47 58 50 59 64 60 83 61 48 62 49 63 63 65 84 66 51 67
REMARK SMILES IDX 35 68 36 69 44 70 37 71 38 72 42 73 45 74 39 75 40 76 43 77
REMARK SMILES IDX 41 78 67 79 68 80 76 81 69 82 70 83 74 84 77 85 71 86 72 87
REMARK SMILES IDX 75 88 73 89 52 90 53 91 61 92 54 93 55 94 59 95 62 96 56 97
REMARK SMILES IDX 57 98 60 99 58 100
REMARK H PARENT 16 5 8 16 23 34 82 53 50 64
REMARK Flexibility Score: inf
ROOT
ATOM      1  C   UNL A   1      36.086  23.966  24.472  1.00  0.00     0.116 C 
ENDROOT
BRANCH   1   2
ATOM      2  N   UNL A   1      35.137  24.415  23.499  1.00  0.00    -0.356 N 
ATOM      3  C   UNL A   1      33.825  24.120  23.415  1.00  0.00     0.220 C 
ATOM      4  O   UNL A   1      33.122  25.006  22.924  1.00  0.00    -0.275 OA
ATOM      5  H   UNL A   1      35.487  25.017  22.802  1.00  0.00     0.163 HD
BRANCH   3   6
ATOM      6  C   UNL A   1      33.210  22.846  23.995  1.00  0.00     0.107 C 
BRANCH   6   7
ATOM      7  C   UNL A   1      32.279  22.790  25.260  1.00  0.00    -0.012 C 
ATOM      8  C   UNL A   1      33.002  23.585  26.412  1.00  0.00     0.008 C 
ATOM      9  C   UNL A   1      32.122  21.353  25.846  1.00  0.00     0.008 C 
ATOM     10  C   UNL A   1      34.332  22.980  26.866  1.00  0.00     0.001 C 
ATOM     11  C   UNL A   1      33.436  20.692  26.280  1.00  0.00     0.001 C 
ATOM     12  C   UNL A   1      34.175  21.533  27.312  1.00  0.00     0.000 C 
BRANCH   7  13
ATOM     13  C   UNL A   1      30.849  23.431  25.142  1.00  0.00     0.108 C 
BRANCH  13  14
ATOM     14  C   UNL A   1      30.244  24.261  26.257  1.00  0.00     0.224 C 
ATOM     15  N   UNL A   1      30.041  25.607  26.162  1.00  0.00    -0.326 N 
ATOM     16  H   UNL A   1      29.785  26.037  27.010  1.00  0.00     0.169 HD
ATOM     17  O   UNL A   1      29.899  23.701  27.306  1.00  0.00    -0.275 OA
BRANCH  15  18
ATOM     18  C   UNL A   1      30.131  26.490  25.072  1.00  0.00     0.041 A 
ATOM     19  C   UNL A   1      30.029  28.752  23.441  1.00  0.00     0.119 A 
ATOM     20  C   UNL A   1      29.170  27.685  23.205  1.00  0.00     0.048 A 
ATOM     21  C   UNL A   1      31.027  28.638  24.400  1.00  0.00     0.048 A 
ATOM     22  C   UNL A   1      29.237  26.543  24.008  1.00  0.00     0.030 A 
ATOM     23  C   UNL A   1      31.114  27.480  25.175  1.00  0.00     0.030 A 
BRANCH  19  24
ATOM     24  O   UNL A   1      29.735  29.947  22.851  1.00  0.00    -0.494 OA
BRANCH  24  25
ATOM     25  C   UNL A   1      29.123  30.890  23.729  1.00  0.00     0.226 C 
ATOM     26  C   UNL A   1      27.859  31.479  23.128  1.00  0.00     0.049 C 
ENDBRANCH  24  25
ENDBRANCH  19  24
ENDBRANCH  15  18
ENDBRANCH  13  14
ENDBRANCH   7  13
ENDBRANCH   6   7
ENDBRANCH   3   6
ENDBRANCH   1   2
BRANCH   1  27
ATOM     27  C   UNL A   1      36.814  22.719  23.995  1.00  0.00     0.021 C 
BRANCH  27  28
ATOM     28  C   UNL A   1      37.291  21.808  25.128  1.00  0.00     0.002 C 
BRANCH  28  29
ATOM     29  C   UNL A   1      37.016  20.314  24.922  1.00  0.00     0.002 C 
BRANCH  29  30
ATOM     30  C   UNL A   1      38.242  19.402  25.021  1.00  0.00     0.021 C 
BRANCH  30  31
ATOM     31  C   UNL A   1      39.383  19.953  25.868  1.00  0.00     0.116 C 
BRANCH  31  32
ATOM     32  N   UNL A   1      40.515  19.050  25.902  1.00  0.00    -0.352 N 
ATOM     33  C   UNL A   1      41.847  19.333  26.032  1.00  0.00     0.251 C 
ATOM     34  H   UNL A   1      40.293  18.094  25.819  1.00  0.00     0.163 HD
ATOM     35  O   UNL A   1      42.685  18.464  25.823  1.00  0.00    -0.269 OA
BRANCH  33  36
ATOM     36  C   UNL A   1      42.276  20.692  26.422  1.00  0.00     0.039 A 
ATOM     37  C   UNL A   1      42.347  21.000  27.782  1.00  0.00     0.014 A 
ATOM     38  C   UNL A   1      42.551  21.671  25.461  1.00  0.00     0.014 A 
ATOM     39  C   UNL A   1      42.708  22.285  28.179  1.00  0.00     0.010 A 
ATOM     40  C   UNL A   1      42.980  22.933  25.859  1.00  0.00     0.010 A 
ATOM     41  C   UNL A   1      43.034  23.259  27.221  1.00  0.00    -0.014 A 
BRANCH  41  42
ATOM     42  C   UNL A   1      43.383  24.635  27.645  1.00  0.00     0.031 A 
ATOM     43  C   UNL A   1      44.820  25.076  27.664  1.00  0.00     0.074 A 
ATOM     44  C   UNL A   1      42.406  25.482  28.018  1.00  0.00     0.049 A 
ATOM     45  N   UNL A   1      45.322  26.248  27.958  1.00  0.00    -0.248 NA
ATOM     46  C   UNL A   1      45.829  24.059  27.328  1.00  0.00     0.031 C 
ATOM     47  C   UNL A   1      40.983  25.146  28.088  1.00  0.00     0.029 A 
ATOM     48  N   UNL A   1      42.460  26.798  28.398  1.00  0.00    -0.354 N 
ATOM     49  C   UNL A   1      46.699  26.107  27.850  1.00  0.00     0.074 A 
ATOM     50  C   UNL A   1      46.959  24.722  27.523  1.00  0.00     0.031 C 
ATOM     51  C   UNL A   1      40.293  26.240  28.448  1.00  0.00     0.029 A 
ATOM     52  C   UNL A   1      41.226  27.344  28.655  1.00  0.00     0.049 A 
ATOM     53  H   UNL A   1      43.300  27.302  28.478  1.00  0.00     0.167 HD
ATOM     54  C   UNL A   1      47.658  27.053  27.982  1.00  0.00     0.037 A 
ATOM     55  C   UNL A   1      40.890  28.600  29.000  1.00  0.00     0.037 A 
ATOM     56  C   UNL A   1      47.391  28.434  28.286  1.00  0.00     0.049 A 
ATOM     57  C   UNL A   1      41.972  29.639  29.121  1.00  0.00     0.074 A 
ATOM     58  C   UNL A   1      48.284  29.484  28.400  1.00  0.00     0.029 A 
ATOM     59  N   UNL A   1      46.127  28.955  28.523  1.00  0.00    -0.354 N 
ATOM     60  N   UNL A   1      43.265  29.512  28.947  1.00  0.00    -0.248 NA
ATOM     61  C   UNL A   1      41.543  31.000  29.470  1.00  0.00     0.031 C 
ATOM     62  C   UNL A   1      47.564  30.635  28.742  1.00  0.00     0.029 A 
ATOM     63  C   UNL A   1      46.218  30.310  28.796  1.00  0.00     0.049 A 
ATOM     64  H   UNL A   1      45.289  28.438  28.501  1.00  0.00     0.167 HD
ATOM     65  C   UNL A   1      43.802  30.778  29.132  1.00  0.00     0.074 A 
ATOM     66  C   UNL A   1      42.691  31.662  29.420  1.00  0.00     0.031 C 
ATOM     67  C   UNL A   1      45.097  31.174  29.068  1.00  0.00     0.037 A 
BRANCH  54  68
ATOM     68  C   UNL A   1      49.084  26.622  27.790  1.00  0.00     0.064 A 
ATOM     69  C   UNL A   1      49.652  26.506  26.511  1.00  0.00     0.173 A 
ATOM     70  C   UNL A   1      49.900  26.338  28.896  1.00  0.00     0.173 A 
ATOM     71  F   UNL A   1      48.911  26.754  25.421  1.00  0.00    -0.203 F 
ATOM     72  C   UNL A   1      50.970  26.089  26.346  1.00  0.00     0.198 A 
ATOM     73  C   UNL A   1      51.227  25.951  28.728  1.00  0.00     0.198 A 
ATOM     74  F   UNL A   1      49.411  26.436  30.142  1.00  0.00    -0.203 F 
ATOM     75  F   UNL A   1      51.472  25.934  25.113  1.00  0.00    -0.200 F 
ATOM     76  C   UNL A   1      51.758  25.818  27.454  1.00  0.00     0.200 A 
ATOM     77  F   UNL A   1      51.991  25.700  29.800  1.00  0.00    -0.200 F 
ATOM     78  F   UNL A   1      53.028  25.421  27.294  1.00  0.00    -0.200 F 
ENDBRANCH  54  68
BRANCH  55  79
ATOM     79  C   UNL A   1      39.461  28.955  29.192  1.00  0.00     0.064 A 
ATOM     80  C   UNL A   1      38.680  29.392  28.113  1.00  0.00     0.173 A 
ATOM     81  C   UNL A   1      38.845  28.852  30.447  1.00  0.00     0.173 A 
ATOM     82  F   UNL A   1      39.230  29.522  26.897  1.00  0.00    -0.203 F 
ATOM     83  C   UNL A   1      37.339  29.729  28.286  1.00  0.00     0.198 A 
ATOM     84  C   UNL A   1      37.497  29.165  30.613  1.00  0.00     0.198 A 
ATOM     85  F   UNL A   1      39.547  28.431  31.508  1.00  0.00    -0.203 F 
ATOM     86  F   UNL A   1      36.625  30.180  27.245  1.00  0.00    -0.200 F 
ATOM     87  C   UNL A   1      36.747  29.610  29.534  1.00  0.00     0.200 A 
ATOM     88  F   UNL A   1      36.924  29.035  31.817  1.00  0.00    -0.200 F 
ATOM     89  F   UNL A   1      35.456  29.927  29.698  1.00  0.00    -0.200 F 
ENDBRANCH  55  79
BRANCH  67  90
ATOM     90  C   UNL A   1      45.376  32.633  29.274  1.00  0.00     0.064 A 
ATOM     91  C   UNL A   1      45.339  33.548  28.210  1.00  0.00     0.173 A 
ATOM     92  C   UNL A   1      45.651  33.126  30.558  1.00  0.00     0.173 A 
ATOM     93  F   UNL A   1      45.093  33.122  26.962  1.00  0.00    -0.203 F 
ATOM     94  C   UNL A   1      45.598  34.899  28.422  1.00  0.00     0.198 A 
ATOM     95  C   UNL A   1      45.882  34.482  30.770  1.00  0.00     0.198 A 
ATOM     96  F   UNL A   1      45.690  32.294  31.608  1.00  0.00    -0.203 F 
ATOM     97  F   UNL A   1      45.607  35.747  27.384  1.00  0.00    -0.200 F 
ATOM     98  C   UNL A   1      45.863  35.366  29.701  1.00  0.00     0.200 A 
ATOM     99  F   UNL A   1      46.126  34.934  32.007  1.00  0.00    -0.200 F 
ATOM    100  F   UNL A   1      46.110  36.667  29.902  1.00  0.00    -0.200 F 
ENDBRANCH  67  90
ENDBRANCH  41  42
ENDBRANCH  33  36
ENDBRANCH  31  32
ENDBRANCH  30  31
ENDBRANCH  29  30
ENDBRANCH  28  29
ENDBRANCH  27  28
ENDBRANCH   1  27
TORSDOF 19
ENDMDL
