MODEL 1
REMARK VINA RESULT:     -11.8      0.000      0.000
REMARK SMILES Cc1nc(CSCC(=O)N2CCCC[C@@H]2C(=O)NCCCCCCNC(=O)c2ccc(-c3c4nc(c(-c5c(F)c(F)c(F)c(F)c5F)c5ccc([nH]5)c(-c5c(F)c(F)c(F)c(F)c5F)c5nc(c(-c6c(F)c(F)c(F)c(F)c6F)c6ccc3[nH]6)C=C5)C=C4)cc2)cs1
REMARK SMILES IDX 20 1 19 2 18 3 16 4 17 5 15 7 10 8 11 9 12 10 14 11 13 12
REMARK SMILES IDX 8 13 9 14 7 15 6 16 5 17 4 18 1 19 2 20 3 21 92 22 91 23
REMARK SMILES IDX 21 24 22 25 23 26 24 27 25 28 26 29 27 31 28 32 29 33 90 34
REMARK SMILES IDX 30 35 89 36 31 37 32 38 33 39 83 40 34 41 88 42 82 43 84 44
REMARK SMILES IDX 35 45 87 46 81 47 80 48 36 50 68 51 48 52 67 53 49 54 52 55
REMARK SMILES IDX 66 56 85 57 50 58 51 59 65 61 86 62 53 63 37 64 38 65 46 66
REMARK SMILES IDX 39 67 40 68 44 69 47 70 41 71 42 72 45 73 43 74 69 75 70 76
REMARK SMILES IDX 78 77 71 78 72 79 76 80 79 81 73 82 74 83 77 84 75 85 54 86
REMARK SMILES IDX 55 87 63 88 56 89 57 90 61 91 64 92 58 93 59 94 62 95 60 96
REMARK H PARENT 18 6 25 30 84 49 52 60
REMARK Flexibility Score: inf
ROOT
ATOM      1  C   UNL A   1      33.557  29.034  26.995  1.00  0.00     0.021 C 
ENDROOT
BRANCH   1   2
ATOM      2  C   UNL A   1      33.753  27.902  25.994  1.00  0.00     0.116 C 
BRANCH   2   3
ATOM      3  N   UNL A   1      33.056  26.702  26.434  1.00  0.00    -0.354 N 
ATOM      4  C   UNL A   1      32.942  25.479  25.843  1.00  0.00     0.242 C 
ATOM      5  O   UNL A   1      32.210  24.655  26.402  1.00  0.00    -0.273 OA
ATOM      6  H   UNL A   1      32.590  26.789  27.298  1.00  0.00     0.163 HD
BRANCH   4   7
ATOM      7  C   UNL A   1      33.504  25.203  24.433  1.00  0.00     0.174 C 
ATOM      8  N   UNL A   1      32.498  24.982  23.372  1.00  0.00    -0.330 N 
ATOM      9  C   UNL A   1      32.958  24.251  22.191  1.00  0.00     0.120 C 
ATOM     10  C   UNL A   1      33.618  22.930  22.534  1.00  0.00     0.022 C 
ATOM     11  C   UNL A   1      34.399  23.951  24.679  1.00  0.00     0.035 C 
ATOM     12  C   UNL A   1      34.811  23.173  23.441  1.00  0.00     0.004 C 
BRANCH   8  13
ATOM     13  C   UNL A   1      31.367  25.762  23.140  1.00  0.00     0.233 C 
ATOM     14  O   UNL A   1      30.256  25.274  23.392  1.00  0.00    -0.274 OA
BRANCH  13  15
ATOM     15  C   UNL A   1      31.431  27.056  22.339  1.00  0.00     0.170 C 
BRANCH  15  16
ATOM     16  S   UNL A   1      30.981  28.622  23.115  1.00  0.00    -0.146 SA
BRANCH  16  17
ATOM     17  C   UNL A   1      29.229  28.771  22.699  1.00  0.00     0.127 C 
BRANCH  17  18
ATOM     18  C   UNL A   1      28.736  30.123  22.318  1.00  0.00     0.061 A 
ATOM     19  C   UNL A   1      29.056  33.651  23.200  1.00  0.00     0.079 C 
ATOM     20  C   UNL A   1      28.750  32.326  22.597  1.00  0.00     0.090 A 
ATOM     21  N   UNL A   1      29.067  31.180  23.153  1.00  0.00    -0.246 NA
ATOM     22  S   UNL A   1      27.971  32.208  21.072  1.00  0.00    -0.127 S 
ATOM     23  C   UNL A   1      28.123  30.499  21.137  1.00  0.00     0.091 A 
ENDBRANCH  17  18
ENDBRANCH  16  17
ENDBRANCH  15  16
ENDBRANCH  13  15
ENDBRANCH   8  13
ENDBRANCH   4   7
ENDBRANCH   2   3
ENDBRANCH   1   2
BRANCH   1  24
ATOM     24  C   UNL A   1      32.111  29.546  27.062  1.00  0.00     0.002 C 
BRANCH  24  25
ATOM     25  C   UNL A   1      31.805  30.746  26.160  1.00  0.00     0.002 C 
BRANCH  25  26
ATOM     26  C   UNL A   1      31.492  32.052  26.888  1.00  0.00     0.021 C 
BRANCH  26  27
ATOM     27  C   UNL A   1      32.712  32.820  27.378  1.00  0.00     0.116 C 
BRANCH  27  28
ATOM     28  N   UNL A   1      32.426  34.219  27.653  1.00  0.00    -0.352 N 
ATOM     29  C   UNL A   1      33.005  35.039  28.590  1.00  0.00     0.251 C 
ATOM     30  H   UNL A   1      31.727  34.631  27.097  1.00  0.00     0.163 HD
ATOM     31  O   UNL A   1      32.563  36.163  28.804  1.00  0.00    -0.269 OA
BRANCH  29  32
ATOM     32  C   UNL A   1      34.156  34.535  29.367  1.00  0.00     0.039 A 
ATOM     33  C   UNL A   1      33.926  33.929  30.603  1.00  0.00     0.014 A 
ATOM     34  C   UNL A   1      35.453  34.625  28.851  1.00  0.00     0.014 A 
ATOM     35  C   UNL A   1      34.992  33.355  31.297  1.00  0.00     0.010 A 
ATOM     36  C   UNL A   1      36.498  33.982  29.503  1.00  0.00     0.010 A 
ATOM     37  C   UNL A   1      36.280  33.347  30.735  1.00  0.00    -0.014 A 
BRANCH  37  38
ATOM     38  C   UNL A   1      37.418  32.694  31.428  1.00  0.00     0.031 A 
ATOM     39  C   UNL A   1      38.138  31.550  30.772  1.00  0.00     0.074 A 
ATOM     40  C   UNL A   1      37.758  33.084  32.670  1.00  0.00     0.049 A 
ATOM     41  N   UNL A   1      39.115  30.810  31.234  1.00  0.00    -0.248 NA
ATOM     42  C   UNL A   1      37.676  31.165  29.430  1.00  0.00     0.031 C 
ATOM     43  C   UNL A   1      37.107  34.151  33.430  1.00  0.00     0.029 A 
ATOM     44  N   UNL A   1      38.737  32.624  33.516  1.00  0.00    -0.354 N 
ATOM     45  C   UNL A   1      39.370  29.867  30.247  1.00  0.00     0.074 A 
ATOM     46  C   UNL A   1      38.403  30.085  29.194  1.00  0.00     0.031 C 
ATOM     47  C   UNL A   1      37.724  34.288  34.614  1.00  0.00     0.029 A 
ATOM     48  C   UNL A   1      38.787  33.291  34.715  1.00  0.00     0.049 A 
ATOM     49  H   UNL A   1      39.343  31.884  33.285  1.00  0.00     0.167 HD
ATOM     50  C   UNL A   1      40.339  28.921  30.212  1.00  0.00     0.037 A 
ATOM     51  C   UNL A   1      39.599  33.118  35.773  1.00  0.00     0.037 A 
ATOM     52  C   UNL A   1      41.308  28.721  31.256  1.00  0.00     0.049 A 
ATOM     53  C   UNL A   1      40.654  32.047  35.722  1.00  0.00     0.074 A 
ATOM     54  C   UNL A   1      42.369  27.834  31.293  1.00  0.00     0.029 A 
ATOM     55  N   UNL A   1      41.326  29.415  32.459  1.00  0.00    -0.354 N 
ATOM     56  N   UNL A   1      40.936  31.208  34.755  1.00  0.00    -0.248 NA
ATOM     57  C   UNL A   1      41.506  31.902  36.910  1.00  0.00     0.031 C 
ATOM     58  C   UNL A   1      42.994  27.951  32.540  1.00  0.00     0.029 A 
ATOM     59  C   UNL A   1      42.361  28.955  33.257  1.00  0.00     0.049 A 
ATOM     60  H   UNL A   1      40.696  30.129  32.708  1.00  0.00     0.167 HD
ATOM     61  C   UNL A   1      42.016  30.458  35.203  1.00  0.00     0.074 A 
ATOM     62  C   UNL A   1      42.343  30.949  36.525  1.00  0.00     0.031 C 
ATOM     63  C   UNL A   1      42.677  29.456  34.573  1.00  0.00     0.037 A 
BRANCH  50  64
ATOM     64  C   UNL A   1      40.383  28.028  29.003  1.00  0.00     0.064 A 
ATOM     65  C   UNL A   1      41.119  28.369  27.857  1.00  0.00     0.173 A 
ATOM     66  C   UNL A   1      39.672  26.819  28.985  1.00  0.00     0.173 A 
ATOM     67  F   UNL A   1      41.808  29.520  27.813  1.00  0.00    -0.203 F 
ATOM     68  C   UNL A   1      41.100  27.560  26.723  1.00  0.00     0.198 A 
ATOM     69  C   UNL A   1      39.687  25.993  27.864  1.00  0.00     0.198 A 
ATOM     70  F   UNL A   1      38.957  26.437  30.055  1.00  0.00    -0.203 F 
ATOM     71  F   UNL A   1      41.749  27.946  25.615  1.00  0.00    -0.200 F 
ATOM     72  C   UNL A   1      40.388  26.372  26.730  1.00  0.00     0.200 A 
ATOM     73  F   UNL A   1      39.009  24.836  27.877  1.00  0.00    -0.200 F 
ATOM     74  F   UNL A   1      40.366  25.595  25.637  1.00  0.00    -0.200 F 
ENDBRANCH  50  64
BRANCH  51  75
ATOM     75  C   UNL A   1      39.473  34.013  36.952  1.00  0.00     0.064 A 
ATOM     76  C   UNL A   1      38.735  33.616  38.076  1.00  0.00     0.173 A 
ATOM     77  C   UNL A   1      40.101  35.267  36.995  1.00  0.00     0.173 A 
ATOM     78  F   UNL A   1      38.100  32.435  38.075  1.00  0.00    -0.203 F 
ATOM     79  C   UNL A   1      38.620  34.441  39.192  1.00  0.00     0.198 A 
ATOM     80  C   UNL A   1      40.007  36.080  38.122  1.00  0.00     0.198 A 
ATOM     81  F   UNL A   1      40.822  35.692  35.948  1.00  0.00    -0.203 F 
ATOM     82  F   UNL A   1      37.879  34.051  40.237  1.00  0.00    -0.200 F 
ATOM     83  C   UNL A   1      39.263  35.669  39.218  1.00  0.00     0.200 A 
ATOM     84  F   UNL A   1      40.642  37.260  38.149  1.00  0.00    -0.200 F 
ATOM     85  F   UNL A   1      39.161  36.458  40.296  1.00  0.00    -0.200 F 
ENDBRANCH  51  75
BRANCH  63  86
ATOM     86  C   UNL A   1      43.848  28.845  35.289  1.00  0.00     0.064 A 
ATOM     87  C   UNL A   1      43.703  27.725  36.121  1.00  0.00     0.173 A 
ATOM     88  C   UNL A   1      45.139  29.364  35.107  1.00  0.00     0.173 A 
ATOM     89  F   UNL A   1      42.489  27.199  36.342  1.00  0.00    -0.203 F 
ATOM     90  C   UNL A   1      44.805  27.165  36.764  1.00  0.00     0.198 A 
ATOM     91  C   UNL A   1      46.242  28.781  35.724  1.00  0.00     0.198 A 
ATOM     92  F   UNL A   1      45.333  30.431  34.315  1.00  0.00    -0.203 F 
ATOM     93  F   UNL A   1      44.636  26.126  37.593  1.00  0.00    -0.200 F 
ATOM     94  C   UNL A   1      46.072  27.687  36.558  1.00  0.00     0.200 A 
ATOM     95  F   UNL A   1      47.468  29.278  35.511  1.00  0.00    -0.200 F 
ATOM     96  F   UNL A   1      47.132  27.140  37.170  1.00  0.00    -0.200 F 
ENDBRANCH  63  86
ENDBRANCH  37  38
ENDBRANCH  29  32
ENDBRANCH  27  28
ENDBRANCH  26  27
ENDBRANCH  25  26
ENDBRANCH  24  25
ENDBRANCH   1  24
TORSDOF 18
ENDMDL
MODEL 2
REMARK VINA RESULT:     -11.6      0.977      7.356
REMARK SMILES Cc1nc(CSCC(=O)N2CCCC[C@@H]2C(=O)NCCCCCCNC(=O)c2ccc(-c3c4nc(c(-c5c(F)c(F)c(F)c(F)c5F)c5ccc([nH]5)c(-c5c(F)c(F)c(F)c(F)c5F)c5nc(c(-c6c(F)c(F)c(F)c(F)c6F)c6ccc3[nH]6)C=C5)C=C4)cc2)cs1
REMARK SMILES IDX 20 1 19 2 18 3 16 4 17 5 15 7 10 8 11 9 12 10 14 11 13 12
REMARK SMILES IDX 8 13 9 14 7 15 6 16 5 17 4 18 1 19 2 20 3 21 92 22 91 23
REMARK SMILES IDX 21 24 22 25 23 26 24 27 25 28 26 29 27 31 28 32 29 33 90 34
REMARK SMILES IDX 30 35 89 36 31 37 32 38 33 39 83 40 34 41 88 42 82 43 84 44
REMARK SMILES IDX 35 45 87 46 81 47 80 48 36 50 68 51 48 52 67 53 49 54 52 55
REMARK SMILES IDX 66 56 85 57 50 58 51 59 65 61 86 62 53 63 37 64 38 65 46 66
REMARK SMILES IDX 39 67 40 68 44 69 47 70 41 71 42 72 45 73 43 74 69 75 70 76
REMARK SMILES IDX 78 77 71 78 72 79 76 80 79 81 73 82 74 83 77 84 75 85 54 86
REMARK SMILES IDX 55 87 63 88 56 89 57 90 61 91 64 92 58 93 59 94 62 95 60 96
REMARK H PARENT 18 6 25 30 84 49 52 60
REMARK Flexibility Score: inf
ROOT
ATOM      1  C   UNL A   1      33.154  29.013  25.197  1.00  0.00     0.021 C 
ENDROOT
BRANCH   1   2
ATOM      2  C   UNL A   1      33.510  28.089  26.355  1.00  0.00     0.116 C 
BRANCH   2   3
ATOM      3  N   UNL A   1      32.432  27.144  26.607  1.00  0.00    -0.354 N 
ATOM      4  C   UNL A   1      32.346  25.809  26.341  1.00  0.00     0.242 C 
ATOM      5  O   UNL A   1      31.266  25.260  26.587  1.00  0.00    -0.273 OA
ATOM      6  H   UNL A   1      31.636  27.531  27.039  1.00  0.00     0.163 HD
BRANCH   4   7
ATOM      7  C   UNL A   1      33.447  25.064  25.560  1.00  0.00     0.174 C 
ATOM      8  N   UNL A   1      33.154  24.790  24.137  1.00  0.00    -0.330 N 
ATOM      9  C   UNL A   1      33.907  23.697  23.523  1.00  0.00     0.120 C 
ATOM     10  C   UNL A   1      33.816  22.404  24.307  1.00  0.00     0.022 C 
ATOM     11  C   UNL A   1      33.615  23.760  26.397  1.00  0.00     0.035 C 
ATOM     12  C   UNL A   1      34.347  22.617  25.713  1.00  0.00     0.004 C 
BRANCH   8  13
ATOM     13  C   UNL A   1      32.642  25.702  23.216  1.00  0.00     0.233 C 
ATOM     14  O   UNL A   1      33.380  26.615  22.821  1.00  0.00    -0.274 OA
BRANCH  13  15
ATOM     15  C   UNL A   1      31.152  25.782  22.905  1.00  0.00     0.170 C 
BRANCH  15  16
ATOM     16  S   UNL A   1      30.170  27.159  23.534  1.00  0.00    -0.146 SA
BRANCH  16  17
ATOM     17  C   UNL A   1      30.486  28.451  22.311  1.00  0.00     0.127 C 
BRANCH  17  18
ATOM     18  C   UNL A   1      29.644  29.676  22.388  1.00  0.00     0.061 A 
ATOM     19  C   UNL A   1      27.872  32.080  20.289  1.00  0.00     0.079 C 
ATOM     20  C   UNL A   1      28.454  31.260  21.385  1.00  0.00     0.090 A 
ATOM     21  N   UNL A   1      29.362  30.330  21.198  1.00  0.00    -0.246 NA
ATOM     22  S   UNL A   1      27.935  31.459  23.009  1.00  0.00    -0.127 S 
ATOM     23  C   UNL A   1      28.959  30.165  23.485  1.00  0.00     0.091 A 
ENDBRANCH  17  18
ENDBRANCH  16  17
ENDBRANCH  15  16
ENDBRANCH  13  15
ENDBRANCH   8  13
ENDBRANCH   4   7
ENDBRANCH   2   3
ENDBRANCH   1   2
BRANCH   1  24
ATOM     24  C   UNL A   1      31.948  29.918  25.487  1.00  0.00     0.002 C 
BRANCH  24  25
ATOM     25  C   UNL A   1      31.928  30.544  26.884  1.00  0.00     0.002 C 
BRANCH  25  26
ATOM     26  C   UNL A   1      31.621  32.040  26.930  1.00  0.00     0.021 C 
BRANCH  26  27
ATOM     27  C   UNL A   1      32.838  32.937  27.111  1.00  0.00     0.116 C 
BRANCH  27  28
ATOM     28  N   UNL A   1      32.497  34.257  27.619  1.00  0.00    -0.352 N 
ATOM     29  C   UNL A   1      33.031  34.920  28.695  1.00  0.00     0.251 C 
ATOM     30  H   UNL A   1      31.791  34.735  27.128  1.00  0.00     0.163 HD
ATOM     31  O   UNL A   1      32.545  35.974  29.092  1.00  0.00    -0.269 OA
BRANCH  29  32
ATOM     32  C   UNL A   1      34.189  34.328  29.396  1.00  0.00     0.039 A 
ATOM     33  C   UNL A   1      33.961  33.453  30.460  1.00  0.00     0.014 A 
ATOM     34  C   UNL A   1      35.492  34.607  28.972  1.00  0.00     0.014 A 
ATOM     35  C   UNL A   1      35.042  32.806  31.061  1.00  0.00     0.010 A 
ATOM     36  C   UNL A   1      36.558  33.900  29.517  1.00  0.00     0.010 A 
ATOM     37  C   UNL A   1      36.345  32.999  30.571  1.00  0.00    -0.014 A 
BRANCH  37  38
ATOM     38  C   UNL A   1      37.502  32.278  31.157  1.00  0.00     0.031 A 
ATOM     39  C   UNL A   1      37.995  32.642  32.529  1.00  0.00     0.074 A 
ATOM     40  C   UNL A   1      38.149  31.348  30.431  1.00  0.00     0.049 A 
ATOM     41  N   UNL A   1      39.022  32.174  33.193  1.00  0.00    -0.248 NA
ATOM     42  C   UNL A   1      37.252  33.695  33.237  1.00  0.00     0.031 C 
ATOM     43  C   UNL A   1      37.795  30.940  29.071  1.00  0.00     0.029 A 
ATOM     44  N   UNL A   1      39.244  30.579  30.734  1.00  0.00    -0.354 N 
ATOM     45  C   UNL A   1      39.055  32.887  34.384  1.00  0.00     0.074 A 
ATOM     46  C   UNL A   1      37.989  33.862  34.323  1.00  0.00     0.031 C 
ATOM     47  C   UNL A   1      38.634  29.971  28.670  1.00  0.00     0.029 A 
ATOM     48  C   UNL A   1      39.609  29.720  29.727  1.00  0.00     0.049 A 
ATOM     49  H   UNL A   1      39.722  30.638  31.592  1.00  0.00     0.167 HD
ATOM     50  C   UNL A   1      39.884  32.725  35.444  1.00  0.00     0.037 A 
ATOM     51  C   UNL A   1      40.617  28.831  29.665  1.00  0.00     0.037 A 
ATOM     52  C   UNL A   1      40.932  31.741  35.504  1.00  0.00     0.049 A 
ATOM     53  C   UNL A   1      41.540  28.682  30.844  1.00  0.00     0.074 A 
ATOM     54  C   UNL A   1      41.787  31.452  36.552  1.00  0.00     0.029 A 
ATOM     55  N   UNL A   1      41.275  30.889  34.462  1.00  0.00    -0.354 N 
ATOM     56  N   UNL A   1      41.519  29.310  31.996  1.00  0.00    -0.248 NA
ATOM     57  C   UNL A   1      42.624  27.700  30.715  1.00  0.00     0.031 C 
ATOM     58  C   UNL A   1      42.683  30.466  36.125  1.00  0.00     0.029 A 
ATOM     59  C   UNL A   1      42.349  30.096  34.832  1.00  0.00     0.049 A 
ATOM     60  H   UNL A   1      40.822  30.855  33.589  1.00  0.00     0.167 HD
ATOM     61  C   UNL A   1      42.564  28.777  32.739  1.00  0.00     0.074 A 
ATOM     62  C   UNL A   1      43.192  27.769  31.910  1.00  0.00     0.031 C 
ATOM     63  C   UNL A   1      42.963  29.093  33.996  1.00  0.00     0.037 A 
BRANCH  50  64
ATOM     64  C   UNL A   1      39.688  33.647  36.615  1.00  0.00     0.064 A 
ATOM     65  C   UNL A   1      38.875  33.296  37.705  1.00  0.00     0.173 A 
ATOM     66  C   UNL A   1      40.313  34.902  36.645  1.00  0.00     0.173 A 
ATOM     67  F   UNL A   1      38.243  32.112  37.724  1.00  0.00    -0.203 F 
ATOM     68  C   UNL A   1      38.656  34.186  38.754  1.00  0.00     0.198 A 
ATOM     69  C   UNL A   1      40.122  35.774  37.714  1.00  0.00     0.198 A 
ATOM     70  F   UNL A   1      41.107  35.288  35.635  1.00  0.00    -0.203 F 
ATOM     71  F   UNL A   1      37.815  33.856  39.745  1.00  0.00    -0.200 F 
ATOM     72  C   UNL A   1      39.283  35.421  38.760  1.00  0.00     0.200 A 
ATOM     73  F   UNL A   1      40.741  36.963  37.725  1.00  0.00    -0.200 F 
ATOM     74  F   UNL A   1      39.068  36.279  39.767  1.00  0.00    -0.200 F 
ENDBRANCH  50  64
BRANCH  51  75
ATOM     75  C   UNL A   1      40.775  27.979  28.458  1.00  0.00     0.064 A 
ATOM     76  C   UNL A   1      40.152  26.725  28.382  1.00  0.00     0.173 A 
ATOM     77  C   UNL A   1      41.526  28.402  27.351  1.00  0.00     0.173 A 
ATOM     78  F   UNL A   1      39.439  26.269  29.421  1.00  0.00    -0.203 F 
ATOM     79  C   UNL A   1      40.282  25.923  27.250  1.00  0.00     0.198 A 
ATOM     80  C   UNL A   1      41.635  27.610  26.211  1.00  0.00     0.198 A 
ATOM     81  F   UNL A   1      42.139  29.594  27.373  1.00  0.00    -0.203 F 
ATOM     82  F   UNL A   1      39.705  24.715  27.218  1.00  0.00    -0.200 F 
ATOM     83  C   UNL A   1      41.017  26.370  26.162  1.00  0.00     0.200 A 
ATOM     84  F   UNL A   1      42.333  28.051  25.156  1.00  0.00    -0.200 F 
ATOM     85  F   UNL A   1      41.134  25.602  25.070  1.00  0.00    -0.200 F 
ENDBRANCH  51  75
BRANCH  63  86
ATOM     86  C   UNL A   1      44.113  28.316  34.571  1.00  0.00     0.064 A 
ATOM     87  C   UNL A   1      45.437  28.770  34.471  1.00  0.00     0.173 A 
ATOM     88  C   UNL A   1      43.881  27.119  35.265  1.00  0.00     0.173 A 
ATOM     89  F   UNL A   1      45.714  29.900  33.803  1.00  0.00    -0.203 F 
ATOM     90  C   UNL A   1      46.486  28.041  35.024  1.00  0.00     0.198 A 
ATOM     91  C   UNL A   1      44.930  26.410  35.846  1.00  0.00     0.198 A 
ATOM     92  F   UNL A   1      42.633  26.642  35.396  1.00  0.00    -0.203 F 
ATOM     93  F   UNL A   1      47.748  28.469  34.874  1.00  0.00    -0.200 F 
ATOM     94  C   UNL A   1      46.232  26.868  35.718  1.00  0.00     0.200 A 
ATOM     95  F   UNL A   1      44.679  25.286  36.530  1.00  0.00    -0.200 F 
ATOM     96  F   UNL A   1      47.243  26.174  36.258  1.00  0.00    -0.200 F 
ENDBRANCH  63  86
ENDBRANCH  37  38
ENDBRANCH  29  32
ENDBRANCH  27  28
ENDBRANCH  26  27
ENDBRANCH  25  26
ENDBRANCH  24  25
ENDBRANCH   1  24
TORSDOF 18
ENDMDL
MODEL 3
REMARK VINA RESULT:     -11.5      5.644     10.975
REMARK SMILES Cc1nc(CSCC(=O)N2CCCC[C@@H]2C(=O)NCCCCCCNC(=O)c2ccc(-c3c4nc(c(-c5c(F)c(F)c(F)c(F)c5F)c5ccc([nH]5)c(-c5c(F)c(F)c(F)c(F)c5F)c5nc(c(-c6c(F)c(F)c(F)c(F)c6F)c6ccc3[nH]6)C=C5)C=C4)cc2)cs1
REMARK SMILES IDX 20 1 19 2 18 3 16 4 17 5 15 7 10 8 11 9 12 10 14 11 13 12
REMARK SMILES IDX 8 13 9 14 7 15 6 16 5 17 4 18 1 19 2 20 3 21 92 22 91 23
REMARK SMILES IDX 21 24 22 25 23 26 24 27 25 28 26 29 27 31 28 32 29 33 90 34
REMARK SMILES IDX 30 35 89 36 31 37 32 38 33 39 83 40 34 41 88 42 82 43 84 44
REMARK SMILES IDX 35 45 87 46 81 47 80 48 36 50 68 51 48 52 67 53 49 54 52 55
REMARK SMILES IDX 66 56 85 57 50 58 51 59 65 61 86 62 53 63 37 64 38 65 46 66
REMARK SMILES IDX 39 67 40 68 44 69 47 70 41 71 42 72 45 73 43 74 69 75 70 76
REMARK SMILES IDX 78 77 71 78 72 79 76 80 79 81 73 82 74 83 77 84 75 85 54 86
REMARK SMILES IDX 55 87 63 88 56 89 57 90 61 91 64 92 58 93 59 94 62 95 60 96
REMARK H PARENT 18 6 25 30 84 49 52 60
REMARK Flexibility Score: inf
ROOT
ATOM      1  C   UNL A   1      36.807  23.237  24.642  1.00  0.00     0.021 C 
ENDROOT
BRANCH   1   2
ATOM      2  C   UNL A   1      36.211  24.083  25.760  1.00  0.00     0.116 C 
BRANCH   2   3
ATOM      3  N   UNL A   1      35.153  23.355  26.445  1.00  0.00    -0.354 N 
ATOM      4  C   UNL A   1      33.860  23.122  26.080  1.00  0.00     0.242 C 
ATOM      5  O   UNL A   1      33.146  22.538  26.902  1.00  0.00    -0.273 OA
ATOM      6  H   UNL A   1      35.413  22.970  27.314  1.00  0.00     0.163 HD
BRANCH   4   7
ATOM      7  C   UNL A   1      33.248  23.753  24.813  1.00  0.00     0.174 C 
ATOM      8  N   UNL A   1      32.176  24.746  25.041  1.00  0.00    -0.330 N 
ATOM      9  C   UNL A   1      31.264  24.978  23.922  1.00  0.00     0.120 C 
ATOM     10  C   UNL A   1      30.653  23.700  23.383  1.00  0.00     0.022 C 
ATOM     11  C   UNL A   1      32.746  22.499  24.035  1.00  0.00     0.035 C 
ATOM     12  C   UNL A   1      31.751  22.761  22.917  1.00  0.00     0.004 C 
BRANCH   8  13
ATOM     13  C   UNL A   1      32.213  25.794  25.959  1.00  0.00     0.233 C 
ATOM     14  O   UNL A   1      31.381  25.800  26.877  1.00  0.00    -0.274 OA
BRANCH  13  15
ATOM     15  C   UNL A   1      33.037  27.051  25.711  1.00  0.00     0.170 C 
BRANCH  15  16
ATOM     16  S   UNL A   1      32.245  28.672  25.749  1.00  0.00    -0.146 SA
BRANCH  16  17
ATOM     17  C   UNL A   1      31.795  28.924  24.017  1.00  0.00     0.127 C 
BRANCH  17  18
ATOM     18  C   UNL A   1      30.349  29.100  23.712  1.00  0.00     0.061 A 
ATOM     19  C   UNL A   1      27.783  31.670  23.341  1.00  0.00     0.079 C 
ATOM     20  C   UNL A   1      28.596  30.425  23.390  1.00  0.00     0.090 A 
ATOM     21  N   UNL A   1      29.811  30.367  23.885  1.00  0.00    -0.246 NA
ATOM     22  S   UNL A   1      27.995  28.950  22.751  1.00  0.00    -0.127 S 
ATOM     23  C   UNL A   1      29.493  28.194  23.113  1.00  0.00     0.091 A 
ENDBRANCH  17  18
ENDBRANCH  16  17
ENDBRANCH  15  16
ENDBRANCH  13  15
ENDBRANCH   8  13
ENDBRANCH   4   7
ENDBRANCH   2   3
ENDBRANCH   1   2
BRANCH   1  24
ATOM     24  C   UNL A   1      37.726  22.115  25.148  1.00  0.00     0.002 C 
BRANCH  24  25
ATOM     25  C   UNL A   1      37.228  20.694  24.866  1.00  0.00     0.002 C 
BRANCH  25  26
ATOM     26  C   UNL A   1      38.278  19.592  25.001  1.00  0.00     0.021 C 
BRANCH  26  27
ATOM     27  C   UNL A   1      39.478  19.955  25.864  1.00  0.00     0.116 C 
BRANCH  27  28
ATOM     28  N   UNL A   1      40.460  18.884  25.946  1.00  0.00    -0.352 N 
ATOM     29  C   UNL A   1      41.817  18.984  26.126  1.00  0.00     0.251 C 
ATOM     30  H   UNL A   1      40.105  17.970  25.860  1.00  0.00     0.163 HD
ATOM     31  O   UNL A   1      42.540  17.998  26.033  1.00  0.00    -0.269 OA
BRANCH  29  32
ATOM     32  C   UNL A   1      42.406  20.311  26.401  1.00  0.00     0.039 A 
ATOM     33  C   UNL A   1      43.034  21.002  25.363  1.00  0.00     0.014 A 
ATOM     34  C   UNL A   1      42.296  20.884  27.672  1.00  0.00     0.014 A 
ATOM     35  C   UNL A   1      43.500  22.298  25.584  1.00  0.00     0.010 A 
ATOM     36  C   UNL A   1      42.686  22.204  27.866  1.00  0.00     0.010 A 
ATOM     37  C   UNL A   1      43.298  22.922  26.827  1.00  0.00    -0.014 A 
BRANCH  37  38
ATOM     38  C   UNL A   1      43.734  24.320  27.068  1.00  0.00     0.031 A 
ATOM     39  C   UNL A   1      42.749  25.336  27.571  1.00  0.00     0.074 A 
ATOM     40  C   UNL A   1      44.994  24.688  26.769  1.00  0.00     0.049 A 
ATOM     41  N   UNL A   1      42.916  26.617  27.789  1.00  0.00    -0.248 NA
ATOM     42  C   UNL A   1      41.385  24.855  27.836  1.00  0.00     0.031 C 
ATOM     43  C   UNL A   1      46.029  23.805  26.231  1.00  0.00     0.029 A 
ATOM     44  N   UNL A   1      45.617  25.907  26.872  1.00  0.00    -0.354 N 
ATOM     45  C   UNL A   1      41.677  27.092  28.198  1.00  0.00     0.074 A 
ATOM     46  C   UNL A   1      40.755  25.980  28.134  1.00  0.00     0.031 C 
ATOM     47  C   UNL A   1      47.167  24.501  26.085  1.00  0.00     0.029 A 
ATOM     48  C   UNL A   1      46.932  25.887  26.477  1.00  0.00     0.049 A 
ATOM     49  H   UNL A   1      45.163  26.717  27.197  1.00  0.00     0.167 HD
ATOM     50  C   UNL A   1      41.344  28.338  28.614  1.00  0.00     0.037 A 
ATOM     51  C   UNL A   1      47.843  26.877  26.438  1.00  0.00     0.037 A 
ATOM     52  C   UNL A   1      42.272  29.436  28.691  1.00  0.00     0.049 A 
ATOM     53  C   UNL A   1      47.447  28.258  26.883  1.00  0.00     0.074 A 
ATOM     54  C   UNL A   1      42.053  30.720  29.156  1.00  0.00     0.029 A 
ATOM     55  N   UNL A   1      43.596  29.379  28.279  1.00  0.00    -0.354 N 
ATOM     56  N   UNL A   1      46.292  28.682  27.338  1.00  0.00    -0.248 NA
ATOM     57  C   UNL A   1      48.482  29.297  26.812  1.00  0.00     0.031 C 
ATOM     58  C   UNL A   1      43.230  31.456  28.973  1.00  0.00     0.029 A 
ATOM     59  C   UNL A   1      44.200  30.615  28.451  1.00  0.00     0.049 A 
ATOM     60  H   UNL A   1      44.042  28.579  27.918  1.00  0.00     0.167 HD
ATOM     61  C   UNL A   1      46.470  30.027  27.637  1.00  0.00     0.074 A 
ATOM     62  C   UNL A   1      47.848  30.344  27.320  1.00  0.00     0.031 C 
ATOM     63  C   UNL A   1      45.574  30.916  28.132  1.00  0.00     0.037 A 
BRANCH  50  64
ATOM     64  C   UNL A   1      39.912  28.571  29.005  1.00  0.00     0.064 A 
ATOM     65  C   UNL A   1      38.964  29.056  28.090  1.00  0.00     0.173 A 
ATOM     66  C   UNL A   1      39.482  28.318  30.317  1.00  0.00     0.173 A 
ATOM     67  F   UNL A   1      39.321  29.327  26.825  1.00  0.00    -0.203 F 
ATOM     68  C   UNL A   1      37.655  29.324  28.485  1.00  0.00     0.198 A 
ATOM     69  C   UNL A   1      38.163  28.551  30.699  1.00  0.00     0.198 A 
ATOM     70  F   UNL A   1      40.343  27.847  31.232  1.00  0.00    -0.203 F 
ATOM     71  F   UNL A   1      36.789  29.857  27.612  1.00  0.00    -0.200 F 
ATOM     72  C   UNL A   1      37.256  29.067  29.787  1.00  0.00     0.200 A 
ATOM     73  F   UNL A   1      37.775  28.288  31.954  1.00  0.00    -0.200 F 
ATOM     74  F   UNL A   1      35.998  29.329  30.168  1.00  0.00    -0.200 F 
ENDBRANCH  50  64
BRANCH  51  75
ATOM     75  C   UNL A   1      49.232  26.582  26.002  1.00  0.00     0.064 A 
ATOM     76  C   UNL A   1      49.631  26.819  24.679  1.00  0.00     0.173 A 
ATOM     77  C   UNL A   1      50.193  26.083  26.894  1.00  0.00     0.173 A 
ATOM     78  F   UNL A   1      48.743  27.276  23.784  1.00  0.00    -0.203 F 
ATOM     79  C   UNL A   1      50.935  26.558  24.261  1.00  0.00     0.198 A 
ATOM     80  C   UNL A   1      51.503  25.848  26.482  1.00  0.00     0.198 A 
ATOM     81  F   UNL A   1      49.863  25.843  28.171  1.00  0.00    -0.203 F 
ATOM     82  F   UNL A   1      51.279  26.760  22.983  1.00  0.00    -0.200 F 
ATOM     83  C   UNL A   1      51.871  26.080  25.165  1.00  0.00     0.200 A 
ATOM     84  F   UNL A   1      52.409  25.400  27.361  1.00  0.00    -0.200 F 
ATOM     85  F   UNL A   1      53.127  25.839  24.766  1.00  0.00    -0.200 F 
ENDBRANCH  51  75
BRANCH  63  86
ATOM     86  C   UNL A   1      46.062  32.311  28.399  1.00  0.00     0.064 A 
ATOM     87  C   UNL A   1      45.965  33.326  27.436  1.00  0.00     0.173 A 
ATOM     88  C   UNL A   1      46.599  32.646  29.652  1.00  0.00     0.173 A 
ATOM     89  F   UNL A   1      45.475  33.055  26.217  1.00  0.00    -0.203 F 
ATOM     90  C   UNL A   1      46.410  34.617  27.709  1.00  0.00     0.198 A 
ATOM     91  C   UNL A   1      47.011  33.946  29.933  1.00  0.00     0.198 A 
ATOM     92  F   UNL A   1      46.709  31.714  30.612  1.00  0.00    -0.203 F 
ATOM     93  F   UNL A   1      46.352  35.558  26.757  1.00  0.00    -0.200 F 
ATOM     94  C   UNL A   1      46.924  34.928  28.959  1.00  0.00     0.200 A 
ATOM     95  F   UNL A   1      47.493  34.247  31.147  1.00  0.00    -0.200 F 
ATOM     96  F   UNL A   1      47.342  36.173  29.223  1.00  0.00    -0.200 F 
ENDBRANCH  63  86
ENDBRANCH  37  38
ENDBRANCH  29  32
ENDBRANCH  27  28
ENDBRANCH  26  27
ENDBRANCH  25  26
ENDBRANCH  24  25
ENDBRANCH   1  24
TORSDOF 18
ENDMDL
