MODEL 1
REMARK VINA RESULT:     -11.0      0.000      0.000
REMARK SMILES CCCCCCNC(=O)Oc1cccc(-c2ccc([C@@H](C)C(=O)NCCCCCCNC(=O)c3ccc(-c4c5nc(c(-c6c(F)c(F)c(F)c(F)c6F)c6ccc([nH]6)c(-c6c(F)c(F)c(F)c(F)c6F)c6nc(c(-c7c(F)c(F)c(F)c(F)c7F)c7ccc4[nH]7)C=C6)C=C5)cc3)cc2N)c1
REMARK SMILES IDX 22 1 23 2 24 3 20 5 21 6 19 7 16 8 17 9 98 10 18 11 97 12
REMARK SMILES IDX 15 13 11 14 12 15 100 16 13 17 14 18 10 19 8 20 7 21 9 23
REMARK SMILES IDX 6 24 5 25 4 26 3 27 2 28 1 29 99 30 25 33 26 34 27 35 28 36
REMARK SMILES IDX 29 37 30 38 31 39 32 40 33 42 34 43 35 44 96 45 36 46 95 47
REMARK SMILES IDX 37 48 38 49 39 50 89 51 40 52 94 53 88 54 90 55 41 56 93 57
REMARK SMILES IDX 87 58 86 59 42 61 74 62 54 63 73 64 55 65 58 66 72 67 91 68
REMARK SMILES IDX 56 69 57 70 71 72 92 73 59 74 43 75 44 76 52 77 45 78 46 79
REMARK SMILES IDX 50 80 53 81 47 82 48 83 51 84 49 85 75 86 76 87 84 88 77 89
REMARK SMILES IDX 78 90 82 91 85 92 79 93 80 94 83 95 81 96 60 97 61 98 69 99
REMARK SMILES IDX 62 100 63 101 67 102 70 103 64 104 65 105 68 106 66 107
REMARK H PARENT 24 4 7 22 99 31 99 32 31 41 90 60 58 71
REMARK Flexibility Score: inf
ROOT
ATOM      1  C   UNL A   1      31.946  25.908  25.903  1.00  0.00     0.227 C 
ATOM      2  O   UNL A   1      31.246  25.591  26.872  1.00  0.00    -0.274 OA
ATOM      3  N   UNL A   1      32.459  27.168  25.916  1.00  0.00    -0.356 N 
ATOM      4  H   UNL A   1      32.275  27.669  26.743  1.00  0.00     0.163 HD
ENDROOT
BRANCH   1   5
ATOM      5  C   UNL A   1      32.214  24.886  24.786  1.00  0.00     0.105 C 
ATOM      6  C   UNL A   1      30.988  24.075  24.367  1.00  0.00     0.023 C 
BRANCH   5   7
ATOM      7  C   UNL A   1      33.500  24.095  24.966  1.00  0.00    -0.034 A 
ATOM      8  C   UNL A   1      35.792  22.421  25.292  1.00  0.00     0.005 A 
ATOM      9  C   UNL A   1      35.708  23.375  24.261  1.00  0.00     0.011 A 
ATOM     10  C   UNL A   1      34.744  22.395  26.242  1.00  0.00     0.040 A 
ATOM     11  C   UNL A   1      34.607  24.226  24.129  1.00  0.00     0.005 A 
ATOM     12  C   UNL A   1      33.591  23.169  26.019  1.00  0.00     0.030 A 
BRANCH   8  13
ATOM     13  C   UNL A   1      36.953  21.499  25.332  1.00  0.00    -0.013 A 
ATOM     14  C   UNL A   1      39.318  21.081  25.721  1.00  0.00     0.133 A 
ATOM     15  C   UNL A   1      39.171  19.742  25.376  1.00  0.00     0.047 A 
ATOM     16  C   UNL A   1      38.227  21.951  25.716  1.00  0.00     0.056 A 
ATOM     17  C   UNL A   1      37.912  19.265  25.030  1.00  0.00     0.004 A 
ATOM     18  C   UNL A   1      36.818  20.136  24.998  1.00  0.00     0.009 A 
BRANCH  14  19
ATOM     19  O   UNL A   1      40.631  21.551  25.906  1.00  0.00    -0.410 OA
BRANCH  19  20
ATOM     20  C   UNL A   1      41.276  21.308  27.109  1.00  0.00     0.412 C 
ATOM     21  N   UNL A   1      42.634  21.207  26.972  1.00  0.00    -0.321 N 
ATOM     22  H   UNL A   1      43.146  21.011  27.790  1.00  0.00     0.167 HD
ATOM     23  O   UNL A   1      40.737  21.178  28.201  1.00  0.00    -0.224 OA
BRANCH  21  24
ATOM     24  C   UNL A   1      43.397  21.359  25.749  1.00  0.00     0.119 C 
BRANCH  24  25
ATOM     25  C   UNL A   1      43.284  22.770  25.170  1.00  0.00     0.021 C 
BRANCH  25  26
ATOM     26  C   UNL A   1      44.184  23.817  25.837  1.00  0.00     0.002 C 
BRANCH  26  27
ATOM     27  C   UNL A   1      44.350  25.133  25.069  1.00  0.00    -0.000 C 
BRANCH  27  28
ATOM     28  C   UNL A   1      45.569  25.973  25.458  1.00  0.00    -0.003 C 
ATOM     29  C   UNL A   1      45.341  27.469  25.308  1.00  0.00     0.004 C 
ENDBRANCH  27  28
ENDBRANCH  26  27
ENDBRANCH  25  26
ENDBRANCH  24  25
ENDBRANCH  21  24
ENDBRANCH  19  20
ENDBRANCH  14  19
ENDBRANCH   8  13
BRANCH  10  30
ATOM     30  N   UNL A   1      34.753  21.539  27.347  1.00  0.00    -0.398 N 
ATOM     31  H   UNL A   1      35.402  21.680  28.073  1.00  0.00     0.156 HD
ATOM     32  H   UNL A   1      34.110  20.795  27.398  1.00  0.00     0.156 HD
ENDBRANCH  10  30
ENDBRANCH   5   7
ENDBRANCH   1   5
BRANCH   3  33
ATOM     33  C   UNL A   1      33.225  27.904  24.935  1.00  0.00     0.116 C 
BRANCH  33  34
ATOM     34  C   UNL A   1      33.181  29.409  25.198  1.00  0.00     0.021 C 
BRANCH  34  35
ATOM     35  C   UNL A   1      31.770  29.954  25.448  1.00  0.00     0.002 C 
BRANCH  35  36
ATOM     36  C   UNL A   1      31.560  30.611  26.818  1.00  0.00     0.002 C 
BRANCH  36  37
ATOM     37  C   UNL A   1      31.450  32.139  26.806  1.00  0.00     0.021 C 
BRANCH  37  38
ATOM     38  C   UNL A   1      32.758  32.874  27.084  1.00  0.00     0.116 C 
BRANCH  38  39
ATOM     39  N   UNL A   1      32.528  34.203  27.627  1.00  0.00    -0.352 N 
ATOM     40  C   UNL A   1      33.070  34.805  28.734  1.00  0.00     0.251 C 
ATOM     41  H   UNL A   1      31.886  34.755  27.124  1.00  0.00     0.163 HD
ATOM     42  O   UNL A   1      32.588  35.847  29.168  1.00  0.00    -0.269 OA
BRANCH  40  43
ATOM     43  C   UNL A   1      34.232  34.197  29.416  1.00  0.00     0.039 A 
ATOM     44  C   UNL A   1      34.015  33.420  30.558  1.00  0.00     0.014 A 
ATOM     45  C   UNL A   1      35.533  34.424  28.958  1.00  0.00     0.014 A 
ATOM     46  C   UNL A   1      35.099  32.830  31.211  1.00  0.00     0.010 A 
ATOM     47  C   UNL A   1      36.605  33.780  29.569  1.00  0.00     0.010 A 
ATOM     48  C   UNL A   1      36.400  32.985  30.706  1.00  0.00    -0.014 A 
BRANCH  48  49
ATOM     49  C   UNL A   1      37.562  32.338  31.364  1.00  0.00     0.031 A 
ATOM     50  C   UNL A   1      38.260  31.186  30.698  1.00  0.00     0.074 A 
ATOM     51  C   UNL A   1      37.953  32.751  32.584  1.00  0.00     0.049 A 
ATOM     52  N   UNL A   1      39.254  30.453  31.134  1.00  0.00    -0.248 NA
ATOM     53  C   UNL A   1      37.756  30.788  29.375  1.00  0.00     0.031 C 
ATOM     54  C   UNL A   1      37.335  33.835  33.347  1.00  0.00     0.029 A 
ATOM     55  N   UNL A   1      38.962  32.302  33.399  1.00  0.00    -0.354 N 
ATOM     56  C   UNL A   1      39.485  29.505  30.146  1.00  0.00     0.074 A 
ATOM     57  C   UNL A   1      38.490  29.716  29.117  1.00  0.00     0.031 C 
ATOM     58  C   UNL A   1      37.997  33.990  34.504  1.00  0.00     0.029 A 
ATOM     59  C   UNL A   1      39.061  32.993  34.581  1.00  0.00     0.049 A 
ATOM     60  H   UNL A   1      39.558  31.556  33.158  1.00  0.00     0.167 HD
ATOM     61  C   UNL A   1      40.453  28.558  30.091  1.00  0.00     0.037 A 
ATOM     62  C   UNL A   1      39.916  32.838  35.609  1.00  0.00     0.037 A 
ATOM     63  C   UNL A   1      41.450  28.362  31.109  1.00  0.00     0.049 A 
ATOM     64  C   UNL A   1      40.965  31.763  35.537  1.00  0.00     0.074 A 
ATOM     65  C   UNL A   1      42.503  27.464  31.128  1.00  0.00     0.029 A 
ATOM     66  N   UNL A   1      41.516  29.077  32.297  1.00  0.00    -0.354 N 
ATOM     67  N   UNL A   1      41.211  30.909  34.574  1.00  0.00    -0.248 NA
ATOM     68  C   UNL A   1      41.857  31.633  36.697  1.00  0.00     0.031 C 
ATOM     69  C   UNL A   1      43.180  27.607  32.345  1.00  0.00     0.029 A 
ATOM     70  C   UNL A   1      42.577  28.626  33.065  1.00  0.00     0.049 A 
ATOM     71  H   UNL A   1      40.897  29.798  32.555  1.00  0.00     0.167 HD
ATOM     72  C   UNL A   1      42.304  30.163  34.995  1.00  0.00     0.074 A 
ATOM     73  C   UNL A   1      42.677  30.672  36.299  1.00  0.00     0.031 C 
ATOM     74  C   UNL A   1      42.940  29.150  34.358  1.00  0.00     0.037 A 
BRANCH  61  75
ATOM     75  C   UNL A   1      40.471  27.664  28.884  1.00  0.00     0.064 A 
ATOM     76  C   UNL A   1      39.703  26.490  28.826  1.00  0.00     0.173 A 
ATOM     77  C   UNL A   1      41.262  27.983  27.771  1.00  0.00     0.173 A 
ATOM     78  F   UNL A   1      38.938  26.131  29.868  1.00  0.00    -0.203 F 
ATOM     79  C   UNL A   1      39.761  25.649  27.718  1.00  0.00     0.198 A 
ATOM     80  C   UNL A   1      41.292  27.157  26.651  1.00  0.00     0.198 A 
ATOM     81  F   UNL A   1      42.011  29.097  27.769  1.00  0.00    -0.203 F 
ATOM     82  F   UNL A   1      39.068  24.501  27.713  1.00  0.00    -0.200 F 
ATOM     83  C   UNL A   1      40.551  25.985  26.630  1.00  0.00     0.200 A 
ATOM     84  F   UNL A   1      42.047  27.490  25.594  1.00  0.00    -0.200 F 
ATOM     85  F   UNL A   1      40.607  25.173  25.564  1.00  0.00    -0.200 F 
ENDBRANCH  61  75
BRANCH  62  86
ATOM     86  C   UNL A   1      39.846  33.758  36.773  1.00  0.00     0.064 A 
ATOM     87  C   UNL A   1      39.002  33.474  37.856  1.00  0.00     0.173 A 
ATOM     88  C   UNL A   1      40.620  34.925  36.835  1.00  0.00     0.173 A 
ATOM     89  F   UNL A   1      38.228  32.380  37.831  1.00  0.00    -0.203 F 
ATOM     90  C   UNL A   1      38.925  34.331  38.952  1.00  0.00     0.198 A 
ATOM     91  C   UNL A   1      40.561  35.768  37.943  1.00  0.00     0.198 A 
ATOM     92  F   UNL A   1      41.445  35.239  35.826  1.00  0.00    -0.203 F 
ATOM     93  F   UNL A   1      38.083  34.054  39.957  1.00  0.00    -0.200 F 
ATOM     94  C   UNL A   1      39.709  35.473  38.998  1.00  0.00     0.200 A 
ATOM     95  F   UNL A   1      41.329  36.864  37.990  1.00  0.00    -0.200 F 
ATOM     96  F   UNL A   1      39.641  36.293  40.055  1.00  0.00    -0.200 F 
ENDBRANCH  62  86
BRANCH  74  97
ATOM     97  C   UNL A   1      44.133  28.551  35.044  1.00  0.00     0.064 A 
ATOM     98  C   UNL A   1      45.427  29.058  34.849  1.00  0.00     0.173 A 
ATOM     99  C   UNL A   1      43.975  27.476  35.933  1.00  0.00     0.173 A 
ATOM    100  F   UNL A   1      45.632  30.072  33.997  1.00  0.00    -0.203 F 
ATOM    101  C   UNL A   1      46.520  28.494  35.500  1.00  0.00     0.198 A 
ATOM    102  C   UNL A   1      45.066  26.934  36.604  1.00  0.00     0.198 A 
ATOM    103  F   UNL A   1      42.757  26.958  36.157  1.00  0.00    -0.203 F 
ATOM    104  F   UNL A   1      47.754  28.963  35.263  1.00  0.00    -0.200 F 
ATOM    105  C   UNL A   1      46.339  27.438  36.382  1.00  0.00     0.200 A 
ATOM    106  F   UNL A   1      44.888  25.922  37.464  1.00  0.00    -0.200 F 
ATOM    107  F   UNL A   1      47.393  26.900  37.011  1.00  0.00    -0.200 F 
ENDBRANCH  74  97
ENDBRANCH  48  49
ENDBRANCH  40  43
ENDBRANCH  38  39
ENDBRANCH  37  38
ENDBRANCH  36  37
ENDBRANCH  35  36
ENDBRANCH  34  35
ENDBRANCH  33  34
ENDBRANCH   3  33
TORSDOF 23
ENDMDL
MODEL 2
REMARK VINA RESULT:     -11.0      0.946      2.151
REMARK SMILES CCCCCCNC(=O)Oc1cccc(-c2ccc([C@@H](C)C(=O)NCCCCCCNC(=O)c3ccc(-c4c5nc(c(-c6c(F)c(F)c(F)c(F)c6F)c6ccc([nH]6)c(-c6c(F)c(F)c(F)c(F)c6F)c6nc(c(-c7c(F)c(F)c(F)c(F)c7F)c7ccc4[nH]7)C=C6)C=C5)cc3)cc2N)c1
REMARK SMILES IDX 22 1 23 2 24 3 20 5 21 6 19 7 16 8 17 9 98 10 18 11 97 12
REMARK SMILES IDX 15 13 11 14 12 15 100 16 13 17 14 18 10 19 8 20 7 21 9 23
REMARK SMILES IDX 6 24 5 25 4 26 3 27 2 28 1 29 99 30 25 33 26 34 27 35 28 36
REMARK SMILES IDX 29 37 30 38 31 39 32 40 33 42 34 43 35 44 96 45 36 46 95 47
REMARK SMILES IDX 37 48 38 49 39 50 89 51 40 52 94 53 88 54 90 55 41 56 93 57
REMARK SMILES IDX 87 58 86 59 42 61 74 62 54 63 73 64 55 65 58 66 72 67 91 68
REMARK SMILES IDX 56 69 57 70 71 72 92 73 59 74 43 75 44 76 52 77 45 78 46 79
REMARK SMILES IDX 50 80 53 81 47 82 48 83 51 84 49 85 75 86 76 87 84 88 77 89
REMARK SMILES IDX 78 90 82 91 85 92 79 93 80 94 83 95 81 96 60 97 61 98 69 99
REMARK SMILES IDX 62 100 63 101 67 102 70 103 64 104 65 105 68 106 66 107
REMARK H PARENT 24 4 7 22 99 31 99 32 31 41 90 60 58 71
REMARK Flexibility Score: inf
ROOT
ATOM      1  C   UNL A   1      31.556  25.297  26.482  1.00  0.00     0.227 C 
ATOM      2  O   UNL A   1      31.253  24.360  27.230  1.00  0.00    -0.274 OA
ATOM      3  N   UNL A   1      31.325  26.550  26.960  1.00  0.00    -0.356 N 
ATOM      4  H   UNL A   1      31.007  26.572  27.892  1.00  0.00     0.163 HD
ENDROOT
BRANCH   1   5
ATOM      5  C   UNL A   1      32.182  25.008  25.108  1.00  0.00     0.105 C 
ATOM      6  C   UNL A   1      31.168  24.764  23.991  1.00  0.00     0.023 C 
BRANCH   5   7
ATOM      7  C   UNL A   1      33.358  24.045  25.155  1.00  0.00    -0.034 A 
ATOM      8  C   UNL A   1      35.699  22.409  25.191  1.00  0.00     0.005 A 
ATOM      9  C   UNL A   1      34.838  22.500  26.300  1.00  0.00     0.011 A 
ATOM     10  C   UNL A   1      35.305  23.069  24.004  1.00  0.00     0.040 A 
ATOM     11  C   UNL A   1      33.668  23.264  26.267  1.00  0.00     0.005 A 
ATOM     12  C   UNL A   1      34.194  23.932  24.032  1.00  0.00     0.030 A 
BRANCH   8  13
ATOM     13  C   UNL A   1      36.962  21.641  25.317  1.00  0.00    -0.013 A 
ATOM     14  C   UNL A   1      39.330  21.527  25.866  1.00  0.00     0.133 A 
ATOM     15  C   UNL A   1      39.376  20.179  25.527  1.00  0.00     0.047 A 
ATOM     16  C   UNL A   1      38.141  22.252  25.779  1.00  0.00     0.056 A 
ATOM     17  C   UNL A   1      38.213  19.545  25.105  1.00  0.00     0.004 A 
ATOM     18  C   UNL A   1      37.022  20.271  24.991  1.00  0.00     0.009 A 
BRANCH  14  19
ATOM     19  O   UNL A   1      40.558  22.159  26.130  1.00  0.00    -0.410 OA
BRANCH  19  20
ATOM     20  C   UNL A   1      41.277  21.799  27.259  1.00  0.00     0.412 C 
ATOM     21  N   UNL A   1      42.632  21.859  27.067  1.00  0.00    -0.321 N 
ATOM     22  H   UNL A   1      43.197  21.592  27.827  1.00  0.00     0.167 HD
ATOM     23  O   UNL A   1      40.804  21.447  28.332  1.00  0.00    -0.224 OA
BRANCH  21  24
ATOM     24  C   UNL A   1      43.320  22.276  25.861  1.00  0.00     0.119 C 
BRANCH  24  25
ATOM     25  C   UNL A   1      44.827  22.418  26.078  1.00  0.00     0.021 C 
BRANCH  25  26
ATOM     26  C   UNL A   1      45.688  21.399  25.322  1.00  0.00     0.002 C 
BRANCH  26  27
ATOM     27  C   UNL A   1      44.919  20.396  24.456  1.00  0.00    -0.000 C 
BRANCH  27  28
ATOM     28  C   UNL A   1      44.880  18.962  24.988  1.00  0.00    -0.003 C 
ATOM     29  C   UNL A   1      43.595  18.630  25.730  1.00  0.00     0.004 C 
ENDBRANCH  27  28
ENDBRANCH  26  27
ENDBRANCH  25  26
ENDBRANCH  24  25
ENDBRANCH  21  24
ENDBRANCH  19  20
ENDBRANCH  14  19
ENDBRANCH   8  13
BRANCH  10  30
ATOM     30  N   UNL A   1      36.044  22.993  22.821  1.00  0.00    -0.398 N 
ATOM     31  H   UNL A   1      36.974  22.672  22.842  1.00  0.00     0.156 HD
ATOM     32  H   UNL A   1      35.634  23.260  21.967  1.00  0.00     0.156 HD
ENDBRANCH  10  30
ENDBRANCH   5   7
ENDBRANCH   1   5
BRANCH   3  33
ATOM     33  C   UNL A   1      31.461  27.853  26.349  1.00  0.00     0.116 C 
BRANCH  33  34
ATOM     34  C   UNL A   1      32.495  28.713  27.075  1.00  0.00     0.021 C 
BRANCH  34  35
ATOM     35  C   UNL A   1      32.691  30.102  26.458  1.00  0.00     0.002 C 
BRANCH  35  36
ATOM     36  C   UNL A   1      31.396  30.837  26.088  1.00  0.00     0.002 C 
BRANCH  36  37
ATOM     37  C   UNL A   1      31.334  32.311  26.503  1.00  0.00     0.021 C 
BRANCH  37  38
ATOM     38  C   UNL A   1      32.578  32.823  27.223  1.00  0.00     0.116 C 
BRANCH  38  39
ATOM     39  N   UNL A   1      32.430  34.209  27.641  1.00  0.00    -0.352 N 
ATOM     40  C   UNL A   1      33.039  34.886  28.666  1.00  0.00     0.251 C 
ATOM     41  H   UNL A   1      31.797  34.741  27.106  1.00  0.00     0.163 HD
ATOM     42  O   UNL A   1      32.624  35.988  29.011  1.00  0.00    -0.269 OA
BRANCH  40  43
ATOM     43  C   UNL A   1      34.196  34.289  29.367  1.00  0.00     0.039 A 
ATOM     44  C   UNL A   1      33.969  33.525  30.515  1.00  0.00     0.014 A 
ATOM     45  C   UNL A   1      35.501  34.515  28.920  1.00  0.00     0.014 A 
ATOM     46  C   UNL A   1      35.047  32.945  31.187  1.00  0.00     0.010 A 
ATOM     47  C   UNL A   1      36.569  33.881  29.550  1.00  0.00     0.010 A 
ATOM     48  C   UNL A   1      36.353  33.098  30.694  1.00  0.00    -0.014 A 
BRANCH  48  49
ATOM     49  C   UNL A   1      37.510  32.461  31.371  1.00  0.00     0.031 A 
ATOM     50  C   UNL A   1      38.237  31.324  30.712  1.00  0.00     0.074 A 
ATOM     51  C   UNL A   1      37.869  32.870  32.602  1.00  0.00     0.049 A 
ATOM     52  N   UNL A   1      39.232  30.602  31.163  1.00  0.00    -0.248 NA
ATOM     53  C   UNL A   1      37.766  30.929  29.376  1.00  0.00     0.031 C 
ATOM     54  C   UNL A   1      37.221  33.940  33.360  1.00  0.00     0.029 A 
ATOM     55  N   UNL A   1      38.868  32.429  33.435  1.00  0.00    -0.354 N 
ATOM     56  C   UNL A   1      39.496  29.663  30.174  1.00  0.00     0.074 A 
ATOM     57  C   UNL A   1      38.520  29.870  29.125  1.00  0.00     0.031 C 
ATOM     58  C   UNL A   1      37.857  34.095  34.532  1.00  0.00     0.029 A 
ATOM     59  C   UNL A   1      38.932  33.112  34.624  1.00  0.00     0.049 A 
ATOM     60  H   UNL A   1      39.478  31.693  33.201  1.00  0.00     0.167 HD
ATOM     61  C   UNL A   1      40.477  28.730  30.133  1.00  0.00     0.037 A 
ATOM     62  C   UNL A   1      39.767  32.961  35.668  1.00  0.00     0.037 A 
ATOM     63  C   UNL A   1      41.456  28.540  31.170  1.00  0.00     0.049 A 
ATOM     64  C   UNL A   1      40.832  31.901  35.611  1.00  0.00     0.074 A 
ATOM     65  C   UNL A   1      42.521  27.656  31.204  1.00  0.00     0.029 A 
ATOM     66  N   UNL A   1      41.487  29.247  32.363  1.00  0.00    -0.354 N 
ATOM     67  N   UNL A   1      41.110  31.057  34.647  1.00  0.00    -0.248 NA
ATOM     68  C   UNL A   1      41.701  31.774  36.789  1.00  0.00     0.031 C 
ATOM     69  C   UNL A   1      43.170  27.799  32.437  1.00  0.00     0.029 A 
ATOM     70  C   UNL A   1      42.537  28.804  33.150  1.00  0.00     0.049 A 
ATOM     71  H   UNL A   1      40.853  29.958  32.614  1.00  0.00     0.167 HD
ATOM     72  C   UNL A   1      42.203  30.323  35.086  1.00  0.00     0.074 A 
ATOM     73  C   UNL A   1      42.543  30.827  36.401  1.00  0.00     0.031 C 
ATOM     74  C   UNL A   1      42.867  29.323  34.455  1.00  0.00     0.037 A 
BRANCH  61  75
ATOM     75  C   UNL A   1      40.533  27.846  28.919  1.00  0.00     0.064 A 
ATOM     76  C   UNL A   1      39.799  26.651  28.846  1.00  0.00     0.173 A 
ATOM     77  C   UNL A   1      41.326  28.195  27.817  1.00  0.00     0.173 A 
ATOM     78  F   UNL A   1      39.034  26.263  29.877  1.00  0.00    -0.203 F 
ATOM     79  C   UNL A   1      39.892  25.820  27.732  1.00  0.00     0.198 A 
ATOM     80  C   UNL A   1      41.391  27.377  26.691  1.00  0.00     0.198 A 
ATOM     81  F   UNL A   1      42.043  29.329  27.830  1.00  0.00    -0.203 F 
ATOM     82  F   UNL A   1      39.231  24.653  27.712  1.00  0.00    -0.200 F 
ATOM     83  C   UNL A   1      40.683  26.185  26.655  1.00  0.00     0.200 A 
ATOM     84  F   UNL A   1      42.147  27.739  25.645  1.00  0.00    -0.200 F 
ATOM     85  F   UNL A   1      40.773  25.383  25.585  1.00  0.00    -0.200 F 
ENDBRANCH  61  75
BRANCH  62  86
ATOM     86  C   UNL A   1      39.660  33.871  36.838  1.00  0.00     0.064 A 
ATOM     87  C   UNL A   1      40.319  35.108  36.840  1.00  0.00     0.173 A 
ATOM     88  C   UNL A   1      38.899  33.533  37.965  1.00  0.00     0.173 A 
ATOM     89  F   UNL A   1      41.076  35.465  35.793  1.00  0.00    -0.203 F 
ATOM     90  C   UNL A   1      40.229  35.969  37.932  1.00  0.00     0.198 A 
ATOM     91  C   UNL A   1      38.789  34.406  39.045  1.00  0.00     0.198 A 
ATOM     92  F   UNL A   1      38.246  32.362  38.010  1.00  0.00    -0.203 F 
ATOM     93  F   UNL A   1      40.898  37.130  37.922  1.00  0.00    -0.200 F 
ATOM     94  C   UNL A   1      39.459  35.620  39.030  1.00  0.00     0.200 A 
ATOM     95  F   UNL A   1      38.034  34.072  40.101  1.00  0.00    -0.200 F 
ATOM     96  F   UNL A   1      39.368  36.451  40.077  1.00  0.00    -0.200 F 
ENDBRANCH  62  86
BRANCH  74  97
ATOM     97  C   UNL A   1      44.053  28.735  35.162  1.00  0.00     0.064 A 
ATOM     98  C   UNL A   1      43.920  27.661  36.056  1.00  0.00     0.173 A 
ATOM     99  C   UNL A   1      45.342  29.231  34.918  1.00  0.00     0.173 A 
ATOM    100  F   UNL A   1      42.706  27.163  36.335  1.00  0.00    -0.203 F 
ATOM    101  C   UNL A   1      45.032  27.124  36.697  1.00  0.00     0.198 A 
ATOM    102  C   UNL A   1      46.455  28.673  35.538  1.00  0.00     0.198 A 
ATOM    103  F   UNL A   1      45.523  30.254  34.068  1.00  0.00    -0.203 F 
ATOM    104  F   UNL A   1      44.877  26.130  37.583  1.00  0.00    -0.200 F 
ATOM    105  C   UNL A   1      46.299  27.624  36.433  1.00  0.00     0.200 A 
ATOM    106  F   UNL A   1      47.679  29.150  35.273  1.00  0.00    -0.200 F 
ATOM    107  F   UNL A   1      47.369  27.102  37.048  1.00  0.00    -0.200 F 
ENDBRANCH  74  97
ENDBRANCH  48  49
ENDBRANCH  40  43
ENDBRANCH  38  39
ENDBRANCH  37  38
ENDBRANCH  36  37
ENDBRANCH  35  36
ENDBRANCH  34  35
ENDBRANCH  33  34
ENDBRANCH   3  33
TORSDOF 23
ENDMDL
MODEL 3
REMARK VINA RESULT:     -10.7      1.041      7.117
REMARK SMILES CCCCCCNC(=O)Oc1cccc(-c2ccc([C@@H](C)C(=O)NCCCCCCNC(=O)c3ccc(-c4c5nc(c(-c6c(F)c(F)c(F)c(F)c6F)c6ccc([nH]6)c(-c6c(F)c(F)c(F)c(F)c6F)c6nc(c(-c7c(F)c(F)c(F)c(F)c7F)c7ccc4[nH]7)C=C6)C=C5)cc3)cc2N)c1
REMARK SMILES IDX 22 1 23 2 24 3 20 5 21 6 19 7 16 8 17 9 98 10 18 11 97 12
REMARK SMILES IDX 15 13 11 14 12 15 100 16 13 17 14 18 10 19 8 20 7 21 9 23
REMARK SMILES IDX 6 24 5 25 4 26 3 27 2 28 1 29 99 30 25 33 26 34 27 35 28 36
REMARK SMILES IDX 29 37 30 38 31 39 32 40 33 42 34 43 35 44 96 45 36 46 95 47
REMARK SMILES IDX 37 48 38 49 39 50 89 51 40 52 94 53 88 54 90 55 41 56 93 57
REMARK SMILES IDX 87 58 86 59 42 61 74 62 54 63 73 64 55 65 58 66 72 67 91 68
REMARK SMILES IDX 56 69 57 70 71 72 92 73 59 74 43 75 44 76 52 77 45 78 46 79
REMARK SMILES IDX 50 80 53 81 47 82 48 83 51 84 49 85 75 86 76 87 84 88 77 89
REMARK SMILES IDX 78 90 82 91 85 92 79 93 80 94 83 95 81 96 60 97 61 98 69 99
REMARK SMILES IDX 62 100 63 101 67 102 70 103 64 104 65 105 68 106 66 107
REMARK H PARENT 24 4 7 22 99 31 99 32 31 41 90 60 58 71
REMARK Flexibility Score: inf
ROOT
ATOM      1  C   UNL A   1      32.190  26.318  26.254  1.00  0.00     0.227 C 
ATOM      2  O   UNL A   1      31.212  25.879  26.871  1.00  0.00    -0.274 OA
ATOM      3  N   UNL A   1      32.890  27.313  26.862  1.00  0.00    -0.356 N 
ATOM      4  H   UNL A   1      32.581  27.525  27.772  1.00  0.00     0.163 HD
ENDROOT
BRANCH   1   5
ATOM      5  C   UNL A   1      32.567  25.716  24.891  1.00  0.00     0.105 C 
ATOM      6  C   UNL A   1      31.379  25.464  23.963  1.00  0.00     0.023 C 
BRANCH   5   7
ATOM      7  C   UNL A   1      33.592  24.596  24.971  1.00  0.00    -0.034 A 
ATOM      8  C   UNL A   1      35.670  22.638  25.052  1.00  0.00     0.005 A 
ATOM      9  C   UNL A   1      34.886  22.937  26.181  1.00  0.00     0.011 A 
ATOM     10  C   UNL A   1      35.318  23.260  23.831  1.00  0.00     0.040 A 
ATOM     11  C   UNL A   1      33.839  23.862  26.130  1.00  0.00     0.005 A 
ATOM     12  C   UNL A   1      34.347  24.277  23.830  1.00  0.00     0.030 A 
BRANCH   8  13
ATOM     13  C   UNL A   1      36.813  21.703  25.192  1.00  0.00    -0.013 A 
ATOM     14  C   UNL A   1      39.138  21.264  25.764  1.00  0.00     0.133 A 
ATOM     15  C   UNL A   1      38.999  19.921  25.430  1.00  0.00     0.047 A 
ATOM     16  C   UNL A   1      38.061  22.146  25.664  1.00  0.00     0.056 A 
ATOM     17  C   UNL A   1      37.763  19.453  24.998  1.00  0.00     0.004 A 
ATOM     18  C   UNL A   1      36.686  20.337  24.870  1.00  0.00     0.009 A 
BRANCH  14  19
ATOM     19  O   UNL A   1      40.438  21.721  26.038  1.00  0.00    -0.410 OA
BRANCH  19  20
ATOM     20  C   UNL A   1      41.202  21.063  26.990  1.00  0.00     0.412 C 
ATOM     21  N   UNL A   1      42.438  21.628  27.162  1.00  0.00    -0.321 N 
ATOM     22  H   UNL A   1      43.036  21.190  27.809  1.00  0.00     0.167 HD
ATOM     23  O   UNL A   1      40.864  20.073  27.626  1.00  0.00    -0.224 OA
BRANCH  21  24
ATOM     24  C   UNL A   1      42.955  22.804  26.492  1.00  0.00     0.119 C 
BRANCH  24  25
ATOM     25  C   UNL A   1      43.356  22.514  25.046  1.00  0.00     0.021 C 
BRANCH  25  26
ATOM     26  C   UNL A   1      44.865  22.541  24.774  1.00  0.00     0.002 C 
BRANCH  26  27
ATOM     27  C   UNL A   1      45.689  21.476  25.505  1.00  0.00    -0.000 C 
BRANCH  27  28
ATOM     28  C   UNL A   1      46.207  20.331  24.632  1.00  0.00    -0.003 C 
ATOM     29  C   UNL A   1      45.615  18.979  24.999  1.00  0.00     0.004 C 
ENDBRANCH  27  28
ENDBRANCH  26  27
ENDBRANCH  25  26
ENDBRANCH  24  25
ENDBRANCH  21  24
ENDBRANCH  19  20
ENDBRANCH  14  19
ENDBRANCH   8  13
BRANCH  10  30
ATOM     30  N   UNL A   1      35.980  22.987  22.631  1.00  0.00    -0.398 N 
ATOM     31  H   UNL A   1      35.481  22.614  21.868  1.00  0.00     0.156 HD
ATOM     32  H   UNL A   1      36.944  23.167  22.549  1.00  0.00     0.156 HD
ENDBRANCH  10  30
ENDBRANCH   5   7
ENDBRANCH   1   5
BRANCH   3  33
ATOM     33  C   UNL A   1      34.007  28.115  26.414  1.00  0.00     0.116 C 
BRANCH  33  34
ATOM     34  C   UNL A   1      33.714  29.611  26.540  1.00  0.00     0.021 C 
BRANCH  34  35
ATOM     35  C   UNL A   1      32.437  30.056  25.818  1.00  0.00     0.002 C 
BRANCH  35  36
ATOM     36  C   UNL A   1      31.402  30.763  26.703  1.00  0.00     0.002 C 
BRANCH  36  37
ATOM     37  C   UNL A   1      31.403  32.294  26.623  1.00  0.00     0.021 C 
BRANCH  37  38
ATOM     38  C   UNL A   1      32.733  32.950  26.983  1.00  0.00     0.116 C 
BRANCH  38  39
ATOM     39  N   UNL A   1      32.543  34.241  27.626  1.00  0.00    -0.352 N 
ATOM     40  C   UNL A   1      33.111  34.743  28.769  1.00  0.00     0.251 C 
ATOM     41  H   UNL A   1      31.911  34.845  27.172  1.00  0.00     0.163 HD
ATOM     42  O   UNL A   1      32.662  35.762  29.284  1.00  0.00    -0.269 OA
BRANCH  40  43
ATOM     43  C   UNL A   1      34.263  34.056  29.390  1.00  0.00     0.039 A 
ATOM     44  C   UNL A   1      34.023  33.055  30.335  1.00  0.00     0.014 A 
ATOM     45  C   UNL A   1      35.574  34.425  29.075  1.00  0.00     0.014 A 
ATOM     46  C   UNL A   1      35.098  32.388  30.927  1.00  0.00     0.010 A 
ATOM     47  C   UNL A   1      36.643  33.714  29.614  1.00  0.00     0.010 A 
ATOM     48  C   UNL A   1      36.416  32.696  30.552  1.00  0.00    -0.014 A 
BRANCH  48  49
ATOM     49  C   UNL A   1      37.571  31.975  31.141  1.00  0.00     0.031 A 
ATOM     50  C   UNL A   1      38.037  32.305  32.531  1.00  0.00     0.074 A 
ATOM     51  C   UNL A   1      38.234  31.063  30.405  1.00  0.00     0.049 A 
ATOM     52  N   UNL A   1      39.057  31.829  33.199  1.00  0.00    -0.248 NA
ATOM     53  C   UNL A   1      37.267  33.326  33.257  1.00  0.00     0.031 C 
ATOM     54  C   UNL A   1      37.899  30.680  29.033  1.00  0.00     0.029 A 
ATOM     55  N   UNL A   1      39.331  30.296  30.707  1.00  0.00    -0.354 N 
ATOM     56  C   UNL A   1      39.057  32.499  34.415  1.00  0.00     0.074 A 
ATOM     57  C   UNL A   1      37.972  33.456  34.369  1.00  0.00     0.031 C 
ATOM     58  C   UNL A   1      38.752  29.729  28.623  1.00  0.00     0.029 A 
ATOM     59  C   UNL A   1      39.714  29.461  29.688  1.00  0.00     0.049 A 
ATOM     60  H   UNL A   1      39.798  30.342  31.572  1.00  0.00     0.167 HD
ATOM     61  C   UNL A   1      39.872  32.317  35.482  1.00  0.00     0.037 A 
ATOM     62  C   UNL A   1      40.729  28.579  29.622  1.00  0.00     0.037 A 
ATOM     63  C   UNL A   1      40.938  31.353  35.530  1.00  0.00     0.049 A 
ATOM     64  C   UNL A   1      41.637  28.413  30.810  1.00  0.00     0.074 A 
ATOM     65  C   UNL A   1      41.791  31.055  36.579  1.00  0.00     0.029 A 
ATOM     66  N   UNL A   1      41.302  30.527  34.475  1.00  0.00    -0.354 N 
ATOM     67  N   UNL A   1      41.593  29.010  31.975  1.00  0.00    -0.248 NA
ATOM     68  C   UNL A   1      42.735  27.447  30.670  1.00  0.00     0.031 C 
ATOM     69  C   UNL A   1      42.697  30.080  36.145  1.00  0.00     0.029 A 
ATOM     70  C   UNL A   1      42.379  29.737  34.840  1.00  0.00     0.049 A 
ATOM     71  H   UNL A   1      40.859  30.508  33.596  1.00  0.00     0.167 HD
ATOM     72  C   UNL A   1      42.633  28.472  32.720  1.00  0.00     0.074 A 
ATOM     73  C   UNL A   1      43.287  27.493  31.875  1.00  0.00     0.031 C 
ATOM     74  C   UNL A   1      43.013  28.761  33.989  1.00  0.00     0.037 A 
BRANCH  61  75
ATOM     75  C   UNL A   1      39.633  33.187  36.684  1.00  0.00     0.064 A 
ATOM     76  C   UNL A   1      40.310  34.405  36.857  1.00  0.00     0.173 A 
ATOM     77  C   UNL A   1      38.719  32.801  37.674  1.00  0.00     0.173 A 
ATOM     78  F   UNL A   1      41.205  34.815  35.946  1.00  0.00    -0.203 F 
ATOM     79  C   UNL A   1      40.111  35.181  37.995  1.00  0.00     0.198 A 
ATOM     80  C   UNL A   1      38.498  33.596  38.796  1.00  0.00     0.198 A 
ATOM     81  F   UNL A   1      38.040  31.649  37.558  1.00  0.00    -0.203 F 
ATOM     82  F   UNL A   1      40.815  36.309  38.168  1.00  0.00    -0.200 F 
ATOM     83  C   UNL A   1      39.202  34.779  38.962  1.00  0.00     0.200 A 
ATOM     84  F   UNL A   1      37.609  33.211  39.723  1.00  0.00    -0.200 F 
ATOM     85  F   UNL A   1      39.012  35.526  40.058  1.00  0.00    -0.200 F 
ENDBRANCH  61  75
BRANCH  62  86
ATOM     86  C   UNL A   1      40.908  27.748  28.405  1.00  0.00     0.064 A 
ATOM     87  C   UNL A   1      41.703  28.201  27.343  1.00  0.00     0.173 A 
ATOM     88  C   UNL A   1      40.302  26.490  28.278  1.00  0.00     0.173 A 
ATOM     89  F   UNL A   1      42.285  29.407  27.410  1.00  0.00    -0.203 F 
ATOM     90  C   UNL A   1      41.876  27.432  26.194  1.00  0.00     0.198 A 
ATOM     91  C   UNL A   1      40.497  25.710  27.139  1.00  0.00     0.198 A 
ATOM     92  F   UNL A   1      39.535  26.010  29.267  1.00  0.00    -0.203 F 
ATOM     93  F   UNL A   1      42.612  27.905  25.179  1.00  0.00    -0.200 F 
ATOM     94  C   UNL A   1      41.278  26.185  26.096  1.00  0.00     0.200 A 
ATOM     95  F   UNL A   1      39.928  24.500  27.052  1.00  0.00    -0.200 F 
ATOM     96  F   UNL A   1      41.450  25.442  24.994  1.00  0.00    -0.200 F 
ENDBRANCH  62  86
BRANCH  74  97
ATOM     97  C   UNL A   1      44.162  27.980  34.556  1.00  0.00     0.064 A 
ATOM     98  C   UNL A   1      45.493  28.376  34.354  1.00  0.00     0.173 A 
ATOM     99  C   UNL A   1      43.927  26.838  35.337  1.00  0.00     0.173 A 
ATOM    100  F   UNL A   1      45.769  29.450  33.600  1.00  0.00    -0.203 F 
ATOM    101  C   UNL A   1      46.546  27.643  34.893  1.00  0.00     0.198 A 
ATOM    102  C   UNL A   1      44.981  26.124  35.899  1.00  0.00     0.198 A 
ATOM    103  F   UNL A   1      42.672  26.420  35.563  1.00  0.00    -0.203 F 
ATOM    104  F   UNL A   1      47.811  28.012  34.649  1.00  0.00    -0.200 F 
ATOM    105  C   UNL A   1      46.290  26.523  35.671  1.00  0.00     0.200 A 
ATOM    106  F   UNL A   1      44.731  25.049  36.659  1.00  0.00    -0.200 F 
ATOM    107  F   UNL A   1      47.305  25.822  36.194  1.00  0.00    -0.200 F 
ENDBRANCH  74  97
ENDBRANCH  48  49
ENDBRANCH  40  43
ENDBRANCH  38  39
ENDBRANCH  37  38
ENDBRANCH  36  37
ENDBRANCH  35  36
ENDBRANCH  34  35
ENDBRANCH  33  34
ENDBRANCH   3  33
TORSDOF 23
ENDMDL
