MODEL 1
REMARK VINA RESULT:     -12.6      0.000      0.000
REMARK SMILES COc1ccc(F)cc1[C@H](C)NC(=O)[C@H]1CC=CC[C@@H]1C(=O)NCCCCCCNC(=O)c1ccc(-c2c3nc(c(-c4c(F)c(F)c(F)c(F)c4F)c4ccc([nH]4)c(-c4c(F)c(F)c(F)c(F)c4F)c4nc(c(-c5c(F)c(F)c(F)c(F)c5F)c5ccc2[nH]5)C=C4)C=C3)cc1
REMARK SMILES IDX 25 1 24 2 23 3 21 4 22 5 20 7 15 8 16 9 17 10 19 11 18 12
REMARK SMILES IDX 13 13 12 14 14 16 10 17 11 18 9 19 3 20 4 21 5 22 8 23 6 24
REMARK SMILES IDX 7 25 2 26 1 27 26 28 27 29 28 30 29 31 30 32 31 33 32 35
REMARK SMILES IDX 33 36 34 37 95 38 35 39 94 40 36 41 37 42 38 43 88 44 39 45
REMARK SMILES IDX 93 46 87 47 89 48 40 49 92 50 86 51 85 52 41 54 73 55 53 56
REMARK SMILES IDX 72 57 54 58 57 59 71 60 90 61 55 62 56 63 70 65 91 66 58 67
REMARK SMILES IDX 42 68 43 69 51 70 44 71 45 72 49 73 52 74 46 75 47 76 50 77
REMARK SMILES IDX 48 78 74 79 75 80 83 81 76 82 77 83 81 84 84 85 78 86 79 87
REMARK SMILES IDX 82 88 80 89 59 90 60 91 68 92 61 93 62 94 66 95 69 96 63 97
REMARK SMILES IDX 64 98 67 99 65 100
REMARK H PARENT 23 6 12 15 30 34 89 53 57 64
REMARK Flexibility Score: inf
ROOT
ATOM      1  C   UNL A   1      35.594  22.918  23.724  1.00  0.00     0.021 C 
ENDROOT
BRANCH   1   2
ATOM      2  C   UNL A   1      35.399  24.016  24.762  1.00  0.00     0.116 C 
BRANCH   2   3
ATOM      3  N   UNL A   1      34.743  25.169  24.189  1.00  0.00    -0.356 N 
ATOM      4  C   UNL A   1      33.546  25.728  24.502  1.00  0.00     0.224 C 
ATOM      5  O   UNL A   1      33.150  26.632  23.763  1.00  0.00    -0.275 OA
ATOM      6  H   UNL A   1      35.236  25.613  23.462  1.00  0.00     0.163 HD
BRANCH   4   7
ATOM      7  C   UNL A   1      32.739  25.198  25.688  1.00  0.00     0.095 C 
ATOM      8  C   UNL A   1      31.711  24.159  25.184  1.00  0.00     0.095 C 
ATOM      9  C   UNL A   1      30.567  24.839  24.405  1.00  0.00     0.041 C 
ATOM     10  C   UNL A   1      30.071  26.114  25.022  1.00  0.00    -0.030 C 
ATOM     11  C   UNL A   1      32.076  26.337  26.492  1.00  0.00     0.041 C 
ATOM     12  C   UNL A   1      30.741  26.775  25.974  1.00  0.00    -0.030 C 
BRANCH   8  13
ATOM     13  C   UNL A   1      31.190  23.307  26.342  1.00  0.00     0.224 C 
ATOM     14  N   UNL A   1      31.825  22.156  26.693  1.00  0.00    -0.349 N 
ATOM     15  H   UNL A   1      31.375  21.639  27.400  1.00  0.00     0.164 HD
ATOM     16  O   UNL A   1      30.196  23.616  27.004  1.00  0.00    -0.275 OA
BRANCH  14  17
ATOM     17  C   UNL A   1      33.060  21.560  26.197  1.00  0.00     0.113 C 
ATOM     18  C   UNL A   1      33.987  21.451  27.423  1.00  0.00     0.036 C 
BRANCH  17  19
ATOM     19  C   UNL A   1      32.813  20.250  25.441  1.00  0.00     0.019 A 
ATOM     20  C   UNL A   1      32.530  20.212  24.055  1.00  0.00     0.124 A 
ATOM     21  C   UNL A   1      32.447  18.999  23.355  1.00  0.00     0.050 A 
ATOM     22  C   UNL A   1      32.624  17.793  24.021  1.00  0.00     0.043 A 
ATOM     23  C   UNL A   1      32.996  19.008  26.083  1.00  0.00     0.049 A 
ATOM     24  C   UNL A   1      32.895  17.809  25.378  1.00  0.00     0.123 A 
ATOM     25  F   UNL A   1      33.101  16.653  26.022  1.00  0.00    -0.207 F 
BRANCH  20  26
ATOM     26  O   UNL A   1      32.476  21.380  23.346  1.00  0.00    -0.496 OA
ATOM     27  C   UNL A   1      31.796  21.272  22.099  1.00  0.00     0.278 C 
ENDBRANCH  20  26
ENDBRANCH  17  19
ENDBRANCH  14  17
ENDBRANCH   8  13
ENDBRANCH   4   7
ENDBRANCH   2   3
ENDBRANCH   1   2
BRANCH   1  28
ATOM     28  C   UNL A   1      36.840  22.050  23.942  1.00  0.00     0.002 C 
BRANCH  28  29
ATOM     29  C   UNL A   1      36.690  20.935  24.981  1.00  0.00     0.002 C 
BRANCH  29  30
ATOM     30  C   UNL A   1      37.823  19.909  25.001  1.00  0.00     0.021 C 
BRANCH  30  31
ATOM     31  C   UNL A   1      39.073  20.354  25.749  1.00  0.00     0.116 C 
BRANCH  31  32
ATOM     32  N   UNL A   1      40.039  19.280  25.905  1.00  0.00    -0.352 N 
ATOM     33  C   UNL A   1      41.390  19.359  26.129  1.00  0.00     0.251 C 
ATOM     34  H   UNL A   1      39.674  18.369  25.841  1.00  0.00     0.163 HD
ATOM     35  O   UNL A   1      42.089  18.351  26.072  1.00  0.00    -0.269 OA
BRANCH  33  36
ATOM     36  C   UNL A   1      42.009  20.671  26.412  1.00  0.00     0.039 A 
ATOM     37  C   UNL A   1      42.348  21.500  25.341  1.00  0.00     0.014 A 
ATOM     38  C   UNL A   1      42.247  21.086  27.726  1.00  0.00     0.014 A 
ATOM     39  C   UNL A   1      42.868  22.770  25.588  1.00  0.00     0.010 A 
ATOM     40  C   UNL A   1      42.694  22.381  27.972  1.00  0.00     0.010 A 
ATOM     41  C   UNL A   1      43.011  23.236  26.907  1.00  0.00    -0.014 A 
BRANCH  41  42
ATOM     42  C   UNL A   1      43.485  24.616  27.186  1.00  0.00     0.031 A 
ATOM     43  C   UNL A   1      42.533  25.648  27.725  1.00  0.00     0.074 A 
ATOM     44  C   UNL A   1      44.760  24.952  26.905  1.00  0.00     0.049 A 
ATOM     45  N   UNL A   1      42.741  26.919  27.962  1.00  0.00    -0.248 NA
ATOM     46  C   UNL A   1      41.160  25.204  28.017  1.00  0.00     0.031 C 
ATOM     47  C   UNL A   1      45.767  24.050  26.343  1.00  0.00     0.029 A 
ATOM     48  N   UNL A   1      45.427  26.145  27.044  1.00  0.00    -0.354 N 
ATOM     49  C   UNL A   1      41.531  27.422  28.418  1.00  0.00     0.074 A 
ATOM     50  C   UNL A   1      40.577  26.337  28.381  1.00  0.00     0.031 C 
ATOM     51  C   UNL A   1      46.925  24.714  26.205  1.00  0.00     0.029 A 
ATOM     52  C   UNL A   1      46.735  26.099  26.624  1.00  0.00     0.049 A 
ATOM     53  H   UNL A   1      45.007  26.957  27.409  1.00  0.00     0.167 HD
ATOM     54  C   UNL A   1      41.252  28.673  28.851  1.00  0.00     0.037 A 
ATOM     55  C   UNL A   1      47.672  27.067  26.567  1.00  0.00     0.037 A 
ATOM     56  C   UNL A   1      42.215  29.740  28.921  1.00  0.00     0.049 A 
ATOM     57  C   UNL A   1      47.325  28.452  27.044  1.00  0.00     0.074 A 
ATOM     58  C   UNL A   1      42.036  31.024  29.406  1.00  0.00     0.029 A 
ATOM     59  N   UNL A   1      43.531  29.650  28.498  1.00  0.00    -0.354 N 
ATOM     60  N   UNL A   1      46.192  28.898  27.533  1.00  0.00    -0.248 NA
ATOM     61  C   UNL A   1      48.384  29.469  26.968  1.00  0.00     0.031 C 
ATOM     62  C   UNL A   1      43.227  31.728  29.224  1.00  0.00     0.029 A 
ATOM     63  C   UNL A   1      44.168  30.866  28.688  1.00  0.00     0.049 A 
ATOM     64  H   UNL A   1      43.950  28.843  28.120  1.00  0.00     0.167 HD
ATOM     65  C   UNL A   1      46.412  30.232  27.847  1.00  0.00     0.074 A 
ATOM     66  C   UNL A   1      47.788  30.523  27.511  1.00  0.00     0.031 C 
ATOM     67  C   UNL A   1      45.545  31.136  28.366  1.00  0.00     0.037 A 
BRANCH  54  68
ATOM     68  C   UNL A   1      39.858  28.976  29.313  1.00  0.00     0.064 A 
ATOM     69  C   UNL A   1      39.477  28.712  30.637  1.00  0.00     0.173 A 
ATOM     70  C   UNL A   1      38.866  29.396  28.414  1.00  0.00     0.173 A 
ATOM     71  F   UNL A   1      40.387  28.302  31.533  1.00  0.00    -0.203 F 
ATOM     72  C   UNL A   1      38.147  28.824  31.036  1.00  0.00     0.198 A 
ATOM     73  C   UNL A   1      37.542  29.534  28.823  1.00  0.00     0.198 A 
ATOM     74  F   UNL A   1      39.182  29.671  27.139  1.00  0.00    -0.203 F 
ATOM     75  F   UNL A   1      37.798  28.514  32.292  1.00  0.00    -0.200 F 
ATOM     76  C   UNL A   1      37.182  29.231  30.128  1.00  0.00     0.200 A 
ATOM     77  F   UNL A   1      36.613  29.946  27.950  1.00  0.00    -0.200 F 
ATOM     78  F   UNL A   1      35.901  29.329  30.510  1.00  0.00    -0.200 F 
ENDBRANCH  54  68
BRANCH  55  79
ATOM     79  C   UNL A   1      49.030  26.758  26.045  1.00  0.00     0.064 A 
ATOM     80  C   UNL A   1      50.016  26.190  26.867  1.00  0.00     0.173 A 
ATOM     81  C   UNL A   1      49.369  27.017  24.710  1.00  0.00     0.173 A 
ATOM     82  F   UNL A   1      49.748  25.926  28.154  1.00  0.00    -0.203 F 
ATOM     83  C   UNL A   1      51.289  25.906  26.376  1.00  0.00     0.198 A 
ATOM     84  C   UNL A   1      50.632  26.700  24.211  1.00  0.00     0.198 A 
ATOM     85  F   UNL A   1      48.457  27.540  23.877  1.00  0.00    -0.203 F 
ATOM     86  F   UNL A   1      52.220  25.393  27.193  1.00  0.00    -0.200 F 
ATOM     87  C   UNL A   1      51.593  26.152  25.047  1.00  0.00     0.200 A 
ATOM     88  F   UNL A   1      50.911  26.911  22.918  1.00  0.00    -0.200 F 
ATOM     89  F   UNL A   1      52.808  25.854  24.569  1.00  0.00    -0.200 F 
ENDBRANCH  55  79
BRANCH  67  90
ATOM     90  C   UNL A   1      46.054  32.521  28.641  1.00  0.00     0.064 A 
ATOM     91  C   UNL A   1      45.996  33.508  27.644  1.00  0.00     0.173 A 
ATOM     92  C   UNL A   1      46.689  32.843  29.849  1.00  0.00     0.173 A 
ATOM     93  F   UNL A   1      45.409  33.246  26.466  1.00  0.00    -0.203 F 
ATOM     94  C   UNL A   1      46.574  34.759  27.839  1.00  0.00     0.198 A 
ATOM     95  C   UNL A   1      47.237  34.107  30.052  1.00  0.00     0.198 A 
ATOM     96  F   UNL A   1      46.761  31.939  30.837  1.00  0.00    -0.203 F 
ATOM     97  F   UNL A   1      46.547  35.668  26.855  1.00  0.00    -0.200 F 
ATOM     98  C   UNL A   1      47.191  35.058  29.044  1.00  0.00     0.200 A 
ATOM     99  F   UNL A   1      47.812  34.404  31.226  1.00  0.00    -0.200 F 
ATOM    100  F   UNL A   1      47.743  36.264  29.233  1.00  0.00    -0.200 F 
ENDBRANCH  67  90
ENDBRANCH  41  42
ENDBRANCH  33  36
ENDBRANCH  31  32
ENDBRANCH  30  31
ENDBRANCH  29  30
ENDBRANCH  28  29
ENDBRANCH   1  28
TORSDOF 17
ENDMDL
MODEL 2
REMARK VINA RESULT:     -12.4      5.375      9.817
REMARK SMILES COc1ccc(F)cc1[C@H](C)NC(=O)[C@H]1CC=CC[C@@H]1C(=O)NCCCCCCNC(=O)c1ccc(-c2c3nc(c(-c4c(F)c(F)c(F)c(F)c4F)c4ccc([nH]4)c(-c4c(F)c(F)c(F)c(F)c4F)c4nc(c(-c5c(F)c(F)c(F)c(F)c5F)c5ccc2[nH]5)C=C4)C=C3)cc1
REMARK SMILES IDX 25 1 24 2 23 3 21 4 22 5 20 7 15 8 16 9 17 10 19 11 18 12
REMARK SMILES IDX 13 13 12 14 14 16 10 17 11 18 9 19 3 20 4 21 5 22 8 23 6 24
REMARK SMILES IDX 7 25 2 26 1 27 26 28 27 29 28 30 29 31 30 32 31 33 32 35
REMARK SMILES IDX 33 36 34 37 95 38 35 39 94 40 36 41 37 42 38 43 88 44 39 45
REMARK SMILES IDX 93 46 87 47 89 48 40 49 92 50 86 51 85 52 41 54 73 55 53 56
REMARK SMILES IDX 72 57 54 58 57 59 71 60 90 61 55 62 56 63 70 65 91 66 58 67
REMARK SMILES IDX 42 68 43 69 51 70 44 71 45 72 49 73 52 74 46 75 47 76 50 77
REMARK SMILES IDX 48 78 74 79 75 80 83 81 76 82 77 83 81 84 84 85 78 86 79 87
REMARK SMILES IDX 82 88 80 89 59 90 60 91 68 92 61 93 62 94 66 95 69 96 63 97
REMARK SMILES IDX 64 98 67 99 65 100
REMARK H PARENT 23 6 12 15 30 34 89 53 57 64
REMARK Flexibility Score: inf
ROOT
ATOM      1  C   UNL A   1      32.752  28.183  26.293  1.00  0.00     0.021 C 
ENDROOT
BRANCH   1   2
ATOM      2  C   UNL A   1      31.907  26.966  25.942  1.00  0.00     0.116 C 
BRANCH   2   3
ATOM      3  N   UNL A   1      32.546  25.743  26.373  1.00  0.00    -0.356 N 
ATOM      4  C   UNL A   1      33.273  24.848  25.656  1.00  0.00     0.224 C 
ATOM      5  O   UNL A   1      33.594  23.809  26.237  1.00  0.00    -0.275 OA
ATOM      6  H   UNL A   1      32.437  25.527  27.327  1.00  0.00     0.163 HD
BRANCH   4   7
ATOM      7  C   UNL A   1      33.608  25.129  24.191  1.00  0.00     0.095 C 
ATOM      8  C   UNL A   1      32.328  24.980  23.336  1.00  0.00     0.095 C 
ATOM      9  C   UNL A   1      31.916  23.500  23.203  1.00  0.00     0.041 C 
ATOM     10  C   UNL A   1      33.061  22.558  22.972  1.00  0.00    -0.030 C 
ATOM     11  C   UNL A   1      34.762  24.241  23.680  1.00  0.00     0.041 C 
ATOM     12  C   UNL A   1      34.340  22.898  23.168  1.00  0.00    -0.030 C 
BRANCH   8  13
ATOM     13  C   UNL A   1      32.507  25.651  21.973  1.00  0.00     0.224 C 
ATOM     14  N   UNL A   1      32.258  26.980  21.819  1.00  0.00    -0.349 N 
ATOM     15  H   UNL A   1      32.329  27.305  20.892  1.00  0.00     0.164 HD
ATOM     16  O   UNL A   1      32.883  25.038  20.971  1.00  0.00    -0.275 OA
BRANCH  14  17
ATOM     17  C   UNL A   1      31.902  28.002  22.796  1.00  0.00     0.113 C 
ATOM     18  C   UNL A   1      33.059  29.018  22.770  1.00  0.00     0.036 C 
BRANCH  17  19
ATOM     19  C   UNL A   1      30.507  28.586  22.548  1.00  0.00     0.019 A 
ATOM     20  C   UNL A   1      29.323  27.936  22.966  1.00  0.00     0.124 A 
ATOM     21  C   UNL A   1      28.067  28.552  22.856  1.00  0.00     0.050 A 
ATOM     22  C   UNL A   1      27.957  29.822  22.307  1.00  0.00     0.043 A 
ATOM     23  C   UNL A   1      30.360  29.878  22.004  1.00  0.00     0.049 A 
ATOM     24  C   UNL A   1      29.104  30.473  21.886  1.00  0.00     0.123 A 
ATOM     25  F   UNL A   1      29.012  31.713  21.387  1.00  0.00    -0.207 F 
BRANCH  20  26
ATOM     26  O   UNL A   1      29.407  26.739  23.625  1.00  0.00    -0.496 OA
ATOM     27  C   UNL A   1      28.185  26.319  24.224  1.00  0.00     0.278 C 
ENDBRANCH  20  26
ENDBRANCH  17  19
ENDBRANCH  14  17
ENDBRANCH   8  13
ENDBRANCH   4   7
ENDBRANCH   2   3
ENDBRANCH   1   2
BRANCH   1  28
ATOM     28  C   UNL A   1      31.968  29.345  26.918  1.00  0.00     0.002 C 
BRANCH  28  29
ATOM     29  C   UNL A   1      31.599  30.479  25.958  1.00  0.00     0.002 C 
BRANCH  29  30
ATOM     30  C   UNL A   1      31.393  31.844  26.615  1.00  0.00     0.021 C 
BRANCH  30  31
ATOM     31  C   UNL A   1      32.673  32.521  27.091  1.00  0.00     0.116 C 
BRANCH  31  32
ATOM     32  N   UNL A   1      32.452  33.895  27.509  1.00  0.00    -0.352 N 
ATOM     33  C   UNL A   1      33.070  34.605  28.506  1.00  0.00     0.251 C 
ATOM     34  H   UNL A   1      31.762  34.385  27.006  1.00  0.00     0.163 HD
ATOM     35  O   UNL A   1      32.648  35.710  28.835  1.00  0.00    -0.269 OA
BRANCH  33  36
ATOM     36  C   UNL A   1      34.234  34.022  29.205  1.00  0.00     0.039 A 
ATOM     37  C   UNL A   1      34.014  33.243  30.343  1.00  0.00     0.014 A 
ATOM     38  C   UNL A   1      35.535  34.233  28.737  1.00  0.00     0.014 A 
ATOM     39  C   UNL A   1      35.093  32.627  30.977  1.00  0.00     0.010 A 
ATOM     40  C   UNL A   1      36.600  33.556  29.324  1.00  0.00     0.010 A 
ATOM     41  C   UNL A   1      36.391  32.747  30.451  1.00  0.00    -0.014 A 
BRANCH  41  42
ATOM     42  C   UNL A   1      37.538  32.030  31.065  1.00  0.00     0.031 A 
ATOM     43  C   UNL A   1      38.036  32.426  32.427  1.00  0.00     0.074 A 
ATOM     44  C   UNL A   1      38.163  31.057  30.372  1.00  0.00     0.049 A 
ATOM     45  N   UNL A   1      39.066  31.969  33.094  1.00  0.00    -0.248 NA
ATOM     46  C   UNL A   1      37.297  33.490  33.126  1.00  0.00     0.031 C 
ATOM     47  C   UNL A   1      37.797  30.610  29.026  1.00  0.00     0.029 A 
ATOM     48  N   UNL A   1      39.243  30.273  30.697  1.00  0.00    -0.354 N 
ATOM     49  C   UNL A   1      39.101  32.692  34.278  1.00  0.00     0.074 A 
ATOM     50  C   UNL A   1      38.022  33.652  34.224  1.00  0.00     0.031 C 
ATOM     51  C   UNL A   1      38.623  29.620  28.651  1.00  0.00     0.029 A 
ATOM     52  C   UNL A   1      39.605  29.391  29.706  1.00  0.00     0.049 A 
ATOM     53  H   UNL A   1      39.714  30.337  31.559  1.00  0.00     0.167 HD
ATOM     54  C   UNL A   1      39.945  32.547  35.325  1.00  0.00     0.037 A 
ATOM     55  C   UNL A   1      40.622  28.509  29.647  1.00  0.00     0.037 A 
ATOM     56  C   UNL A   1      40.995  31.564  35.391  1.00  0.00     0.049 A 
ATOM     57  C   UNL A   1      41.552  28.382  30.824  1.00  0.00     0.074 A 
ATOM     58  C   UNL A   1      41.859  31.303  36.440  1.00  0.00     0.029 A 
ATOM     59  N   UNL A   1      41.320  30.682  34.373  1.00  0.00    -0.354 N 
ATOM     60  N   UNL A   1      41.534  29.029  31.964  1.00  0.00    -0.248 NA
ATOM     61  C   UNL A   1      42.641  27.400  30.712  1.00  0.00     0.031 C 
ATOM     62  C   UNL A   1      42.745  30.304  36.036  1.00  0.00     0.029 A 
ATOM     63  C   UNL A   1      42.392  29.895  34.760  1.00  0.00     0.049 A 
ATOM     64  H   UNL A   1      40.859  30.625  33.505  1.00  0.00     0.167 HD
ATOM     65  C   UNL A   1      42.585  28.515  32.712  1.00  0.00     0.074 A 
ATOM     66  C   UNL A   1      43.212  27.490  31.906  1.00  0.00     0.031 C 
ATOM     67  C   UNL A   1      42.995  28.864  33.955  1.00  0.00     0.037 A 
BRANCH  54  68
ATOM     68  C   UNL A   1      39.774  33.447  36.513  1.00  0.00     0.064 A 
ATOM     69  C   UNL A   1      38.844  33.130  37.515  1.00  0.00     0.173 A 
ATOM     70  C   UNL A   1      40.427  34.687  36.589  1.00  0.00     0.173 A 
ATOM     71  F   UNL A   1      38.190  31.960  37.483  1.00  0.00    -0.203 F 
ATOM     72  C   UNL A   1      38.550  34.035  38.531  1.00  0.00     0.198 A 
ATOM     73  C   UNL A   1      40.150  35.578  37.621  1.00  0.00     0.198 A 
ATOM     74  F   UNL A   1      41.332  35.032  35.660  1.00  0.00    -0.203 F 
ATOM     75  F   UNL A   1      37.619  33.733  39.446  1.00  0.00    -0.200 F 
ATOM     76  C   UNL A   1      39.200  35.259  38.581  1.00  0.00     0.200 A 
ATOM     77  F   UNL A   1      40.793  36.752  37.680  1.00  0.00    -0.200 F 
ATOM     78  F   UNL A   1      38.908  36.134  39.553  1.00  0.00    -0.200 F 
ENDBRANCH  54  68
BRANCH  55  79
ATOM     79  C   UNL A   1      40.810  27.671  28.432  1.00  0.00     0.064 A 
ATOM     80  C   UNL A   1      40.111  26.467  28.260  1.00  0.00     0.173 A 
ATOM     81  C   UNL A   1      41.689  28.061  27.412  1.00  0.00     0.173 A 
ATOM     82  F   UNL A   1      39.260  26.043  29.207  1.00  0.00    -0.203 F 
ATOM     83  C   UNL A   1      40.293  25.682  27.124  1.00  0.00     0.198 A 
ATOM     84  C   UNL A   1      41.844  27.293  26.260  1.00  0.00     0.198 A 
ATOM     85  F   UNL A   1      42.367  29.214  27.517  1.00  0.00    -0.203 F 
ATOM     86  F   UNL A   1      39.633  24.520  27.003  1.00  0.00    -0.200 F 
ATOM     87  C   UNL A   1      41.151  26.100  26.120  1.00  0.00     0.200 A 
ATOM     88  F   UNL A   1      42.652  27.716  25.278  1.00  0.00    -0.200 F 
ATOM     89  F   UNL A   1      41.305  25.358  25.015  1.00  0.00    -0.200 F 
ENDBRANCH  55  79
BRANCH  67  90
ATOM     90  C   UNL A   1      44.154  28.119  34.551  1.00  0.00     0.064 A 
ATOM     91  C   UNL A   1      43.932  26.973  35.330  1.00  0.00     0.173 A 
ATOM     92  C   UNL A   1      45.468  28.593  34.436  1.00  0.00     0.173 A 
ATOM     93  F   UNL A   1      42.691  26.486  35.481  1.00  0.00    -0.203 F 
ATOM     94  C   UNL A   1      44.982  26.341  35.991  1.00  0.00     0.198 A 
ATOM     95  C   UNL A   1      46.520  27.940  35.072  1.00  0.00     0.198 A 
ATOM     96  F   UNL A   1      45.732  29.679  33.694  1.00  0.00    -0.203 F 
ATOM     97  F   UNL A   1      44.740  25.277  36.768  1.00  0.00    -0.200 F 
ATOM     98  C   UNL A   1      46.275  26.824  35.858  1.00  0.00     0.200 A 
ATOM     99  F   UNL A   1      47.773  28.392  34.924  1.00  0.00    -0.200 F 
ATOM    100  F   UNL A   1      47.286  26.213  36.491  1.00  0.00    -0.200 F 
ENDBRANCH  67  90
ENDBRANCH  41  42
ENDBRANCH  33  36
ENDBRANCH  31  32
ENDBRANCH  30  31
ENDBRANCH  29  30
ENDBRANCH  28  29
ENDBRANCH   1  28
TORSDOF 17
ENDMDL
MODEL 3
REMARK VINA RESULT:     -12.2      5.380     10.956
REMARK SMILES COc1ccc(F)cc1[C@H](C)NC(=O)[C@H]1CC=CC[C@@H]1C(=O)NCCCCCCNC(=O)c1ccc(-c2c3nc(c(-c4c(F)c(F)c(F)c(F)c4F)c4ccc([nH]4)c(-c4c(F)c(F)c(F)c(F)c4F)c4nc(c(-c5c(F)c(F)c(F)c(F)c5F)c5ccc2[nH]5)C=C4)C=C3)cc1
REMARK SMILES IDX 25 1 24 2 23 3 21 4 22 5 20 7 15 8 16 9 17 10 19 11 18 12
REMARK SMILES IDX 13 13 12 14 14 16 10 17 11 18 9 19 3 20 4 21 5 22 8 23 6 24
REMARK SMILES IDX 7 25 2 26 1 27 26 28 27 29 28 30 29 31 30 32 31 33 32 35
REMARK SMILES IDX 33 36 34 37 95 38 35 39 94 40 36 41 37 42 38 43 88 44 39 45
REMARK SMILES IDX 93 46 87 47 89 48 40 49 92 50 86 51 85 52 41 54 73 55 53 56
REMARK SMILES IDX 72 57 54 58 57 59 71 60 90 61 55 62 56 63 70 65 91 66 58 67
REMARK SMILES IDX 42 68 43 69 51 70 44 71 45 72 49 73 52 74 46 75 47 76 50 77
REMARK SMILES IDX 48 78 74 79 75 80 83 81 76 82 77 83 81 84 84 85 78 86 79 87
REMARK SMILES IDX 82 88 80 89 59 90 60 91 68 92 61 93 62 94 66 95 69 96 63 97
REMARK SMILES IDX 64 98 67 99 65 100
REMARK H PARENT 23 6 12 15 30 34 89 53 57 64
REMARK Flexibility Score: inf
ROOT
ATOM      1  C   UNL A   1      32.673  28.084  26.766  1.00  0.00     0.021 C 
ENDROOT
BRANCH   1   2
ATOM      2  C   UNL A   1      31.900  26.949  26.108  1.00  0.00     0.116 C 
BRANCH   2   3
ATOM      3  N   UNL A   1      32.451  25.662  26.469  1.00  0.00    -0.356 N 
ATOM      4  C   UNL A   1      33.152  24.779  25.714  1.00  0.00     0.224 C 
ATOM      5  O   UNL A   1      33.390  23.683  26.227  1.00  0.00    -0.275 OA
ATOM      6  H   UNL A   1      32.292  25.385  27.400  1.00  0.00     0.163 HD
BRANCH   4   7
ATOM      7  C   UNL A   1      33.560  25.144  24.286  1.00  0.00     0.095 C 
ATOM      8  C   UNL A   1      32.351  24.946  23.342  1.00  0.00     0.095 C 
ATOM      9  C   UNL A   1      32.053  23.448  23.126  1.00  0.00     0.041 C 
ATOM     10  C   UNL A   1      33.273  22.595  22.937  1.00  0.00    -0.030 C 
ATOM     11  C   UNL A   1      34.804  24.357  23.821  1.00  0.00     0.041 C 
ATOM     12  C   UNL A   1      34.510  23.012  23.231  1.00  0.00    -0.030 C 
BRANCH   8  13
ATOM     13  C   UNL A   1      32.570  25.684  22.021  1.00  0.00     0.224 C 
ATOM     14  N   UNL A   1      32.295  27.012  21.918  1.00  0.00    -0.349 N 
ATOM     15  H   UNL A   1      32.396  27.383  21.012  1.00  0.00     0.164 HD
ATOM     16  O   UNL A   1      33.002  25.128  21.009  1.00  0.00    -0.275 OA
BRANCH  14  17
ATOM     17  C   UNL A   1      31.873  27.979  22.926  1.00  0.00     0.113 C 
ATOM     18  C   UNL A   1      33.024  28.997  23.026  1.00  0.00     0.036 C 
BRANCH  17  19
ATOM     19  C   UNL A   1      30.493  28.572  22.624  1.00  0.00     0.019 A 
ATOM     20  C   UNL A   1      29.290  27.950  23.032  1.00  0.00     0.124 A 
ATOM     21  C   UNL A   1      28.046  28.578  22.871  1.00  0.00     0.050 A 
ATOM     22  C   UNL A   1      27.967  29.832  22.280  1.00  0.00     0.043 A 
ATOM     23  C   UNL A   1      30.376  29.848  22.036  1.00  0.00     0.049 A 
ATOM     24  C   UNL A   1      29.132  30.455  21.867  1.00  0.00     0.123 A 
ATOM     25  F   UNL A   1      29.069  31.680  21.328  1.00  0.00    -0.207 F 
BRANCH  20  26
ATOM     26  O   UNL A   1      29.342  26.775  23.730  1.00  0.00    -0.496 OA
ATOM     27  C   UNL A   1      28.069  26.293  24.152  1.00  0.00     0.278 C 
ENDBRANCH  20  26
ENDBRANCH  17  19
ENDBRANCH  14  17
ENDBRANCH   8  13
ENDBRANCH   4   7
ENDBRANCH   2   3
ENDBRANCH   1   2
BRANCH   1  28
ATOM     28  C   UNL A   1      31.805  29.260  27.233  1.00  0.00     0.002 C 
BRANCH  28  29
ATOM     29  C   UNL A   1      31.629  30.391  26.216  1.00  0.00     0.002 C 
BRANCH  29  30
ATOM     30  C   UNL A   1      31.414  31.779  26.820  1.00  0.00     0.021 C 
BRANCH  30  31
ATOM     31  C   UNL A   1      32.619  32.706  26.731  1.00  0.00     0.116 C 
BRANCH  31  32
ATOM     32  N   UNL A   1      32.386  33.984  27.384  1.00  0.00    -0.352 N 
ATOM     33  C   UNL A   1      33.021  34.528  28.470  1.00  0.00     0.251 C 
ATOM     34  H   UNL A   1      31.672  34.536  26.991  1.00  0.00     0.163 HD
ATOM     35  O   UNL A   1      32.589  35.551  28.995  1.00  0.00    -0.269 OA
BRANCH  33  36
ATOM     36  C   UNL A   1      34.217  33.862  29.028  1.00  0.00     0.039 A 
ATOM     37  C   UNL A   1      35.473  34.423  28.786  1.00  0.00     0.014 A 
ATOM     38  C   UNL A   1      34.101  32.698  29.794  1.00  0.00     0.014 A 
ATOM     39  C   UNL A   1      36.607  33.850  29.362  1.00  0.00     0.010 A 
ATOM     40  C   UNL A   1      35.223  32.174  30.430  1.00  0.00     0.010 A 
ATOM     41  C   UNL A   1      36.488  32.743  30.219  1.00  0.00    -0.014 A 
BRANCH  41  42
ATOM     42  C   UNL A   1      37.675  32.172  30.906  1.00  0.00     0.031 A 
ATOM     43  C   UNL A   1      38.474  31.079  30.253  1.00  0.00     0.074 A 
ATOM     44  C   UNL A   1      38.001  32.603  32.142  1.00  0.00     0.049 A 
ATOM     45  N   UNL A   1      39.494  30.408  30.725  1.00  0.00    -0.248 NA
ATOM     46  C   UNL A   1      38.064  30.668  28.900  1.00  0.00     0.031 C 
ATOM     47  C   UNL A   1      37.279  33.631  32.895  1.00  0.00     0.029 A 
ATOM     48  N   UNL A   1      39.016  32.227  32.986  1.00  0.00    -0.354 N 
ATOM     49  C   UNL A   1      39.837  29.496  29.737  1.00  0.00     0.074 A 
ATOM     50  C   UNL A   1      38.891  29.661  28.656  1.00  0.00     0.031 C 
ATOM     51  C   UNL A   1      37.885  33.817  34.078  1.00  0.00     0.029 A 
ATOM     52  C   UNL A   1      39.010  32.893  34.189  1.00  0.00     0.049 A 
ATOM     53  H   UNL A   1      39.686  31.544  32.753  1.00  0.00     0.167 HD
ATOM     54  C   UNL A   1      40.866  28.617  29.726  1.00  0.00     0.037 A 
ATOM     55  C   UNL A   1      39.809  32.763  35.267  1.00  0.00     0.037 A 
ATOM     56  C   UNL A   1      41.828  28.482  30.788  1.00  0.00     0.049 A 
ATOM     57  C   UNL A   1      40.937  31.767  35.228  1.00  0.00     0.074 A 
ATOM     58  C   UNL A   1      42.941  27.661  30.835  1.00  0.00     0.029 A 
ATOM     59  N   UNL A   1      41.794  29.183  31.983  1.00  0.00    -0.354 N 
ATOM     60  N   UNL A   1      41.288  30.954  34.260  1.00  0.00    -0.248 NA
ATOM     61  C   UNL A   1      41.784  31.668  36.426  1.00  0.00     0.031 C 
ATOM     62  C   UNL A   1      43.548  27.822  32.081  1.00  0.00     0.029 A 
ATOM     63  C   UNL A   1      42.854  28.791  32.785  1.00  0.00     0.049 A 
ATOM     64  H   UNL A   1      41.118  29.857  32.225  1.00  0.00     0.167 HD
ATOM     65  C   UNL A   1      42.408  30.274  34.720  1.00  0.00     0.074 A 
ATOM     66  C   UNL A   1      42.690  30.778  36.046  1.00  0.00     0.031 C 
ATOM     67  C   UNL A   1      43.135  29.315  34.097  1.00  0.00     0.037 A 
BRANCH  54  68
ATOM     68  C   UNL A   1      41.042  27.736  28.525  1.00  0.00     0.064 A 
ATOM     69  C   UNL A   1      41.836  28.157  27.447  1.00  0.00     0.173 A 
ATOM     70  C   UNL A   1      40.318  26.543  28.382  1.00  0.00     0.173 A 
ATOM     71  F   UNL A   1      42.543  29.293  27.532  1.00  0.00    -0.203 F 
ATOM     72  C   UNL A   1      41.872  27.432  26.258  1.00  0.00     0.198 A 
ATOM     73  C   UNL A   1      40.377  25.807  27.203  1.00  0.00     0.198 A 
ATOM     74  F   UNL A   1      39.552  26.094  29.388  1.00  0.00    -0.203 F 
ATOM     75  F   UNL A   1      42.594  27.882  25.223  1.00  0.00    -0.200 F 
ATOM     76  C   UNL A   1      41.140  26.261  26.136  1.00  0.00     0.200 A 
ATOM     77  F   UNL A   1      39.684  24.666  27.092  1.00  0.00    -0.200 F 
ATOM     78  F   UNL A   1      41.166  25.571  24.988  1.00  0.00    -0.200 F 
ENDBRANCH  54  68
BRANCH  55  79
ATOM     79  C   UNL A   1      39.576  33.604  36.472  1.00  0.00     0.064 A 
ATOM     80  C   UNL A   1      40.117  34.894  36.578  1.00  0.00     0.173 A 
ATOM     81  C   UNL A   1      38.799  33.137  37.541  1.00  0.00     0.173 A 
ATOM     82  F   UNL A   1      40.872  35.390  35.586  1.00  0.00    -0.203 F 
ATOM     83  C   UNL A   1      39.901  35.677  37.709  1.00  0.00     0.198 A 
ATOM     84  C   UNL A   1      38.555  33.935  38.658  1.00  0.00     0.198 A 
ATOM     85  F   UNL A   1      38.242  31.918  37.482  1.00  0.00    -0.203 F 
ATOM     86  F   UNL A   1      40.457  36.895  37.795  1.00  0.00    -0.200 F 
ATOM     87  C   UNL A   1      39.112  35.201  38.744  1.00  0.00     0.200 A 
ATOM     88  F   UNL A   1      37.766  33.483  39.642  1.00  0.00    -0.200 F 
ATOM     89  F   UNL A   1      38.882  35.966  39.820  1.00  0.00    -0.200 F 
ENDBRANCH  55  79
BRANCH  67  90
ATOM     90  C   UNL A   1      44.331  28.761  34.814  1.00  0.00     0.064 A 
ATOM     91  C   UNL A   1      45.603  29.315  34.603  1.00  0.00     0.173 A 
ATOM     92  C   UNL A   1      44.236  27.623  35.627  1.00  0.00     0.173 A 
ATOM     93  F   UNL A   1      45.748  30.398  33.823  1.00  0.00    -0.203 F 
ATOM     94  C   UNL A   1      46.739  28.737  35.162  1.00  0.00     0.198 A 
ATOM     95  C   UNL A   1      45.372  27.067  36.212  1.00  0.00     0.198 A 
ATOM     96  F   UNL A   1      43.042  27.062  35.869  1.00  0.00    -0.203 F 
ATOM     97  F   UNL A   1      47.947  29.257  34.907  1.00  0.00    -0.200 F 
ATOM     98  C   UNL A   1      46.622  27.616  35.969  1.00  0.00     0.200 A 
ATOM     99  F   UNL A   1      45.254  25.997  37.011  1.00  0.00    -0.200 F 
ATOM    100  F   UNL A   1      47.715  27.063  36.510  1.00  0.00    -0.200 F 
ENDBRANCH  67  90
ENDBRANCH  41  42
ENDBRANCH  33  36
ENDBRANCH  31  32
ENDBRANCH  30  31
ENDBRANCH  29  30
ENDBRANCH  28  29
ENDBRANCH   1  28
TORSDOF 17
ENDMDL
