MODEL 1
REMARK VINA RESULT:     -12.5      0.000      0.000
REMARK SMILES CC[C@](C)(NC(=O)c1cccc2ncccc12)C(=O)NCCCCCCNC(=O)c1ccc(-c2c3nc(c(-c4c(F)c(F)c(F)c(F)c4F)c4ccc([nH]4)c(-c4c(F)c(F)c(F)c(F)c4F)c4nc(c(-c5c(F)c(F)c(F)c(F)c5F)c5ccc2[nH]5)C=C4)C=C3)cc1
REMARK SMILES IDX 23 1 22 2 21 3 20 4 18 5 19 6 3 8 4 9 2 10 1 11 5 12 6 13
REMARK SMILES IDX 7 15 8 16 9 17 17 18 10 19 12 20 16 21 11 22 13 23 15 24
REMARK SMILES IDX 14 25 24 26 25 27 26 28 27 29 28 30 29 32 30 33 31 34 92 35
REMARK SMILES IDX 32 36 91 37 33 38 34 39 35 40 85 41 36 42 90 43 84 44 86 45
REMARK SMILES IDX 37 46 89 47 83 48 82 49 38 51 70 52 50 53 69 54 51 55 54 56
REMARK SMILES IDX 68 57 87 58 52 59 53 60 67 62 88 63 55 64 39 65 40 66 48 67
REMARK SMILES IDX 41 68 42 69 46 70 49 71 43 72 44 73 47 74 45 75 71 76 72 77
REMARK SMILES IDX 80 78 73 79 74 80 78 81 81 82 75 83 76 84 79 85 77 86 56 87
REMARK SMILES IDX 57 88 65 89 58 90 59 91 63 92 66 93 60 94 61 95 64 96 62 97
REMARK H PARENT 20 7 5 14 27 31 86 50 54 61
REMARK Flexibility Score: inf
ROOT
ATOM      1  C   UNL A   1      32.548  29.731  27.027  1.00  0.00     0.002 C 
ENDROOT
BRANCH   1   2
ATOM      2  C   UNL A   1      33.823  29.148  26.416  1.00  0.00     0.021 C 
BRANCH   2   3
ATOM      3  C   UNL A   1      33.682  27.843  25.625  1.00  0.00     0.116 C 
BRANCH   3   4
ATOM      4  N   UNL A   1      32.726  26.876  26.144  1.00  0.00    -0.354 N 
ATOM      5  C   UNL A   1      31.598  26.308  25.604  1.00  0.00     0.245 C 
ATOM      6  O   UNL A   1      31.018  25.463  26.294  1.00  0.00    -0.272 OA
ATOM      7  H   UNL A   1      32.929  26.568  27.057  1.00  0.00     0.163 HD
BRANCH   5   8
ATOM      8  C   UNL A   1      31.114  26.652  24.170  1.00  0.00     0.116 C 
ATOM      9  C   UNL A   1      30.679  28.122  24.018  1.00  0.00     0.045 C 
BRANCH   8  10
ATOM     10  C   UNL A   1      29.816  25.774  23.986  1.00  0.00     0.035 C 
ATOM     11  C   UNL A   1      28.496  26.567  23.999  1.00  0.00     0.007 C 
ENDBRANCH   8  10
BRANCH   8  12
ATOM     12  N   UNL A   1      32.116  26.377  23.081  1.00  0.00    -0.338 N 
ATOM     13  C   UNL A   1      33.114  25.421  22.855  1.00  0.00     0.252 C 
ATOM     14  H   UNL A   1      32.055  27.030  22.347  1.00  0.00     0.164 HD
ATOM     15  O   UNL A   1      34.011  25.799  22.096  1.00  0.00    -0.269 OA
BRANCH  13  16
ATOM     16  C   UNL A   1      33.133  23.978  23.350  1.00  0.00     0.049 A 
ATOM     17  C   UNL A   1      32.361  23.035  22.689  1.00  0.00     0.014 A 
ATOM     18  C   UNL A   1      34.055  23.453  24.317  1.00  0.00     0.013 A 
ATOM     19  C   UNL A   1      32.348  21.676  22.965  1.00  0.00     0.003 A 
ATOM     20  C   UNL A   1      34.071  22.044  24.572  1.00  0.00     0.071 A 
ATOM     21  C   UNL A   1      35.025  24.181  25.046  1.00  0.00     0.013 A 
ATOM     22  C   UNL A   1      33.207  21.195  23.919  1.00  0.00     0.029 A 
ATOM     23  N   UNL A   1      34.920  21.427  25.400  1.00  0.00    -0.256 NA
ATOM     24  C   UNL A   1      35.928  23.537  25.895  1.00  0.00     0.021 A 
ATOM     25  C   UNL A   1      35.839  22.170  26.033  1.00  0.00     0.112 A 
ENDBRANCH  13  16
ENDBRANCH   8  12
ENDBRANCH   5   8
ENDBRANCH   3   4
ENDBRANCH   2   3
ENDBRANCH   1   2
BRANCH   1  26
ATOM     26  C   UNL A   1      31.815  30.754  26.170  1.00  0.00     0.002 C 
BRANCH  26  27
ATOM     27  C   UNL A   1      31.491  32.057  26.890  1.00  0.00     0.021 C 
BRANCH  27  28
ATOM     28  C   UNL A   1      32.715  32.798  27.411  1.00  0.00     0.116 C 
BRANCH  28  29
ATOM     29  N   UNL A   1      32.448  34.212  27.628  1.00  0.00    -0.352 N 
ATOM     30  C   UNL A   1      32.985  35.040  28.582  1.00  0.00     0.251 C 
ATOM     31  H   UNL A   1      31.800  34.627  27.014  1.00  0.00     0.163 HD
ATOM     32  O   UNL A   1      32.518  36.155  28.793  1.00  0.00    -0.269 OA
BRANCH  30  33
ATOM     33  C   UNL A   1      34.131  34.552  29.371  1.00  0.00     0.039 A 
ATOM     34  C   UNL A   1      33.905  33.985  30.625  1.00  0.00     0.014 A 
ATOM     35  C   UNL A   1      35.419  34.600  28.829  1.00  0.00     0.014 A 
ATOM     36  C   UNL A   1      34.971  33.408  31.314  1.00  0.00     0.010 A 
ATOM     37  C   UNL A   1      36.459  33.947  29.476  1.00  0.00     0.010 A 
ATOM     38  C   UNL A   1      36.248  33.353  30.729  1.00  0.00    -0.014 A 
BRANCH  38  39
ATOM     39  C   UNL A   1      37.379  32.683  31.417  1.00  0.00     0.031 A 
ATOM     40  C   UNL A   1      38.066  31.515  30.768  1.00  0.00     0.074 A 
ATOM     41  C   UNL A   1      37.744  33.086  32.649  1.00  0.00     0.049 A 
ATOM     42  N   UNL A   1      39.039  30.768  31.225  1.00  0.00    -0.248 NA
ATOM     43  C   UNL A   1      37.570  31.112  29.443  1.00  0.00     0.031 C 
ATOM     44  C   UNL A   1      37.113  34.169  33.404  1.00  0.00     0.029 A 
ATOM     45  N   UNL A   1      38.727  32.624  33.487  1.00  0.00    -0.354 N 
ATOM     46  C   UNL A   1      39.263  29.806  30.249  1.00  0.00     0.074 A 
ATOM     47  C   UNL A   1      38.278  30.018  29.211  1.00  0.00     0.031 C 
ATOM     48  C   UNL A   1      37.742  34.307  34.582  1.00  0.00     0.029 A 
ATOM     49  C   UNL A   1      38.792  33.297  34.682  1.00  0.00     0.049 A 
ATOM     50  H   UNL A   1      39.328  31.881  33.253  1.00  0.00     0.167 HD
ATOM     51  C   UNL A   1      40.220  28.849  30.209  1.00  0.00     0.037 A 
ATOM     52  C   UNL A   1      39.603  33.115  35.741  1.00  0.00     0.037 A 
ATOM     53  C   UNL A   1      41.202  28.652  31.244  1.00  0.00     0.049 A 
ATOM     54  C   UNL A   1      40.652  32.038  35.682  1.00  0.00     0.074 A 
ATOM     55  C   UNL A   1      42.253  27.753  31.276  1.00  0.00     0.029 A 
ATOM     56  N   UNL A   1      41.246  29.361  32.437  1.00  0.00    -0.354 N 
ATOM     57  N   UNL A   1      40.910  31.186  34.720  1.00  0.00    -0.248 NA
ATOM     58  C   UNL A   1      41.530  31.906  36.853  1.00  0.00     0.031 C 
ATOM     59  C   UNL A   1      42.894  27.875  32.514  1.00  0.00     0.029 A 
ATOM     60  C   UNL A   1      42.286  28.897  33.226  1.00  0.00     0.049 A 
ATOM     61  H   UNL A   1      40.629  30.087  32.685  1.00  0.00     0.167 HD
ATOM     62  C   UNL A   1      41.992  30.433  35.156  1.00  0.00     0.074 A 
ATOM     63  C   UNL A   1      42.353  30.942  36.463  1.00  0.00     0.031 C 
ATOM     64  C   UNL A   1      42.630  29.413  34.529  1.00  0.00     0.037 A 
BRANCH  51  65
ATOM     65  C   UNL A   1      40.240  27.942  29.012  1.00  0.00     0.064 A 
ATOM     66  C   UNL A   1      39.549  26.719  28.997  1.00  0.00     0.173 A 
ATOM     67  C   UNL A   1      40.958  28.300  27.860  1.00  0.00     0.173 A 
ATOM     68  F   UNL A   1      38.856  26.322  30.075  1.00  0.00    -0.203 F 
ATOM     69  C   UNL A   1      39.615  25.870  27.895  1.00  0.00     0.198 A 
ATOM     70  C   UNL A   1      40.989  27.464  26.745  1.00  0.00     0.198 A 
ATOM     71  F   UNL A   1      41.631  29.459  27.813  1.00  0.00    -0.203 F 
ATOM     72  F   UNL A   1      39.006  24.676  27.936  1.00  0.00    -0.200 F 
ATOM     73  C   UNL A   1      40.330  26.245  26.770  1.00  0.00     0.200 A 
ATOM     74  F   UNL A   1      41.669  27.836  25.651  1.00  0.00    -0.200 F 
ATOM     75  F   UNL A   1      40.393  25.426  25.710  1.00  0.00    -0.200 F 
ENDBRANCH  51  65
BRANCH  52  76
ATOM     76  C   UNL A   1      39.465  33.994  36.932  1.00  0.00     0.064 A 
ATOM     77  C   UNL A   1      38.727  33.584  38.050  1.00  0.00     0.173 A 
ATOM     78  C   UNL A   1      40.086  35.252  36.985  1.00  0.00     0.173 A 
ATOM     79  F   UNL A   1      38.100  32.399  38.042  1.00  0.00    -0.203 F 
ATOM     80  C   UNL A   1      38.606  34.403  39.172  1.00  0.00     0.198 A 
ATOM     81  C   UNL A   1      39.989  36.056  38.118  1.00  0.00     0.198 A 
ATOM     82  F   UNL A   1      40.809  35.688  35.944  1.00  0.00    -0.203 F 
ATOM     83  F   UNL A   1      37.864  34.002  40.213  1.00  0.00    -0.200 F 
ATOM     84  C   UNL A   1      39.243  35.633  39.208  1.00  0.00     0.200 A 
ATOM     85  F   UNL A   1      40.622  37.235  38.156  1.00  0.00    -0.200 F 
ATOM     86  F   UNL A   1      39.137  36.414  40.292  1.00  0.00    -0.200 F 
ENDBRANCH  52  76
BRANCH  64  87
ATOM     87  C   UNL A   1      43.805  28.797  35.236  1.00  0.00     0.064 A 
ATOM     88  C   UNL A   1      45.117  29.237  35.010  1.00  0.00     0.173 A 
ATOM     89  C   UNL A   1      43.607  27.781  36.183  1.00  0.00     0.173 A 
ATOM     90  F   UNL A   1      45.363  30.196  34.104  1.00  0.00    -0.203 F 
ATOM     91  C   UNL A   1      46.191  28.662  35.685  1.00  0.00     0.198 A 
ATOM     92  C   UNL A   1      44.679  27.233  36.882  1.00  0.00     0.198 A 
ATOM     93  F   UNL A   1      42.372  27.328  36.443  1.00  0.00    -0.203 F 
ATOM     94  F   UNL A   1      47.441  29.061  35.414  1.00  0.00    -0.200 F 
ATOM     95  C   UNL A   1      45.971  27.667  36.626  1.00  0.00     0.200 A 
ATOM     96  F   UNL A   1      44.462  26.284  37.803  1.00  0.00    -0.200 F 
ATOM     97  F   UNL A   1      47.004  27.122  37.282  1.00  0.00    -0.200 F 
ENDBRANCH  64  87
ENDBRANCH  38  39
ENDBRANCH  30  33
ENDBRANCH  28  29
ENDBRANCH  27  28
ENDBRANCH  26  27
ENDBRANCH   1  26
TORSDOF 16
ENDMDL
MODEL 2
REMARK VINA RESULT:     -12.4      1.041      7.301
REMARK SMILES CC[C@](C)(NC(=O)c1cccc2ncccc12)C(=O)NCCCCCCNC(=O)c1ccc(-c2c3nc(c(-c4c(F)c(F)c(F)c(F)c4F)c4ccc([nH]4)c(-c4c(F)c(F)c(F)c(F)c4F)c4nc(c(-c5c(F)c(F)c(F)c(F)c5F)c5ccc2[nH]5)C=C4)C=C3)cc1
REMARK SMILES IDX 23 1 22 2 21 3 20 4 18 5 19 6 3 8 4 9 2 10 1 11 5 12 6 13
REMARK SMILES IDX 7 15 8 16 9 17 17 18 10 19 12 20 16 21 11 22 13 23 15 24
REMARK SMILES IDX 14 25 24 26 25 27 26 28 27 29 28 30 29 32 30 33 31 34 92 35
REMARK SMILES IDX 32 36 91 37 33 38 34 39 35 40 85 41 36 42 90 43 84 44 86 45
REMARK SMILES IDX 37 46 89 47 83 48 82 49 38 51 70 52 50 53 69 54 51 55 54 56
REMARK SMILES IDX 68 57 87 58 52 59 53 60 67 62 88 63 55 64 39 65 40 66 48 67
REMARK SMILES IDX 41 68 42 69 46 70 49 71 43 72 44 73 47 74 45 75 71 76 72 77
REMARK SMILES IDX 80 78 73 79 74 80 78 81 81 82 75 83 76 84 79 85 77 86 56 87
REMARK SMILES IDX 57 88 65 89 58 90 59 91 63 92 66 93 60 94 61 95 64 96 62 97
REMARK H PARENT 20 7 5 14 27 31 86 50 54 61
REMARK Flexibility Score: inf
ROOT
ATOM      1  C   UNL A   1      32.461  29.801  26.887  1.00  0.00     0.002 C 
ENDROOT
BRANCH   1   2
ATOM      2  C   UNL A   1      31.730  28.503  27.236  1.00  0.00     0.021 C 
BRANCH   2   3
ATOM      3  C   UNL A   1      32.376  27.194  26.772  1.00  0.00     0.116 C 
BRANCH   3   4
ATOM      4  N   UNL A   1      31.499  26.245  26.103  1.00  0.00    -0.354 N 
ATOM      5  C   UNL A   1      31.499  25.718  24.834  1.00  0.00     0.245 C 
ATOM      6  O   UNL A   1      30.630  24.877  24.583  1.00  0.00    -0.272 OA
ATOM      7  H   UNL A   1      30.764  25.916  26.670  1.00  0.00     0.163 HD
BRANCH   5   8
ATOM      8  C   UNL A   1      32.581  26.100  23.790  1.00  0.00     0.116 C 
ATOM      9  C   UNL A   1      34.003  26.138  24.382  1.00  0.00     0.045 C 
BRANCH   8  10
ATOM     10  C   UNL A   1      32.218  27.583  23.391  1.00  0.00     0.035 C 
ATOM     11  C   UNL A   1      33.396  28.573  23.454  1.00  0.00     0.007 C 
ENDBRANCH   8  10
BRANCH   8  12
ATOM     12  N   UNL A   1      32.635  25.208  22.579  1.00  0.00    -0.338 N 
ATOM     13  C   UNL A   1      33.159  23.943  22.287  1.00  0.00     0.252 C 
ATOM     14  H   UNL A   1      32.191  25.615  21.799  1.00  0.00     0.164 HD
ATOM     15  O   UNL A   1      33.407  23.764  21.092  1.00  0.00    -0.269 OA
BRANCH  13  16
ATOM     16  C   UNL A   1      33.336  22.777  23.255  1.00  0.00     0.049 A 
ATOM     17  C   UNL A   1      32.272  21.912  23.461  1.00  0.00     0.014 A 
ATOM     18  C   UNL A   1      34.589  22.359  23.817  1.00  0.00     0.013 A 
ATOM     19  C   UNL A   1      32.314  20.763  24.235  1.00  0.00     0.003 A 
ATOM     20  C   UNL A   1      34.642  21.150  24.582  1.00  0.00     0.071 A 
ATOM     21  C   UNL A   1      35.842  22.997  23.662  1.00  0.00     0.013 A 
ATOM     22  C   UNL A   1      33.509  20.398  24.799  1.00  0.00     0.029 A 
ATOM     23  N   UNL A   1      35.754  20.623  25.105  1.00  0.00    -0.256 NA
ATOM     24  C   UNL A   1      37.010  22.439  24.188  1.00  0.00     0.021 A 
ATOM     25  C   UNL A   1      36.915  21.259  24.891  1.00  0.00     0.112 A 
ENDBRANCH  13  16
ENDBRANCH   8  12
ENDBRANCH   5   8
ENDBRANCH   3   4
ENDBRANCH   2   3
ENDBRANCH   1   2
BRANCH   1  26
ATOM     26  C   UNL A   1      31.673  30.793  26.041  1.00  0.00     0.002 C 
BRANCH  26  27
ATOM     27  C   UNL A   1      31.413  32.129  26.724  1.00  0.00     0.021 C 
BRANCH  27  28
ATOM     28  C   UNL A   1      32.660  32.782  27.305  1.00  0.00     0.116 C 
BRANCH  28  29
ATOM     29  N   UNL A   1      32.447  34.186  27.622  1.00  0.00    -0.352 N 
ATOM     30  C   UNL A   1      33.038  34.931  28.612  1.00  0.00     0.251 C 
ATOM     31  H   UNL A   1      31.797  34.662  27.056  1.00  0.00     0.163 HD
ATOM     32  O   UNL A   1      32.615  36.044  28.910  1.00  0.00    -0.269 OA
BRANCH  30  33
ATOM     33  C   UNL A   1      34.187  34.355  29.333  1.00  0.00     0.039 A 
ATOM     34  C   UNL A   1      33.960  33.543  30.445  1.00  0.00     0.014 A 
ATOM     35  C   UNL A   1      35.485  34.572  28.859  1.00  0.00     0.014 A 
ATOM     36  C   UNL A   1      35.038  32.896  31.048  1.00  0.00     0.010 A 
ATOM     37  C   UNL A   1      36.542  33.857  29.406  1.00  0.00     0.010 A 
ATOM     38  C   UNL A   1      36.331  33.019  30.511  1.00  0.00    -0.014 A 
BRANCH  38  39
ATOM     39  C   UNL A   1      37.478  32.285  31.097  1.00  0.00     0.031 A 
ATOM     40  C   UNL A   1      37.986  32.652  32.462  1.00  0.00     0.074 A 
ATOM     41  C   UNL A   1      38.101  31.334  30.376  1.00  0.00     0.049 A 
ATOM     42  N   UNL A   1      39.002  32.163  33.128  1.00  0.00    -0.248 NA
ATOM     43  C   UNL A   1      37.276  33.736  33.159  1.00  0.00     0.031 C 
ATOM     44  C   UNL A   1      37.736  30.931  29.016  1.00  0.00     0.029 A 
ATOM     45  N   UNL A   1      39.178  30.540  30.681  1.00  0.00    -0.354 N 
ATOM     46  C   UNL A   1      39.057  32.886  34.312  1.00  0.00     0.074 A 
ATOM     47  C   UNL A   1      38.020  33.893  34.243  1.00  0.00     0.031 C 
ATOM     48  C   UNL A   1      38.556  29.947  28.615  1.00  0.00     0.029 A 
ATOM     49  C   UNL A   1      39.529  29.678  29.671  1.00  0.00     0.049 A 
ATOM     50  H   UNL A   1      39.652  30.584  31.542  1.00  0.00     0.167 HD
ATOM     51  C   UNL A   1      39.879  32.710  35.373  1.00  0.00     0.037 A 
ATOM     52  C   UNL A   1      40.527  28.778  29.603  1.00  0.00     0.037 A 
ATOM     53  C   UNL A   1      40.903  31.698  35.436  1.00  0.00     0.049 A 
ATOM     54  C   UNL A   1      41.439  28.605  30.788  1.00  0.00     0.074 A 
ATOM     55  C   UNL A   1      41.751  31.393  36.485  1.00  0.00     0.029 A 
ATOM     56  N   UNL A   1      41.223  30.834  34.398  1.00  0.00    -0.354 N 
ATOM     57  N   UNL A   1      41.432  29.236  31.936  1.00  0.00    -0.248 NA
ATOM     58  C   UNL A   1      42.490  27.585  30.670  1.00  0.00     0.031 C 
ATOM     59  C   UNL A   1      42.626  30.387  36.061  1.00  0.00     0.029 A 
ATOM     60  C   UNL A   1      42.279  30.017  34.771  1.00  0.00     0.049 A 
ATOM     61  H   UNL A   1      40.768  30.806  33.526  1.00  0.00     0.167 HD
ATOM     62  C   UNL A   1      42.457  28.678  32.687  1.00  0.00     0.074 A 
ATOM     63  C   UNL A   1      43.055  27.643  31.868  1.00  0.00     0.031 C 
ATOM     64  C   UNL A   1      42.865  28.993  33.941  1.00  0.00     0.037 A 
BRANCH  51  65
ATOM     65  C   UNL A   1      39.707  33.638  36.542  1.00  0.00     0.064 A 
ATOM     66  C   UNL A   1      38.900  33.302  37.641  1.00  0.00     0.173 A 
ATOM     67  C   UNL A   1      40.358  34.881  36.566  1.00  0.00     0.173 A 
ATOM     68  F   UNL A   1      38.245  32.131  37.666  1.00  0.00    -0.203 F 
ATOM     69  C   UNL A   1      38.714  34.193  38.696  1.00  0.00     0.198 A 
ATOM     70  C   UNL A   1      40.200  35.753  37.641  1.00  0.00     0.198 A 
ATOM     71  F   UNL A   1      41.147  35.253  35.547  1.00  0.00    -0.203 F 
ATOM     72  F   UNL A   1      37.881  33.877  39.698  1.00  0.00    -0.200 F 
ATOM     73  C   UNL A   1      39.368  35.414  38.697  1.00  0.00     0.200 A 
ATOM     74  F   UNL A   1      40.846  36.928  37.648  1.00  0.00    -0.200 F 
ATOM     75  F   UNL A   1      39.188  36.271  39.712  1.00  0.00    -0.200 F 
ENDBRANCH  51  65
BRANCH  52  76
ATOM     76  C   UNL A   1      40.694  27.956  28.375  1.00  0.00     0.064 A 
ATOM     77  C   UNL A   1      41.478  28.409  27.305  1.00  0.00     0.173 A 
ATOM     78  C   UNL A   1      40.092  26.694  28.255  1.00  0.00     0.173 A 
ATOM     79  F   UNL A   1      42.060  29.615  27.363  1.00  0.00    -0.203 F 
ATOM     80  C   UNL A   1      41.644  27.635  26.157  1.00  0.00     0.198 A 
ATOM     81  C   UNL A   1      40.283  25.910  27.120  1.00  0.00     0.198 A 
ATOM     82  F   UNL A   1      39.338  26.213  29.253  1.00  0.00    -0.203 F 
ATOM     83  F   UNL A   1      42.369  28.107  25.134  1.00  0.00    -0.200 F 
ATOM     84  C   UNL A   1      41.054  26.384  26.069  1.00  0.00     0.200 A 
ATOM     85  F   UNL A   1      39.726  24.694  27.048  1.00  0.00    -0.200 F 
ATOM     86  F   UNL A   1      41.224  25.635  24.971  1.00  0.00    -0.200 F 
ENDBRANCH  52  76
BRANCH  64  87
ATOM     87  C   UNL A   1      43.996  28.189  34.520  1.00  0.00     0.064 A 
ATOM     88  C   UNL A   1      45.329  28.617  34.432  1.00  0.00     0.173 A 
ATOM     89  C   UNL A   1      43.735  26.995  35.210  1.00  0.00     0.173 A 
ATOM     90  F   UNL A   1      45.635  29.744  33.771  1.00  0.00    -0.203 F 
ATOM     91  C   UNL A   1      46.360  27.863  34.987  1.00  0.00     0.198 A 
ATOM     92  C   UNL A   1      44.765  26.264  35.795  1.00  0.00     0.198 A 
ATOM     93  F   UNL A   1      42.478  26.543  35.331  1.00  0.00    -0.203 F 
ATOM     94  F   UNL A   1      47.631  28.264  34.844  1.00  0.00    -0.200 F 
ATOM     95  C   UNL A   1      46.077  26.693  35.675  1.00  0.00     0.200 A 
ATOM     96  F   UNL A   1      44.486  25.142  36.473  1.00  0.00    -0.200 F 
ATOM     97  F   UNL A   1      47.071  25.976  36.217  1.00  0.00    -0.200 F 
ENDBRANCH  64  87
ENDBRANCH  38  39
ENDBRANCH  30  33
ENDBRANCH  28  29
ENDBRANCH  27  28
ENDBRANCH  26  27
ENDBRANCH   1  26
TORSDOF 16
ENDMDL
MODEL 3
REMARK VINA RESULT:     -12.4      0.806      1.918
REMARK SMILES CC[C@](C)(NC(=O)c1cccc2ncccc12)C(=O)NCCCCCCNC(=O)c1ccc(-c2c3nc(c(-c4c(F)c(F)c(F)c(F)c4F)c4ccc([nH]4)c(-c4c(F)c(F)c(F)c(F)c4F)c4nc(c(-c5c(F)c(F)c(F)c(F)c5F)c5ccc2[nH]5)C=C4)C=C3)cc1
REMARK SMILES IDX 23 1 22 2 21 3 20 4 18 5 19 6 3 8 4 9 2 10 1 11 5 12 6 13
REMARK SMILES IDX 7 15 8 16 9 17 17 18 10 19 12 20 16 21 11 22 13 23 15 24
REMARK SMILES IDX 14 25 24 26 25 27 26 28 27 29 28 30 29 32 30 33 31 34 92 35
REMARK SMILES IDX 32 36 91 37 33 38 34 39 35 40 85 41 36 42 90 43 84 44 86 45
REMARK SMILES IDX 37 46 89 47 83 48 82 49 38 51 70 52 50 53 69 54 51 55 54 56
REMARK SMILES IDX 68 57 87 58 52 59 53 60 67 62 88 63 55 64 39 65 40 66 48 67
REMARK SMILES IDX 41 68 42 69 46 70 49 71 43 72 44 73 47 74 45 75 71 76 72 77
REMARK SMILES IDX 80 78 73 79 74 80 78 81 81 82 75 83 76 84 79 85 77 86 56 87
REMARK SMILES IDX 57 88 65 89 58 90 59 91 63 92 66 93 60 94 61 95 64 96 62 97
REMARK H PARENT 20 7 5 14 27 31 86 50 54 61
REMARK Flexibility Score: inf
ROOT
ATOM      1  C   UNL A   1      32.655  29.677  27.024  1.00  0.00     0.002 C 
ENDROOT
BRANCH   1   2
ATOM      2  C   UNL A   1      33.678  28.801  26.299  1.00  0.00     0.021 C 
BRANCH   2   3
ATOM      3  C   UNL A   1      33.289  27.342  26.043  1.00  0.00     0.116 C 
BRANCH   3   4
ATOM      4  N   UNL A   1      31.899  26.992  26.292  1.00  0.00    -0.354 N 
ATOM      5  C   UNL A   1      31.189  25.830  26.113  1.00  0.00     0.245 C 
ATOM      6  O   UNL A   1      30.008  25.839  26.476  1.00  0.00    -0.272 OA
ATOM      7  H   UNL A   1      31.364  27.732  26.661  1.00  0.00     0.163 HD
BRANCH   5   8
ATOM      8  C   UNL A   1      31.853  24.544  25.553  1.00  0.00     0.116 C 
ATOM      9  C   UNL A   1      30.878  23.354  25.459  1.00  0.00     0.045 C 
BRANCH   8  10
ATOM     10  C   UNL A   1      32.926  24.163  26.646  1.00  0.00     0.035 C 
ATOM     11  C   UNL A   1      32.728  22.777  27.286  1.00  0.00     0.007 C 
ENDBRANCH   8  10
BRANCH   8  12
ATOM     12  N   UNL A   1      32.488  24.698  24.197  1.00  0.00    -0.338 N 
ATOM     13  C   UNL A   1      33.739  24.413  23.638  1.00  0.00     0.252 C 
ATOM     14  H   UNL A   1      31.871  25.099  23.543  1.00  0.00     0.164 HD
ATOM     15  O   UNL A   1      34.018  25.099  22.651  1.00  0.00    -0.269 OA
BRANCH  13  16
ATOM     16  C   UNL A   1      34.697  23.299  24.049  1.00  0.00     0.049 A 
ATOM     17  C   UNL A   1      35.940  23.641  24.562  1.00  0.00     0.014 A 
ATOM     18  C   UNL A   1      34.345  21.911  24.159  1.00  0.00     0.013 A 
ATOM     19  C   UNL A   1      36.873  22.745  25.061  1.00  0.00     0.003 A 
ATOM     20  C   UNL A   1      35.293  20.993  24.713  1.00  0.00     0.071 A 
ATOM     21  C   UNL A   1      33.105  21.322  23.816  1.00  0.00     0.013 A 
ATOM     22  C   UNL A   1      36.537  21.418  25.123  1.00  0.00     0.029 A 
ATOM     23  N   UNL A   1      35.065  19.692  24.924  1.00  0.00    -0.256 NA
ATOM     24  C   UNL A   1      32.855  19.969  24.055  1.00  0.00     0.021 A 
ATOM     25  C   UNL A   1      33.856  19.204  24.611  1.00  0.00     0.112 A 
ENDBRANCH  13  16
ENDBRANCH   8  12
ENDBRANCH   5   8
ENDBRANCH   3   4
ENDBRANCH   2   3
ENDBRANCH   1   2
BRANCH   1  26
ATOM     26  C   UNL A   1      31.896  30.665  26.148  1.00  0.00     0.002 C 
BRANCH  26  27
ATOM     27  C   UNL A   1      31.550  31.977  26.841  1.00  0.00     0.021 C 
BRANCH  27  28
ATOM     28  C   UNL A   1      32.757  32.724  27.391  1.00  0.00     0.116 C 
BRANCH  28  29
ATOM     29  N   UNL A   1      32.473  34.133  27.617  1.00  0.00    -0.352 N 
ATOM     30  C   UNL A   1      32.993  34.959  28.582  1.00  0.00     0.251 C 
ATOM     31  H   UNL A   1      31.827  34.547  27.000  1.00  0.00     0.163 HD
ATOM     32  O   UNL A   1      32.512  36.068  28.798  1.00  0.00    -0.269 OA
BRANCH  30  33
ATOM     33  C   UNL A   1      34.135  34.477  29.378  1.00  0.00     0.039 A 
ATOM     34  C   UNL A   1      33.901  33.863  30.609  1.00  0.00     0.014 A 
ATOM     35  C   UNL A   1      35.432  34.578  28.865  1.00  0.00     0.014 A 
ATOM     36  C   UNL A   1      34.970  33.294  31.301  1.00  0.00     0.010 A 
ATOM     37  C   UNL A   1      36.477  33.932  29.512  1.00  0.00     0.010 A 
ATOM     38  C   UNL A   1      36.259  33.292  30.741  1.00  0.00    -0.014 A 
BRANCH  38  39
ATOM     39  C   UNL A   1      37.394  32.631  31.429  1.00  0.00     0.031 A 
ATOM     40  C   UNL A   1      38.080  31.459  30.789  1.00  0.00     0.074 A 
ATOM     41  C   UNL A   1      37.763  33.046  32.656  1.00  0.00     0.049 A 
ATOM     42  N   UNL A   1      39.057  30.718  31.248  1.00  0.00    -0.248 NA
ATOM     43  C   UNL A   1      37.579  31.042  29.470  1.00  0.00     0.031 C 
ATOM     44  C   UNL A   1      37.134  34.136  33.404  1.00  0.00     0.029 A 
ATOM     45  N   UNL A   1      38.751  32.594  33.494  1.00  0.00    -0.354 N 
ATOM     46  C   UNL A   1      39.278  29.747  30.281  1.00  0.00     0.074 A 
ATOM     47  C   UNL A   1      38.288  29.947  29.245  1.00  0.00     0.031 C 
ATOM     48  C   UNL A   1      37.768  34.286  34.577  1.00  0.00     0.029 A 
ATOM     49  C   UNL A   1      38.821  33.279  34.682  1.00  0.00     0.049 A 
ATOM     50  H   UNL A   1      39.353  31.851  33.264  1.00  0.00     0.167 HD
ATOM     51  C   UNL A   1      40.237  28.792  30.245  1.00  0.00     0.037 A 
ATOM     52  C   UNL A   1      39.636  33.109  35.739  1.00  0.00     0.037 A 
ATOM     53  C   UNL A   1      41.225  28.607  31.277  1.00  0.00     0.049 A 
ATOM     54  C   UNL A   1      40.688  32.033  35.686  1.00  0.00     0.074 A 
ATOM     55  C   UNL A   1      42.277  27.709  31.313  1.00  0.00     0.029 A 
ATOM     56  N   UNL A   1      41.272  29.327  32.463  1.00  0.00    -0.354 N 
ATOM     57  N   UNL A   1      40.943  31.172  34.731  1.00  0.00    -0.248 NA
ATOM     58  C   UNL A   1      41.571  31.914  36.854  1.00  0.00     0.031 C 
ATOM     59  C   UNL A   1      42.923  27.845  32.547  1.00  0.00     0.029 A 
ATOM     60  C   UNL A   1      42.317  28.872  33.252  1.00  0.00     0.049 A 
ATOM     61  H   UNL A   1      40.655  30.053  32.707  1.00  0.00     0.167 HD
ATOM     62  C   UNL A   1      42.028  30.426  35.168  1.00  0.00     0.074 A 
ATOM     63  C   UNL A   1      42.394  30.948  36.469  1.00  0.00     0.031 C 
ATOM     64  C   UNL A   1      42.665  29.402  34.548  1.00  0.00     0.037 A 
BRANCH  51  65
ATOM     65  C   UNL A   1      40.253  27.873  29.056  1.00  0.00     0.064 A 
ATOM     66  C   UNL A   1      40.996  28.169  27.902  1.00  0.00     0.173 A 
ATOM     67  C   UNL A   1      39.516  26.679  29.070  1.00  0.00     0.173 A 
ATOM     68  F   UNL A   1      41.710  29.303  27.830  1.00  0.00    -0.203 F 
ATOM     69  C   UNL A   1      40.963  27.329  26.791  1.00  0.00     0.198 A 
ATOM     70  C   UNL A   1      39.517  25.823  27.970  1.00  0.00     0.198 A 
ATOM     71  F   UNL A   1      38.793  26.341  30.147  1.00  0.00    -0.203 F 
ATOM     72  F   UNL A   1      41.623  27.672  25.675  1.00  0.00    -0.200 F 
ATOM     73  C   UNL A   1      40.228  26.155  26.828  1.00  0.00     0.200 A 
ATOM     74  F   UNL A   1      38.818  24.680  28.015  1.00  0.00    -0.200 F 
ATOM     75  F   UNL A   1      40.197  25.348  25.758  1.00  0.00    -0.200 F 
ENDBRANCH  51  65
BRANCH  52  76
ATOM     76  C   UNL A   1      39.502  33.999  36.922  1.00  0.00     0.064 A 
ATOM     77  C   UNL A   1      38.749  33.608  38.038  1.00  0.00     0.173 A 
ATOM     78  C   UNL A   1      40.142  35.247  36.971  1.00  0.00     0.173 A 
ATOM     79  F   UNL A   1      38.104  32.433  38.032  1.00  0.00    -0.203 F 
ATOM     80  C   UNL A   1      38.631  34.437  39.152  1.00  0.00     0.198 A 
ATOM     81  C   UNL A   1      40.048  36.061  38.098  1.00  0.00     0.198 A 
ATOM     82  F   UNL A   1      40.881  35.664  35.933  1.00  0.00    -0.203 F 
ATOM     83  F   UNL A   1      37.875  34.055  40.190  1.00  0.00    -0.200 F 
ATOM     84  C   UNL A   1      39.287  35.658  39.184  1.00  0.00     0.200 A 
ATOM     85  F   UNL A   1      40.698  37.231  38.132  1.00  0.00    -0.200 F 
ATOM     86  F   UNL A   1      39.183  36.449  40.262  1.00  0.00    -0.200 F 
ENDBRANCH  52  76
BRANCH  64  87
ATOM     87  C   UNL A   1      43.845  28.794  35.255  1.00  0.00     0.064 A 
ATOM     88  C   UNL A   1      45.148  29.278  35.068  1.00  0.00     0.173 A 
ATOM     89  C   UNL A   1      43.660  27.742  36.165  1.00  0.00     0.173 A 
ATOM     90  F   UNL A   1      45.382  30.273  34.199  1.00  0.00    -0.203 F 
ATOM     91  C   UNL A   1      46.226  28.710  35.743  1.00  0.00     0.198 A 
ATOM     92  C   UNL A   1      44.735  27.201  36.865  1.00  0.00     0.198 A 
ATOM     93  F   UNL A   1      42.434  27.246  36.387  1.00  0.00    -0.203 F 
ATOM     94  F   UNL A   1      47.469  29.152  35.509  1.00  0.00    -0.200 F 
ATOM     95  C   UNL A   1      46.017  27.678  36.647  1.00  0.00     0.200 A 
ATOM     96  F   UNL A   1      44.528  26.216  37.749  1.00  0.00    -0.200 F 
ATOM     97  F   UNL A   1      47.054  27.140  37.303  1.00  0.00    -0.200 F 
ENDBRANCH  64  87
ENDBRANCH  38  39
ENDBRANCH  30  33
ENDBRANCH  28  29
ENDBRANCH  27  28
ENDBRANCH  26  27
ENDBRANCH   1  26
TORSDOF 16
ENDMDL
