MODEL 1
REMARK VINA RESULT:     -11.3      0.000      0.000
REMARK SMILES CCC[C@H](C)C[NH+]1CC(n2cc(C(=O)NCCCCCCNC(=O)c3ccc(-c4c5nc(c(-c6c(F)c(F)c(F)c(F)c6F)c6ccc([nH]6)c(-c6c(F)c(F)c(F)c(F)c6F)c6nc(c(-c7c(F)c(F)c(F)c(F)c7F)c7ccc4[nH]7)C=C6)C=C5)cc3)nn2)C1
REMARK SMILES IDX 17 1 16 2 15 3 13 4 14 5 12 7 10 8 11 9 89 10 88 11 9 12
REMARK SMILES IDX 7 13 8 14 90 15 6 17 4 18 5 19 3 20 2 21 1 22 18 23 19 24
REMARK SMILES IDX 20 25 21 26 22 27 23 28 24 30 25 31 26 32 87 33 27 34 86 35
REMARK SMILES IDX 28 36 29 37 30 38 80 39 31 40 85 41 79 42 81 43 32 44 84 45
REMARK SMILES IDX 78 46 77 47 33 49 65 50 45 51 64 52 46 53 49 54 63 55 82 56
REMARK SMILES IDX 47 57 48 58 62 60 83 61 50 62 34 63 35 64 43 65 36 66 37 67
REMARK SMILES IDX 41 68 44 69 38 70 39 71 42 72 40 73 66 74 67 75 75 76 68 77
REMARK SMILES IDX 69 78 73 79 76 80 70 81 71 82 74 83 72 84 51 85 52 86 60 87
REMARK SMILES IDX 53 88 54 89 58 90 61 91 55 92 56 93 59 94 57 95
REMARK H PARENT 15 6 7 16 22 29 81 48 49 59
REMARK Flexibility Score: inf
ROOT
ATOM      1  C   UNL A   1      31.727  28.693  25.810  1.00  0.00     0.021 C 
ENDROOT
BRANCH   1   2
ATOM      2  C   UNL A   1      32.639  29.028  24.631  1.00  0.00     0.116 C 
BRANCH   2   3
ATOM      3  N   UNL A   1      31.859  29.394  23.467  1.00  0.00    -0.351 N 
ATOM      4  C   UNL A   1      30.945  28.689  22.721  1.00  0.00     0.273 C 
ATOM      5  O   UNL A   1      30.359  29.306  21.833  1.00  0.00    -0.267 OA
ATOM      6  H   UNL A   1      32.010  30.316  23.154  1.00  0.00     0.163 HD
BRANCH   4   7
ATOM      7  C   UNL A   1      30.662  27.289  23.006  1.00  0.00     0.170 A 
ATOM      8  N   UNL A   1      30.673  25.145  23.329  1.00  0.00    -0.237 N 
ATOM      9  C   UNL A   1      31.379  26.142  22.722  1.00  0.00     0.145 A 
ATOM     10  N   UNL A   1      29.538  25.609  23.868  1.00  0.00    -0.066 NA
ATOM     11  N   UNL A   1      29.502  26.915  23.650  1.00  0.00    -0.125 NA
BRANCH   8  12
ATOM     12  C   UNL A   1      31.105  23.787  23.371  1.00  0.00     0.218 C 
ATOM     13  N   UNL A   1      32.527  22.500  24.198  1.00  0.00    -0.331 N 
ATOM     14  C   UNL A   1      31.347  23.209  24.779  1.00  0.00     0.295 C 
ATOM     15  C   UNL A   1      32.644  23.658  23.248  1.00  0.00     0.295 C 
ATOM     16  H   UNL A   1      32.462  21.525  23.905  1.00  0.00     0.348 HD
BRANCH  13  17
ATOM     17  C   UNL A   1      33.694  22.454  25.093  1.00  0.00     0.265 C 
BRANCH  17  18
ATOM     18  C   UNL A   1      34.364  21.072  25.291  1.00  0.00     0.041 C 
ATOM     19  C   UNL A   1      33.626  19.957  24.532  1.00  0.00     0.013 C 
BRANCH  18  20
ATOM     20  C   UNL A   1      35.859  21.078  24.904  1.00  0.00     0.009 C 
BRANCH  20  21
ATOM     21  C   UNL A   1      36.491  22.448  24.623  1.00  0.00    -0.003 C 
ATOM     22  C   UNL A   1      36.616  22.802  23.148  1.00  0.00     0.004 C 
ENDBRANCH  20  21
ENDBRANCH  18  20
ENDBRANCH  17  18
ENDBRANCH  13  17
ENDBRANCH   8  12
ENDBRANCH   4   7
ENDBRANCH   2   3
ENDBRANCH   1   2
BRANCH   1  23
ATOM     23  C   UNL A   1      32.291  29.151  27.161  1.00  0.00     0.002 C 
BRANCH  23  24
ATOM     24  C   UNL A   1      32.814  30.597  27.205  1.00  0.00     0.002 C 
BRANCH  24  25
ATOM     25  C   UNL A   1      34.287  30.772  27.604  1.00  0.00     0.021 C 
BRANCH  25  26
ATOM     26  C   UNL A   1      34.675  32.221  27.846  1.00  0.00     0.116 C 
BRANCH  26  27
ATOM     27  N   UNL A   1      34.558  32.596  29.255  1.00  0.00    -0.352 N 
ATOM     28  C   UNL A   1      35.241  32.078  30.339  1.00  0.00     0.251 C 
ATOM     29  H   UNL A   1      33.910  33.309  29.456  1.00  0.00     0.163 HD
ATOM     30  O   UNL A   1      34.814  32.191  31.474  1.00  0.00    -0.269 OA
BRANCH  28  31
ATOM     31  C   UNL A   1      36.518  31.390  30.084  1.00  0.00     0.039 A 
ATOM     32  C   UNL A   1      37.695  32.099  29.836  1.00  0.00     0.014 A 
ATOM     33  C   UNL A   1      36.514  29.999  30.135  1.00  0.00     0.014 A 
ATOM     34  C   UNL A   1      38.884  31.386  29.713  1.00  0.00     0.010 A 
ATOM     35  C   UNL A   1      37.700  29.321  30.200  1.00  0.00     0.010 A 
ATOM     36  C   UNL A   1      38.878  29.996  29.916  1.00  0.00    -0.014 A 
BRANCH  36  37
ATOM     37  C   UNL A   1      40.117  29.233  29.953  1.00  0.00     0.031 A 
ATOM     38  C   UNL A   1      40.639  29.014  31.326  1.00  0.00     0.074 A 
ATOM     39  C   UNL A   1      40.622  28.608  28.865  1.00  0.00     0.049 A 
ATOM     40  N   UNL A   1      41.689  29.545  31.855  1.00  0.00    -0.248 NA
ATOM     41  C   UNL A   1      39.817  28.252  32.282  1.00  0.00     0.031 C 
ATOM     42  C   UNL A   1      40.024  28.485  27.528  1.00  0.00     0.029 A 
ATOM     43  N   UNL A   1      41.752  27.857  28.750  1.00  0.00    -0.354 N 
ATOM     44  C   UNL A   1      41.783  29.017  33.139  1.00  0.00     0.074 A 
ATOM     45  C   UNL A   1      40.519  28.387  33.411  1.00  0.00     0.031 C 
ATOM     46  C   UNL A   1      40.666  27.527  26.824  1.00  0.00     0.029 A 
ATOM     47  C   UNL A   1      41.826  27.103  27.581  1.00  0.00     0.049 A 
ATOM     48  H   UNL A   1      42.459  27.850  29.435  1.00  0.00     0.167 HD
ATOM     49  C   UNL A   1      42.995  28.907  33.750  1.00  0.00     0.037 A 
ATOM     50  C   UNL A   1      42.776  26.187  27.272  1.00  0.00     0.037 A 
ATOM     51  C   UNL A   1      43.990  29.664  33.032  1.00  0.00     0.049 A 
ATOM     52  C   UNL A   1      43.952  26.492  28.118  1.00  0.00     0.074 A 
ATOM     53  C   UNL A   1      44.255  30.996  32.805  1.00  0.00     0.029 A 
ATOM     54  N   UNL A   1      44.652  28.953  32.066  1.00  0.00    -0.354 N 
ATOM     55  N   UNL A   1      44.663  27.579  28.003  1.00  0.00    -0.248 NA
ATOM     56  C   UNL A   1      44.101  25.776  29.376  1.00  0.00     0.031 C 
ATOM     57  C   UNL A   1      44.816  31.055  31.493  1.00  0.00     0.029 A 
ATOM     58  C   UNL A   1      44.937  29.755  30.997  1.00  0.00     0.049 A 
ATOM     59  H   UNL A   1      44.888  28.000  32.132  1.00  0.00     0.167 HD
ATOM     60  C   UNL A   1      44.993  27.917  29.305  1.00  0.00     0.074 A 
ATOM     61  C   UNL A   1      44.760  26.701  30.080  1.00  0.00     0.031 C 
ATOM     62  C   UNL A   1      45.127  29.229  29.662  1.00  0.00     0.037 A 
BRANCH  49  63
ATOM     63  C   UNL A   1      43.402  27.771  34.664  1.00  0.00     0.064 A 
ATOM     64  C   UNL A   1      43.772  28.064  35.994  1.00  0.00     0.173 A 
ATOM     65  C   UNL A   1      43.753  26.483  34.208  1.00  0.00     0.173 A 
ATOM     66  F   UNL A   1      43.520  29.272  36.521  1.00  0.00    -0.203 F 
ATOM     67  C   UNL A   1      44.494  27.159  36.778  1.00  0.00     0.198 A 
ATOM     68  C   UNL A   1      44.428  25.563  35.011  1.00  0.00     0.198 A 
ATOM     69  F   UNL A   1      43.572  26.101  32.939  1.00  0.00    -0.203 F 
ATOM     70  F   UNL A   1      44.932  27.527  37.990  1.00  0.00    -0.200 F 
ATOM     71  C   UNL A   1      44.824  25.910  36.284  1.00  0.00     0.200 A 
ATOM     72  F   UNL A   1      44.763  24.369  34.502  1.00  0.00    -0.200 F 
ATOM     73  F   UNL A   1      45.564  25.062  37.010  1.00  0.00    -0.200 F 
ENDBRANCH  49  63
BRANCH  50  74
ATOM     74  C   UNL A   1      42.629  24.896  26.558  1.00  0.00     0.064 A 
ATOM     75  C   UNL A   1      43.413  24.597  25.430  1.00  0.00     0.173 A 
ATOM     76  C   UNL A   1      41.949  23.814  27.151  1.00  0.00     0.173 A 
ATOM     77  F   UNL A   1      44.128  25.561  24.833  1.00  0.00    -0.203 F 
ATOM     78  C   UNL A   1      43.541  23.289  24.949  1.00  0.00     0.198 A 
ATOM     79  C   UNL A   1      42.076  22.509  26.669  1.00  0.00     0.198 A 
ATOM     80  F   UNL A   1      41.235  23.986  28.272  1.00  0.00    -0.203 F 
ATOM     81  F   UNL A   1      44.355  23.032  23.915  1.00  0.00    -0.200 F 
ATOM     82  C   UNL A   1      42.884  22.244  25.578  1.00  0.00     0.200 A 
ATOM     83  F   UNL A   1      41.469  21.502  27.312  1.00  0.00    -0.200 F 
ATOM     84  F   UNL A   1      43.063  20.982  25.164  1.00  0.00    -0.200 F 
ENDBRANCH  50  74
BRANCH  62  85
ATOM     85  C   UNL A   1      45.330  30.226  28.555  1.00  0.00     0.064 A 
ATOM     86  C   UNL A   1      44.299  30.902  27.880  1.00  0.00     0.173 A 
ATOM     87  C   UNL A   1      46.648  30.585  28.240  1.00  0.00     0.173 A 
ATOM     88  F   UNL A   1      43.014  30.680  28.179  1.00  0.00    -0.203 F 
ATOM     89  C   UNL A   1      44.582  31.863  26.908  1.00  0.00     0.198 A 
ATOM     90  C   UNL A   1      46.927  31.569  27.300  1.00  0.00     0.198 A 
ATOM     91  F   UNL A   1      47.672  30.003  28.886  1.00  0.00    -0.203 F 
ATOM     92  F   UNL A   1      43.582  32.483  26.262  1.00  0.00    -0.200 F 
ATOM     93  C   UNL A   1      45.896  32.200  26.624  1.00  0.00     0.200 A 
ATOM     94  F   UNL A   1      48.198  31.922  27.064  1.00  0.00    -0.200 F 
ATOM     95  F   UNL A   1      46.167  33.149  25.718  1.00  0.00    -0.200 F 
ENDBRANCH  62  85
ENDBRANCH  36  37
ENDBRANCH  28  31
ENDBRANCH  26  27
ENDBRANCH  25  26
ENDBRANCH  24  25
ENDBRANCH  23  24
ENDBRANCH   1  23
TORSDOF 18
ENDMDL
MODEL 2
REMARK VINA RESULT:     -11.2      4.420      9.436
REMARK SMILES CCC[C@H](C)C[NH+]1CC(n2cc(C(=O)NCCCCCCNC(=O)c3ccc(-c4c5nc(c(-c6c(F)c(F)c(F)c(F)c6F)c6ccc([nH]6)c(-c6c(F)c(F)c(F)c(F)c6F)c6nc(c(-c7c(F)c(F)c(F)c(F)c7F)c7ccc4[nH]7)C=C6)C=C5)cc3)nn2)C1
REMARK SMILES IDX 17 1 16 2 15 3 13 4 14 5 12 7 10 8 11 9 89 10 88 11 9 12
REMARK SMILES IDX 7 13 8 14 90 15 6 17 4 18 5 19 3 20 2 21 1 22 18 23 19 24
REMARK SMILES IDX 20 25 21 26 22 27 23 28 24 30 25 31 26 32 87 33 27 34 86 35
REMARK SMILES IDX 28 36 29 37 30 38 80 39 31 40 85 41 79 42 81 43 32 44 84 45
REMARK SMILES IDX 78 46 77 47 33 49 65 50 45 51 64 52 46 53 49 54 63 55 82 56
REMARK SMILES IDX 47 57 48 58 62 60 83 61 50 62 34 63 35 64 43 65 36 66 37 67
REMARK SMILES IDX 41 68 44 69 38 70 39 71 42 72 40 73 66 74 67 75 75 76 68 77
REMARK SMILES IDX 69 78 73 79 76 80 70 81 71 82 74 83 72 84 51 85 52 86 60 87
REMARK SMILES IDX 53 88 54 89 58 90 61 91 55 92 56 93 59 94 57 95
REMARK H PARENT 15 6 7 16 22 29 81 48 49 59
REMARK Flexibility Score: inf
ROOT
ATOM      1  C   UNL A   1      33.197  34.699  28.867  1.00  0.00     0.021 C 
ENDROOT
BRANCH   1   2
ATOM      2  C   UNL A   1      33.431  36.098  29.435  1.00  0.00     0.116 C 
BRANCH   2   3
ATOM      3  N   UNL A   1      32.490  36.384  30.496  1.00  0.00    -0.351 N 
ATOM      4  C   UNL A   1      32.565  36.206  31.856  1.00  0.00     0.273 C 
ATOM      5  O   UNL A   1      31.630  36.643  32.527  1.00  0.00    -0.267 OA
ATOM      6  H   UNL A   1      31.641  36.778  30.187  1.00  0.00     0.163 HD
BRANCH   4   7
ATOM      7  C   UNL A   1      33.722  35.566  32.468  1.00  0.00     0.170 A 
ATOM      8  N   UNL A   1      35.352  34.281  33.095  1.00  0.00    -0.237 N 
ATOM      9  C   UNL A   1      34.159  34.256  32.432  1.00  0.00     0.145 A 
ATOM     10  N   UNL A   1      35.602  35.495  33.604  1.00  0.00    -0.066 NA
ATOM     11  N   UNL A   1      34.597  36.285  33.256  1.00  0.00    -0.125 NA
BRANCH   8  12
ATOM     12  C   UNL A   1      36.208  33.148  33.220  1.00  0.00     0.218 C 
ATOM     13  N   UNL A   1      38.120  32.429  32.787  1.00  0.00    -0.331 N 
ATOM     14  C   UNL A   1      37.617  33.436  33.770  1.00  0.00     0.295 C 
ATOM     15  C   UNL A   1      36.975  32.846  31.908  1.00  0.00     0.295 C 
ATOM     16  H   UNL A   1      38.302  31.466  33.068  1.00  0.00     0.348 HD
BRANCH  13  17
ATOM     17  C   UNL A   1      39.402  32.794  32.162  1.00  0.00     0.265 C 
BRANCH  17  18
ATOM     18  C   UNL A   1      40.611  31.880  32.474  1.00  0.00     0.041 C 
ATOM     19  C   UNL A   1      41.714  32.621  33.247  1.00  0.00     0.013 C 
BRANCH  18  20
ATOM     20  C   UNL A   1      40.203  30.596  33.229  1.00  0.00     0.009 C 
BRANCH  20  21
ATOM     21  C   UNL A   1      41.255  29.482  33.310  1.00  0.00    -0.003 C 
ATOM     22  C   UNL A   1      40.694  28.091  33.568  1.00  0.00     0.004 C 
ENDBRANCH  20  21
ENDBRANCH  18  20
ENDBRANCH  17  18
ENDBRANCH  13  17
ENDBRANCH   8  12
ENDBRANCH   4   7
ENDBRANCH   2   3
ENDBRANCH   1   2
BRANCH   1  23
ATOM     23  C   UNL A   1      34.490  33.999  28.427  1.00  0.00     0.002 C 
BRANCH  23  24
ATOM     24  C   UNL A   1      34.544  32.484  28.688  1.00  0.00     0.002 C 
BRANCH  24  25
ATOM     25  C   UNL A   1      35.365  31.654  27.689  1.00  0.00     0.021 C 
BRANCH  25  26
ATOM     26  C   UNL A   1      35.876  30.347  28.271  1.00  0.00     0.116 C 
BRANCH  26  27
ATOM     27  N   UNL A   1      35.809  30.331  29.732  1.00  0.00    -0.352 N 
ATOM     28  C   UNL A   1      36.654  29.694  30.621  1.00  0.00     0.251 C 
ATOM     29  H   UNL A   1      35.067  30.839  30.133  1.00  0.00     0.163 HD
ATOM     30  O   UNL A   1      36.306  29.439  31.760  1.00  0.00    -0.269 OA
BRANCH  28  31
ATOM     31  C   UNL A   1      38.005  29.339  30.154  1.00  0.00     0.039 A 
ATOM     32  C   UNL A   1      38.827  30.270  29.515  1.00  0.00     0.014 A 
ATOM     33  C   UNL A   1      38.448  28.044  30.407  1.00  0.00     0.014 A 
ATOM     34  C   UNL A   1      40.130  29.897  29.200  1.00  0.00     0.010 A 
ATOM     35  C   UNL A   1      39.774  27.743  30.267  1.00  0.00     0.010 A 
ATOM     36  C   UNL A   1      40.601  28.634  29.599  1.00  0.00    -0.014 A 
BRANCH  36  37
ATOM     37  C   UNL A   1      41.998  28.262  29.431  1.00  0.00     0.031 A 
ATOM     38  C   UNL A   1      42.194  27.066  28.572  1.00  0.00     0.074 A 
ATOM     39  C   UNL A   1      43.017  29.050  29.839  1.00  0.00     0.049 A 
ATOM     40  N   UNL A   1      42.581  25.893  28.944  1.00  0.00    -0.248 NA
ATOM     41  C   UNL A   1      41.752  27.124  27.167  1.00  0.00     0.031 C 
ATOM     42  C   UNL A   1      42.949  30.403  30.410  1.00  0.00     0.029 A 
ATOM     43  N   UNL A   1      44.360  28.842  29.741  1.00  0.00    -0.354 N 
ATOM     44  C   UNL A   1      42.642  25.122  27.787  1.00  0.00     0.074 A 
ATOM     45  C   UNL A   1      41.947  25.863  26.770  1.00  0.00     0.031 C 
ATOM     46  C   UNL A   1      44.172  30.976  30.384  1.00  0.00     0.029 A 
ATOM     47  C   UNL A   1      45.136  29.974  29.974  1.00  0.00     0.049 A 
ATOM     48  H   UNL A   1      44.748  27.964  29.526  1.00  0.00     0.167 HD
ATOM     49  C   UNL A   1      43.502  24.070  27.707  1.00  0.00     0.037 A 
ATOM     50  C   UNL A   1      46.480  30.075  29.825  1.00  0.00     0.037 A 
ATOM     51  C   UNL A   1      44.024  23.746  29.012  1.00  0.00     0.049 A 
ATOM     52  C   UNL A   1      47.017  28.697  29.876  1.00  0.00     0.074 A 
ATOM     53  C   UNL A   1      43.523  23.215  30.180  1.00  0.00     0.029 A 
ATOM     54  N   UNL A   1      45.186  24.398  29.333  1.00  0.00    -0.354 N 
ATOM     55  N   UNL A   1      46.979  27.945  30.942  1.00  0.00    -0.248 NA
ATOM     56  C   UNL A   1      47.235  27.993  28.622  1.00  0.00     0.031 C 
ATOM     57  C   UNL A   1      44.251  23.852  31.231  1.00  0.00     0.029 A 
ATOM     58  C   UNL A   1      45.212  24.693  30.666  1.00  0.00     0.049 A 
ATOM     59  H   UNL A   1      45.900  24.621  28.693  1.00  0.00     0.167 HD
ATOM     60  C   UNL A   1      46.724  26.672  30.460  1.00  0.00     0.074 A 
ATOM     61  C   UNL A   1      47.047  26.737  29.038  1.00  0.00     0.031 C 
ATOM     62  C   UNL A   1      45.990  25.791  31.202  1.00  0.00     0.037 A 
BRANCH  49  63
ATOM     63  C   UNL A   1      44.246  23.656  26.456  1.00  0.00     0.064 A 
ATOM     64  C   UNL A   1      44.178  22.311  26.035  1.00  0.00     0.173 A 
ATOM     65  C   UNL A   1      45.264  24.427  25.855  1.00  0.00     0.173 A 
ATOM     66  F   UNL A   1      43.273  21.475  26.565  1.00  0.00    -0.203 F 
ATOM     67  C   UNL A   1      45.100  21.770  25.132  1.00  0.00     0.198 A 
ATOM     68  C   UNL A   1      46.149  23.898  24.916  1.00  0.00     0.198 A 
ATOM     69  F   UNL A   1      45.525  25.683  26.235  1.00  0.00    -0.203 F 
ATOM     70  F   UNL A   1      45.073  20.459  24.856  1.00  0.00    -0.200 F 
ATOM     71  C   UNL A   1      46.086  22.563  24.577  1.00  0.00     0.200 A 
ATOM     72  F   UNL A   1      47.115  24.677  24.412  1.00  0.00    -0.200 F 
ATOM     73  F   UNL A   1      47.005  22.037  23.756  1.00  0.00    -0.200 F 
ENDBRANCH  49  63
BRANCH  50  74
ATOM     74  C   UNL A   1      47.279  31.217  29.319  1.00  0.00     0.064 A 
ATOM     75  C   UNL A   1      48.474  31.603  29.953  1.00  0.00     0.173 A 
ATOM     76  C   UNL A   1      47.056  31.745  28.033  1.00  0.00     0.173 A 
ATOM     77  F   UNL A   1      48.784  31.110  31.160  1.00  0.00    -0.203 F 
ATOM     78  C   UNL A   1      49.406  32.434  29.321  1.00  0.00     0.198 A 
ATOM     79  C   UNL A   1      47.986  32.576  27.405  1.00  0.00     0.198 A 
ATOM     80  F   UNL A   1      45.981  31.379  27.320  1.00  0.00    -0.203 F 
ATOM     81  F   UNL A   1      50.566  32.722  29.928  1.00  0.00    -0.200 F 
ATOM     82  C   UNL A   1      49.168  32.908  28.042  1.00  0.00     0.200 A 
ATOM     83  F   UNL A   1      47.762  32.992  26.150  1.00  0.00    -0.200 F 
ATOM     84  F   UNL A   1      50.091  33.643  27.406  1.00  0.00    -0.200 F 
ENDBRANCH  50  74
BRANCH  62  85
ATOM     85  C   UNL A   1      45.850  26.077  32.671  1.00  0.00     0.064 A 
ATOM     86  C   UNL A   1      44.757  26.733  33.264  1.00  0.00     0.173 A 
ATOM     87  C   UNL A   1      46.833  25.563  33.528  1.00  0.00     0.173 A 
ATOM     88  F   UNL A   1      43.735  27.181  32.525  1.00  0.00    -0.203 F 
ATOM     89  C   UNL A   1      44.679  26.899  34.648  1.00  0.00     0.198 A 
ATOM     90  C   UNL A   1      46.733  25.694  34.908  1.00  0.00     0.198 A 
ATOM     91  F   UNL A   1      47.877  24.888  33.020  1.00  0.00    -0.203 F 
ATOM     92  F   UNL A   1      43.636  27.545  35.191  1.00  0.00    -0.200 F 
ATOM     93  C   UNL A   1      45.664  26.373  35.468  1.00  0.00     0.200 A 
ATOM     94  F   UNL A   1      47.666  25.143  35.697  1.00  0.00    -0.200 F 
ATOM     95  F   UNL A   1      45.570  26.498  36.799  1.00  0.00    -0.200 F 
ENDBRANCH  62  85
ENDBRANCH  36  37
ENDBRANCH  28  31
ENDBRANCH  26  27
ENDBRANCH  25  26
ENDBRANCH  24  25
ENDBRANCH  23  24
ENDBRANCH   1  23
TORSDOF 18
ENDMDL
MODEL 3
REMARK VINA RESULT:     -11.1      3.491      5.796
REMARK SMILES CCC[C@H](C)C[NH+]1CC(n2cc(C(=O)NCCCCCCNC(=O)c3ccc(-c4c5nc(c(-c6c(F)c(F)c(F)c(F)c6F)c6ccc([nH]6)c(-c6c(F)c(F)c(F)c(F)c6F)c6nc(c(-c7c(F)c(F)c(F)c(F)c7F)c7ccc4[nH]7)C=C6)C=C5)cc3)nn2)C1
REMARK SMILES IDX 17 1 16 2 15 3 13 4 14 5 12 7 10 8 11 9 89 10 88 11 9 12
REMARK SMILES IDX 7 13 8 14 90 15 6 17 4 18 5 19 3 20 2 21 1 22 18 23 19 24
REMARK SMILES IDX 20 25 21 26 22 27 23 28 24 30 25 31 26 32 87 33 27 34 86 35
REMARK SMILES IDX 28 36 29 37 30 38 80 39 31 40 85 41 79 42 81 43 32 44 84 45
REMARK SMILES IDX 78 46 77 47 33 49 65 50 45 51 64 52 46 53 49 54 63 55 82 56
REMARK SMILES IDX 47 57 48 58 62 60 83 61 50 62 34 63 35 64 43 65 36 66 37 67
REMARK SMILES IDX 41 68 44 69 38 70 39 71 42 72 40 73 66 74 67 75 75 76 68 77
REMARK SMILES IDX 69 78 73 79 76 80 70 81 71 82 74 83 72 84 51 85 52 86 60 87
REMARK SMILES IDX 53 88 54 89 58 90 61 91 55 92 56 93 59 94 57 95
REMARK H PARENT 15 6 7 16 22 29 81 48 49 59
REMARK Flexibility Score: inf
ROOT
ATOM      1  C   UNL A   1      35.153  34.387  34.265  1.00  0.00     0.021 C 
ENDROOT
BRANCH   1   2
ATOM      2  C   UNL A   1      35.044  35.684  33.464  1.00  0.00     0.116 C 
BRANCH   2   3
ATOM      3  N   UNL A   1      33.710  36.237  33.564  1.00  0.00    -0.351 N 
ATOM      4  C   UNL A   1      32.715  36.399  32.631  1.00  0.00     0.273 C 
ATOM      5  O   UNL A   1      31.632  36.816  33.039  1.00  0.00    -0.267 OA
ATOM      6  H   UNL A   1      33.472  36.555  34.466  1.00  0.00     0.163 HD
BRANCH   4   7
ATOM      7  C   UNL A   1      32.932  36.049  31.233  1.00  0.00     0.170 A 
ATOM      8  N   UNL A   1      33.476  35.179  29.323  1.00  0.00    -0.237 N 
ATOM      9  C   UNL A   1      33.810  35.158  30.646  1.00  0.00     0.145 A 
ATOM     10  N   UNL A   1      32.529  36.092  29.073  1.00  0.00    -0.066 NA
ATOM     11  N   UNL A   1      32.207  36.655  30.228  1.00  0.00    -0.125 NA
BRANCH   8  12
ATOM     12  C   UNL A   1      34.074  34.330  28.346  1.00  0.00     0.218 C 
ATOM     13  N   UNL A   1      34.166  32.359  27.662  1.00  0.00    -0.331 N 
ATOM     14  C   UNL A   1      33.104  33.408  27.583  1.00  0.00     0.295 C 
ATOM     15  C   UNL A   1      34.577  32.998  28.957  1.00  0.00     0.295 C 
ATOM     16  H   UNL A   1      34.799  32.194  26.880  1.00  0.00     0.348 HD
BRANCH  13  17
ATOM     17  C   UNL A   1      33.646  31.003  27.903  1.00  0.00     0.265 C 
BRANCH  17  18
ATOM     18  C   UNL A   1      33.682  30.023  26.706  1.00  0.00     0.041 C 
ATOM     19  C   UNL A   1      33.977  28.580  27.147  1.00  0.00     0.013 C 
BRANCH  18  20
ATOM     20  C   UNL A   1      32.387  30.068  25.865  1.00  0.00     0.009 C 
BRANCH  20  21
ATOM     21  C   UNL A   1      31.525  28.799  25.863  1.00  0.00    -0.003 C 
ATOM     22  C   UNL A   1      31.417  28.103  24.514  1.00  0.00     0.004 C 
ENDBRANCH  20  21
ENDBRANCH  18  20
ENDBRANCH  17  18
ENDBRANCH  13  17
ENDBRANCH   8  12
ENDBRANCH   4   7
ENDBRANCH   2   3
ENDBRANCH   1   2
BRANCH   1  23
ATOM     23  C   UNL A   1      34.574  33.170  33.531  1.00  0.00     0.002 C 
BRANCH  23  24
ATOM     24  C   UNL A   1      35.587  32.341  32.725  1.00  0.00     0.002 C 
BRANCH  24  25
ATOM     25  C   UNL A   1      36.951  32.104  33.392  1.00  0.00     0.021 C 
BRANCH  25  26
ATOM     26  C   UNL A   1      38.080  32.885  32.743  1.00  0.00     0.116 C 
BRANCH  26  27
ATOM     27  N   UNL A   1      37.706  33.409  31.431  1.00  0.00    -0.352 N 
ATOM     28  C   UNL A   1      38.395  33.302  30.237  1.00  0.00     0.251 C 
ATOM     29  H   UNL A   1      36.853  33.900  31.392  1.00  0.00     0.163 HD
ATOM     30  O   UNL A   1      38.191  34.069  29.313  1.00  0.00    -0.269 OA
BRANCH  28  31
ATOM     31  C   UNL A   1      39.383  32.219  30.107  1.00  0.00     0.039 A 
ATOM     32  C   UNL A   1      40.752  32.453  30.260  1.00  0.00     0.014 A 
ATOM     33  C   UNL A   1      38.896  30.938  29.861  1.00  0.00     0.014 A 
ATOM     34  C   UNL A   1      41.617  31.363  30.234  1.00  0.00     0.010 A 
ATOM     35  C   UNL A   1      39.720  29.858  30.022  1.00  0.00     0.010 A 
ATOM     36  C   UNL A   1      41.087  30.065  30.133  1.00  0.00    -0.014 A 
BRANCH  36  37
ATOM     37  C   UNL A   1      41.939  28.891  30.258  1.00  0.00     0.031 A 
ATOM     38  C   UNL A   1      42.249  28.531  31.666  1.00  0.00     0.074 A 
ATOM     39  C   UNL A   1      42.237  28.090  29.211  1.00  0.00     0.049 A 
ATOM     40  N   UNL A   1      43.386  28.640  32.266  1.00  0.00    -0.248 NA
ATOM     41  C   UNL A   1      41.139  28.165  32.564  1.00  0.00     0.031 C 
ATOM     42  C   UNL A   1      41.725  28.164  27.835  1.00  0.00     0.029 A 
ATOM     43  N   UNL A   1      43.002  26.964  29.178  1.00  0.00    -0.354 N 
ATOM     44  C   UNL A   1      43.189  28.153  33.555  1.00  0.00     0.074 A 
ATOM     45  C   UNL A   1      41.766  28.057  33.738  1.00  0.00     0.031 C 
ATOM     46  C   UNL A   1      41.998  27.014  27.180  1.00  0.00     0.029 A 
ATOM     47  C   UNL A   1      42.859  26.204  28.019  1.00  0.00     0.049 A 
ATOM     48  H   UNL A   1      43.607  26.709  29.911  1.00  0.00     0.167 HD
ATOM     49  C   UNL A   1      44.226  27.610  34.250  1.00  0.00     0.037 A 
ATOM     50  C   UNL A   1      43.408  24.988  27.780  1.00  0.00     0.037 A 
ATOM     51  C   UNL A   1      45.479  27.913  33.603  1.00  0.00     0.049 A 
ATOM     52  C   UNL A   1      44.554  24.849  28.706  1.00  0.00     0.074 A 
ATOM     53  C   UNL A   1      46.243  29.038  33.391  1.00  0.00     0.029 A 
ATOM     54  N   UNL A   1      45.881  26.976  32.687  1.00  0.00    -0.354 N 
ATOM     55  N   UNL A   1      45.630  25.582  28.639  1.00  0.00    -0.248 NA
ATOM     56  C   UNL A   1      44.339  24.168  29.973  1.00  0.00     0.031 C 
ATOM     57  C   UNL A   1      46.868  28.842  32.122  1.00  0.00     0.029 A 
ATOM     58  C   UNL A   1      46.518  27.579  31.639  1.00  0.00     0.049 A 
ATOM     59  H   UNL A   1      45.732  26.007  32.772  1.00  0.00     0.167 HD
ATOM     60  C   UNL A   1      45.980  25.808  29.960  1.00  0.00     0.074 A 
ATOM     61  C   UNL A   1      45.253  24.795  30.719  1.00  0.00     0.031 C 
ATOM     62  C   UNL A   1      46.579  26.981  30.322  1.00  0.00     0.037 A 
BRANCH  49  63
ATOM     63  C   UNL A   1      44.111  26.433  35.193  1.00  0.00     0.064 A 
ATOM     64  C   UNL A   1      44.647  26.545  36.494  1.00  0.00     0.173 A 
ATOM     65  C   UNL A   1      43.802  25.120  34.778  1.00  0.00     0.173 A 
ATOM     66  F   UNL A   1      45.012  27.740  36.981  1.00  0.00    -0.203 F 
ATOM     67  C   UNL A   1      44.911  25.422  37.285  1.00  0.00     0.198 A 
ATOM     68  C   UNL A   1      44.018  24.007  35.591  1.00  0.00     0.198 A 
ATOM     69  F   UNL A   1      43.395  24.843  33.534  1.00  0.00    -0.203 F 
ATOM     70  F   UNL A   1      45.534  25.567  38.463  1.00  0.00    -0.200 F 
ATOM     71  C   UNL A   1      44.599  24.154  36.831  1.00  0.00     0.200 A 
ATOM     72  F   UNL A   1      43.735  22.785  35.119  1.00  0.00    -0.200 F 
ATOM     73  F   UNL A   1      44.902  23.073  37.562  1.00  0.00    -0.200 F 
ENDBRANCH  49  63
BRANCH  50  74
ATOM     74  C   UNL A   1      42.827  23.829  27.061  1.00  0.00     0.064 A 
ATOM     75  C   UNL A   1      43.599  23.072  26.162  1.00  0.00     0.173 A 
ATOM     76  C   UNL A   1      41.610  23.254  27.476  1.00  0.00     0.173 A 
ATOM     77  F   UNL A   1      44.792  23.526  25.753  1.00  0.00    -0.203 F 
ATOM     78  C   UNL A   1      43.197  21.801  25.737  1.00  0.00     0.198 A 
ATOM     79  C   UNL A   1      41.208  21.987  27.049  1.00  0.00     0.198 A 
ATOM     80  F   UNL A   1      40.839  23.867  28.386  1.00  0.00    -0.203 F 
ATOM     81  F   UNL A   1      43.994  21.079  24.936  1.00  0.00    -0.200 F 
ATOM     82  C   UNL A   1      42.009  21.253  26.192  1.00  0.00     0.200 A 
ATOM     83  F   UNL A   1      40.078  21.452  27.530  1.00  0.00    -0.200 F 
ATOM     84  F   UNL A   1      41.657  20.008  25.844  1.00  0.00    -0.200 F 
ENDBRANCH  50  74
BRANCH  62  85
ATOM     85  C   UNL A   1      47.216  27.794  29.230  1.00  0.00     0.064 A 
ATOM     86  C   UNL A   1      46.575  28.814  28.505  1.00  0.00     0.173 A 
ATOM     87  C   UNL A   1      48.581  27.591  28.983  1.00  0.00     0.173 A 
ATOM     88  F   UNL A   1      45.295  29.129  28.738  1.00  0.00    -0.203 F 
ATOM     89  C   UNL A   1      47.265  29.564  27.551  1.00  0.00     0.198 A 
ATOM     90  C   UNL A   1      49.275  28.365  28.061  1.00  0.00     0.198 A 
ATOM     91  F   UNL A   1      49.255  26.660  29.678  1.00  0.00    -0.203 F 
ATOM     92  F   UNL A   1      46.628  30.520  26.857  1.00  0.00    -0.200 F 
ATOM     93  C   UNL A   1      48.615  29.343  27.336  1.00  0.00     0.200 A 
ATOM     94  F   UNL A   1      50.591  28.177  27.891  1.00  0.00    -0.200 F 
ATOM     95  F   UNL A   1      49.287  30.088  26.447  1.00  0.00    -0.200 F 
ENDBRANCH  62  85
ENDBRANCH  36  37
ENDBRANCH  28  31
ENDBRANCH  26  27
ENDBRANCH  25  26
ENDBRANCH  24  25
ENDBRANCH  23  24
ENDBRANCH   1  23
TORSDOF 18
ENDMDL
