MODEL 1
REMARK VINA RESULT:     -11.5      0.000      0.000
REMARK SMILES CC(C)[C@@H]([NH3+])C(=O)N[C@@H](C)C(=O)N1CCC[C@@H]1C(=O)NCC(=O)NCCCCCCNC(=O)c1ccc(-c2c3nc(c(-c4c(F)c(F)c(F)c(F)c4F)c4ccc([nH]4)c(-c4c(F)c(F)c(F)c(F)c4F)c4nc(c(-c5c(F)c(F)c(F)c(F)c5F)c5ccc2[nH]5)C=C4)C=C3)cc1
REMARK SMILES IDX 25 1 24 2 22 3 23 4 21 6 20 7 18 8 19 9 17 11 13 12 14 13
REMARK SMILES IDX 15 14 16 15 11 16 12 17 9 18 10 19 8 20 6 21 7 22 4 24 2 25
REMARK SMILES IDX 1 26 3 27 5 28 26 32 27 33 28 34 29 35 30 36 31 37 32 38
REMARK SMILES IDX 33 40 34 41 35 42 96 43 36 44 95 45 37 46 38 47 39 48 89 49
REMARK SMILES IDX 40 50 94 51 88 52 90 53 41 54 93 55 87 56 86 57 42 59 74 60
REMARK SMILES IDX 54 61 73 62 55 63 58 64 72 65 91 66 56 67 57 68 71 70 92 71
REMARK SMILES IDX 59 72 43 73 44 74 52 75 45 76 46 77 50 78 53 79 47 80 48 81
REMARK SMILES IDX 51 82 49 83 75 84 76 85 84 86 77 87 78 88 82 89 85 90 79 91
REMARK SMILES IDX 80 92 83 93 81 94 60 95 61 96 69 97 62 98 63 99 67 100
REMARK SMILES IDX 70 101 64 102 65 103 68 104 66 105
REMARK H PARENT 24 5 20 10 8 23 5 29 5 30 5 31 31 39 90 58 58 69
REMARK Flexibility Score: inf
ROOT
ATOM      1  C   UNL A   1      33.498  27.854  24.976  1.00  0.00     0.116 C 
ENDROOT
BRANCH   1   2
ATOM      2  N   UNL A   1      33.963  27.206  23.776  1.00  0.00    -0.355 N 
ATOM      3  C   UNL A   1      33.232  26.712  22.737  1.00  0.00     0.239 C 
ATOM      4  O   UNL A   1      33.843  26.390  21.715  1.00  0.00    -0.273 OA
ATOM      5  H   UNL A   1      34.938  27.106  23.696  1.00  0.00     0.163 HD
BRANCH   3   6
ATOM      6  C   UNL A   1      31.692  26.753  22.746  1.00  0.00     0.216 C 
BRANCH   6   7
ATOM      7  N   UNL A   1      31.003  25.471  22.728  1.00  0.00    -0.345 N 
ATOM      8  C   UNL A   1      30.869  24.471  23.647  1.00  0.00     0.243 C 
ATOM      9  O   UNL A   1      30.513  23.375  23.190  1.00  0.00    -0.273 OA
ATOM     10  H   UNL A   1      30.537  25.288  21.880  1.00  0.00     0.164 HD
BRANCH   8  11
ATOM     11  C   UNL A   1      31.311  24.567  25.137  1.00  0.00     0.174 C 
ATOM     12  N   UNL A   1      32.102  23.447  25.632  1.00  0.00    -0.329 N 
ATOM     13  C   UNL A   1      31.498  22.843  26.808  1.00  0.00     0.120 C 
ATOM     14  C   UNL A   1      30.061  23.340  26.803  1.00  0.00     0.024 C 
ATOM     15  C   UNL A   1      30.164  24.710  26.142  1.00  0.00     0.037 C 
BRANCH  12  16
ATOM     16  C   UNL A   1      33.373  23.290  25.124  1.00  0.00     0.245 C 
ATOM     17  O   UNL A   1      33.581  23.519  23.925  1.00  0.00    -0.272 OA
BRANCH  16  18
ATOM     18  C   UNL A   1      34.455  22.566  25.938  1.00  0.00     0.168 C 
ATOM     19  C   UNL A   1      35.520  23.579  26.353  1.00  0.00     0.041 C 
BRANCH  18  20
ATOM     20  N   UNL A   1      35.088  21.397  25.346  1.00  0.00    -0.339 N 
ATOM     21  C   UNL A   1      34.541  20.168  25.114  1.00  0.00     0.279 C 
ATOM     22  O   UNL A   1      35.272  19.304  24.622  1.00  0.00    -0.268 OA
ATOM     23  H   UNL A   1      36.030  21.506  25.080  1.00  0.00     0.164 HD
BRANCH  21  24
ATOM     24  C   UNL A   1      33.049  19.866  25.428  1.00  0.00     0.273 C 
BRANCH  24  25
ATOM     25  C   UNL A   1      32.214  19.477  24.180  1.00  0.00     0.051 C 
ATOM     26  C   UNL A   1      32.376  20.470  23.025  1.00  0.00     0.014 C 
ATOM     27  C   UNL A   1      32.564  18.065  23.698  1.00  0.00     0.014 C 
ENDBRANCH  24  25
BRANCH  24  28
ATOM     28  N   UNL A   1      33.000  18.854  26.504  1.00  0.00    -0.347 N 
ATOM     29  H   UNL A   1      33.710  19.068  27.204  1.00  0.00     0.345 HD
ATOM     30  H   UNL A   1      33.179  17.930  26.110  1.00  0.00     0.345 HD
ATOM     31  H   UNL A   1      32.078  18.865  26.940  1.00  0.00     0.345 HD
ENDBRANCH  24  28
ENDBRANCH  21  24
ENDBRANCH  18  20
ENDBRANCH  16  18
ENDBRANCH  12  16
ENDBRANCH   8  11
ENDBRANCH   6   7
ENDBRANCH   3   6
ENDBRANCH   1   2
BRANCH   1  32
ATOM     32  C   UNL A   1      33.372  29.361  24.815  1.00  0.00     0.021 C 
BRANCH  32  33
ATOM     33  C   UNL A   1      32.960  30.052  26.115  1.00  0.00     0.002 C 
BRANCH  33  34
ATOM     34  C   UNL A   1      31.520  30.582  26.121  1.00  0.00     0.002 C 
BRANCH  34  35
ATOM     35  C   UNL A   1      31.331  31.932  26.819  1.00  0.00     0.021 C 
BRANCH  35  36
ATOM     36  C   UNL A   1      32.631  32.583  27.280  1.00  0.00     0.116 C 
BRANCH  36  37
ATOM     37  N   UNL A   1      32.454  34.000  27.557  1.00  0.00    -0.352 N 
ATOM     38  C   UNL A   1      33.065  34.793  28.493  1.00  0.00     0.251 C 
ATOM     39  H   UNL A   1      31.798  34.459  26.984  1.00  0.00     0.163 HD
ATOM     40  O   UNL A   1      32.634  35.914  28.729  1.00  0.00    -0.269 OA
BRANCH  38  41
ATOM     41  C   UNL A   1      34.238  34.281  29.230  1.00  0.00     0.039 A 
ATOM     42  C   UNL A   1      34.034  33.607  30.435  1.00  0.00     0.014 A 
ATOM     43  C   UNL A   1      35.531  34.473  28.736  1.00  0.00     0.014 A 
ATOM     44  C   UNL A   1      35.127  33.070  31.116  1.00  0.00     0.010 A 
ATOM     45  C   UNL A   1      36.610  33.871  29.375  1.00  0.00     0.010 A 
ATOM     46  C   UNL A   1      36.419  33.164  30.572  1.00  0.00    -0.014 A 
BRANCH  46  47
ATOM     47  C   UNL A   1      37.580  32.522  31.235  1.00  0.00     0.031 A 
ATOM     48  C   UNL A   1      38.298  31.383  30.567  1.00  0.00     0.074 A 
ATOM     49  C   UNL A   1      37.947  32.927  32.468  1.00  0.00     0.049 A 
ATOM     50  N   UNL A   1      39.285  30.650  31.018  1.00  0.00    -0.248 NA
ATOM     51  C   UNL A   1      37.832  31.001  29.225  1.00  0.00     0.031 C 
ATOM     52  C   UNL A   1      37.301  33.995  33.233  1.00  0.00     0.029 A 
ATOM     53  N   UNL A   1      38.946  32.482  33.297  1.00  0.00    -0.354 N 
ATOM     54  C   UNL A   1      39.550  29.720  30.022  1.00  0.00     0.074 A 
ATOM     55  C   UNL A   1      38.586  29.943  28.967  1.00  0.00     0.031 C 
ATOM     56  C   UNL A   1      37.932  34.137  34.408  1.00  0.00     0.029 A 
ATOM     57  C   UNL A   1      38.995  33.142  34.501  1.00  0.00     0.049 A 
ATOM     58  H   UNL A   1      39.566  31.758  33.053  1.00  0.00     0.167 HD
ATOM     59  C   UNL A   1      40.526  28.782  29.981  1.00  0.00     0.037 A 
ATOM     60  C   UNL A   1      39.799  32.954  35.565  1.00  0.00     0.037 A 
ATOM     61  C   UNL A   1      41.492  28.574  31.027  1.00  0.00     0.049 A 
ATOM     62  C   UNL A   1      40.852  31.878  35.505  1.00  0.00     0.074 A 
ATOM     63  C   UNL A   1      42.549  27.682  31.060  1.00  0.00     0.029 A 
ATOM     64  N   UNL A   1      41.513  29.264  32.231  1.00  0.00    -0.354 N 
ATOM     65  N   UNL A   1      41.139  31.053  34.529  1.00  0.00    -0.248 NA
ATOM     66  C   UNL A   1      41.698  31.715  36.695  1.00  0.00     0.031 C 
ATOM     67  C   UNL A   1      43.176  27.792  32.305  1.00  0.00     0.029 A 
ATOM     68  C   UNL A   1      42.550  28.797  33.024  1.00  0.00     0.049 A 
ATOM     69  H   UNL A   1      40.887  29.979  32.484  1.00  0.00     0.167 HD
ATOM     70  C   UNL A   1      42.215  30.296  34.972  1.00  0.00     0.074 A 
ATOM     71  C   UNL A   1      42.542  30.773  36.298  1.00  0.00     0.031 C 
ATOM     72  C   UNL A   1      42.873  29.293  34.338  1.00  0.00     0.037 A 
BRANCH  59  73
ATOM     73  C   UNL A   1      40.605  27.909  28.761  1.00  0.00     0.064 A 
ATOM     74  C   UNL A   1      39.902  26.697  28.678  1.00  0.00     0.173 A 
ATOM     75  C   UNL A   1      41.348  28.313  27.641  1.00  0.00     0.173 A 
ATOM     76  F   UNL A   1      39.185  26.259  29.724  1.00  0.00    -0.203 F 
ATOM     77  C   UNL A   1      39.957  25.912  27.529  1.00  0.00     0.198 A 
ATOM     78  C   UNL A   1      41.374  27.542  26.482  1.00  0.00     0.198 A 
ATOM     79  F   UNL A   1      42.034  29.465  27.664  1.00  0.00    -0.203 F 
ATOM     80  F   UNL A   1      39.312  24.739  27.489  1.00  0.00    -0.200 F 
ATOM     81  C   UNL A   1      40.685  26.340  26.428  1.00  0.00     0.200 A 
ATOM     82  F   UNL A   1      42.065  27.964  25.414  1.00  0.00    -0.200 F 
ATOM     83  F   UNL A   1      40.726  25.592  25.318  1.00  0.00    -0.200 F 
ENDBRANCH  59  73
BRANCH  60  84
ATOM     84  C   UNL A   1      39.649  33.802  36.777  1.00  0.00     0.064 A 
ATOM     85  C   UNL A   1      38.856  33.386  37.856  1.00  0.00     0.173 A 
ATOM     86  C   UNL A   1      40.272  35.056  36.874  1.00  0.00     0.173 A 
ATOM     87  F   UNL A   1      38.225  32.204  37.806  1.00  0.00    -0.203 F 
ATOM     88  C   UNL A   1      38.664  34.204  38.968  1.00  0.00     0.198 A 
ATOM     89  C   UNL A   1      40.107  35.858  38.001  1.00  0.00     0.198 A 
ATOM     90  F   UNL A   1      41.047  35.500  35.874  1.00  0.00    -0.203 F 
ATOM     91  F   UNL A   1      37.851  33.806  39.956  1.00  0.00    -0.200 F 
ATOM     92  C   UNL A   1      39.293  35.437  39.041  1.00  0.00     0.200 A 
ATOM     93  F   UNL A   1      40.732  37.041  38.076  1.00  0.00    -0.200 F 
ATOM     94  F   UNL A   1      39.108  36.224  40.110  1.00  0.00    -0.200 F 
ENDBRANCH  60  84
BRANCH  72  95
ATOM     95  C   UNL A   1      44.039  28.673  35.052  1.00  0.00     0.064 A 
ATOM     96  C   UNL A   1      45.338  29.188  34.934  1.00  0.00     0.173 A 
ATOM     97  C   UNL A   1      43.845  27.571  35.900  1.00  0.00     0.173 A 
ATOM     98  F   UNL A   1      45.580  30.229  34.123  1.00  0.00    -0.203 F 
ATOM     99  C   UNL A   1      46.403  28.607  35.615  1.00  0.00     0.198 A 
ATOM    100  C   UNL A   1      44.906  27.015  36.609  1.00  0.00     0.198 A 
ATOM    101  F   UNL A   1      42.621  27.043  36.055  1.00  0.00    -0.203 F 
ATOM    102  F   UNL A   1      47.644  29.083  35.446  1.00  0.00    -0.200 F 
ATOM    103  C   UNL A   1      46.186  27.528  36.459  1.00  0.00     0.200 A 
ATOM    104  F   UNL A   1      44.690  25.984  37.436  1.00  0.00    -0.200 F 
ATOM    105  F   UNL A   1      47.211  26.977  37.123  1.00  0.00    -0.200 F 
ENDBRANCH  72  95
ENDBRANCH  46  47
ENDBRANCH  38  41
ENDBRANCH  36  37
ENDBRANCH  35  36
ENDBRANCH  34  35
ENDBRANCH  33  34
ENDBRANCH  32  33
ENDBRANCH   1  32
TORSDOF 21
ENDMDL
MODEL 2
REMARK VINA RESULT:     -11.5      0.492      7.221
REMARK SMILES CC(C)[C@@H]([NH3+])C(=O)N[C@@H](C)C(=O)N1CCC[C@@H]1C(=O)NCC(=O)NCCCCCCNC(=O)c1ccc(-c2c3nc(c(-c4c(F)c(F)c(F)c(F)c4F)c4ccc([nH]4)c(-c4c(F)c(F)c(F)c(F)c4F)c4nc(c(-c5c(F)c(F)c(F)c(F)c5F)c5ccc2[nH]5)C=C4)C=C3)cc1
REMARK SMILES IDX 25 1 24 2 22 3 23 4 21 6 20 7 18 8 19 9 17 11 13 12 14 13
REMARK SMILES IDX 15 14 16 15 11 16 12 17 9 18 10 19 8 20 6 21 7 22 4 24 2 25
REMARK SMILES IDX 1 26 3 27 5 28 26 32 27 33 28 34 29 35 30 36 31 37 32 38
REMARK SMILES IDX 33 40 34 41 35 42 96 43 36 44 95 45 37 46 38 47 39 48 89 49
REMARK SMILES IDX 40 50 94 51 88 52 90 53 41 54 93 55 87 56 86 57 42 59 74 60
REMARK SMILES IDX 54 61 73 62 55 63 58 64 72 65 91 66 56 67 57 68 71 70 92 71
REMARK SMILES IDX 59 72 43 73 44 74 52 75 45 76 46 77 50 78 53 79 47 80 48 81
REMARK SMILES IDX 51 82 49 83 75 84 76 85 84 86 77 87 78 88 82 89 85 90 79 91
REMARK SMILES IDX 80 92 83 93 81 94 60 95 61 96 69 97 62 98 63 99 67 100
REMARK SMILES IDX 70 101 64 102 65 103 68 104 66 105
REMARK H PARENT 24 5 20 10 8 23 5 29 5 30 5 31 31 39 90 58 58 69
REMARK Flexibility Score: inf
ROOT
ATOM      1  C   UNL A   1      33.382  27.755  24.854  1.00  0.00     0.116 C 
ENDROOT
BRANCH   1   2
ATOM      2  N   UNL A   1      33.915  27.102  23.685  1.00  0.00    -0.355 N 
ATOM      3  C   UNL A   1      33.246  26.610  22.604  1.00  0.00     0.239 C 
ATOM      4  O   UNL A   1      33.917  26.283  21.621  1.00  0.00    -0.273 OA
ATOM      5  H   UNL A   1      34.894  26.998  23.664  1.00  0.00     0.163 HD
BRANCH   3   6
ATOM      6  C   UNL A   1      31.708  26.657  22.521  1.00  0.00     0.216 C 
BRANCH   6   7
ATOM      7  N   UNL A   1      31.009  25.383  22.592  1.00  0.00    -0.345 N 
ATOM      8  C   UNL A   1      30.911  24.425  23.559  1.00  0.00     0.243 C 
ATOM      9  O   UNL A   1      30.526  23.314  23.167  1.00  0.00    -0.273 OA
ATOM     10  H   UNL A   1      30.503  25.167  21.775  1.00  0.00     0.164 HD
BRANCH   8  11
ATOM     11  C   UNL A   1      31.424  24.581  25.021  1.00  0.00     0.174 C 
ATOM     12  N   UNL A   1      32.219  23.471  25.531  1.00  0.00    -0.329 N 
ATOM     13  C   UNL A   1      31.661  22.932  26.760  1.00  0.00     0.120 C 
ATOM     14  C   UNL A   1      30.233  23.455  26.798  1.00  0.00     0.024 C 
ATOM     15  C   UNL A   1      30.328  24.792  26.070  1.00  0.00     0.037 C 
BRANCH  12  16
ATOM     16  C   UNL A   1      33.462  23.268  24.972  1.00  0.00     0.245 C 
ATOM     17  O   UNL A   1      33.614  23.425  23.754  1.00  0.00    -0.272 OA
BRANCH  16  18
ATOM     18  C   UNL A   1      34.574  22.577  25.775  1.00  0.00     0.168 C 
ATOM     19  C   UNL A   1      35.676  23.594  26.065  1.00  0.00     0.041 C 
BRANCH  18  20
ATOM     20  N   UNL A   1      35.155  21.359  25.230  1.00  0.00    -0.339 N 
ATOM     21  C   UNL A   1      34.561  20.141  25.067  1.00  0.00     0.279 C 
ATOM     22  O   UNL A   1      35.252  19.229  24.605  1.00  0.00    -0.268 OA
ATOM     23  H   UNL A   1      36.095  21.421  24.944  1.00  0.00     0.164 HD
BRANCH  21  24
ATOM     24  C   UNL A   1      33.066  19.907  25.419  1.00  0.00     0.273 C 
BRANCH  24  25
ATOM     25  C   UNL A   1      32.201  19.458  24.212  1.00  0.00     0.051 C 
ATOM     26  C   UNL A   1      32.348  20.384  23.001  1.00  0.00     0.014 C 
ATOM     27  C   UNL A   1      32.528  18.018  23.803  1.00  0.00     0.014 C 
ENDBRANCH  24  25
BRANCH  24  28
ATOM     28  N   UNL A   1      33.002  18.976  26.565  1.00  0.00    -0.347 N 
ATOM     29  H   UNL A   1      33.132  19.495  27.433  1.00  0.00     0.345 HD
ATOM     30  H   UNL A   1      33.739  18.276  26.475  1.00  0.00     0.345 HD
ATOM     31  H   UNL A   1      32.093  18.513  26.578  1.00  0.00     0.345 HD
ENDBRANCH  24  28
ENDBRANCH  21  24
ENDBRANCH  18  20
ENDBRANCH  16  18
ENDBRANCH  12  16
ENDBRANCH   8  11
ENDBRANCH   6   7
ENDBRANCH   3   6
ENDBRANCH   1   2
BRANCH   1  32
ATOM     32  C   UNL A   1      33.290  29.263  24.691  1.00  0.00     0.021 C 
BRANCH  32  33
ATOM     33  C   UNL A   1      32.823  29.959  25.969  1.00  0.00     0.002 C 
BRANCH  33  34
ATOM     34  C   UNL A   1      31.426  30.589  25.873  1.00  0.00     0.002 C 
BRANCH  34  35
ATOM     35  C   UNL A   1      31.274  31.935  26.587  1.00  0.00     0.021 C 
BRANCH  35  36
ATOM     36  C   UNL A   1      32.580  32.504  27.132  1.00  0.00     0.116 C 
BRANCH  36  37
ATOM     37  N   UNL A   1      32.450  33.909  27.484  1.00  0.00    -0.352 N 
ATOM     38  C   UNL A   1      33.085  34.630  28.461  1.00  0.00     0.251 C 
ATOM     39  H   UNL A   1      31.808  34.418  26.939  1.00  0.00     0.163 HD
ATOM     40  O   UNL A   1      32.691  35.750  28.758  1.00  0.00    -0.269 OA
BRANCH  38  41
ATOM     41  C   UNL A   1      34.242  34.041  29.167  1.00  0.00     0.039 A 
ATOM     42  C   UNL A   1      34.011  33.237  30.284  1.00  0.00     0.014 A 
ATOM     43  C   UNL A   1      35.547  34.289  28.731  1.00  0.00     0.014 A 
ATOM     44  C   UNL A   1      35.088  32.629  30.929  1.00  0.00     0.010 A 
ATOM     45  C   UNL A   1      36.612  33.622  29.327  1.00  0.00     0.010 A 
ATOM     46  C   UNL A   1      36.393  32.786  30.433  1.00  0.00    -0.014 A 
BRANCH  46  47
ATOM     47  C   UNL A   1      37.540  32.076  31.050  1.00  0.00     0.031 A 
ATOM     48  C   UNL A   1      38.025  32.468  32.418  1.00  0.00     0.074 A 
ATOM     49  C   UNL A   1      38.182  31.119  30.350  1.00  0.00     0.049 A 
ATOM     50  N   UNL A   1      39.052  32.017  33.092  1.00  0.00    -0.248 NA
ATOM     51  C   UNL A   1      37.270  33.524  33.111  1.00  0.00     0.031 C 
ATOM     52  C   UNL A   1      37.829  30.680  28.999  1.00  0.00     0.029 A 
ATOM     53  N   UNL A   1      39.272  30.350  30.674  1.00  0.00    -0.354 N 
ATOM     54  C   UNL A   1      39.070  32.735  34.279  1.00  0.00     0.074 A 
ATOM     55  C   UNL A   1      37.987  33.692  34.212  1.00  0.00     0.031 C 
ATOM     56  C   UNL A   1      38.671  29.707  28.619  1.00  0.00     0.029 A 
ATOM     57  C   UNL A   1      39.651  29.485  29.677  1.00  0.00     0.049 A 
ATOM     58  H   UNL A   1      39.738  30.415  31.539  1.00  0.00     0.167 HD
ATOM     59  C   UNL A   1      39.900  32.592  35.341  1.00  0.00     0.037 A 
ATOM     60  C   UNL A   1      40.682  28.621  29.619  1.00  0.00     0.037 A 
ATOM     61  C   UNL A   1      40.966  31.628  35.408  1.00  0.00     0.049 A 
ATOM     62  C   UNL A   1      41.610  28.509  30.800  1.00  0.00     0.074 A 
ATOM     63  C   UNL A   1      41.832  31.372  36.456  1.00  0.00     0.029 A 
ATOM     64  N   UNL A   1      41.318  30.765  34.379  1.00  0.00    -0.354 N 
ATOM     65  N   UNL A   1      41.574  29.144  31.945  1.00  0.00    -0.248 NA
ATOM     66  C   UNL A   1      42.720  27.553  30.680  1.00  0.00     0.031 C 
ATOM     67  C   UNL A   1      42.743  30.395  36.044  1.00  0.00     0.029 A 
ATOM     68  C   UNL A   1      42.406  29.996  34.760  1.00  0.00     0.049 A 
ATOM     69  H   UNL A   1      40.863  30.708  33.509  1.00  0.00     0.167 HD
ATOM     70  C   UNL A   1      42.631  28.644  32.694  1.00  0.00     0.074 A 
ATOM     71  C   UNL A   1      43.279  27.639  31.878  1.00  0.00     0.031 C 
ATOM     72  C   UNL A   1      43.032  28.988  33.943  1.00  0.00     0.037 A 
BRANCH  59  73
ATOM     73  C   UNL A   1      39.686  33.495  36.522  1.00  0.00     0.064 A 
ATOM     74  C   UNL A   1      40.296  34.756  36.603  1.00  0.00     0.173 A 
ATOM     75  C   UNL A   1      38.818  33.120  37.558  1.00  0.00     0.173 A 
ATOM     76  F   UNL A   1      41.143  35.159  35.644  1.00  0.00    -0.203 F 
ATOM     77  C   UNL A   1      40.064  35.597  37.688  1.00  0.00     0.198 A 
ATOM     78  C   UNL A   1      38.563  33.977  38.625  1.00  0.00     0.198 A 
ATOM     79  F   UNL A   1      38.203  31.928  37.528  1.00  0.00    -0.203 F 
ATOM     80  F   UNL A   1      40.693  36.778  37.765  1.00  0.00    -0.200 F 
ATOM     81  C   UNL A   1      39.190  35.211  38.693  1.00  0.00     0.200 A 
ATOM     82  F   UNL A   1      37.705  33.610  39.588  1.00  0.00    -0.200 F 
ATOM     83  F   UNL A   1      38.955  36.028  39.729  1.00  0.00    -0.200 F 
ENDBRANCH  59  73
BRANCH  60  84
ATOM     84  C   UNL A   1      40.893  27.786  28.407  1.00  0.00     0.064 A 
ATOM     85  C   UNL A   1      41.709  28.231  27.357  1.00  0.00     0.173 A 
ATOM     86  C   UNL A   1      40.264  26.541  28.257  1.00  0.00     0.173 A 
ATOM     87  F   UNL A   1      42.317  29.424  27.442  1.00  0.00    -0.203 F 
ATOM     88  C   UNL A   1      41.861  27.481  26.192  1.00  0.00     0.198 A 
ATOM     89  C   UNL A   1      40.445  25.775  27.108  1.00  0.00     0.198 A 
ATOM     90  F   UNL A   1      39.479  26.063  29.234  1.00  0.00    -0.203 F 
ATOM     91  F   UNL A   1      42.597  27.961  25.181  1.00  0.00    -0.200 F 
ATOM     92  C   UNL A   1      41.233  26.251  26.072  1.00  0.00     0.200 A 
ATOM     93  F   UNL A   1      39.851  24.578  27.002  1.00  0.00    -0.200 F 
ATOM     94  F   UNL A   1      41.379  25.529  24.951  1.00  0.00    -0.200 F 
ENDBRANCH  60  84
BRANCH  72  95
ATOM     95  C   UNL A   1      44.199  28.242  34.523  1.00  0.00     0.064 A 
ATOM     96  C   UNL A   1      44.038  27.022  35.195  1.00  0.00     0.173 A 
ATOM     97  C   UNL A   1      45.503  28.738  34.367  1.00  0.00     0.173 A 
ATOM     98  F   UNL A   1      42.811  26.513  35.385  1.00  0.00    -0.203 F 
ATOM     99  C   UNL A   1      45.135  26.340  35.713  1.00  0.00     0.198 A 
ATOM    100  C   UNL A   1      46.602  28.035  34.855  1.00  0.00     0.198 A 
ATOM    101  F   UNL A   1      45.715  29.898  33.726  1.00  0.00    -0.203 F 
ATOM    102  F   UNL A   1      44.952  25.203  36.398  1.00  0.00    -0.200 F 
ATOM    103  C   UNL A   1      46.416  26.841  35.535  1.00  0.00     0.200 A 
ATOM    104  F   UNL A   1      47.839  28.514  34.666  1.00  0.00    -0.200 F 
ATOM    105  F   UNL A   1      47.471  26.178  36.024  1.00  0.00    -0.200 F 
ENDBRANCH  72  95
ENDBRANCH  46  47
ENDBRANCH  38  41
ENDBRANCH  36  37
ENDBRANCH  35  36
ENDBRANCH  34  35
ENDBRANCH  33  34
ENDBRANCH  32  33
ENDBRANCH   1  32
TORSDOF 21
ENDMDL
MODEL 3
REMARK VINA RESULT:     -11.2      1.877      7.697
REMARK SMILES CC(C)[C@@H]([NH3+])C(=O)N[C@@H](C)C(=O)N1CCC[C@@H]1C(=O)NCC(=O)NCCCCCCNC(=O)c1ccc(-c2c3nc(c(-c4c(F)c(F)c(F)c(F)c4F)c4ccc([nH]4)c(-c4c(F)c(F)c(F)c(F)c4F)c4nc(c(-c5c(F)c(F)c(F)c(F)c5F)c5ccc2[nH]5)C=C4)C=C3)cc1
REMARK SMILES IDX 25 1 24 2 22 3 23 4 21 6 20 7 18 8 19 9 17 11 13 12 14 13
REMARK SMILES IDX 15 14 16 15 11 16 12 17 9 18 10 19 8 20 6 21 7 22 4 24 2 25
REMARK SMILES IDX 1 26 3 27 5 28 26 32 27 33 28 34 29 35 30 36 31 37 32 38
REMARK SMILES IDX 33 40 34 41 35 42 96 43 36 44 95 45 37 46 38 47 39 48 89 49
REMARK SMILES IDX 40 50 94 51 88 52 90 53 41 54 93 55 87 56 86 57 42 59 74 60
REMARK SMILES IDX 54 61 73 62 55 63 58 64 72 65 91 66 56 67 57 68 71 70 92 71
REMARK SMILES IDX 59 72 43 73 44 74 52 75 45 76 46 77 50 78 53 79 47 80 48 81
REMARK SMILES IDX 51 82 49 83 75 84 76 85 84 86 77 87 78 88 82 89 85 90 79 91
REMARK SMILES IDX 80 92 83 93 81 94 60 95 61 96 69 97 62 98 63 99 67 100
REMARK SMILES IDX 70 101 64 102 65 103 68 104 66 105
REMARK H PARENT 24 5 20 10 8 23 5 29 5 30 5 31 31 39 90 58 58 69
REMARK Flexibility Score: inf
ROOT
ATOM      1  C   UNL A   1      34.520  31.999  28.193  1.00  0.00     0.116 C 
ENDROOT
BRANCH   1   2
ATOM      2  N   UNL A   1      34.781  30.585  28.093  1.00  0.00    -0.355 N 
ATOM      3  C   UNL A   1      34.189  29.665  27.280  1.00  0.00     0.239 C 
ATOM      4  O   UNL A   1      34.714  28.551  27.207  1.00  0.00    -0.273 OA
ATOM      5  H   UNL A   1      35.481  30.237  28.691  1.00  0.00     0.163 HD
BRANCH   3   6
ATOM      6  C   UNL A   1      33.044  30.054  26.326  1.00  0.00     0.216 C 
BRANCH   6   7
ATOM      7  N   UNL A   1      33.303  29.913  24.901  1.00  0.00    -0.345 N 
ATOM      8  C   UNL A   1      32.975  28.957  23.984  1.00  0.00     0.243 C 
ATOM      9  O   UNL A   1      33.644  28.972  22.941  1.00  0.00    -0.273 OA
ATOM     10  H   UNL A   1      33.820  30.659  24.520  1.00  0.00     0.164 HD
BRANCH   8  11
ATOM     11  C   UNL A   1      31.992  27.777  24.241  1.00  0.00     0.174 C 
ATOM     12  N   UNL A   1      32.274  26.551  23.506  1.00  0.00    -0.329 N 
ATOM     13  C   UNL A   1      31.129  26.122  22.718  1.00  0.00     0.120 C 
ATOM     14  C   UNL A   1      30.237  27.352  22.633  1.00  0.00     0.024 C 
ATOM     15  C   UNL A   1      30.522  28.085  23.940  1.00  0.00     0.037 C 
BRANCH  12  16
ATOM     16  C   UNL A   1      33.413  25.854  23.843  1.00  0.00     0.245 C 
ATOM     17  O   UNL A   1      33.981  25.166  22.985  1.00  0.00    -0.272 OA
BRANCH  16  18
ATOM     18  C   UNL A   1      33.817  25.683  25.315  1.00  0.00     0.168 C 
ATOM     19  C   UNL A   1      35.007  24.729  25.391  1.00  0.00     0.041 C 
BRANCH  18  20
ATOM     20  N   UNL A   1      32.792  25.272  26.262  1.00  0.00    -0.339 N 
ATOM     21  C   UNL A   1      32.117  24.087  26.312  1.00  0.00     0.279 C 
ATOM     22  O   UNL A   1      31.261  23.956  27.192  1.00  0.00    -0.268 OA
ATOM     23  H   UNL A   1      32.555  25.931  26.954  1.00  0.00     0.164 HD
BRANCH  21  24
ATOM     24  C   UNL A   1      32.424  22.929  25.323  1.00  0.00     0.273 C 
BRANCH  24  25
ATOM     25  C   UNL A   1      32.607  21.550  26.010  1.00  0.00     0.051 C 
ATOM     26  C   UNL A   1      32.396  20.376  25.048  1.00  0.00     0.014 C 
ATOM     27  C   UNL A   1      33.987  21.438  26.666  1.00  0.00     0.014 C 
ENDBRANCH  24  25
BRANCH  24  28
ATOM     28  N   UNL A   1      31.381  22.928  24.275  1.00  0.00    -0.347 N 
ATOM     29  H   UNL A   1      30.468  22.779  24.705  1.00  0.00     0.345 HD
ATOM     30  H   UNL A   1      31.570  22.177  23.610  1.00  0.00     0.345 HD
ATOM     31  H   UNL A   1      31.386  23.823  23.787  1.00  0.00     0.345 HD
ENDBRANCH  24  28
ENDBRANCH  21  24
ENDBRANCH  18  20
ENDBRANCH  16  18
ENDBRANCH  12  16
ENDBRANCH   8  11
ENDBRANCH   6   7
ENDBRANCH   3   6
ENDBRANCH   1   2
BRANCH   1  32
ATOM     32  C   UNL A   1      35.758  32.797  28.568  1.00  0.00     0.021 C 
BRANCH  32  33
ATOM     33  C   UNL A   1      35.414  34.182  29.114  1.00  0.00     0.002 C 
BRANCH  33  34
ATOM     34  C   UNL A   1      34.583  35.051  28.159  1.00  0.00     0.002 C 
BRANCH  34  35
ATOM     35  C   UNL A   1      33.312  35.648  28.769  1.00  0.00     0.021 C 
BRANCH  35  36
ATOM     36  C   UNL A   1      33.559  36.521  29.995  1.00  0.00     0.116 C 
BRANCH  36  37
ATOM     37  N   UNL A   1      32.501  36.372  30.983  1.00  0.00    -0.352 N 
ATOM     38  C   UNL A   1      32.455  35.588  32.106  1.00  0.00     0.251 C 
ATOM     39  H   UNL A   1      31.698  36.918  30.821  1.00  0.00     0.163 HD
ATOM     40  O   UNL A   1      31.398  35.423  32.702  1.00  0.00    -0.269 OA
BRANCH  38  41
ATOM     41  C   UNL A   1      33.685  34.927  32.586  1.00  0.00     0.039 A 
ATOM     42  C   UNL A   1      33.608  33.609  33.040  1.00  0.00     0.014 A 
ATOM     43  C   UNL A   1      34.906  35.608  32.593  1.00  0.00     0.014 A 
ATOM     44  C   UNL A   1      34.769  32.952  33.446  1.00  0.00     0.010 A 
ATOM     45  C   UNL A   1      36.073  34.928  32.924  1.00  0.00     0.010 A 
ATOM     46  C   UNL A   1      36.017  33.593  33.355  1.00  0.00    -0.014 A 
BRANCH  46  47
ATOM     47  C   UNL A   1      37.273  32.881  33.696  1.00  0.00     0.031 A 
ATOM     48  C   UNL A   1      38.001  33.201  34.971  1.00  0.00     0.074 A 
ATOM     49  C   UNL A   1      37.787  31.990  32.824  1.00  0.00     0.049 A 
ATOM     50  N   UNL A   1      39.146  32.740  35.407  1.00  0.00    -0.248 NA
ATOM     51  C   UNL A   1      37.373  34.188  35.863  1.00  0.00     0.031 C 
ATOM     52  C   UNL A   1      37.192  31.627  31.537  1.00  0.00     0.029 A 
ATOM     53  N   UNL A   1      38.932  31.236  32.885  1.00  0.00    -0.354 N 
ATOM     54  C   UNL A   1      39.377  33.383  36.615  1.00  0.00     0.074 A 
ATOM     55  C   UNL A   1      38.284  34.308  36.818  1.00  0.00     0.031 C 
ATOM     56  C   UNL A   1      37.963  30.706  30.941  1.00  0.00     0.029 A 
ATOM     57  C   UNL A   1      39.130  30.447  31.778  1.00  0.00     0.049 A 
ATOM     58  H   UNL A   1      39.553  31.260  33.648  1.00  0.00     0.167 HD
ATOM     59  C   UNL A   1      40.396  33.198  37.489  1.00  0.00     0.037 A 
ATOM     60  C   UNL A   1      40.147  29.620  31.468  1.00  0.00     0.037 A 
ATOM     61  C   UNL A   1      41.473  32.266  37.289  1.00  0.00     0.049 A 
ATOM     62  C   UNL A   1      41.284  29.463  32.443  1.00  0.00     0.074 A 
ATOM     63  C   UNL A   1      42.527  31.971  38.135  1.00  0.00     0.029 A 
ATOM     64  N   UNL A   1      41.638  31.480  36.156  1.00  0.00    -0.354 N 
ATOM     65  N   UNL A   1      41.455  30.023  33.614  1.00  0.00    -0.248 NA
ATOM     66  C   UNL A   1      42.368  28.551  32.051  1.00  0.00     0.031 C 
ATOM     67  C   UNL A   1      43.360  31.050  37.493  1.00  0.00     0.029 A 
ATOM     68  C   UNL A   1      42.792  30.721  36.272  1.00  0.00     0.049 A 
ATOM     69  H   UNL A   1      41.027  31.464  35.386  1.00  0.00     0.167 HD
ATOM     70  C   UNL A   1      42.645  29.510  34.114  1.00  0.00     0.074 A 
ATOM     71  C   UNL A   1      43.144  28.578  33.125  1.00  0.00     0.031 C 
ATOM     72  C   UNL A   1      43.269  29.787  35.285  1.00  0.00     0.037 A 
BRANCH  59  73
ATOM     73  C   UNL A   1      40.394  34.018  38.748  1.00  0.00     0.064 A 
ATOM     74  C   UNL A   1      39.756  33.571  39.915  1.00  0.00     0.173 A 
ATOM     75  C   UNL A   1      41.084  35.238  38.805  1.00  0.00     0.173 A 
ATOM     76  F   UNL A   1      39.073  32.416  39.912  1.00  0.00    -0.203 F 
ATOM     77  C   UNL A   1      39.790  34.326  41.085  1.00  0.00     0.198 A 
ATOM     78  C   UNL A   1      41.144  35.974  39.985  1.00  0.00     0.198 A 
ATOM     79  F   UNL A   1      41.717  35.710  37.720  1.00  0.00    -0.203 F 
ATOM     80  F   UNL A   1      39.137  33.899  42.174  1.00  0.00    -0.200 F 
ATOM     81  C   UNL A   1      40.492  35.521  41.122  1.00  0.00     0.200 A 
ATOM     82  F   UNL A   1      41.836  37.121  40.024  1.00  0.00    -0.200 F 
ATOM     83  F   UNL A   1      40.537  36.239  42.252  1.00  0.00    -0.200 F 
ENDBRANCH  59  73
BRANCH  60  84
ATOM     84  C   UNL A   1      40.138  28.870  30.184  1.00  0.00     0.064 A 
ATOM     85  C   UNL A   1      40.753  29.395  29.037  1.00  0.00     0.173 A 
ATOM     86  C   UNL A   1      39.495  27.629  30.066  1.00  0.00     0.173 A 
ATOM     87  F   UNL A   1      41.365  30.587  29.092  1.00  0.00    -0.203 F 
ATOM     88  C   UNL A   1      40.695  28.725  27.817  1.00  0.00     0.198 A 
ATOM     89  C   UNL A   1      39.468  26.943  28.854  1.00  0.00     0.198 A 
ATOM     90  F   UNL A   1      38.897  27.078  31.132  1.00  0.00    -0.203 F 
ATOM     91  F   UNL A   1      41.238  29.280  26.725  1.00  0.00    -0.200 F 
ATOM     92  C   UNL A   1      40.057  27.497  27.728  1.00  0.00     0.200 A 
ATOM     93  F   UNL A   1      38.866  25.748  28.776  1.00  0.00    -0.200 F 
ATOM     94  F   UNL A   1      40.001  26.853  26.554  1.00  0.00    -0.200 F 
ENDBRANCH  60  84
BRANCH  72  95
ATOM     95  C   UNL A   1      44.539  29.042  35.584  1.00  0.00     0.064 A 
ATOM     96  C   UNL A   1      45.795  29.545  35.219  1.00  0.00     0.173 A 
ATOM     97  C   UNL A   1      44.497  27.826  36.285  1.00  0.00     0.173 A 
ATOM     98  F   UNL A   1      45.889  30.694  34.533  1.00  0.00    -0.203 F 
ATOM     99  C   UNL A   1      46.961  28.845  35.518  1.00  0.00     0.198 A 
ATOM    100  C   UNL A   1      45.667  27.147  36.615  1.00  0.00     0.198 A 
ATOM    101  F   UNL A   1      43.321  27.303  36.666  1.00  0.00    -0.203 F 
ATOM    102  F   UNL A   1      48.147  29.319  35.111  1.00  0.00    -0.200 F 
ATOM    103  C   UNL A   1      46.897  27.653  36.224  1.00  0.00     0.200 A 
ATOM    104  F   UNL A   1      45.603  26.005  37.312  1.00  0.00    -0.200 F 
ATOM    105  F   UNL A   1      48.021  26.988  36.521  1.00  0.00    -0.200 F 
ENDBRANCH  72  95
ENDBRANCH  46  47
ENDBRANCH  38  41
ENDBRANCH  36  37
ENDBRANCH  35  36
ENDBRANCH  34  35
ENDBRANCH  33  34
ENDBRANCH  32  33
ENDBRANCH   1  32
TORSDOF 21
ENDMDL
