MODEL 1
REMARK VINA RESULT:     -12.4      0.000      0.000
REMARK SMILES COc1ccc(-c2csc(NC(=O)[C@H](CC(=O)NCCCCCCNC(=O)c3ccc(-c4c5nc(c(-c6c(F)c(F)c(F)c(F)c6F)c6ccc([nH]6)c(-c6c(F)c(F)c(F)c(F)c6F)c6nc(c(-c7c(F)c(F)c(F)c(F)c7F)c7ccc4[nH]7)C=C6)C=C5)cc3)[NH+]3CCCCC3)n2)cc1
REMARK SMILES IDX 20 1 19 2 18 3 16 4 17 5 15 7 14 8 12 9 11 10 13 12 10 13
REMARK SMILES IDX 7 14 8 15 97 16 9 17 6 18 3 19 4 20 99 21 5 22 98 23 2 24
REMARK SMILES IDX 1 25 91 26 92 27 96 28 93 30 95 31 94 32 21 33 22 34 23 35
REMARK SMILES IDX 24 36 25 37 26 38 27 40 28 41 29 42 90 43 30 44 89 45 31 46
REMARK SMILES IDX 32 47 33 48 83 49 34 50 88 51 82 52 84 53 35 54 87 55 81 56
REMARK SMILES IDX 80 57 36 59 68 60 48 61 67 62 49 63 52 64 66 65 85 66 50 67
REMARK SMILES IDX 51 68 65 70 86 71 53 72 37 73 38 74 46 75 39 76 40 77 44 78
REMARK SMILES IDX 47 79 41 80 42 81 45 82 43 83 69 84 70 85 78 86 71 87 72 88
REMARK SMILES IDX 76 89 79 90 73 91 74 92 77 93 75 94 54 95 55 96 63 97 56 98
REMARK SMILES IDX 57 99 61 100 64 101 58 102 59 103 62 104 60 105
REMARK H PARENT 18 6 11 11 91 29 25 39 84 58 52 69
REMARK Flexibility Score: inf
ROOT
ATOM      1  C   UNL A   1      35.172  21.527  26.293  1.00  0.00     0.021 C 
ENDROOT
BRANCH   1   2
ATOM      2  C   UNL A   1      35.210  22.989  26.739  1.00  0.00     0.116 C 
BRANCH   2   3
ATOM      3  N   UNL A   1      35.149  23.883  25.601  1.00  0.00    -0.356 N 
ATOM      4  C   UNL A   1      34.230  24.838  25.279  1.00  0.00     0.226 C 
ATOM      5  O   UNL A   1      34.409  25.478  24.241  1.00  0.00    -0.275 OA
ATOM      6  H   UNL A   1      35.889  23.789  24.960  1.00  0.00     0.163 HD
BRANCH   4   7
ATOM      7  C   UNL A   1      33.075  25.144  26.209  1.00  0.00     0.175 C 
BRANCH   7   8
ATOM      8  C   UNL A   1      31.800  25.633  25.493  1.00  0.00     0.284 C 
BRANCH   8   9
ATOM      9  C   UNL A   1      30.589  24.767  25.963  1.00  0.00     0.285 C 
ATOM     10  N   UNL A   1      30.312  23.533  25.449  1.00  0.00    -0.297 N 
ATOM     11  H   UNL A   1      29.399  23.208  25.626  1.00  0.00     0.172 HD
ATOM     12  O   UNL A   1      29.755  25.235  26.751  1.00  0.00    -0.268 OA
BRANCH  10  13
ATOM     13  C   UNL A   1      31.093  22.678  24.730  1.00  0.00     0.190 A 
ATOM     14  C   UNL A   1      32.149  20.826  24.156  1.00  0.00     0.084 A 
ATOM     15  C   UNL A   1      32.334  21.572  23.004  1.00  0.00     0.097 A 
ATOM     16  N   UNL A   1      31.469  21.498  25.166  1.00  0.00    -0.220 NA
ATOM     17  S   UNL A   1      31.783  23.167  23.251  1.00  0.00    -0.105 S 
BRANCH  14  18
ATOM     18  C   UNL A   1      32.625  19.451  24.303  1.00  0.00     0.001 A 
ATOM     19  C   UNL A   1      33.487  16.777  24.601  1.00  0.00     0.118 A 
ATOM     20  C   UNL A   1      33.061  17.510  25.705  1.00  0.00     0.047 A 
ATOM     21  C   UNL A   1      33.487  17.378  23.342  1.00  0.00     0.047 A 
ATOM     22  C   UNL A   1      32.640  18.832  25.561  1.00  0.00     0.014 A 
ATOM     23  C   UNL A   1      33.053  18.708  23.194  1.00  0.00     0.014 A 
BRANCH  19  24
ATOM     24  O   UNL A   1      33.824  15.484  24.884  1.00  0.00    -0.497 OA
ATOM     25  C   UNL A   1      32.822  14.678  25.486  1.00  0.00     0.278 C 
ENDBRANCH  19  24
ENDBRANCH  14  18
ENDBRANCH  10  13
ENDBRANCH   8   9
BRANCH   8  26
ATOM     26  N   UNL A   1      31.596  27.098  25.704  1.00  0.00    -0.324 N 
ATOM     27  C   UNL A   1      32.476  27.671  26.725  1.00  0.00     0.262 C 
ATOM     28  C   UNL A   1      31.557  27.891  24.470  1.00  0.00     0.262 C 
ATOM     29  H   UNL A   1      30.652  27.162  26.085  1.00  0.00     0.348 HD
ATOM     30  C   UNL A   1      32.170  29.133  27.034  1.00  0.00     0.062 C 
ATOM     31  C   UNL A   1      31.256  29.370  24.738  1.00  0.00     0.062 C 
ATOM     32  C   UNL A   1      32.224  29.956  25.757  1.00  0.00     0.012 C 
ENDBRANCH   8  26
ENDBRANCH   7   8
ENDBRANCH   4   7
ENDBRANCH   2   3
ENDBRANCH   1   2
BRANCH   1  33
ATOM     33  C   UNL A   1      35.951  21.225  25.008  1.00  0.00     0.002 C 
BRANCH  33  34
ATOM     34  C   UNL A   1      36.562  19.823  24.927  1.00  0.00     0.002 C 
BRANCH  34  35
ATOM     35  C   UNL A   1      38.051  19.775  24.574  1.00  0.00     0.021 C 
BRANCH  35  36
ATOM     36  C   UNL A   1      38.999  20.097  25.726  1.00  0.00     0.116 C 
BRANCH  36  37
ATOM     37  N   UNL A   1      40.056  19.108  25.867  1.00  0.00    -0.352 N 
ATOM     38  C   UNL A   1      41.397  19.285  26.075  1.00  0.00     0.251 C 
ATOM     39  H   UNL A   1      39.762  18.170  25.801  1.00  0.00     0.163 HD
ATOM     40  O   UNL A   1      42.166  18.325  25.983  1.00  0.00    -0.269 OA
BRANCH  38  41
ATOM     41  C   UNL A   1      41.941  20.623  26.391  1.00  0.00     0.039 A 
ATOM     42  C   UNL A   1      42.207  21.506  25.341  1.00  0.00     0.014 A 
ATOM     43  C   UNL A   1      42.218  21.000  27.709  1.00  0.00     0.014 A 
ATOM     44  C   UNL A   1      42.699  22.784  25.615  1.00  0.00     0.010 A 
ATOM     45  C   UNL A   1      42.646  22.298  27.986  1.00  0.00     0.010 A 
ATOM     46  C   UNL A   1      42.895  23.201  26.941  1.00  0.00    -0.014 A 
BRANCH  46  47
ATOM     47  C   UNL A   1      43.355  24.580  27.247  1.00  0.00     0.031 A 
ATOM     48  C   UNL A   1      42.399  25.597  27.806  1.00  0.00     0.074 A 
ATOM     49  C   UNL A   1      44.627  24.931  26.974  1.00  0.00     0.049 A 
ATOM     50  N   UNL A   1      42.608  26.855  28.102  1.00  0.00    -0.248 NA
ATOM     51  C   UNL A   1      41.017  25.149  28.039  1.00  0.00     0.031 C 
ATOM     52  C   UNL A   1      45.637  24.051  26.385  1.00  0.00     0.029 A 
ATOM     53  N   UNL A   1      45.286  26.122  27.150  1.00  0.00    -0.354 N 
ATOM     54  C   UNL A   1      41.388  27.349  28.545  1.00  0.00     0.074 A 
ATOM     55  C   UNL A   1      40.430  26.270  28.428  1.00  0.00     0.031 C 
ATOM     56  C   UNL A   1      46.793  24.724  26.270  1.00  0.00     0.029 A 
ATOM     57  C   UNL A   1      46.599  26.090  26.748  1.00  0.00     0.049 A 
ATOM     58  H   UNL A   1      44.858  26.924  27.530  1.00  0.00     0.167 HD
ATOM     59  C   UNL A   1      41.098  28.581  29.029  1.00  0.00     0.037 A 
ATOM     60  C   UNL A   1      47.539  27.053  26.759  1.00  0.00     0.037 A 
ATOM     61  C   UNL A   1      42.059  29.645  29.166  1.00  0.00     0.049 A 
ATOM     62  C   UNL A   1      47.191  28.413  27.303  1.00  0.00     0.074 A 
ATOM     63  C   UNL A   1      41.877  30.909  29.701  1.00  0.00     0.029 A 
ATOM     64  N   UNL A   1      43.384  29.570  28.761  1.00  0.00    -0.354 N 
ATOM     65  N   UNL A   1      46.052  28.844  27.787  1.00  0.00    -0.248 NA
ATOM     66  C   UNL A   1      48.265  29.416  27.310  1.00  0.00     0.031 C 
ATOM     67  C   UNL A   1      43.080  31.613  29.579  1.00  0.00     0.029 A 
ATOM     68  C   UNL A   1      44.026  30.772  29.015  1.00  0.00     0.049 A 
ATOM     69  H   UNL A   1      43.806  28.778  28.355  1.00  0.00     0.167 HD
ATOM     70  C   UNL A   1      46.278  30.157  28.181  1.00  0.00     0.074 A 
ATOM     71  C   UNL A   1      47.668  30.445  27.895  1.00  0.00     0.031 C 
ATOM     72  C   UNL A   1      45.411  31.043  28.728  1.00  0.00     0.037 A 
BRANCH  59  73
ATOM     73  C   UNL A   1      39.681  28.846  29.451  1.00  0.00     0.064 A 
ATOM     74  C   UNL A   1      39.271  28.698  30.785  1.00  0.00     0.173 A 
ATOM     75  C   UNL A   1      38.731  29.292  28.519  1.00  0.00     0.173 A 
ATOM     76  F   UNL A   1      40.138  28.264  31.712  1.00  0.00    -0.203 F 
ATOM     77  C   UNL A   1      37.957  28.957  31.164  1.00  0.00     0.198 A 
ATOM     78  C   UNL A   1      37.426  29.580  28.908  1.00  0.00     0.198 A 
ATOM     79  F   UNL A   1      39.071  29.457  27.232  1.00  0.00    -0.203 F 
ATOM     80  F   UNL A   1      37.577  28.761  32.434  1.00  0.00    -0.200 F 
ATOM     81  C   UNL A   1      37.038  29.405  30.228  1.00  0.00     0.200 A 
ATOM     82  F   UNL A   1      36.541  30.025  28.005  1.00  0.00    -0.200 F 
ATOM     83  F   UNL A   1      35.775  29.661  30.596  1.00  0.00    -0.200 F 
ENDBRANCH  59  73
BRANCH  60  84
ATOM     84  C   UNL A   1      48.910  26.759  26.266  1.00  0.00     0.064 A 
ATOM     85  C   UNL A   1      49.278  27.056  24.947  1.00  0.00     0.173 A 
ATOM     86  C   UNL A   1      49.875  26.173  27.097  1.00  0.00     0.173 A 
ATOM     87  F   UNL A   1      48.382  27.599  24.108  1.00  0.00    -0.203 F 
ATOM     88  C   UNL A   1      50.552  26.759  24.470  1.00  0.00     0.198 A 
ATOM     89  C   UNL A   1      51.159  25.902  26.628  1.00  0.00     0.198 A 
ATOM     90  F   UNL A   1      49.574  25.874  28.369  1.00  0.00    -0.203 F 
ATOM     91  F   UNL A   1      50.864  27.011  23.191  1.00  0.00    -0.200 F 
ATOM     92  C   UNL A   1      51.494  26.188  25.313  1.00  0.00     0.200 A 
ATOM     93  F   UNL A   1      52.070  25.363  27.450  1.00  0.00    -0.200 F 
ATOM     94  F   UNL A   1      52.722  25.906  24.856  1.00  0.00    -0.200 F 
ENDBRANCH  60  84
BRANCH  72  95
ATOM     95  C   UNL A   1      45.950  32.399  29.083  1.00  0.00     0.064 A 
ATOM     96  C   UNL A   1      45.933  33.460  28.167  1.00  0.00     0.173 A 
ATOM     97  C   UNL A   1      46.462  32.646  30.366  1.00  0.00     0.173 A 
ATOM     98  F   UNL A   1      45.468  33.271  26.923  1.00  0.00    -0.203 F 
ATOM     99  C   UNL A   1      46.438  34.712  28.512  1.00  0.00     0.198 A 
ATOM    100  C   UNL A   1      46.937  33.906  30.718  1.00  0.00     0.198 A 
ATOM    101  F   UNL A   1      46.494  31.667  31.282  1.00  0.00    -0.203 F 
ATOM    102  F   UNL A   1      46.459  35.697  27.603  1.00  0.00    -0.200 F 
ATOM    103  C   UNL A   1      46.932  34.936  29.788  1.00  0.00     0.200 A 
ATOM    104  F   UNL A   1      47.401  34.124  31.955  1.00  0.00    -0.200 F 
ATOM    105  F   UNL A   1      47.413  36.141  30.119  1.00  0.00    -0.200 F 
ENDBRANCH  72  95
ENDBRANCH  46  47
ENDBRANCH  38  41
ENDBRANCH  36  37
ENDBRANCH  35  36
ENDBRANCH  34  35
ENDBRANCH  33  34
ENDBRANCH   1  33
TORSDOF 19
ENDMDL
MODEL 2
REMARK VINA RESULT:     -12.3      0.272      1.869
REMARK SMILES COc1ccc(-c2csc(NC(=O)[C@H](CC(=O)NCCCCCCNC(=O)c3ccc(-c4c5nc(c(-c6c(F)c(F)c(F)c(F)c6F)c6ccc([nH]6)c(-c6c(F)c(F)c(F)c(F)c6F)c6nc(c(-c7c(F)c(F)c(F)c(F)c7F)c7ccc4[nH]7)C=C6)C=C5)cc3)[NH+]3CCCCC3)n2)cc1
REMARK SMILES IDX 20 1 19 2 18 3 16 4 17 5 15 7 14 8 12 9 11 10 13 12 10 13
REMARK SMILES IDX 7 14 8 15 97 16 9 17 6 18 3 19 4 20 99 21 5 22 98 23 2 24
REMARK SMILES IDX 1 25 91 26 92 27 96 28 93 30 95 31 94 32 21 33 22 34 23 35
REMARK SMILES IDX 24 36 25 37 26 38 27 40 28 41 29 42 90 43 30 44 89 45 31 46
REMARK SMILES IDX 32 47 33 48 83 49 34 50 88 51 82 52 84 53 35 54 87 55 81 56
REMARK SMILES IDX 80 57 36 59 68 60 48 61 67 62 49 63 52 64 66 65 85 66 50 67
REMARK SMILES IDX 51 68 65 70 86 71 53 72 37 73 38 74 46 75 39 76 40 77 44 78
REMARK SMILES IDX 47 79 41 80 42 81 45 82 43 83 69 84 70 85 78 86 71 87 72 88
REMARK SMILES IDX 76 89 79 90 73 91 74 92 77 93 75 94 54 95 55 96 63 97 56 98
REMARK SMILES IDX 57 99 61 100 64 101 58 102 59 103 62 104 60 105
REMARK H PARENT 18 6 11 11 91 29 25 39 84 58 52 69
REMARK Flexibility Score: inf
ROOT
ATOM      1  C   UNL A   1      35.466  21.509  26.099  1.00  0.00     0.021 C 
ENDROOT
BRANCH   1   2
ATOM      2  C   UNL A   1      35.226  22.939  26.587  1.00  0.00     0.116 C 
BRANCH   2   3
ATOM      3  N   UNL A   1      35.165  23.866  25.476  1.00  0.00    -0.356 N 
ATOM      4  C   UNL A   1      34.247  24.831  25.183  1.00  0.00     0.226 C 
ATOM      5  O   UNL A   1      34.427  25.501  24.164  1.00  0.00    -0.275 OA
ATOM      6  H   UNL A   1      35.904  23.788  24.832  1.00  0.00     0.163 HD
BRANCH   4   7
ATOM      7  C   UNL A   1      33.095  25.112  26.124  1.00  0.00     0.175 C 
BRANCH   7   8
ATOM      8  C   UNL A   1      31.816  25.612  25.424  1.00  0.00     0.284 C 
BRANCH   8   9
ATOM      9  C   UNL A   1      30.605  24.750  25.900  1.00  0.00     0.285 C 
ATOM     10  N   UNL A   1      30.325  23.513  25.393  1.00  0.00    -0.297 N 
ATOM     11  H   UNL A   1      29.413  23.190  25.573  1.00  0.00     0.172 HD
ATOM     12  O   UNL A   1      29.772  25.222  26.687  1.00  0.00    -0.268 OA
BRANCH  10  13
ATOM     13  C   UNL A   1      31.105  22.653  24.677  1.00  0.00     0.190 A 
ATOM     14  C   UNL A   1      32.153  20.795  24.108  1.00  0.00     0.084 A 
ATOM     15  C   UNL A   1      32.348  21.540  22.958  1.00  0.00     0.097 A 
ATOM     16  N   UNL A   1      31.472  21.471  25.116  1.00  0.00    -0.220 NA
ATOM     17  S   UNL A   1      31.804  23.139  23.202  1.00  0.00    -0.105 S 
BRANCH  14  18
ATOM     18  C   UNL A   1      32.620  19.417  24.258  1.00  0.00     0.001 A 
ATOM     19  C   UNL A   1      33.471  16.742  24.574  1.00  0.00     0.118 A 
ATOM     20  C   UNL A   1      33.326  17.574  25.681  1.00  0.00     0.047 A 
ATOM     21  C   UNL A   1      33.194  17.245  23.303  1.00  0.00     0.047 A 
ATOM     22  C   UNL A   1      32.912  18.897  25.527  1.00  0.00     0.014 A 
ATOM     23  C   UNL A   1      32.766  18.576  23.146  1.00  0.00     0.014 A 
BRANCH  19  24
ATOM     24  O   UNL A   1      33.835  15.462  24.880  1.00  0.00    -0.497 OA
ATOM     25  C   UNL A   1      32.818  14.607  25.378  1.00  0.00     0.278 C 
ENDBRANCH  19  24
ENDBRANCH  14  18
ENDBRANCH  10  13
ENDBRANCH   8   9
BRANCH   8  26
ATOM     26  N   UNL A   1      31.622  27.077  25.645  1.00  0.00    -0.324 N 
ATOM     27  C   UNL A   1      32.413  27.612  26.756  1.00  0.00     0.262 C 
ATOM     28  C   UNL A   1      31.713  27.894  24.429  1.00  0.00     0.262 C 
ATOM     29  H   UNL A   1      30.648  27.154  25.937  1.00  0.00     0.348 HD
ATOM     30  C   UNL A   1      32.108  29.073  27.065  1.00  0.00     0.062 C 
ATOM     31  C   UNL A   1      31.418  29.373  24.699  1.00  0.00     0.062 C 
ATOM     32  C   UNL A   1      32.297  29.920  25.817  1.00  0.00     0.012 C 
ENDBRANCH   8  26
ENDBRANCH   7   8
ENDBRANCH   4   7
ENDBRANCH   2   3
ENDBRANCH   1   2
BRANCH   1  33
ATOM     33  C   UNL A   1      35.921  21.394  24.640  1.00  0.00     0.002 C 
BRANCH  33  34
ATOM     34  C   UNL A   1      37.433  21.266  24.434  1.00  0.00     0.002 C 
BRANCH  34  35
ATOM     35  C   UNL A   1      38.053  19.954  24.921  1.00  0.00     0.021 C 
BRANCH  35  36
ATOM     36  C   UNL A   1      39.029  20.092  26.086  1.00  0.00     0.116 C 
BRANCH  36  37
ATOM     37  N   UNL A   1      40.121  19.135  26.011  1.00  0.00    -0.352 N 
ATOM     38  C   UNL A   1      41.473  19.350  26.022  1.00  0.00     0.251 C 
ATOM     39  H   UNL A   1      39.847  18.192  25.940  1.00  0.00     0.163 HD
ATOM     40  O   UNL A   1      42.245  18.423  25.762  1.00  0.00    -0.269 OA
BRANCH  38  41
ATOM     41  C   UNL A   1      42.022  20.690  26.323  1.00  0.00     0.039 A 
ATOM     42  C   UNL A   1      42.327  21.546  25.262  1.00  0.00     0.014 A 
ATOM     43  C   UNL A   1      42.266  21.093  27.640  1.00  0.00     0.014 A 
ATOM     44  C   UNL A   1      42.824  22.825  25.522  1.00  0.00     0.010 A 
ATOM     45  C   UNL A   1      42.700  22.393  27.900  1.00  0.00     0.010 A 
ATOM     46  C   UNL A   1      42.987  23.270  26.843  1.00  0.00    -0.014 A 
BRANCH  46  47
ATOM     47  C   UNL A   1      43.453  24.651  27.131  1.00  0.00     0.031 A 
ATOM     48  C   UNL A   1      42.504  25.675  27.689  1.00  0.00     0.074 A 
ATOM     49  C   UNL A   1      44.723  24.996  26.843  1.00  0.00     0.049 A 
ATOM     50  N   UNL A   1      42.719  26.936  27.970  1.00  0.00    -0.248 NA
ATOM     51  C   UNL A   1      41.124  25.232  27.939  1.00  0.00     0.031 C 
ATOM     52  C   UNL A   1      45.726  24.108  26.253  1.00  0.00     0.029 A 
ATOM     53  N   UNL A   1      45.386  26.187  27.001  1.00  0.00    -0.354 N 
ATOM     54  C   UNL A   1      41.504  27.436  28.420  1.00  0.00     0.074 A 
ATOM     55  C   UNL A   1      40.543  26.358  28.323  1.00  0.00     0.031 C 
ATOM     56  C   UNL A   1      46.882  24.777  26.121  1.00  0.00     0.029 A 
ATOM     57  C   UNL A   1      46.695  26.148  26.587  1.00  0.00     0.049 A 
ATOM     58  H   UNL A   1      44.964  26.994  27.378  1.00  0.00     0.167 HD
ATOM     59  C   UNL A   1      41.221  28.674  28.894  1.00  0.00     0.037 A 
ATOM     60  C   UNL A   1      47.638  27.110  26.581  1.00  0.00     0.037 A 
ATOM     61  C   UNL A   1      42.186  29.736  29.012  1.00  0.00     0.049 A 
ATOM     62  C   UNL A   1      47.297  28.475  27.115  1.00  0.00     0.074 A 
ATOM     63  C   UNL A   1      42.011  31.006  29.537  1.00  0.00     0.029 A 
ATOM     64  N   UNL A   1      43.506  29.654  28.597  1.00  0.00    -0.354 N 
ATOM     65  N   UNL A   1      46.164  28.914  27.605  1.00  0.00    -0.248 NA
ATOM     66  C   UNL A   1      48.373  29.476  27.102  1.00  0.00     0.031 C 
ATOM     67  C   UNL A   1      43.214  31.707  29.397  1.00  0.00     0.029 A 
ATOM     68  C   UNL A   1      44.153  30.858  28.833  1.00  0.00     0.049 A 
ATOM     69  H   UNL A   1      43.923  28.858  28.194  1.00  0.00     0.167 HD
ATOM     70  C   UNL A   1      46.396  30.230  27.984  1.00  0.00     0.074 A 
ATOM     71  C   UNL A   1      47.784  30.512  27.682  1.00  0.00     0.031 C 
ATOM     72  C   UNL A   1      45.536  31.123  28.530  1.00  0.00     0.037 A 
BRANCH  59  73
ATOM     73  C   UNL A   1      39.809  28.946  29.327  1.00  0.00     0.064 A 
ATOM     74  C   UNL A   1      38.840  29.415  28.426  1.00  0.00     0.173 A 
ATOM     75  C   UNL A   1      39.408  28.698  30.649  1.00  0.00     0.173 A 
ATOM     76  F   UNL A   1      39.174  29.677  27.154  1.00  0.00    -0.203 F 
ATOM     77  C   UNL A   1      37.532  29.653  28.839  1.00  0.00     0.198 A 
ATOM     78  C   UNL A   1      38.092  28.909  31.051  1.00  0.00     0.198 A 
ATOM     79  F   UNL A   1      40.292  28.245  31.551  1.00  0.00    -0.203 F 
ATOM     80  F   UNL A   1      36.638  30.147  27.973  1.00  0.00    -0.200 F 
ATOM     81  C   UNL A   1      37.157  29.393  30.148  1.00  0.00     0.200 A 
ATOM     82  F   UNL A   1      37.727  28.646  32.313  1.00  0.00    -0.200 F 
ATOM     83  F   UNL A   1      35.896  29.616  30.542  1.00  0.00    -0.200 F 
ENDBRANCH  59  73
BRANCH  60  84
ATOM     84  C   UNL A   1      49.003  26.807  26.078  1.00  0.00     0.064 A 
ATOM     85  C   UNL A   1      49.986  26.291  26.933  1.00  0.00     0.173 A 
ATOM     86  C   UNL A   1      49.354  27.029  24.739  1.00  0.00     0.173 A 
ATOM     87  F   UNL A   1      49.704  26.081  28.228  1.00  0.00    -0.203 F 
ATOM     88  C   UNL A   1      51.275  26.030  26.474  1.00  0.00     0.198 A 
ATOM     89  C   UNL A   1      50.635  26.741  24.273  1.00  0.00     0.198 A 
ATOM     90  F   UNL A   1      48.448  27.517  23.879  1.00  0.00    -0.203 F 
ATOM     91  F   UNL A   1      52.209  25.581  27.324  1.00  0.00    -0.200 F 
ATOM     92  C   UNL A   1      51.596  26.249  25.143  1.00  0.00     0.200 A 
ATOM     93  F   UNL A   1      50.938  26.941  22.983  1.00  0.00    -0.200 F 
ATOM     94  F   UNL A   1      52.835  25.993  24.700  1.00  0.00    -0.200 F 
ENDBRANCH  60  84
BRANCH  72  95
ATOM     95  C   UNL A   1      46.081  32.482  28.867  1.00  0.00     0.064 A 
ATOM     96  C   UNL A   1      46.673  32.749  30.109  1.00  0.00     0.173 A 
ATOM     97  C   UNL A   1      46.034  33.519  27.923  1.00  0.00     0.173 A 
ATOM     98  F   UNL A   1      46.728  31.795  31.050  1.00  0.00    -0.203 F 
ATOM     99  C   UNL A   1      47.172  34.015  30.406  1.00  0.00     0.198 A 
ATOM    100  C   UNL A   1      46.562  34.774  28.212  1.00  0.00     0.198 A 
ATOM    101  F   UNL A   1      45.484  33.313  26.718  1.00  0.00    -0.203 F 
ATOM    102  F   UNL A   1      47.688  34.262  31.618  1.00  0.00    -0.200 F 
ATOM    103  C   UNL A   1      47.123  35.024  29.456  1.00  0.00     0.200 A 
ATOM    104  F   UNL A   1      46.526  35.743  27.288  1.00  0.00    -0.200 F 
ATOM    105  F   UNL A   1      47.608  36.239  29.741  1.00  0.00    -0.200 F 
ENDBRANCH  72  95
ENDBRANCH  46  47
ENDBRANCH  38  41
ENDBRANCH  36  37
ENDBRANCH  35  36
ENDBRANCH  34  35
ENDBRANCH  33  34
ENDBRANCH   1  33
TORSDOF 19
ENDMDL
MODEL 3
REMARK VINA RESULT:     -12.2      0.461      7.105
REMARK SMILES COc1ccc(-c2csc(NC(=O)[C@H](CC(=O)NCCCCCCNC(=O)c3ccc(-c4c5nc(c(-c6c(F)c(F)c(F)c(F)c6F)c6ccc([nH]6)c(-c6c(F)c(F)c(F)c(F)c6F)c6nc(c(-c7c(F)c(F)c(F)c(F)c7F)c7ccc4[nH]7)C=C6)C=C5)cc3)[NH+]3CCCCC3)n2)cc1
REMARK SMILES IDX 20 1 19 2 18 3 16 4 17 5 15 7 14 8 12 9 11 10 13 12 10 13
REMARK SMILES IDX 7 14 8 15 97 16 9 17 6 18 3 19 4 20 99 21 5 22 98 23 2 24
REMARK SMILES IDX 1 25 91 26 92 27 96 28 93 30 95 31 94 32 21 33 22 34 23 35
REMARK SMILES IDX 24 36 25 37 26 38 27 40 28 41 29 42 90 43 30 44 89 45 31 46
REMARK SMILES IDX 32 47 33 48 83 49 34 50 88 51 82 52 84 53 35 54 87 55 81 56
REMARK SMILES IDX 80 57 36 59 68 60 48 61 67 62 49 63 52 64 66 65 85 66 50 67
REMARK SMILES IDX 51 68 65 70 86 71 53 72 37 73 38 74 46 75 39 76 40 77 44 78
REMARK SMILES IDX 47 79 41 80 42 81 45 82 43 83 69 84 70 85 78 86 71 87 72 88
REMARK SMILES IDX 76 89 79 90 73 91 74 92 77 93 75 94 54 95 55 96 63 97 56 98
REMARK SMILES IDX 57 99 61 100 64 101 58 102 59 103 62 104 60 105
REMARK H PARENT 18 6 11 11 91 29 25 39 84 58 52 69
REMARK Flexibility Score: inf
ROOT
ATOM      1  C   UNL A   1      35.278  21.340  26.044  1.00  0.00     0.021 C 
ENDROOT
BRANCH   1   2
ATOM      2  C   UNL A   1      35.197  22.791  26.522  1.00  0.00     0.116 C 
BRANCH   2   3
ATOM      3  N   UNL A   1      35.128  23.705  25.401  1.00  0.00    -0.356 N 
ATOM      4  C   UNL A   1      34.245  24.710  25.136  1.00  0.00     0.226 C 
ATOM      5  O   UNL A   1      34.407  25.357  24.099  1.00  0.00    -0.275 OA
ATOM      6  H   UNL A   1      35.831  23.584  24.724  1.00  0.00     0.163 HD
BRANCH   4   7
ATOM      7  C   UNL A   1      33.152  25.058  26.124  1.00  0.00     0.175 C 
BRANCH   7   8
ATOM      8  C   UNL A   1      31.857  25.586  25.475  1.00  0.00     0.284 C 
BRANCH   8   9
ATOM      9  C   UNL A   1      30.651  24.731  25.975  1.00  0.00     0.285 C 
ATOM     10  N   UNL A   1      30.334  23.510  25.451  1.00  0.00    -0.297 N 
ATOM     11  H   UNL A   1      29.424  23.197  25.657  1.00  0.00     0.172 HD
ATOM     12  O   UNL A   1      29.856  25.197  26.803  1.00  0.00    -0.268 OA
BRANCH  10  13
ATOM     13  C   UNL A   1      31.074  22.657  24.687  1.00  0.00     0.190 A 
ATOM     14  C   UNL A   1      32.082  20.801  24.043  1.00  0.00     0.084 A 
ATOM     15  C   UNL A   1      32.225  21.560  22.894  1.00  0.00     0.097 A 
ATOM     16  N   UNL A   1      31.455  21.467  25.091  1.00  0.00    -0.220 NA
ATOM     17  S   UNL A   1      31.704  23.158  23.186  1.00  0.00    -0.105 S 
BRANCH  14  18
ATOM     18  C   UNL A   1      32.548  19.419  24.151  1.00  0.00     0.001 A 
ATOM     19  C   UNL A   1      33.393  16.733  24.379  1.00  0.00     0.118 A 
ATOM     20  C   UNL A   1      33.070  17.472  25.514  1.00  0.00     0.047 A 
ATOM     21  C   UNL A   1      33.297  17.334  23.124  1.00  0.00     0.047 A 
ATOM     22  C   UNL A   1      32.658  18.800  25.404  1.00  0.00     0.014 A 
ATOM     23  C   UNL A   1      32.872  18.671  23.011  1.00  0.00     0.014 A 
BRANCH  19  24
ATOM     24  O   UNL A   1      33.732  15.435  24.634  1.00  0.00    -0.497 OA
ATOM     25  C   UNL A   1      32.880  14.709  25.507  1.00  0.00     0.278 C 
ENDBRANCH  19  24
ENDBRANCH  14  18
ENDBRANCH  10  13
ENDBRANCH   8   9
BRANCH   8  26
ATOM     26  N   UNL A   1      31.690  27.049  25.727  1.00  0.00    -0.324 N 
ATOM     27  C   UNL A   1      32.613  27.580  26.733  1.00  0.00     0.262 C 
ATOM     28  C   UNL A   1      31.626  27.873  24.514  1.00  0.00     0.262 C 
ATOM     29  H   UNL A   1      30.760  27.122  26.140  1.00  0.00     0.348 HD
ATOM     30  C   UNL A   1      32.346  29.039  27.087  1.00  0.00     0.062 C 
ATOM     31  C   UNL A   1      31.364  29.350  24.828  1.00  0.00     0.062 C 
ATOM     32  C   UNL A   1      32.376  29.893  25.829  1.00  0.00     0.012 C 
ENDBRANCH   8  26
ENDBRANCH   7   8
ENDBRANCH   4   7
ENDBRANCH   2   3
ENDBRANCH   1   2
BRANCH   1  33
ATOM     33  C   UNL A   1      35.899  21.151  24.656  1.00  0.00     0.002 C 
BRANCH  33  34
ATOM     34  C   UNL A   1      37.426  21.251  24.605  1.00  0.00     0.002 C 
BRANCH  34  35
ATOM     35  C   UNL A   1      38.181  19.961  24.938  1.00  0.00     0.021 C 
BRANCH  35  36
ATOM     36  C   UNL A   1      39.063  20.030  26.181  1.00  0.00     0.116 C 
BRANCH  36  37
ATOM     37  N   UNL A   1      40.206  19.134  26.100  1.00  0.00    -0.352 N 
ATOM     38  C   UNL A   1      41.544  19.421  26.116  1.00  0.00     0.251 C 
ATOM     39  H   UNL A   1      39.983  18.178  26.022  1.00  0.00     0.163 HD
ATOM     40  O   UNL A   1      42.365  18.539  25.850  1.00  0.00    -0.269 OA
BRANCH  38  41
ATOM     41  C   UNL A   1      42.020  20.786  26.428  1.00  0.00     0.039 A 
ATOM     42  C   UNL A   1      42.237  21.680  25.377  1.00  0.00     0.014 A 
ATOM     43  C   UNL A   1      42.282  21.177  27.746  1.00  0.00     0.014 A 
ATOM     44  C   UNL A   1      42.663  22.982  25.649  1.00  0.00     0.010 A 
ATOM     45  C   UNL A   1      42.644  22.496  28.020  1.00  0.00     0.010 A 
ATOM     46  C   UNL A   1      42.842  23.410  26.974  1.00  0.00    -0.014 A 
BRANCH  46  47
ATOM     47  C   UNL A   1      43.232  24.811  27.277  1.00  0.00     0.031 A 
ATOM     48  C   UNL A   1      44.634  25.286  27.012  1.00  0.00     0.074 A 
ATOM     49  C   UNL A   1      42.334  25.643  27.839  1.00  0.00     0.049 A 
ATOM     50  N   UNL A   1      45.168  26.459  27.243  1.00  0.00    -0.248 NA
ATOM     51  C   UNL A   1      45.568  24.307  26.435  1.00  0.00     0.031 C 
ATOM     52  C   UNL A   1      40.959  25.287  28.190  1.00  0.00     0.029 A 
ATOM     53  N   UNL A   1      42.444  26.957  28.217  1.00  0.00    -0.354 N 
ATOM     54  C   UNL A   1      46.496  26.356  26.850  1.00  0.00     0.074 A 
ATOM     55  C   UNL A   1      46.702  24.991  26.417  1.00  0.00     0.031 C 
ATOM     56  C   UNL A   1      40.346  26.362  28.711  1.00  0.00     0.029 A 
ATOM     57  C   UNL A   1      41.292  27.473  28.759  1.00  0.00     0.049 A 
ATOM     58  H   UNL A   1      43.271  27.482  28.110  1.00  0.00     0.167 HD
ATOM     59  C   UNL A   1      47.450  27.318  26.829  1.00  0.00     0.037 A 
ATOM     60  C   UNL A   1      41.029  28.701  29.243  1.00  0.00     0.037 A 
ATOM     61  C   UNL A   1      47.235  28.682  27.239  1.00  0.00     0.049 A 
ATOM     62  C   UNL A   1      42.106  29.751  29.206  1.00  0.00     0.074 A 
ATOM     63  C   UNL A   1      48.121  29.745  27.198  1.00  0.00     0.029 A 
ATOM     64  N   UNL A   1      46.050  29.171  27.768  1.00  0.00    -0.354 N 
ATOM     65  N   UNL A   1      43.336  29.661  28.765  1.00  0.00    -0.248 NA
ATOM     66  C   UNL A   1      41.752  31.079  29.728  1.00  0.00     0.031 C 
ATOM     67  C   UNL A   1      47.486  30.866  27.743  1.00  0.00     0.029 A 
ATOM     68  C   UNL A   1      46.187  30.515  28.078  1.00  0.00     0.049 A 
ATOM     69  H   UNL A   1      45.231  28.641  27.903  1.00  0.00     0.167 HD
ATOM     70  C   UNL A   1      43.894  30.922  28.928  1.00  0.00     0.074 A 
ATOM     71  C   UNL A   1      42.862  31.764  29.495  1.00  0.00     0.031 C 
ATOM     72  C   UNL A   1      45.150  31.342  28.638  1.00  0.00     0.037 A 
BRANCH  59  73
ATOM     73  C   UNL A   1      48.817  26.931  26.342  1.00  0.00     0.064 A 
ATOM     74  C   UNL A   1      49.179  27.054  24.992  1.00  0.00     0.173 A 
ATOM     75  C   UNL A   1      49.790  26.468  27.242  1.00  0.00     0.173 A 
ATOM     76  F   UNL A   1      48.283  27.481  24.090  1.00  0.00    -0.203 F 
ATOM     77  C   UNL A   1      50.453  26.701  24.556  1.00  0.00     0.198 A 
ATOM     78  C   UNL A   1      51.072  26.145  26.807  1.00  0.00     0.198 A 
ATOM     79  F   UNL A   1      49.499  26.336  28.545  1.00  0.00    -0.203 F 
ATOM     80  F   UNL A   1      50.760  26.781  23.254  1.00  0.00    -0.200 F 
ATOM     81  C   UNL A   1      51.401  26.254  25.464  1.00  0.00     0.200 A 
ATOM     82  F   UNL A   1      51.991  25.725  27.687  1.00  0.00    -0.200 F 
ATOM     83  F   UNL A   1      52.629  25.922  25.044  1.00  0.00    -0.200 F 
ENDBRANCH  59  73
BRANCH  60  84
ATOM     84  C   UNL A   1      39.678  29.014  29.778  1.00  0.00     0.064 A 
ATOM     85  C   UNL A   1      39.374  28.805  31.130  1.00  0.00     0.173 A 
ATOM     86  C   UNL A   1      38.665  29.523  28.952  1.00  0.00     0.173 A 
ATOM     87  F   UNL A   1      40.304  28.301  31.955  1.00  0.00    -0.203 F 
ATOM     88  C   UNL A   1      38.103  29.072  31.632  1.00  0.00     0.198 A 
ATOM     89  C   UNL A   1      37.402  29.817  29.461  1.00  0.00     0.198 A 
ATOM     90  F   UNL A   1      38.907  29.745  27.652  1.00  0.00    -0.203 F 
ATOM     91  F   UNL A   1      37.825  28.819  32.918  1.00  0.00    -0.200 F 
ATOM     92  C   UNL A   1      37.120  29.584  30.799  1.00  0.00     0.200 A 
ATOM     93  F   UNL A   1      36.459  30.324  28.655  1.00  0.00    -0.200 F 
ATOM     94  F   UNL A   1      35.897  29.845  31.282  1.00  0.00    -0.200 F 
ENDBRANCH  60  84
BRANCH  72  95
ATOM     95  C   UNL A   1      45.467  32.787  28.898  1.00  0.00     0.064 A 
ATOM     96  C   UNL A   1      46.029  33.210  30.111  1.00  0.00     0.173 A 
ATOM     97  C   UNL A   1      45.230  33.754  27.910  1.00  0.00     0.173 A 
ATOM     98  F   UNL A   1      46.260  32.326  31.092  1.00  0.00    -0.203 F 
ATOM     99  C   UNL A   1      46.316  34.554  30.336  1.00  0.00     0.198 A 
ATOM    100  C   UNL A   1      45.547  35.092  28.127  1.00  0.00     0.198 A 
ATOM    101  F   UNL A   1      44.699  33.401  26.730  1.00  0.00    -0.203 F 
ATOM    102  F   UNL A   1      46.805  34.942  31.522  1.00  0.00    -0.200 F 
ATOM    103  C   UNL A   1      46.081  35.493  29.343  1.00  0.00     0.200 A 
ATOM    104  F   UNL A   1      45.332  35.995  27.161  1.00  0.00    -0.200 F 
ATOM    105  F   UNL A   1      46.362  36.784  29.560  1.00  0.00    -0.200 F 
ENDBRANCH  72  95
ENDBRANCH  46  47
ENDBRANCH  38  41
ENDBRANCH  36  37
ENDBRANCH  35  36
ENDBRANCH  34  35
ENDBRANCH  33  34
ENDBRANCH   1  33
TORSDOF 19
ENDMDL
