MODEL 1
REMARK VINA RESULT:     -11.4      0.000      0.000
REMARK SMILES Cc1nc(C[N@@H+]2CCC[C@H]2C(=O)NCCCCCCNC(=O)c2ccc(-c3c4nc(c(-c5c(F)c(F)c(F)c(F)c5F)c5ccc([nH]5)c(-c5c(F)c(F)c(F)c(F)c5F)c5nc(c(-c6c(F)c(F)c(F)c(F)c6F)c6ccc3[nH]6)C=C5)C=C4)cc2)cs1
REMARK SMILES IDX 16 1 15 2 14 3 13 4 11 5 12 6 10 8 6 9 7 10 8 12 9 13 5 14
REMARK SMILES IDX 4 15 1 16 2 17 3 18 87 19 86 20 17 21 18 22 19 23 20 24
REMARK SMILES IDX 21 25 22 27 23 28 24 29 85 30 25 31 84 32 26 33 27 34 28 35
REMARK SMILES IDX 78 36 29 37 83 38 77 39 79 40 30 41 82 42 76 43 75 44 31 46
REMARK SMILES IDX 63 47 43 48 62 49 44 50 47 51 61 52 80 53 45 54 46 55 60 57
REMARK SMILES IDX 81 58 48 59 32 60 33 61 41 62 34 63 35 64 39 65 42 66 36 67
REMARK SMILES IDX 37 68 40 69 38 70 64 71 65 72 73 73 66 74 67 75 71 76 74 77
REMARK SMILES IDX 68 78 69 79 72 80 70 81 49 82 50 83 58 84 51 85 52 86 56 87
REMARK SMILES IDX 59 88 53 89 54 90 57 91 55 92
REMARK H PARENT 13 7 6 11 20 26 79 45 47 56
REMARK Flexibility Score: inf
ROOT
ATOM      1  C   UNL A   1      37.075  21.767  24.335  1.00  0.00     0.002 C 
ENDROOT
BRANCH   1   2
ATOM      2  C   UNL A   1      37.453  22.881  25.313  1.00  0.00     0.021 C 
BRANCH   2   3
ATOM      3  C   UNL A   1      36.276  23.644  25.916  1.00  0.00     0.116 C 
BRANCH   3   4
ATOM      4  N   UNL A   1      35.523  22.827  26.844  1.00  0.00    -0.351 N 
ATOM      5  C   UNL A   1      34.388  22.089  26.715  1.00  0.00     0.278 C 
ATOM      6  O   UNL A   1      34.019  21.515  27.749  1.00  0.00    -0.268 OA
ATOM      7  H   UNL A   1      35.908  22.801  27.750  1.00  0.00     0.163 HD
BRANCH   5   8
ATOM      8  C   UNL A   1      33.527  22.010  25.428  1.00  0.00     0.274 C 
ATOM      9  N   UNL A   1      32.353  21.129  25.550  1.00  0.00    -0.320 N 
ATOM     10  C   UNL A   1      31.196  21.950  25.860  1.00  0.00     0.263 C 
ATOM     11  H   UNL A   1      32.482  20.488  26.333  1.00  0.00     0.349 HD
ATOM     12  C   UNL A   1      31.447  23.286  25.195  1.00  0.00     0.068 C 
ATOM     13  C   UNL A   1      32.961  23.401  25.101  1.00  0.00     0.081 C 
BRANCH   9  14
ATOM     14  C   UNL A   1      32.205  20.159  24.459  1.00  0.00     0.321 C 
BRANCH  14  15
ATOM     15  C   UNL A   1      32.847  18.823  24.683  1.00  0.00     0.106 A 
ATOM     16  C   UNL A   1      32.315  15.397  25.848  1.00  0.00     0.079 C 
ATOM     17  C   UNL A   1      32.814  16.694  25.315  1.00  0.00     0.090 A 
ATOM     18  N   UNL A   1      32.103  17.801  25.262  1.00  0.00    -0.241 NA
ATOM     19  S   UNL A   1      34.417  16.817  24.711  1.00  0.00    -0.127 S 
ATOM     20  C   UNL A   1      34.124  18.451  24.302  1.00  0.00     0.096 A 
ENDBRANCH  14  15
ENDBRANCH   9  14
ENDBRANCH   5   8
ENDBRANCH   3   4
ENDBRANCH   2   3
ENDBRANCH   1   2
BRANCH   1  21
ATOM     21  C   UNL A   1      37.095  20.347  24.908  1.00  0.00     0.002 C 
BRANCH  21  22
ATOM     22  C   UNL A   1      38.440  19.622  24.837  1.00  0.00     0.021 C 
BRANCH  22  23
ATOM     23  C   UNL A   1      39.308  19.742  26.085  1.00  0.00     0.116 C 
BRANCH  23  24
ATOM     24  N   UNL A   1      40.507  18.927  26.011  1.00  0.00    -0.352 N 
ATOM     25  C   UNL A   1      41.823  19.312  26.049  1.00  0.00     0.251 C 
ATOM     26  H   UNL A   1      40.353  17.959  25.919  1.00  0.00     0.163 HD
ATOM     27  O   UNL A   1      42.710  18.498  25.817  1.00  0.00    -0.269 OA
BRANCH  25  28
ATOM     28  C   UNL A   1      42.179  20.716  26.352  1.00  0.00     0.039 A 
ATOM     29  C   UNL A   1      42.401  21.082  27.683  1.00  0.00     0.014 A 
ATOM     30  C   UNL A   1      42.260  21.677  25.340  1.00  0.00     0.014 A 
ATOM     31  C   UNL A   1      42.745  22.399  27.995  1.00  0.00     0.010 A 
ATOM     32  C   UNL A   1      42.669  22.974  25.644  1.00  0.00     0.010 A 
ATOM     33  C   UNL A   1      42.901  23.351  26.975  1.00  0.00    -0.014 A 
BRANCH  33  34
ATOM     34  C   UNL A   1      43.257  24.759  27.286  1.00  0.00     0.031 A 
ATOM     35  C   UNL A   1      44.661  25.245  27.042  1.00  0.00     0.074 A 
ATOM     36  C   UNL A   1      42.339  25.585  27.822  1.00  0.00     0.049 A 
ATOM     37  N   UNL A   1      45.197  26.407  27.321  1.00  0.00    -0.248 NA
ATOM     38  C   UNL A   1      45.591  24.288  26.423  1.00  0.00     0.031 C 
ATOM     39  C   UNL A   1      40.954  25.226  28.130  1.00  0.00     0.029 A 
ATOM     40  N   UNL A   1      42.437  26.898  28.212  1.00  0.00    -0.354 N 
ATOM     41  C   UNL A   1      46.524  26.315  26.922  1.00  0.00     0.074 A 
ATOM     42  C   UNL A   1      46.728  24.968  26.435  1.00  0.00     0.031 C 
ATOM     43  C   UNL A   1      40.326  26.299  28.642  1.00  0.00     0.029 A 
ATOM     44  C   UNL A   1      41.271  27.407  28.732  1.00  0.00     0.049 A 
ATOM     45  H   UNL A   1      43.264  27.424  28.129  1.00  0.00     0.167 HD
ATOM     46  C   UNL A   1      47.480  27.274  26.934  1.00  0.00     0.037 A 
ATOM     47  C   UNL A   1      41.002  28.630  29.227  1.00  0.00     0.037 A 
ATOM     48  C   UNL A   1      47.269  28.621  27.395  1.00  0.00     0.049 A 
ATOM     49  C   UNL A   1      42.088  29.673  29.240  1.00  0.00     0.074 A 
ATOM     50  C   UNL A   1      48.171  29.672  27.437  1.00  0.00     0.029 A 
ATOM     51  N   UNL A   1      46.066  29.106  27.885  1.00  0.00    -0.354 N 
ATOM     52  N   UNL A   1      43.328  29.584  28.827  1.00  0.00    -0.248 NA
ATOM     53  C   UNL A   1      41.730  30.993  29.780  1.00  0.00     0.031 C 
ATOM     54  C   UNL A   1      47.519  30.785  27.977  1.00  0.00     0.029 A 
ATOM     55  C   UNL A   1      46.202  30.441  28.231  1.00  0.00     0.049 A 
ATOM     56  H   UNL A   1      45.239  28.580  27.974  1.00  0.00     0.167 HD
ATOM     57  C   UNL A   1      43.884  30.843  29.014  1.00  0.00     0.074 A 
ATOM     58  C   UNL A   1      42.844  31.681  29.572  1.00  0.00     0.031 C 
ATOM     59  C   UNL A   1      45.144  31.268  28.749  1.00  0.00     0.037 A 
BRANCH  46  60
ATOM     60  C   UNL A   1      48.839  26.906  26.416  1.00  0.00     0.064 A 
ATOM     61  C   UNL A   1      49.825  26.377  27.264  1.00  0.00     0.173 A 
ATOM     62  C   UNL A   1      49.149  27.043  25.055  1.00  0.00     0.173 A 
ATOM     63  F   UNL A   1      49.584  26.240  28.576  1.00  0.00    -0.203 F 
ATOM     64  C   UNL A   1      51.077  26.019  26.771  1.00  0.00     0.198 A 
ATOM     65  C   UNL A   1      50.393  26.656  24.560  1.00  0.00     0.198 A 
ATOM     66  F   UNL A   1      48.241  27.539  24.200  1.00  0.00    -0.203 F 
ATOM     67  F   UNL A   1      52.017  25.557  27.607  1.00  0.00    -0.200 F 
ATOM     68  C   UNL A   1      51.357  26.151  25.419  1.00  0.00     0.200 A 
ATOM     69  F   UNL A   1      50.657  26.772  23.252  1.00  0.00    -0.200 F 
ATOM     70  F   UNL A   1      52.559  25.796  24.945  1.00  0.00    -0.200 F 
ENDBRANCH  46  60
BRANCH  47  71
ATOM     71  C   UNL A   1      39.641  28.954  29.729  1.00  0.00     0.064 A 
ATOM     72  C   UNL A   1      39.292  28.709  31.066  1.00  0.00     0.173 A 
ATOM     73  C   UNL A   1      38.651  29.473  28.882  1.00  0.00     0.173 A 
ATOM     74  F   UNL A   1      40.197  28.193  31.910  1.00  0.00    -0.203 F 
ATOM     75  C   UNL A   1      37.997  28.939  31.527  1.00  0.00     0.198 A 
ATOM     76  C   UNL A   1      37.365  29.730  29.352  1.00  0.00     0.198 A 
ATOM     77  F   UNL A   1      38.934  29.729  27.597  1.00  0.00    -0.203 F 
ATOM     78  F   UNL A   1      37.675  28.638  32.791  1.00  0.00    -0.200 F 
ATOM     79  C   UNL A   1      37.035  29.452  30.670  1.00  0.00     0.200 A 
ATOM     80  F   UNL A   1      36.442  30.237  28.524  1.00  0.00    -0.200 F 
ATOM     81  F   UNL A   1      35.788  29.666  31.110  1.00  0.00    -0.200 F 
ENDBRANCH  47  71
BRANCH  59  82
ATOM     82  C   UNL A   1      45.447  32.717  28.990  1.00  0.00     0.064 A 
ATOM     83  C   UNL A   1      45.228  33.692  28.006  1.00  0.00     0.173 A 
ATOM     84  C   UNL A   1      45.931  33.138  30.238  1.00  0.00     0.173 A 
ATOM     85  F   UNL A   1      44.779  33.339  26.793  1.00  0.00    -0.203 F 
ATOM     86  C   UNL A   1      45.511  35.033  28.255  1.00  0.00     0.198 A 
ATOM     87  C   UNL A   1      46.185  34.482  30.492  1.00  0.00     0.198 A 
ATOM     88  F   UNL A   1      46.150  32.244  31.215  1.00  0.00    -0.203 F 
ATOM     89  F   UNL A   1      45.342  35.941  27.285  1.00  0.00    -0.200 F 
ATOM     90  C   UNL A   1      45.983  35.427  29.498  1.00  0.00     0.200 A 
ATOM     91  F   UNL A   1      46.628  34.862  31.698  1.00  0.00    -0.200 F 
ATOM     92  F   UNL A   1      46.250  36.719  29.737  1.00  0.00    -0.200 F 
ENDBRANCH  59  82
ENDBRANCH  33  34
ENDBRANCH  25  28
ENDBRANCH  23  24
ENDBRANCH  22  23
ENDBRANCH  21  22
ENDBRANCH   1  21
TORSDOF 15
ENDMDL
MODEL 2
REMARK VINA RESULT:     -11.1      3.881      5.948
REMARK SMILES Cc1nc(C[N@@H+]2CCC[C@H]2C(=O)NCCCCCCNC(=O)c2ccc(-c3c4nc(c(-c5c(F)c(F)c(F)c(F)c5F)c5ccc([nH]5)c(-c5c(F)c(F)c(F)c(F)c5F)c5nc(c(-c6c(F)c(F)c(F)c(F)c6F)c6ccc3[nH]6)C=C5)C=C4)cc2)cs1
REMARK SMILES IDX 16 1 15 2 14 3 13 4 11 5 12 6 10 8 6 9 7 10 8 12 9 13 5 14
REMARK SMILES IDX 4 15 1 16 2 17 3 18 87 19 86 20 17 21 18 22 19 23 20 24
REMARK SMILES IDX 21 25 22 27 23 28 24 29 85 30 25 31 84 32 26 33 27 34 28 35
REMARK SMILES IDX 78 36 29 37 83 38 77 39 79 40 30 41 82 42 76 43 75 44 31 46
REMARK SMILES IDX 63 47 43 48 62 49 44 50 47 51 61 52 80 53 45 54 46 55 60 57
REMARK SMILES IDX 81 58 48 59 32 60 33 61 41 62 34 63 35 64 39 65 42 66 36 67
REMARK SMILES IDX 37 68 40 69 38 70 64 71 65 72 73 73 66 74 67 75 71 76 74 77
REMARK SMILES IDX 68 78 69 79 72 80 70 81 49 82 50 83 58 84 51 85 52 86 56 87
REMARK SMILES IDX 59 88 53 89 54 90 57 91 55 92
REMARK H PARENT 13 7 6 11 20 26 79 45 47 56
REMARK Flexibility Score: inf
ROOT
ATOM      1  C   UNL A   1      33.925  22.916  23.126  1.00  0.00     0.002 C 
ENDROOT
BRANCH   1   2
ATOM      2  C   UNL A   1      32.470  22.477  23.306  1.00  0.00     0.021 C 
BRANCH   2   3
ATOM      3  C   UNL A   1      31.463  23.614  23.454  1.00  0.00     0.116 C 
BRANCH   3   4
ATOM      4  N   UNL A   1      31.258  23.977  24.842  1.00  0.00    -0.351 N 
ATOM      5  C   UNL A   1      31.553  25.094  25.558  1.00  0.00     0.278 C 
ATOM      6  O   UNL A   1      31.234  25.047  26.754  1.00  0.00    -0.268 OA
ATOM      7  H   UNL A   1      30.818  23.274  25.373  1.00  0.00     0.163 HD
BRANCH   5   8
ATOM      8  C   UNL A   1      32.315  26.325  25.001  1.00  0.00     0.274 C 
ATOM      9  N   UNL A   1      31.617  27.604  25.217  1.00  0.00    -0.320 N 
ATOM     10  C   UNL A   1      32.169  28.232  26.404  1.00  0.00     0.263 C 
ATOM     11  H   UNL A   1      30.629  27.431  25.403  1.00  0.00     0.349 HD
ATOM     12  C   UNL A   1      33.617  27.797  26.466  1.00  0.00     0.068 C 
ATOM     13  C   UNL A   1      33.662  26.468  25.728  1.00  0.00     0.081 C 
BRANCH   9  14
ATOM     14  C   UNL A   1      31.499  28.441  24.018  1.00  0.00     0.321 C 
BRANCH  14  15
ATOM     15  C   UNL A   1      30.108  28.864  23.651  1.00  0.00     0.106 A 
ATOM     16  C   UNL A   1      27.847  31.708  23.236  1.00  0.00     0.079 C 
ATOM     17  C   UNL A   1      28.528  30.387  23.311  1.00  0.00     0.090 A 
ATOM     18  N   UNL A   1      29.762  30.207  23.734  1.00  0.00    -0.241 NA
ATOM     19  S   UNL A   1      27.701  28.963  22.824  1.00  0.00    -0.127 S 
ATOM     20  C   UNL A   1      29.107  28.048  23.153  1.00  0.00     0.096 A 
ENDBRANCH  14  15
ENDBRANCH   9  14
ENDBRANCH   5   8
ENDBRANCH   3   4
ENDBRANCH   2   3
ENDBRANCH   1   2
BRANCH   1  21
ATOM     21  C   UNL A   1      34.868  22.576  24.284  1.00  0.00     0.002 C 
BRANCH  21  22
ATOM     22  C   UNL A   1      35.971  23.599  24.564  1.00  0.00     0.021 C 
BRANCH  22  23
ATOM     23  C   UNL A   1      36.576  23.533  25.962  1.00  0.00     0.116 C 
BRANCH  23  24
ATOM     24  N   UNL A   1      37.662  22.575  26.055  1.00  0.00    -0.352 N 
ATOM     25  C   UNL A   1      38.968  22.775  26.423  1.00  0.00     0.251 C 
ATOM     26  H   UNL A   1      37.428  21.648  25.819  1.00  0.00     0.163 HD
ATOM     27  O   UNL A   1      39.791  21.874  26.295  1.00  0.00    -0.269 OA
BRANCH  25  28
ATOM     28  C   UNL A   1      39.397  24.086  26.959  1.00  0.00     0.039 A 
ATOM     29  C   UNL A   1      40.006  24.999  26.093  1.00  0.00     0.014 A 
ATOM     30  C   UNL A   1      39.233  24.406  28.310  1.00  0.00     0.014 A 
ATOM     31  C   UNL A   1      40.415  26.246  26.571  1.00  0.00     0.010 A 
ATOM     32  C   UNL A   1      39.579  25.675  28.771  1.00  0.00     0.010 A 
ATOM     33  C   UNL A   1      40.186  26.601  27.910  1.00  0.00    -0.014 A 
BRANCH  33  34
ATOM     34  C   UNL A   1      40.620  27.919  28.441  1.00  0.00     0.031 A 
ATOM     35  C   UNL A   1      42.077  28.165  28.728  1.00  0.00     0.074 A 
ATOM     36  C   UNL A   1      39.708  28.875  28.703  1.00  0.00     0.049 A 
ATOM     37  N   UNL A   1      42.651  29.211  29.268  1.00  0.00    -0.248 NA
ATOM     38  C   UNL A   1      43.009  27.081  28.382  1.00  0.00     0.031 C 
ATOM     39  C   UNL A   1      38.265  28.748  28.493  1.00  0.00     0.029 A 
ATOM     40  N   UNL A   1      39.860  30.140  29.212  1.00  0.00    -0.354 N 
ATOM     41  C   UNL A   1      44.004  28.905  29.335  1.00  0.00     0.074 A 
ATOM     42  C   UNL A   1      44.160  27.557  28.835  1.00  0.00     0.031 C 
ATOM     43  C   UNL A   1      37.667  29.897  28.850  1.00  0.00     0.029 A 
ATOM     44  C   UNL A   1      38.678  30.826  29.348  1.00  0.00     0.049 A 
ATOM     45  H   UNL A   1      40.734  30.520  29.458  1.00  0.00     0.167 HD
ATOM     46  C   UNL A   1      45.029  29.687  29.751  1.00  0.00     0.037 A 
ATOM     47  C   UNL A   1      38.440  32.063  29.824  1.00  0.00     0.037 A 
ATOM     48  C   UNL A   1      44.876  31.037  30.225  1.00  0.00     0.049 A 
ATOM     49  C   UNL A   1      39.598  32.905  30.292  1.00  0.00     0.074 A 
ATOM     50  C   UNL A   1      45.854  31.918  30.658  1.00  0.00     0.029 A 
ATOM     51  N   UNL A   1      43.665  31.706  30.319  1.00  0.00    -0.354 N 
ATOM     52  N   UNL A   1      40.876  32.618  30.317  1.00  0.00    -0.248 NA
ATOM     53  C   UNL A   1      39.278  34.251  30.788  1.00  0.00     0.031 C 
ATOM     54  C   UNL A   1      45.231  33.111  31.038  1.00  0.00     0.029 A 
ATOM     55  C   UNL A   1      43.872  32.988  30.802  1.00  0.00     0.049 A 
ATOM     56  H   UNL A   1      42.790  31.327  30.078  1.00  0.00     0.167 HD
ATOM     57  C   UNL A   1      41.515  33.758  30.786  1.00  0.00     0.074 A 
ATOM     58  C   UNL A   1      40.484  34.745  31.027  1.00  0.00     0.031 C 
ATOM     59  C   UNL A   1      42.837  33.969  31.000  1.00  0.00     0.037 A 
BRANCH  46  60
ATOM     60  C   UNL A   1      46.412  29.108  29.694  1.00  0.00     0.064 A 
ATOM     61  C   UNL A   1      47.208  29.230  28.544  1.00  0.00     0.173 A 
ATOM     62  C   UNL A   1      46.965  28.462  30.810  1.00  0.00     0.173 A 
ATOM     63  F   UNL A   1      46.720  29.827  27.446  1.00  0.00    -0.203 F 
ATOM     64  C   UNL A   1      48.498  28.708  28.507  1.00  0.00     0.198 A 
ATOM     65  C   UNL A   1      48.267  27.967  30.778  1.00  0.00     0.198 A 
ATOM     66  F   UNL A   1      46.249  28.322  31.935  1.00  0.00    -0.203 F 
ATOM     67  F   UNL A   1      49.223  28.799  27.384  1.00  0.00    -0.200 F 
ATOM     68  C   UNL A   1      49.029  28.084  29.626  1.00  0.00     0.200 A 
ATOM     69  F   UNL A   1      48.783  27.376  31.864  1.00  0.00    -0.200 F 
ATOM     70  F   UNL A   1      50.275  27.591  29.592  1.00  0.00    -0.200 F 
ENDBRANCH  46  60
BRANCH  47  71
ATOM     71  C   UNL A   1      37.055  32.600  29.862  1.00  0.00     0.064 A 
ATOM     72  C   UNL A   1      36.545  33.347  28.788  1.00  0.00     0.173 A 
ATOM     73  C   UNL A   1      36.228  32.418  30.979  1.00  0.00     0.173 A 
ATOM     74  F   UNL A   1      37.306  33.567  27.706  1.00  0.00    -0.203 F 
ATOM     75  C   UNL A   1      35.275  33.918  28.846  1.00  0.00     0.198 A 
ATOM     76  C   UNL A   1      34.947  32.965  31.023  1.00  0.00     0.198 A 
ATOM     77  F   UNL A   1      36.665  31.709  32.030  1.00  0.00    -0.203 F 
ATOM     78  F   UNL A   1      34.839  34.678  27.833  1.00  0.00    -0.200 F 
ATOM     79  C   UNL A   1      34.476  33.724  29.963  1.00  0.00     0.200 A 
ATOM     80  F   UNL A   1      34.173  32.766  32.098  1.00  0.00    -0.200 F 
ATOM     81  F   UNL A   1      33.258  34.280  30.022  1.00  0.00    -0.200 F 
ENDBRANCH  47  71
BRANCH  59  82
ATOM     82  C   UNL A   1      43.251  35.339  31.450  1.00  0.00     0.064 A 
ATOM     83  C   UNL A   1      43.628  36.335  30.538  1.00  0.00     0.173 A 
ATOM     84  C   UNL A   1      43.237  35.666  32.814  1.00  0.00     0.173 A 
ATOM     85  F   UNL A   1      43.670  36.068  29.224  1.00  0.00    -0.203 F 
ATOM     86  C   UNL A   1      44.003  37.601  30.979  1.00  0.00     0.198 A 
ATOM     87  C   UNL A   1      43.585  36.941  33.249  1.00  0.00     0.198 A 
ATOM     88  F   UNL A   1      42.877  34.750  33.726  1.00  0.00    -0.203 F 
ATOM     89  F   UNL A   1      44.407  38.523  30.095  1.00  0.00    -0.200 F 
ATOM     90  C   UNL A   1      43.975  37.905  32.332  1.00  0.00     0.200 A 
ATOM     91  F   UNL A   1      43.544  37.236  34.556  1.00  0.00    -0.200 F 
ATOM     92  F   UNL A   1      44.332  39.126  32.754  1.00  0.00    -0.200 F 
ENDBRANCH  59  82
ENDBRANCH  33  34
ENDBRANCH  25  28
ENDBRANCH  23  24
ENDBRANCH  22  23
ENDBRANCH  21  22
ENDBRANCH   1  21
TORSDOF 15
ENDMDL
MODEL 3
REMARK VINA RESULT:     -11.0      6.436     11.908
REMARK SMILES Cc1nc(C[N@@H+]2CCC[C@H]2C(=O)NCCCCCCNC(=O)c2ccc(-c3c4nc(c(-c5c(F)c(F)c(F)c(F)c5F)c5ccc([nH]5)c(-c5c(F)c(F)c(F)c(F)c5F)c5nc(c(-c6c(F)c(F)c(F)c(F)c6F)c6ccc3[nH]6)C=C5)C=C4)cc2)cs1
REMARK SMILES IDX 16 1 15 2 14 3 13 4 11 5 12 6 10 8 6 9 7 10 8 12 9 13 5 14
REMARK SMILES IDX 4 15 1 16 2 17 3 18 87 19 86 20 17 21 18 22 19 23 20 24
REMARK SMILES IDX 21 25 22 27 23 28 24 29 85 30 25 31 84 32 26 33 27 34 28 35
REMARK SMILES IDX 78 36 29 37 83 38 77 39 79 40 30 41 82 42 76 43 75 44 31 46
REMARK SMILES IDX 63 47 43 48 62 49 44 50 47 51 61 52 80 53 45 54 46 55 60 57
REMARK SMILES IDX 81 58 48 59 32 60 33 61 41 62 34 63 35 64 39 65 42 66 36 67
REMARK SMILES IDX 37 68 40 69 38 70 64 71 65 72 73 73 66 74 67 75 71 76 74 77
REMARK SMILES IDX 68 78 69 79 72 80 70 81 49 82 50 83 58 84 51 85 52 86 56 87
REMARK SMILES IDX 59 88 53 89 54 90 57 91 55 92
REMARK H PARENT 13 7 6 11 20 26 79 45 47 56
REMARK Flexibility Score: inf
ROOT
ATOM      1  C   UNL A   1      34.016  32.530  28.782  1.00  0.00     0.002 C 
ENDROOT
BRANCH   1   2
ATOM      2  C   UNL A   1      35.146  31.626  28.281  1.00  0.00     0.021 C 
BRANCH   2   3
ATOM      3  C   UNL A   1      34.731  30.579  27.251  1.00  0.00     0.116 C 
BRANCH   3   4
ATOM      4  N   UNL A   1      33.702  29.697  27.762  1.00  0.00    -0.351 N 
ATOM      5  C   UNL A   1      32.937  28.735  27.181  1.00  0.00     0.278 C 
ATOM      6  O   UNL A   1      32.134  28.177  27.941  1.00  0.00    -0.268 OA
ATOM      7  H   UNL A   1      33.519  29.819  28.722  1.00  0.00     0.163 HD
BRANCH   5   8
ATOM      8  C   UNL A   1      32.957  28.383  25.671  1.00  0.00     0.274 C 
ATOM      9  N   UNL A   1      32.357  27.075  25.356  1.00  0.00    -0.320 N 
ATOM     10  C   UNL A   1      30.983  27.291  24.936  1.00  0.00     0.263 C 
ATOM     11  H   UNL A   1      32.324  26.499  26.197  1.00  0.00     0.349 HD
ATOM     12  C   UNL A   1      30.964  28.648  24.268  1.00  0.00     0.068 C 
ATOM     13  C   UNL A   1      32.121  29.413  24.893  1.00  0.00     0.081 C 
BRANCH   9  14
ATOM     14  C   UNL A   1      33.185  26.217  24.501  1.00  0.00     0.321 C 
BRANCH  14  15
ATOM     15  C   UNL A   1      33.801  25.027  25.173  1.00  0.00     0.106 A 
ATOM     16  C   UNL A   1      36.909  23.196  25.775  1.00  0.00     0.079 C 
ATOM     17  C   UNL A   1      35.521  23.729  25.709  1.00  0.00     0.090 A 
ATOM     18  N   UNL A   1      35.155  24.770  24.992  1.00  0.00    -0.241 NA
ATOM     19  S   UNL A   1      34.266  22.977  26.611  1.00  0.00    -0.127 S 
ATOM     20  C   UNL A   1      33.167  24.157  26.043  1.00  0.00     0.096 A 
ENDBRANCH  14  15
ENDBRANCH   9  14
ENDBRANCH   5   8
ENDBRANCH   3   4
ENDBRANCH   2   3
ENDBRANCH   1   2
BRANCH   1  21
ATOM     21  C   UNL A   1      34.273  34.035  28.669  1.00  0.00     0.002 C 
BRANCH  21  22
ATOM     22  C   UNL A   1      33.039  34.930  28.797  1.00  0.00     0.021 C 
BRANCH  22  23
ATOM     23  C   UNL A   1      33.275  36.265  29.494  1.00  0.00     0.116 C 
BRANCH  23  24
ATOM     24  N   UNL A   1      32.426  36.444  30.658  1.00  0.00    -0.352 N 
ATOM     25  C   UNL A   1      32.549  35.906  31.914  1.00  0.00     0.251 C 
ATOM     26  H   UNL A   1      31.650  37.035  30.527  1.00  0.00     0.163 HD
ATOM     27  O   UNL A   1      31.649  36.043  32.735  1.00  0.00    -0.269 OA
BRANCH  25  28
ATOM     28  C   UNL A   1      33.761  35.139  32.279  1.00  0.00     0.039 A 
ATOM     29  C   UNL A   1      33.615  33.820  32.719  1.00  0.00     0.014 A 
ATOM     30  C   UNL A   1      35.031  35.720  32.222  1.00  0.00     0.014 A 
ATOM     31  C   UNL A   1      34.742  33.072  33.064  1.00  0.00     0.010 A 
ATOM     32  C   UNL A   1      36.161  34.952  32.501  1.00  0.00     0.010 A 
ATOM     33  C   UNL A   1      36.026  33.626  32.939  1.00  0.00    -0.014 A 
BRANCH  33  34
ATOM     34  C   UNL A   1      37.238  32.851  33.308  1.00  0.00     0.031 A 
ATOM     35  C   UNL A   1      37.937  33.132  34.610  1.00  0.00     0.074 A 
ATOM     36  C   UNL A   1      37.733  31.928  32.460  1.00  0.00     0.049 A 
ATOM     37  N   UNL A   1      39.050  32.628  35.081  1.00  0.00    -0.248 NA
ATOM     38  C   UNL A   1      37.311  34.131  35.492  1.00  0.00     0.031 C 
ATOM     39  C   UNL A   1      37.163  31.583  31.157  1.00  0.00     0.029 A 
ATOM     40  N   UNL A   1      38.836  31.118  32.566  1.00  0.00    -0.354 N 
ATOM     41  C   UNL A   1      39.260  33.255  36.303  1.00  0.00     0.074 A 
ATOM     42  C   UNL A   1      38.193  34.216  36.476  1.00  0.00     0.031 C 
ATOM     43  C   UNL A   1      37.908  30.617  30.594  1.00  0.00     0.029 A 
ATOM     44  C   UNL A   1      39.026  30.301  31.478  1.00  0.00     0.049 A 
ATOM     45  H   UNL A   1      39.434  31.122  33.347  1.00  0.00     0.167 HD
ATOM     46  C   UNL A   1      40.239  33.031  37.212  1.00  0.00     0.037 A 
ATOM     47  C   UNL A   1      39.998  29.403  31.224  1.00  0.00     0.037 A 
ATOM     48  C   UNL A   1      41.286  32.056  37.050  1.00  0.00     0.049 A 
ATOM     49  C   UNL A   1      41.081  29.184  32.247  1.00  0.00     0.074 A 
ATOM     50  C   UNL A   1      42.319  31.744  37.919  1.00  0.00     0.029 A 
ATOM     51  N   UNL A   1      41.427  31.228  35.947  1.00  0.00    -0.354 N 
ATOM     52  N   UNL A   1      41.248  29.758  33.413  1.00  0.00    -0.248 NA
ATOM     53  C   UNL A   1      42.105  28.182  31.920  1.00  0.00     0.031 C 
ATOM     54  C   UNL A   1      43.099  30.744  37.329  1.00  0.00     0.029 A 
ATOM     55  C   UNL A   1      42.528  30.404  36.114  1.00  0.00     0.049 A 
ATOM     56  H   UNL A   1      40.832  31.225  35.162  1.00  0.00     0.167 HD
ATOM     57  C   UNL A   1      42.366  29.156  33.977  1.00  0.00     0.074 A 
ATOM     58  C   UNL A   1      42.833  28.168  33.028  1.00  0.00     0.031 C 
ATOM     59  C   UNL A   1      42.955  29.401  35.174  1.00  0.00     0.037 A 
BRANCH  46  60
ATOM     60  C   UNL A   1      40.214  33.842  38.473  1.00  0.00     0.064 A 
ATOM     61  C   UNL A   1      40.953  35.030  38.592  1.00  0.00     0.173 A 
ATOM     62  C   UNL A   1      39.414  33.455  39.559  1.00  0.00     0.173 A 
ATOM     63  F   UNL A   1      41.744  35.436  37.588  1.00  0.00    -0.203 F 
ATOM     64  C   UNL A   1      40.908  35.788  39.759  1.00  0.00     0.198 A 
ATOM     65  C   UNL A   1      39.349  34.232  40.714  1.00  0.00     0.198 A 
ATOM     66  F   UNL A   1      38.685  32.331  39.496  1.00  0.00    -0.203 F 
ATOM     67  F   UNL A   1      41.656  36.895  39.866  1.00  0.00    -0.200 F 
ATOM     68  C   UNL A   1      40.101  35.392  40.815  1.00  0.00     0.200 A 
ATOM     69  F   UNL A   1      38.559  33.856  41.728  1.00  0.00    -0.200 F 
ATOM     70  F   UNL A   1      40.051  36.129  41.934  1.00  0.00    -0.200 F 
ENDBRANCH  46  60
BRANCH  47  71
ATOM     71  C   UNL A   1      39.984  28.619  29.962  1.00  0.00     0.064 A 
ATOM     72  C   UNL A   1      39.358  27.364  29.903  1.00  0.00     0.173 A 
ATOM     73  C   UNL A   1      40.628  29.080  28.805  1.00  0.00     0.173 A 
ATOM     74  F   UNL A   1      38.748  26.870  30.990  1.00  0.00    -0.203 F 
ATOM     75  C   UNL A   1      39.406  26.589  28.746  1.00  0.00     0.198 A 
ATOM     76  C   UNL A   1      40.649  28.316  27.640  1.00  0.00     0.198 A 
ATOM     77  F   UNL A   1      41.238  30.274  28.807  1.00  0.00    -0.203 F 
ATOM     78  F   UNL A   1      38.853  25.369  28.738  1.00  0.00    -0.200 F 
ATOM     79  C   UNL A   1      40.049  27.067  27.615  1.00  0.00     0.200 A 
ATOM     80  F   UNL A   1      41.261  28.786  26.545  1.00  0.00    -0.200 F 
ATOM     81  F   UNL A   1      40.101  26.317  26.505  1.00  0.00    -0.200 F 
ENDBRANCH  47  71
BRANCH  59  82
ATOM     82  C   UNL A   1      44.122  28.539  35.555  1.00  0.00     0.064 A 
ATOM     83  C   UNL A   1      43.954  27.322  36.231  1.00  0.00     0.173 A 
ATOM     84  C   UNL A   1      45.426  28.925  35.208  1.00  0.00     0.173 A 
ATOM     85  F   UNL A   1      42.728  26.916  36.597  1.00  0.00    -0.203 F 
ATOM     86  C   UNL A   1      45.052  26.536  36.569  1.00  0.00     0.198 A 
ATOM     87  C   UNL A   1      46.518  28.123  35.523  1.00  0.00     0.198 A 
ATOM     88  F   UNL A   1      45.638  30.077  34.555  1.00  0.00    -0.203 F 
ATOM     89  F   UNL A   1      44.873  25.401  37.259  1.00  0.00    -0.200 F 
ATOM     90  C   UNL A   1      46.331  26.933  36.210  1.00  0.00     0.200 A 
ATOM     91  F   UNL A   1      47.752  28.502  35.163  1.00  0.00    -0.200 F 
ATOM     92  F   UNL A   1      47.386  26.173  36.533  1.00  0.00    -0.200 F 
ENDBRANCH  59  82
ENDBRANCH  33  34
ENDBRANCH  25  28
ENDBRANCH  23  24
ENDBRANCH  22  23
ENDBRANCH  21  22
ENDBRANCH   1  21
TORSDOF 15
ENDMDL
