MODEL 1
REMARK VINA RESULT:     -12.3      0.000      0.000
REMARK SMILES O=C(NCCCCCCNC(=O)[C@H]1COCCN1C(=O)c1ccc(Br)nc1)c1ccc(-c2c3nc(c(-c4c(F)c(F)c(F)c(F)c4F)c4ccc([nH]4)c(-c4c(F)c(F)c(F)c(F)c4F)c4nc(c(-c5c(F)c(F)c(F)c(F)c5F)c5ccc2[nH]5)C=C4)C=C3)cc1
REMARK SMILES IDX 6 1 5 2 4 3 3 4 1 5 2 6 28 8 29 9 90 10 30 11 89 12 31 13
REMARK SMILES IDX 32 14 33 15 83 16 34 17 88 18 82 19 84 20 35 21 87 22 81 23
REMARK SMILES IDX 80 24 36 26 68 27 48 28 67 29 49 30 52 31 66 32 85 33 50 34
REMARK SMILES IDX 51 35 65 37 86 38 53 39 37 40 38 41 46 42 39 43 40 44 44 45
REMARK SMILES IDX 47 46 41 47 42 48 45 49 43 50 69 51 70 52 78 53 71 54 72 55
REMARK SMILES IDX 76 56 79 57 73 58 74 59 77 60 75 61 54 62 55 63 63 64 56 65
REMARK SMILES IDX 57 66 61 67 64 68 58 69 59 70 62 71 60 72 7 73 8 74 9 75
REMARK SMILES IDX 10 76 11 77 12 79 13 80 14 81 18 82 15 83 17 84 16 85 19 86
REMARK SMILES IDX 20 87 21 88 22 89 27 90 23 91 26 92 24 93 25 94
REMARK H PARENT 3 7 84 25 52 36 10 78
REMARK Flexibility Score: inf
ROOT
ATOM      1  C   UNL A   1      31.286  30.877  26.001  1.00  0.00     0.002 C 
ENDROOT
BRANCH   1   2
ATOM      2  C   UNL A   1      31.220  32.336  26.458  1.00  0.00     0.021 C 
BRANCH   2   3
ATOM      3  C   UNL A   1      32.462  32.819  27.195  1.00  0.00     0.116 C 
BRANCH   3   4
ATOM      4  N   UNL A   1      32.341  34.207  27.609  1.00  0.00    -0.352 N 
ATOM      5  O   UNL A   1      32.616  35.985  28.970  1.00  0.00    -0.269 OA
ATOM      6  C   UNL A   1      32.995  34.877  28.612  1.00  0.00     0.251 C 
ATOM      7  H   UNL A   1      31.698  34.745  27.094  1.00  0.00     0.163 HD
BRANCH   6   8
ATOM      8  C   UNL A   1      34.160  34.246  29.263  1.00  0.00     0.039 A 
ATOM      9  C   UNL A   1      33.975  33.346  30.315  1.00  0.00     0.014 A 
ATOM     10  C   UNL A   1      35.445  34.541  28.803  1.00  0.00     0.014 A 
ATOM     11  C   UNL A   1      35.075  32.846  30.995  1.00  0.00     0.010 A 
ATOM     12  C   UNL A   1      36.551  33.958  29.426  1.00  0.00     0.010 A 
ATOM     13  C   UNL A   1      36.374  33.121  30.538  1.00  0.00    -0.014 A 
BRANCH  13  14
ATOM     14  C   UNL A   1      37.523  32.444  31.188  1.00  0.00     0.031 A 
ATOM     15  C   UNL A   1      38.266  31.337  30.500  1.00  0.00     0.074 A 
ATOM     16  C   UNL A   1      37.896  32.861  32.414  1.00  0.00     0.049 A 
ATOM     17  N   UNL A   1      39.290  30.643  30.930  1.00  0.00    -0.248 NA
ATOM     18  C   UNL A   1      37.799  30.950  29.161  1.00  0.00     0.031 C 
ATOM     19  C   UNL A   1      37.236  33.922  33.177  1.00  0.00     0.029 A 
ATOM     20  N   UNL A   1      38.922  32.458  33.227  1.00  0.00    -0.354 N 
ATOM     21  C   UNL A   1      39.579  29.730  29.926  1.00  0.00     0.074 A 
ATOM     22  C   UNL A   1      38.604  29.937  28.875  1.00  0.00     0.031 C 
ATOM     23  C   UNL A   1      37.897  34.117  34.326  1.00  0.00     0.029 A 
ATOM     24  C   UNL A   1      38.980  33.146  34.414  1.00  0.00     0.049 A 
ATOM     25  H   UNL A   1      39.557  31.746  32.984  1.00  0.00     0.167 HD
ATOM     26  C   UNL A   1      40.575  28.810  29.887  1.00  0.00     0.037 A 
ATOM     27  C   UNL A   1      39.798  32.995  35.471  1.00  0.00     0.037 A 
ATOM     28  C   UNL A   1      41.540  28.618  30.940  1.00  0.00     0.049 A 
ATOM     29  C   UNL A   1      40.861  31.936  35.416  1.00  0.00     0.074 A 
ATOM     30  C   UNL A   1      42.606  27.737  30.983  1.00  0.00     0.029 A 
ATOM     31  N   UNL A   1      41.547  29.311  32.144  1.00  0.00    -0.354 N 
ATOM     32  N   UNL A   1      41.152  31.107  34.443  1.00  0.00    -0.248 NA
ATOM     33  C   UNL A   1      41.707  31.790  36.606  1.00  0.00     0.031 C 
ATOM     34  C   UNL A   1      43.220  27.852  32.235  1.00  0.00     0.029 A 
ATOM     35  C   UNL A   1      42.580  28.854  32.948  1.00  0.00     0.049 A 
ATOM     36  H   UNL A   1      40.912  30.021  32.391  1.00  0.00     0.167 HD
ATOM     37  C   UNL A   1      42.230  30.357  34.893  1.00  0.00     0.074 A 
ATOM     38  C   UNL A   1      42.553  30.847  36.217  1.00  0.00     0.031 C 
ATOM     39  C   UNL A   1      42.890  29.354  34.265  1.00  0.00     0.037 A 
BRANCH  26  40
ATOM     40  C   UNL A   1      40.660  27.921  28.677  1.00  0.00     0.064 A 
ATOM     41  C   UNL A   1      39.954  26.712  28.595  1.00  0.00     0.173 A 
ATOM     42  C   UNL A   1      41.421  28.311  27.563  1.00  0.00     0.173 A 
ATOM     43  F   UNL A   1      39.219  26.287  29.632  1.00  0.00    -0.203 F 
ATOM     44  C   UNL A   1      40.028  25.913  27.455  1.00  0.00     0.198 A 
ATOM     45  C   UNL A   1      41.467  27.526  26.413  1.00  0.00     0.198 A 
ATOM     46  F   UNL A   1      42.110  29.462  27.583  1.00  0.00    -0.203 F 
ATOM     47  F   UNL A   1      39.382  24.739  27.419  1.00  0.00    -0.200 F 
ATOM     48  C   UNL A   1      40.776  26.325  26.363  1.00  0.00     0.200 A 
ATOM     49  F   UNL A   1      42.178  27.934  25.353  1.00  0.00    -0.200 F 
ATOM     50  F   UNL A   1      40.838  25.560  25.263  1.00  0.00    -0.200 F 
ENDBRANCH  26  40
BRANCH  27  51
ATOM     51  C   UNL A   1      39.627  33.858  36.668  1.00  0.00     0.064 A 
ATOM     52  C   UNL A   1      40.238  35.116  36.745  1.00  0.00     0.173 A 
ATOM     53  C   UNL A   1      38.842  33.446  37.756  1.00  0.00     0.173 A 
ATOM     54  F   UNL A   1      41.010  35.549  35.736  1.00  0.00    -0.203 F 
ATOM     55  C   UNL A   1      40.089  35.921  37.873  1.00  0.00     0.198 A 
ATOM     56  C   UNL A   1      38.665  34.265  38.868  1.00  0.00     0.198 A 
ATOM     57  F   UNL A   1      38.228  32.254  37.730  1.00  0.00    -0.203 F 
ATOM     58  F   UNL A   1      40.724  37.098  37.941  1.00  0.00    -0.200 F 
ATOM     59  C   UNL A   1      39.298  35.497  38.930  1.00  0.00     0.200 A 
ATOM     60  F   UNL A   1      37.882  33.862  39.877  1.00  0.00    -0.200 F 
ATOM     61  F   UNL A   1      39.149  36.274  40.011  1.00  0.00    -0.200 F 
ENDBRANCH  27  51
BRANCH  39  62
ATOM     62  C   UNL A   1      44.055  28.744  34.992  1.00  0.00     0.064 A 
ATOM     63  C   UNL A   1      45.357  29.251  34.861  1.00  0.00     0.173 A 
ATOM     64  C   UNL A   1      43.859  27.650  35.850  1.00  0.00     0.173 A 
ATOM     65  F   UNL A   1      45.600  30.282  34.039  1.00  0.00    -0.203 F 
ATOM     66  C   UNL A   1      46.423  28.664  35.538  1.00  0.00     0.198 A 
ATOM     67  C   UNL A   1      44.922  27.091  36.553  1.00  0.00     0.198 A 
ATOM     68  F   UNL A   1      42.634  27.131  36.015  1.00  0.00    -0.203 F 
ATOM     69  F   UNL A   1      47.667  29.128  35.351  1.00  0.00    -0.200 F 
ATOM     70  C   UNL A   1      46.204  27.592  36.388  1.00  0.00     0.200 A 
ATOM     71  F   UNL A   1      44.705  26.065  37.386  1.00  0.00    -0.200 F 
ATOM     72  F   UNL A   1      47.231  27.034  37.043  1.00  0.00    -0.200 F 
ENDBRANCH  39  62
ENDBRANCH  13  14
ENDBRANCH   6   8
ENDBRANCH   3   4
ENDBRANCH   2   3
ENDBRANCH   1   2
BRANCH   1  73
ATOM     73  C   UNL A   1      32.680  30.235  26.047  1.00  0.00     0.002 C 
BRANCH  73  74
ATOM     74  C   UNL A   1      32.779  28.948  26.868  1.00  0.00     0.021 C 
BRANCH  74  75
ATOM     75  C   UNL A   1      33.984  28.083  26.523  1.00  0.00     0.116 C 
BRANCH  75  76
ATOM     76  N   UNL A   1      33.651  26.710  26.238  1.00  0.00    -0.354 N 
ATOM     77  C   UNL A   1      33.227  26.121  25.089  1.00  0.00     0.245 C 
ATOM     78  H   UNL A   1      33.745  26.097  27.003  1.00  0.00     0.163 HD
ATOM     79  O   UNL A   1      33.243  24.883  25.078  1.00  0.00    -0.273 OA
BRANCH  77  80
ATOM     80  C   UNL A   1      32.770  26.882  23.813  1.00  0.00     0.200 C 
ATOM     81  C   UNL A   1      33.830  26.996  22.707  1.00  0.00     0.195 C 
ATOM     82  N   UNL A   1      31.439  26.519  23.269  1.00  0.00    -0.322 N 
ATOM     83  O   UNL A   1      33.801  25.930  21.748  1.00  0.00    -0.377 OA
ATOM     84  C   UNL A   1      31.421  25.473  22.254  1.00  0.00     0.149 C 
ATOM     85  C   UNL A   1      32.496  25.728  21.188  1.00  0.00     0.181 C 
BRANCH  82  86
ATOM     86  C   UNL A   1      30.215  27.036  23.678  1.00  0.00     0.256 C 
ATOM     87  O   UNL A   1      29.553  26.538  24.587  1.00  0.00    -0.269 OA
BRANCH  86  88
ATOM     88  C   UNL A   1      29.608  28.159  22.946  1.00  0.00     0.058 A 
ATOM     89  C   UNL A   1      28.257  28.487  23.091  1.00  0.00     0.018 A 
ATOM     90  C   UNL A   1      30.416  29.016  22.214  1.00  0.00     0.126 A 
ATOM     91  C   UNL A   1      27.756  29.611  22.439  1.00  0.00     0.037 A 
ATOM     92  N   UNL A   1      29.953  30.120  21.575  1.00  0.00    -0.249 NA
ATOM     93  C   UNL A   1      28.635  30.389  21.694  1.00  0.00     0.106 A 
ATOM     94  Br  UNL A   1      27.964  31.927  20.812  1.00  0.00    -0.029 Br
ENDBRANCH  86  88
ENDBRANCH  82  86
ENDBRANCH  77  80
ENDBRANCH  75  76
ENDBRANCH  74  75
ENDBRANCH  73  74
ENDBRANCH   1  73
TORSDOF 15
ENDMDL
MODEL 2
REMARK VINA RESULT:     -12.3      6.016     10.889
REMARK SMILES O=C(NCCCCCCNC(=O)[C@H]1COCCN1C(=O)c1ccc(Br)nc1)c1ccc(-c2c3nc(c(-c4c(F)c(F)c(F)c(F)c4F)c4ccc([nH]4)c(-c4c(F)c(F)c(F)c(F)c4F)c4nc(c(-c5c(F)c(F)c(F)c(F)c5F)c5ccc2[nH]5)C=C4)C=C3)cc1
REMARK SMILES IDX 6 1 5 2 4 3 3 4 1 5 2 6 28 8 29 9 90 10 30 11 89 12 31 13
REMARK SMILES IDX 32 14 33 15 83 16 34 17 88 18 82 19 84 20 35 21 87 22 81 23
REMARK SMILES IDX 80 24 36 26 68 27 48 28 67 29 49 30 52 31 66 32 85 33 50 34
REMARK SMILES IDX 51 35 65 37 86 38 53 39 37 40 38 41 46 42 39 43 40 44 44 45
REMARK SMILES IDX 47 46 41 47 42 48 45 49 43 50 69 51 70 52 78 53 71 54 72 55
REMARK SMILES IDX 76 56 79 57 73 58 74 59 77 60 75 61 54 62 55 63 63 64 56 65
REMARK SMILES IDX 57 66 61 67 64 68 58 69 59 70 62 71 60 72 7 73 8 74 9 75
REMARK SMILES IDX 10 76 11 77 12 79 13 80 14 81 18 82 15 83 17 84 16 85 19 86
REMARK SMILES IDX 20 87 21 88 22 89 27 90 23 91 26 92 24 93 25 94
REMARK H PARENT 3 7 84 25 52 36 10 78
REMARK Flexibility Score: inf
ROOT
ATOM      1  C   UNL A   1      36.741  20.435  24.971  1.00  0.00     0.002 C 
ENDROOT
BRANCH   1   2
ATOM      2  C   UNL A   1      38.066  19.678  24.851  1.00  0.00     0.021 C 
BRANCH   2   3
ATOM      3  C   UNL A   1      39.104  20.063  25.896  1.00  0.00     0.116 C 
BRANCH   3   4
ATOM      4  N   UNL A   1      40.225  19.137  25.914  1.00  0.00    -0.352 N 
ATOM      5  O   UNL A   1      42.393  18.521  25.816  1.00  0.00    -0.269 OA
ATOM      6  C   UNL A   1      41.566  19.396  26.042  1.00  0.00     0.251 C 
ATOM      7  H   UNL A   1      39.987  18.187  25.821  1.00  0.00     0.163 HD
BRANCH   6   8
ATOM      8  C   UNL A   1      42.007  20.744  26.449  1.00  0.00     0.039 A 
ATOM      9  C   UNL A   1      42.281  21.716  25.484  1.00  0.00     0.014 A 
ATOM     10  C   UNL A   1      42.127  21.045  27.808  1.00  0.00     0.014 A 
ATOM     11  C   UNL A   1      42.803  22.941  25.869  1.00  0.00     0.010 A 
ATOM     12  C   UNL A   1      42.557  22.314  28.198  1.00  0.00     0.010 A 
ATOM     13  C   UNL A   1      42.916  23.266  27.231  1.00  0.00    -0.014 A 
BRANCH  13  14
ATOM     14  C   UNL A   1      43.326  24.640  27.611  1.00  0.00     0.031 A 
ATOM     15  C   UNL A   1      42.312  25.680  27.987  1.00  0.00     0.074 A 
ATOM     16  C   UNL A   1      44.642  24.929  27.627  1.00  0.00     0.049 A 
ATOM     17  N   UNL A   1      42.505  26.925  28.344  1.00  0.00    -0.248 NA
ATOM     18  C   UNL A   1      40.899  25.277  27.952  1.00  0.00     0.031 C 
ATOM     19  C   UNL A   1      45.712  23.995  27.269  1.00  0.00     0.029 A 
ATOM     20  N   UNL A   1      45.306  26.079  27.966  1.00  0.00    -0.354 N 
ATOM     21  C   UNL A   1      41.242  27.459  28.559  1.00  0.00     0.074 A 
ATOM     22  C   UNL A   1      40.287  26.411  28.265  1.00  0.00     0.031 C 
ATOM     23  C   UNL A   1      46.898  24.592  27.449  1.00  0.00     0.029 A 
ATOM     24  C   UNL A   1      46.671  25.971  27.861  1.00  0.00     0.049 A 
ATOM     25  H   UNL A   1      44.850  26.900  28.258  1.00  0.00     0.167 HD
ATOM     26  C   UNL A   1      40.917  28.708  28.972  1.00  0.00     0.037 A 
ATOM     27  C   UNL A   1      47.635  26.889  28.050  1.00  0.00     0.037 A 
ATOM     28  C   UNL A   1      41.881  29.740  29.264  1.00  0.00     0.049 A 
ATOM     29  C   UNL A   1      47.239  28.278  28.463  1.00  0.00     0.074 A 
ATOM     30  C   UNL A   1      41.655  31.027  29.720  1.00  0.00     0.029 A 
ATOM     31  N   UNL A   1      43.255  29.606  29.113  1.00  0.00    -0.354 N 
ATOM     32  N   UNL A   1      46.045  28.759  28.706  1.00  0.00    -0.248 NA
ATOM     33  C   UNL A   1      48.326  29.251  28.625  1.00  0.00     0.031 C 
ATOM     34  C   UNL A   1      42.885  31.690  29.787  1.00  0.00     0.029 A 
ATOM     35  C   UNL A   1      43.886  30.797  29.439  1.00  0.00     0.049 A 
ATOM     36  H   UNL A   1      43.713  28.786  28.819  1.00  0.00     0.167 HD
ATOM     37  C   UNL A   1      46.236  30.083  29.073  1.00  0.00     0.074 A 
ATOM     38  C   UNL A   1      47.664  30.321  29.043  1.00  0.00     0.031 C 
ATOM     39  C   UNL A   1      45.311  31.017  29.404  1.00  0.00     0.037 A 
BRANCH  26  40
ATOM     40  C   UNL A   1      39.458  29.042  29.113  1.00  0.00     0.064 A 
ATOM     41  C   UNL A   1      38.805  29.007  30.354  1.00  0.00     0.173 A 
ATOM     42  C   UNL A   1      38.713  29.450  27.994  1.00  0.00     0.173 A 
ATOM     43  F   UNL A   1      39.465  28.616  31.454  1.00  0.00    -0.203 F 
ATOM     44  C   UNL A   1      37.457  29.342  30.466  1.00  0.00     0.198 A 
ATOM     45  C   UNL A   1      37.374  29.815  28.115  1.00  0.00     0.198 A 
ATOM     46  F   UNL A   1      39.287  29.509  26.783  1.00  0.00    -0.203 F 
ATOM     47  F   UNL A   1      36.844  29.256  31.655  1.00  0.00    -0.200 F 
ATOM     48  C   UNL A   1      36.745  29.754  29.350  1.00  0.00     0.200 A 
ATOM     49  F   UNL A   1      36.694  30.229  27.038  1.00  0.00    -0.200 F 
ATOM     50  F   UNL A   1      35.451  30.086  29.461  1.00  0.00    -0.200 F 
ENDBRANCH  26  40
BRANCH  27  51
ATOM     51  C   UNL A   1      49.058  26.523  27.834  1.00  0.00     0.064 A 
ATOM     52  C   UNL A   1      49.591  26.424  26.542  1.00  0.00     0.173 A 
ATOM     53  C   UNL A   1      49.918  26.274  28.915  1.00  0.00     0.173 A 
ATOM     54  F   UNL A   1      48.806  26.639  25.475  1.00  0.00    -0.203 F 
ATOM     55  C   UNL A   1      50.923  26.067  26.338  1.00  0.00     0.198 A 
ATOM     56  C   UNL A   1      51.258  25.952  28.712  1.00  0.00     0.198 A 
ATOM     57  F   UNL A   1      49.461  26.364  30.172  1.00  0.00    -0.203 F 
ATOM     58  F   UNL A   1      51.394  25.931  25.092  1.00  0.00    -0.200 F 
ATOM     59  C   UNL A   1      51.756  25.838  27.423  1.00  0.00     0.200 A 
ATOM     60  F   UNL A   1      52.064  25.754  29.763  1.00  0.00    -0.200 F 
ATOM     61  F   UNL A   1      53.038  25.502  27.226  1.00  0.00    -0.200 F 
ENDBRANCH  27  51
BRANCH  39  62
ATOM     62  C   UNL A   1      45.822  32.374  29.798  1.00  0.00     0.064 A 
ATOM     63  C   UNL A   1      45.974  33.408  28.861  1.00  0.00     0.173 A 
ATOM     64  C   UNL A   1      46.141  32.648  31.137  1.00  0.00     0.173 A 
ATOM     65  F   UNL A   1      45.700  33.191  27.566  1.00  0.00    -0.203 F 
ATOM     66  C   UNL A   1      46.457  34.656  29.247  1.00  0.00     0.198 A 
ATOM     67  C   UNL A   1      46.589  33.908  31.523  1.00  0.00     0.198 A 
ATOM     68  F   UNL A   1      46.009  31.697  32.073  1.00  0.00    -0.203 F 
ATOM     69  F   UNL A   1      46.651  35.609  28.325  1.00  0.00    -0.200 F 
ATOM     70  C   UNL A   1      46.756  34.907  30.576  1.00  0.00     0.200 A 
ATOM     71  F   UNL A   1      46.862  34.153  32.812  1.00  0.00    -0.200 F 
ATOM     72  F   UNL A   1      47.215  36.110  30.946  1.00  0.00    -0.200 F 
ENDBRANCH  39  62
ENDBRANCH  13  14
ENDBRANCH   6   8
ENDBRANCH   3   4
ENDBRANCH   2   3
ENDBRANCH   1   2
BRANCH   1  73
ATOM     73  C   UNL A   1      36.704  21.810  24.289  1.00  0.00     0.002 C 
BRANCH  73  74
ATOM     74  C   UNL A   1      37.348  22.949  25.081  1.00  0.00     0.021 C 
BRANCH  74  75
ATOM     75  C   UNL A   1      36.411  23.622  26.075  1.00  0.00     0.116 C 
BRANCH  75  76
ATOM     76  N   UNL A   1      35.386  24.424  25.455  1.00  0.00    -0.354 N 
ATOM     77  C   UNL A   1      34.034  24.279  25.442  1.00  0.00     0.245 C 
ATOM     78  H   UNL A   1      35.719  25.205  24.958  1.00  0.00     0.163 HD
ATOM     79  O   UNL A   1      33.390  25.251  25.025  1.00  0.00    -0.273 OA
BRANCH  77  80
ATOM     80  C   UNL A   1      33.267  23.020  25.936  1.00  0.00     0.200 C 
ATOM     81  C   UNL A   1      32.699  23.120  27.359  1.00  0.00     0.195 C 
ATOM     82  N   UNL A   1      32.291  22.429  24.989  1.00  0.00    -0.322 N 
ATOM     83  O   UNL A   1      31.359  23.624  27.427  1.00  0.00    -0.377 OA
ATOM     84  C   UNL A   1      30.917  22.905  25.099  1.00  0.00     0.149 C 
ATOM     85  C   UNL A   1      30.458  22.915  26.564  1.00  0.00     0.181 C 
BRANCH  82  86
ATOM     86  C   UNL A   1      32.574  21.518  23.978  1.00  0.00     0.256 C 
ATOM     87  O   UNL A   1      32.779  21.858  22.815  1.00  0.00    -0.269 OA
BRANCH  86  88
ATOM     88  C   UNL A   1      32.530  20.072  24.255  1.00  0.00     0.058 A 
ATOM     89  C   UNL A   1      32.525  19.127  23.227  1.00  0.00     0.018 A 
ATOM     90  C   UNL A   1      32.654  19.621  25.561  1.00  0.00     0.126 A 
ATOM     91  C   UNL A   1      32.567  17.772  23.548  1.00  0.00     0.037 A 
ATOM     92  N   UNL A   1      32.703  18.309  25.898  1.00  0.00    -0.249 NA
ATOM     93  C   UNL A   1      32.651  17.413  24.888  1.00  0.00     0.106 A 
ATOM     94  Br  UNL A   1      32.721  15.572  25.334  1.00  0.00    -0.029 Br
ENDBRANCH  86  88
ENDBRANCH  82  86
ENDBRANCH  77  80
ENDBRANCH  75  76
ENDBRANCH  74  75
ENDBRANCH  73  74
ENDBRANCH   1  73
TORSDOF 15
ENDMDL
MODEL 3
REMARK VINA RESULT:     -12.3      6.068     10.098
REMARK SMILES O=C(NCCCCCCNC(=O)[C@H]1COCCN1C(=O)c1ccc(Br)nc1)c1ccc(-c2c3nc(c(-c4c(F)c(F)c(F)c(F)c4F)c4ccc([nH]4)c(-c4c(F)c(F)c(F)c(F)c4F)c4nc(c(-c5c(F)c(F)c(F)c(F)c5F)c5ccc2[nH]5)C=C4)C=C3)cc1
REMARK SMILES IDX 6 1 5 2 4 3 3 4 1 5 2 6 28 8 29 9 90 10 30 11 89 12 31 13
REMARK SMILES IDX 32 14 33 15 83 16 34 17 88 18 82 19 84 20 35 21 87 22 81 23
REMARK SMILES IDX 80 24 36 26 68 27 48 28 67 29 49 30 52 31 66 32 85 33 50 34
REMARK SMILES IDX 51 35 65 37 86 38 53 39 37 40 38 41 46 42 39 43 40 44 44 45
REMARK SMILES IDX 47 46 41 47 42 48 45 49 43 50 69 51 70 52 78 53 71 54 72 55
REMARK SMILES IDX 76 56 79 57 73 58 74 59 77 60 75 61 54 62 55 63 63 64 56 65
REMARK SMILES IDX 57 66 61 67 64 68 58 69 59 70 62 71 60 72 7 73 8 74 9 75
REMARK SMILES IDX 10 76 11 77 12 79 13 80 14 81 18 82 15 83 17 84 16 85 19 86
REMARK SMILES IDX 20 87 21 88 22 89 27 90 23 91 26 92 24 93 25 94
REMARK H PARENT 3 7 84 25 52 36 10 78
REMARK Flexibility Score: inf
ROOT
ATOM      1  C   UNL A   1      36.730  20.200  24.998  1.00  0.00     0.002 C 
ENDROOT
BRANCH   1   2
ATOM      2  C   UNL A   1      38.117  19.576  24.825  1.00  0.00     0.021 C 
BRANCH   2   3
ATOM      3  C   UNL A   1      39.143  20.034  25.852  1.00  0.00     0.116 C 
BRANCH   3   4
ATOM      4  N   UNL A   1      40.257  19.106  25.956  1.00  0.00    -0.352 N 
ATOM      5  O   UNL A   1      42.423  18.475  25.947  1.00  0.00    -0.269 OA
ATOM      6  C   UNL A   1      41.597  19.367  26.095  1.00  0.00     0.251 C 
ATOM      7  H   UNL A   1      40.016  18.153  25.922  1.00  0.00     0.163 HD
BRANCH   6   8
ATOM      8  C   UNL A   1      42.037  20.737  26.422  1.00  0.00     0.039 A 
ATOM      9  C   UNL A   1      42.218  21.678  25.406  1.00  0.00     0.014 A 
ATOM     10  C   UNL A   1      42.250  21.089  27.757  1.00  0.00     0.014 A 
ATOM     11  C   UNL A   1      42.740  22.927  25.708  1.00  0.00     0.010 A 
ATOM     12  C   UNL A   1      42.681  22.380  28.069  1.00  0.00     0.010 A 
ATOM     13  C   UNL A   1      42.946  23.302  27.046  1.00  0.00    -0.014 A 
BRANCH  13  14
ATOM     14  C   UNL A   1      43.353  24.697  27.346  1.00  0.00     0.031 A 
ATOM     15  C   UNL A   1      44.748  25.177  27.076  1.00  0.00     0.074 A 
ATOM     16  C   UNL A   1      42.428  25.533  27.856  1.00  0.00     0.049 A 
ATOM     17  N   UNL A   1      45.263  26.363  27.281  1.00  0.00    -0.248 NA
ATOM     18  C   UNL A   1      45.693  24.203  26.512  1.00  0.00     0.031 C 
ATOM     19  C   UNL A   1      41.044  25.166  28.166  1.00  0.00     0.029 A 
ATOM     20  N   UNL A   1      42.501  26.859  28.190  1.00  0.00    -0.354 N 
ATOM     21  C   UNL A   1      46.591  26.275  26.888  1.00  0.00     0.074 A 
ATOM     22  C   UNL A   1      46.813  24.910  26.459  1.00  0.00     0.031 C 
ATOM     23  C   UNL A   1      40.387  26.249  28.603  1.00  0.00     0.029 A 
ATOM     24  C   UNL A   1      41.320  27.366  28.675  1.00  0.00     0.049 A 
ATOM     25  H   UNL A   1      43.319  27.397  28.091  1.00  0.00     0.167 HD
ATOM     26  C   UNL A   1      47.533  27.250  26.880  1.00  0.00     0.037 A 
ATOM     27  C   UNL A   1      41.026  28.588  29.152  1.00  0.00     0.037 A 
ATOM     28  C   UNL A   1      47.296  28.606  27.309  1.00  0.00     0.049 A 
ATOM     29  C   UNL A   1      42.103  29.634  29.173  1.00  0.00     0.074 A 
ATOM     30  C   UNL A   1      48.173  29.677  27.309  1.00  0.00     0.029 A 
ATOM     31  N   UNL A   1      46.095  29.075  27.827  1.00  0.00    -0.354 N 
ATOM     32  N   UNL A   1      43.343  29.551  28.758  1.00  0.00    -0.248 NA
ATOM     33  C   UNL A   1      41.740  30.941  29.732  1.00  0.00     0.031 C 
ATOM     34  C   UNL A   1      47.525  30.775  27.883  1.00  0.00     0.029 A 
ATOM     35  C   UNL A   1      46.220  30.411  28.179  1.00  0.00     0.049 A 
ATOM     36  H   UNL A   1      45.277  28.538  27.930  1.00  0.00     0.167 HD
ATOM     37  C   UNL A   1      43.904  30.800  28.982  1.00  0.00     0.074 A 
ATOM     38  C   UNL A   1      42.859  31.629  29.549  1.00  0.00     0.031 C 
ATOM     39  C   UNL A   1      45.169  31.222  28.741  1.00  0.00     0.037 A 
BRANCH  26  40
ATOM     40  C   UNL A   1      48.916  26.885  26.417  1.00  0.00     0.064 A 
ATOM     41  C   UNL A   1      49.872  26.347  27.290  1.00  0.00     0.173 A 
ATOM     42  C   UNL A   1      49.273  27.030  25.066  1.00  0.00     0.173 A 
ATOM     43  F   UNL A   1      49.589  26.194  28.592  1.00  0.00    -0.203 F 
ATOM     44  C   UNL A   1      51.141  25.993  26.836  1.00  0.00     0.198 A 
ATOM     45  C   UNL A   1      50.531  26.646  24.609  1.00  0.00     0.198 A 
ATOM     46  F   UNL A   1      48.395  27.532  24.185  1.00  0.00    -0.203 F 
ATOM     47  F   UNL A   1      52.054  25.525  27.699  1.00  0.00    -0.200 F 
ATOM     48  C   UNL A   1      51.466  26.134  25.496  1.00  0.00     0.200 A 
ATOM     49  F   UNL A   1      50.836  26.768  23.311  1.00  0.00    -0.200 F 
ATOM     50  F   UNL A   1      52.684  25.784  25.058  1.00  0.00    -0.200 F 
ENDBRANCH  26  40
BRANCH  27  51
ATOM     51  C   UNL A   1      39.659  28.876  29.658  1.00  0.00     0.064 A 
ATOM     52  C   UNL A   1      39.315  28.625  30.993  1.00  0.00     0.173 A 
ATOM     53  C   UNL A   1      38.671  29.417  28.821  1.00  0.00     0.173 A 
ATOM     54  F   UNL A   1      40.219  28.094  31.829  1.00  0.00    -0.203 F 
ATOM     55  C   UNL A   1      38.029  28.881  31.465  1.00  0.00     0.198 A 
ATOM     56  C   UNL A   1      37.397  29.706  29.302  1.00  0.00     0.198 A 
ATOM     57  F   UNL A   1      38.952  29.685  27.537  1.00  0.00    -0.203 F 
ATOM     58  F   UNL A   1      37.712  28.585  32.732  1.00  0.00    -0.200 F 
ATOM     59  C   UNL A   1      37.074  29.428  30.621  1.00  0.00     0.200 A 
ATOM     60  F   UNL A   1      36.485  30.255  28.489  1.00  0.00    -0.200 F 
ATOM     61  F   UNL A   1      35.840  29.682  31.077  1.00  0.00    -0.200 F 
ENDBRANCH  27  51
BRANCH  39  62
ATOM     62  C   UNL A   1      45.481  32.657  29.055  1.00  0.00     0.064 A 
ATOM     63  C   UNL A   1      45.263  33.684  28.124  1.00  0.00     0.173 A 
ATOM     64  C   UNL A   1      45.985  33.011  30.317  1.00  0.00     0.173 A 
ATOM     65  F   UNL A   1      44.801  33.396  26.898  1.00  0.00    -0.203 F 
ATOM     66  C   UNL A   1      45.568  35.007  28.434  1.00  0.00     0.198 A 
ATOM     67  C   UNL A   1      46.253  34.339  30.635  1.00  0.00     0.198 A 
ATOM     68  F   UNL A   1      46.207  32.070  31.246  1.00  0.00    -0.203 F 
ATOM     69  F   UNL A   1      45.407  35.963  27.508  1.00  0.00    -0.200 F 
ATOM     70  C   UNL A   1      46.054  35.334  29.690  1.00  0.00     0.200 A 
ATOM     71  F   UNL A   1      46.708  34.655  31.855  1.00  0.00    -0.200 F 
ATOM     72  F   UNL A   1      46.340  36.609  29.989  1.00  0.00    -0.200 F 
ENDBRANCH  39  62
ENDBRANCH  13  14
ENDBRANCH   6   8
ENDBRANCH   3   4
ENDBRANCH   2   3
ENDBRANCH   1   2
BRANCH   1  73
ATOM     73  C   UNL A   1      36.719  21.655  25.486  1.00  0.00     0.002 C 
BRANCH  73  74
ATOM     74  C   UNL A   1      36.960  22.709  24.404  1.00  0.00     0.021 C 
BRANCH  74  75
ATOM     75  C   UNL A   1      35.706  23.122  23.647  1.00  0.00     0.116 C 
BRANCH  75  76
ATOM     76  N   UNL A   1      35.007  24.234  24.243  1.00  0.00    -0.354 N 
ATOM     77  C   UNL A   1      34.055  24.265  25.212  1.00  0.00     0.245 C 
ATOM     78  H   UNL A   1      35.262  25.116  23.889  1.00  0.00     0.163 HD
ATOM     79  O   UNL A   1      33.805  25.380  25.689  1.00  0.00    -0.273 OA
BRANCH  77  80
ATOM     80  C   UNL A   1      33.306  23.021  25.768  1.00  0.00     0.200 C 
ATOM     81  C   UNL A   1      32.866  23.128  27.235  1.00  0.00     0.195 C 
ATOM     82  N   UNL A   1      32.238  22.455  24.909  1.00  0.00    -0.322 N 
ATOM     83  O   UNL A   1      31.548  23.662  27.421  1.00  0.00    -0.377 OA
ATOM     84  C   UNL A   1      30.890  22.961  25.138  1.00  0.00     0.149 C 
ATOM     85  C   UNL A   1      30.561  22.975  26.638  1.00  0.00     0.181 C 
BRANCH  82  86
ATOM     86  C   UNL A   1      32.413  21.542  23.875  1.00  0.00     0.256 C 
ATOM     87  O   UNL A   1      32.464  21.877  22.694  1.00  0.00    -0.269 OA
BRANCH  86  88
ATOM     88  C   UNL A   1      32.433  20.098  24.163  1.00  0.00     0.058 A 
ATOM     89  C   UNL A   1      32.498  19.146  23.143  1.00  0.00     0.018 A 
ATOM     90  C   UNL A   1      32.550  19.663  25.475  1.00  0.00     0.126 A 
ATOM     91  C   UNL A   1      32.599  17.797  23.476  1.00  0.00     0.037 A 
ATOM     92  N   UNL A   1      32.656  18.357  25.825  1.00  0.00    -0.249 NA
ATOM     93  C   UNL A   1      32.670  17.453  24.821  1.00  0.00     0.106 A 
ATOM     94  Br  UNL A   1      32.819  15.621  25.284  1.00  0.00    -0.029 Br
ENDBRANCH  86  88
ENDBRANCH  82  86
ENDBRANCH  77  80
ENDBRANCH  75  76
ENDBRANCH  74  75
ENDBRANCH  73  74
ENDBRANCH   1  73
TORSDOF 15
ENDMDL
