MODEL 1
REMARK VINA RESULT:     -13.6      0.000      0.000
REMARK SMILES COc1ccc2[nH]cc([C@H](C(=O)NCCCCCCNC(=O)c3ccc(-c4c5nc(c(-c6c(F)c(F)c(F)c(F)c6F)c6ccc([nH]6)c(-c6c(F)c(F)c(F)c(F)c6F)c6nc(c(-c7c(F)c(F)c(F)c(F)c7F)c7ccc4[nH]7)C=C6)C=C5)cc3)[NH+]3CC[NH+](Cc4cccc5ccccc45)CC3)c2c1
REMARK SMILES IDX 16 1 15 2 14 3 13 4 11 5 12 6 10 8 9 9 3 10 4 11 104 12 5 13
REMARK SMILES IDX 103 14 6 15 7 16 8 17 2 19 1 20 86 21 87 22 102 23 88 25
REMARK SMILES IDX 101 26 89 27 90 29 91 30 92 31 100 32 93 33 95 34 99 35
REMARK SMILES IDX 94 36 96 37 98 38 97 39 17 40 18 41 19 42 20 43 21 44 22 46
REMARK SMILES IDX 23 47 24 48 85 49 25 50 84 51 26 52 27 53 28 54 78 55 29 56
REMARK SMILES IDX 83 57 77 58 79 59 30 60 82 61 76 62 75 63 31 65 63 66 43 67
REMARK SMILES IDX 62 68 44 69 47 70 61 71 80 72 45 73 46 74 60 76 81 77 48 78
REMARK SMILES IDX 32 79 33 80 41 81 34 82 35 83 39 84 42 85 36 86 37 87 40 88
REMARK SMILES IDX 38 89 64 90 65 91 73 92 66 93 67 94 71 95 74 96 68 97 69 98
REMARK SMILES IDX 72 99 70 100 49 101 50 102 58 103 51 104 52 105 56 106
REMARK SMILES IDX 59 107 53 108 54 109 57 110 55 111
REMARK H PARENT 13 7 7 18 86 24 89 28 20 45 79 64 47 75
REMARK Flexibility Score: inf
ROOT
ATOM      1  C   UNL A   1      32.681  30.204  26.957  1.00  0.00     0.002 C 
ENDROOT
BRANCH   1   2
ATOM      2  C   UNL A   1      32.365  28.804  27.511  1.00  0.00     0.021 C 
BRANCH   2   3
ATOM      3  C   UNL A   1      32.512  27.694  26.478  1.00  0.00     0.116 C 
BRANCH   3   4
ATOM      4  N   UNL A   1      31.395  26.796  26.624  1.00  0.00    -0.351 N 
ATOM      5  C   UNL A   1      30.683  26.137  25.683  1.00  0.00     0.283 C 
ATOM      6  O   UNL A   1      29.614  25.675  26.084  1.00  0.00    -0.268 OA
ATOM      7  H   UNL A   1      31.106  26.639  27.551  1.00  0.00     0.163 HD
BRANCH   5   8
ATOM      8  C   UNL A   1      31.239  26.014  24.251  1.00  0.00     0.308 C 
BRANCH   8   9
ATOM      9  C   UNL A   1      31.196  27.342  23.490  1.00  0.00     0.045 A 
ATOM     10  C   UNL A   1      27.749  28.913  22.854  1.00  0.00     0.119 A 
ATOM     11  C   UNL A   1      28.207  30.022  22.153  1.00  0.00     0.048 A 
ATOM     12  C   UNL A   1      28.645  27.985  23.379  1.00  0.00     0.057 A 
ATOM     13  C   UNL A   1      29.578  30.219  21.949  1.00  0.00     0.030 A 
ATOM     14  C   UNL A   1      30.031  28.124  23.142  1.00  0.00     0.013 A 
ATOM     15  C   UNL A   1      30.464  29.256  22.454  1.00  0.00     0.046 A 
ATOM     16  N   UNL A   1      31.839  29.213  22.437  1.00  0.00    -0.361 N 
ATOM     17  C   UNL A   1      32.289  28.066  23.037  1.00  0.00     0.094 A 
ATOM     18  H   UNL A   1      32.418  29.908  22.048  1.00  0.00     0.166 HD
BRANCH  10  19
ATOM     19  O   UNL A   1      26.426  28.715  23.143  1.00  0.00    -0.497 OA
ATOM     20  C   UNL A   1      26.235  27.611  24.023  1.00  0.00     0.278 C 
ENDBRANCH  10  19
ENDBRANCH   8   9
BRANCH   8  21
ATOM     21  N   UNL A   1      32.607  25.473  24.213  1.00  0.00    -0.312 N 
ATOM     22  C   UNL A   1      33.013  24.687  25.375  1.00  0.00     0.325 C 
ATOM     23  C   UNL A   1      33.019  24.871  22.935  1.00  0.00     0.325 C 
ATOM     24  H   UNL A   1      33.155  26.331  24.280  1.00  0.00     0.349 HD
ATOM     25  C   UNL A   1      33.046  23.157  25.252  1.00  0.00     0.324 C 
ATOM     26  C   UNL A   1      33.187  23.321  22.857  1.00  0.00     0.324 C 
ATOM     27  N   UNL A   1      33.694  22.630  24.053  1.00  0.00    -0.322 N 
ATOM     28  H   UNL A   1      33.413  21.657  23.936  1.00  0.00     0.348 HD
BRANCH  27  29
ATOM     29  C   UNL A   1      35.148  22.430  24.163  1.00  0.00     0.300 C 
BRANCH  29  30
ATOM     30  C   UNL A   1      35.623  21.087  24.690  1.00  0.00     0.014 A 
ATOM     31  C   UNL A   1      34.753  19.993  24.517  1.00  0.00     0.010 A 
ATOM     32  C   UNL A   1      36.939  20.866  25.183  1.00  0.00    -0.010 A 
ATOM     33  C   UNL A   1      35.211  18.692  24.658  1.00  0.00     0.001 A 
ATOM     34  C   UNL A   1      37.427  19.537  25.191  1.00  0.00    -0.018 A 
ATOM     35  C   UNL A   1      37.824  21.891  25.608  1.00  0.00     0.009 A 
ATOM     36  C   UNL A   1      36.556  18.468  24.930  1.00  0.00     0.009 A 
ATOM     37  C   UNL A   1      38.790  19.297  25.427  1.00  0.00     0.009 A 
ATOM     38  C   UNL A   1      39.170  21.628  25.884  1.00  0.00     0.001 A 
ATOM     39  C   UNL A   1      39.661  20.336  25.750  1.00  0.00     0.001 A 
ENDBRANCH  29  30
ENDBRANCH  27  29
ENDBRANCH   8  21
ENDBRANCH   5   8
ENDBRANCH   3   4
ENDBRANCH   2   3
ENDBRANCH   1   2
BRANCH   1  40
ATOM     40  C   UNL A   1      31.520  30.874  26.210  1.00  0.00     0.002 C 
BRANCH  40  41
ATOM     41  C   UNL A   1      31.395  32.373  26.472  1.00  0.00     0.021 C 
BRANCH  41  42
ATOM     42  C   UNL A   1      32.498  32.929  27.355  1.00  0.00     0.116 C 
BRANCH  42  43
ATOM     43  N   UNL A   1      32.265  34.318  27.706  1.00  0.00    -0.352 N 
ATOM     44  C   UNL A   1      32.915  35.082  28.640  1.00  0.00     0.251 C 
ATOM     45  H   UNL A   1      31.545  34.770  27.209  1.00  0.00     0.163 HD
ATOM     46  O   UNL A   1      32.486  36.182  28.959  1.00  0.00    -0.269 OA
BRANCH  44  47
ATOM     47  C   UNL A   1      34.127  34.537  29.279  1.00  0.00     0.039 A 
ATOM     48  C   UNL A   1      34.004  33.936  30.530  1.00  0.00     0.014 A 
ATOM     49  C   UNL A   1      35.366  34.590  28.630  1.00  0.00     0.014 A 
ATOM     50  C   UNL A   1      35.120  33.344  31.114  1.00  0.00     0.010 A 
ATOM     51  C   UNL A   1      36.457  33.922  29.174  1.00  0.00     0.010 A 
ATOM     52  C   UNL A   1      36.347  33.302  30.426  1.00  0.00    -0.014 A 
BRANCH  52  53
ATOM     53  C   UNL A   1      37.507  32.595  31.018  1.00  0.00     0.031 A 
ATOM     54  C   UNL A   1      38.008  32.958  32.385  1.00  0.00     0.074 A 
ATOM     55  C   UNL A   1      38.116  31.630  30.303  1.00  0.00     0.049 A 
ATOM     56  N   UNL A   1      38.973  32.414  33.082  1.00  0.00    -0.248 NA
ATOM     57  C   UNL A   1      37.357  34.097  33.052  1.00  0.00     0.031 C 
ATOM     58  C   UNL A   1      37.758  31.238  28.938  1.00  0.00     0.029 A 
ATOM     59  N   UNL A   1      39.154  30.795  30.627  1.00  0.00    -0.354 N 
ATOM     60  C   UNL A   1      39.043  33.139  34.263  1.00  0.00     0.074 A 
ATOM     61  C   UNL A   1      38.070  34.205  34.163  1.00  0.00     0.031 C 
ATOM     62  C   UNL A   1      38.531  30.208  28.559  1.00  0.00     0.029 A 
ATOM     63  C   UNL A   1      39.462  29.893  29.638  1.00  0.00     0.049 A 
ATOM     64  H   UNL A   1      39.633  30.838  31.486  1.00  0.00     0.167 HD
ATOM     65  C   UNL A   1      39.827  32.917  35.345  1.00  0.00     0.037 A 
ATOM     66  C   UNL A   1      40.387  28.917  29.610  1.00  0.00     0.037 A 
ATOM     67  C   UNL A   1      40.788  31.847  35.438  1.00  0.00     0.049 A 
ATOM     68  C   UNL A   1      41.246  28.694  30.824  1.00  0.00     0.074 A 
ATOM     69  C   UNL A   1      41.595  31.503  36.509  1.00  0.00     0.029 A 
ATOM     70  N   UNL A   1      41.079  30.955  34.416  1.00  0.00    -0.354 N 
ATOM     71  N   UNL A   1      41.245  29.331  31.970  1.00  0.00    -0.248 NA
ATOM     72  C   UNL A   1      42.228  27.606  30.743  1.00  0.00     0.031 C 
ATOM     73  C   UNL A   1      42.416  30.441  36.113  1.00  0.00     0.029 A 
ATOM     74  C   UNL A   1      42.076  30.079  34.819  1.00  0.00     0.049 A 
ATOM     75  H   UNL A   1      40.642  30.946  33.534  1.00  0.00     0.167 HD
ATOM     76  C   UNL A   1      42.207  28.709  32.754  1.00  0.00     0.074 A 
ATOM     77  C   UNL A   1      42.746  27.623  31.962  1.00  0.00     0.031 C 
ATOM     78  C   UNL A   1      42.612  29.011  34.014  1.00  0.00     0.037 A 
BRANCH  65  79
ATOM     79  C   UNL A   1      39.679  33.848  36.515  1.00  0.00     0.064 A 
ATOM     80  C   UNL A   1      40.325  35.095  36.553  1.00  0.00     0.173 A 
ATOM     81  C   UNL A   1      38.854  33.508  37.597  1.00  0.00     0.173 A 
ATOM     82  F   UNL A   1      41.136  35.466  35.552  1.00  0.00    -0.203 F 
ATOM     83  C   UNL A   1      40.174  35.950  37.643  1.00  0.00     0.198 A 
ATOM     84  C   UNL A   1      38.677  34.380  38.668  1.00  0.00     0.198 A 
ATOM     85  F   UNL A   1      38.210  32.331  37.613  1.00  0.00    -0.203 F 
ATOM     86  F   UNL A   1      40.842  37.110  37.679  1.00  0.00    -0.200 F 
ATOM     87  C   UNL A   1      39.343  35.596  38.694  1.00  0.00     0.200 A 
ATOM     88  F   UNL A   1      37.862  34.042  39.677  1.00  0.00    -0.200 F 
ATOM     89  F   UNL A   1      39.190  36.423  39.737  1.00  0.00    -0.200 F 
ENDBRANCH  65  79
BRANCH  66  90
ATOM     90  C   UNL A   1      40.528  28.059  28.404  1.00  0.00     0.064 A 
ATOM     91  C   UNL A   1      39.893  26.813  28.323  1.00  0.00     0.173 A 
ATOM     92  C   UNL A   1      41.310  28.464  27.310  1.00  0.00     0.173 A 
ATOM     93  F   UNL A   1      39.149  26.373  29.348  1.00  0.00    -0.203 F 
ATOM     94  C   UNL A   1      40.055  25.991  27.209  1.00  0.00     0.198 A 
ATOM     95  C   UNL A   1      41.442  27.658  26.183  1.00  0.00     0.198 A 
ATOM     96  F   UNL A   1      41.933  29.652  27.332  1.00  0.00    -0.203 F 
ATOM     97  F   UNL A   1      39.482  24.781  27.182  1.00  0.00    -0.200 F 
ATOM     98  C   UNL A   1      40.826  26.417  26.137  1.00  0.00     0.200 A 
ATOM     99  F   UNL A   1      42.173  28.082  25.142  1.00  0.00    -0.200 F 
ATOM    100  F   UNL A   1      40.979  25.630  25.065  1.00  0.00    -0.200 F 
ENDBRANCH  66  90
BRANCH  78 101
ATOM    101  C   UNL A   1      43.678  28.136  34.611  1.00  0.00     0.064 A 
ATOM    102  C   UNL A   1      45.035  28.491  34.569  1.00  0.00     0.173 A 
ATOM    103  C   UNL A   1      43.339  26.921  35.227  1.00  0.00     0.173 A 
ATOM    104  F   UNL A   1      45.416  29.635  33.980  1.00  0.00    -0.203 F 
ATOM    105  C   UNL A   1      46.015  27.641  35.074  1.00  0.00     0.198 A 
ATOM    106  C   UNL A   1      44.318  26.092  35.767  1.00  0.00     0.198 A 
ATOM    107  F   UNL A   1      42.056  26.536  35.305  1.00  0.00    -0.203 F 
ATOM    108  F   UNL A   1      47.309  27.966  34.950  1.00  0.00    -0.200 F 
ATOM    109  C   UNL A   1      45.656  26.444  35.675  1.00  0.00     0.200 A 
ATOM    110  F   UNL A   1      43.968  24.944  36.364  1.00  0.00    -0.200 F 
ATOM    111  F   UNL A   1      46.600  25.625  36.156  1.00  0.00    -0.200 F 
ENDBRANCH  78 101
ENDBRANCH  52  53
ENDBRANCH  44  47
ENDBRANCH  42  43
ENDBRANCH  41  42
ENDBRANCH  40  41
ENDBRANCH   1  40
TORSDOF 18
ENDMDL
MODEL 2
REMARK VINA RESULT:     -13.6      0.670      6.802
REMARK SMILES COc1ccc2[nH]cc([C@H](C(=O)NCCCCCCNC(=O)c3ccc(-c4c5nc(c(-c6c(F)c(F)c(F)c(F)c6F)c6ccc([nH]6)c(-c6c(F)c(F)c(F)c(F)c6F)c6nc(c(-c7c(F)c(F)c(F)c(F)c7F)c7ccc4[nH]7)C=C6)C=C5)cc3)[NH+]3CC[NH+](Cc4cccc5ccccc45)CC3)c2c1
REMARK SMILES IDX 16 1 15 2 14 3 13 4 11 5 12 6 10 8 9 9 3 10 4 11 104 12 5 13
REMARK SMILES IDX 103 14 6 15 7 16 8 17 2 19 1 20 86 21 87 22 102 23 88 25
REMARK SMILES IDX 101 26 89 27 90 29 91 30 92 31 100 32 93 33 95 34 99 35
REMARK SMILES IDX 94 36 96 37 98 38 97 39 17 40 18 41 19 42 20 43 21 44 22 46
REMARK SMILES IDX 23 47 24 48 85 49 25 50 84 51 26 52 27 53 28 54 78 55 29 56
REMARK SMILES IDX 83 57 77 58 79 59 30 60 82 61 76 62 75 63 31 65 63 66 43 67
REMARK SMILES IDX 62 68 44 69 47 70 61 71 80 72 45 73 46 74 60 76 81 77 48 78
REMARK SMILES IDX 32 79 33 80 41 81 34 82 35 83 39 84 42 85 36 86 37 87 40 88
REMARK SMILES IDX 38 89 64 90 65 91 73 92 66 93 67 94 71 95 74 96 68 97 69 98
REMARK SMILES IDX 72 99 70 100 49 101 50 102 58 103 51 104 52 105 56 106
REMARK SMILES IDX 59 107 53 108 54 109 57 110 55 111
REMARK H PARENT 13 7 7 18 86 24 89 28 20 45 79 64 47 75
REMARK Flexibility Score: inf
ROOT
ATOM      1  C   UNL A   1      32.684  30.366  27.260  1.00  0.00     0.002 C 
ENDROOT
BRANCH   1   2
ATOM      2  C   UNL A   1      32.592  28.830  27.282  1.00  0.00     0.021 C 
BRANCH   2   3
ATOM      3  C   UNL A   1      32.116  28.231  25.965  1.00  0.00     0.116 C 
BRANCH   3   4
ATOM      4  N   UNL A   1      31.265  27.109  26.266  1.00  0.00    -0.351 N 
ATOM      5  C   UNL A   1      30.702  26.199  25.439  1.00  0.00     0.283 C 
ATOM      6  O   UNL A   1      29.799  25.536  25.951  1.00  0.00    -0.268 OA
ATOM      7  H   UNL A   1      31.062  26.984  27.221  1.00  0.00     0.163 HD
BRANCH   5   8
ATOM      8  C   UNL A   1      31.213  26.064  23.992  1.00  0.00     0.308 C 
BRANCH   8   9
ATOM      9  C   UNL A   1      31.165  27.391  23.228  1.00  0.00     0.045 A 
ATOM     10  C   UNL A   1      27.738  29.072  22.802  1.00  0.00     0.119 A 
ATOM     11  C   UNL A   1      28.186  30.162  22.068  1.00  0.00     0.048 A 
ATOM     12  C   UNL A   1      28.635  28.116  23.274  1.00  0.00     0.057 A 
ATOM     13  C   UNL A   1      29.547  30.314  21.777  1.00  0.00     0.030 A 
ATOM     14  C   UNL A   1      30.007  28.209  22.950  1.00  0.00     0.013 A 
ATOM     15  C   UNL A   1      30.432  29.323  22.229  1.00  0.00     0.046 A 
ATOM     16  N   UNL A   1      31.801  29.236  22.126  1.00  0.00    -0.361 N 
ATOM     17  C   UNL A   1      32.250  28.077  22.703  1.00  0.00     0.094 A 
ATOM     18  H   UNL A   1      32.377  29.910  21.698  1.00  0.00     0.166 HD
BRANCH  10  19
ATOM     19  O   UNL A   1      26.430  28.918  23.175  1.00  0.00    -0.497 OA
ATOM     20  C   UNL A   1      26.228  27.718  23.918  1.00  0.00     0.278 C 
ENDBRANCH  10  19
ENDBRANCH   8   9
BRANCH   8  21
ATOM     21  N   UNL A   1      32.571  25.505  23.914  1.00  0.00    -0.312 N 
ATOM     22  C   UNL A   1      33.162  25.090  25.184  1.00  0.00     0.325 C 
ATOM     23  C   UNL A   1      32.803  24.540  22.828  1.00  0.00     0.325 C 
ATOM     24  H   UNL A   1      33.104  26.330  23.641  1.00  0.00     0.349 HD
ATOM     25  C   UNL A   1      33.210  23.593  25.519  1.00  0.00     0.324 C 
ATOM     26  C   UNL A   1      32.991  23.033  23.191  1.00  0.00     0.324 C 
ATOM     27  N   UNL A   1      33.685  22.718  24.449  1.00  0.00    -0.322 N 
ATOM     28  H   UNL A   1      33.411  21.761  24.670  1.00  0.00     0.348 HD
BRANCH  27  29
ATOM     29  C   UNL A   1      35.143  22.526  24.397  1.00  0.00     0.300 C 
BRANCH  29  30
ATOM     30  C   UNL A   1      35.678  21.172  24.831  1.00  0.00     0.014 A 
ATOM     31  C   UNL A   1      34.841  20.060  24.612  1.00  0.00     0.010 A 
ATOM     32  C   UNL A   1      37.013  20.969  25.278  1.00  0.00    -0.010 A 
ATOM     33  C   UNL A   1      35.348  18.770  24.663  1.00  0.00     0.001 A 
ATOM     34  C   UNL A   1      37.546  19.661  25.194  1.00  0.00    -0.018 A 
ATOM     35  C   UNL A   1      37.873  21.998  25.742  1.00  0.00     0.009 A 
ATOM     36  C   UNL A   1      36.707  18.578  24.890  1.00  0.00     0.009 A 
ATOM     37  C   UNL A   1      38.923  19.456  25.383  1.00  0.00     0.009 A 
ATOM     38  C   UNL A   1      39.233  21.768  25.970  1.00  0.00     0.001 A 
ATOM     39  C   UNL A   1      39.765  20.505  25.747  1.00  0.00     0.001 A 
ENDBRANCH  29  30
ENDBRANCH  27  29
ENDBRANCH   8  21
ENDBRANCH   5   8
ENDBRANCH   3   4
ENDBRANCH   2   3
ENDBRANCH   1   2
BRANCH   1  40
ATOM     40  C   UNL A   1      31.562  31.063  26.478  1.00  0.00     0.002 C 
BRANCH  40  41
ATOM     41  C   UNL A   1      31.577  32.586  26.594  1.00  0.00     0.021 C 
BRANCH  41  42
ATOM     42  C   UNL A   1      32.656  33.113  27.525  1.00  0.00     0.116 C 
BRANCH  42  43
ATOM     43  N   UNL A   1      32.493  34.529  27.797  1.00  0.00    -0.352 N 
ATOM     44  C   UNL A   1      33.128  35.294  28.741  1.00  0.00     0.251 C 
ATOM     45  H   UNL A   1      31.841  35.002  27.231  1.00  0.00     0.163 HD
ATOM     46  O   UNL A   1      32.753  36.433  28.980  1.00  0.00    -0.269 OA
BRANCH  44  47
ATOM     47  C   UNL A   1      34.254  34.704  29.488  1.00  0.00     0.039 A 
ATOM     48  C   UNL A   1      34.011  34.195  30.762  1.00  0.00     0.014 A 
ATOM     49  C   UNL A   1      35.530  34.624  28.918  1.00  0.00     0.014 A 
ATOM     50  C   UNL A   1      35.041  33.562  31.450  1.00  0.00     0.010 A 
ATOM     51  C   UNL A   1      36.532  33.915  29.569  1.00  0.00     0.010 A 
ATOM     52  C   UNL A   1      36.300  33.386  30.847  1.00  0.00    -0.014 A 
BRANCH  52  53
ATOM     53  C   UNL A   1      37.365  32.636  31.552  1.00  0.00     0.031 A 
ATOM     54  C   UNL A   1      38.038  31.465  30.898  1.00  0.00     0.074 A 
ATOM     55  C   UNL A   1      37.712  33.012  32.798  1.00  0.00     0.049 A 
ATOM     56  N   UNL A   1      39.023  30.725  31.341  1.00  0.00    -0.248 NA
ATOM     57  C   UNL A   1      37.524  31.051  29.582  1.00  0.00     0.031 C 
ATOM     58  C   UNL A   1      37.081  34.093  33.559  1.00  0.00     0.029 A 
ATOM     59  N   UNL A   1      38.685  32.538  33.639  1.00  0.00    -0.354 N 
ATOM     60  C   UNL A   1      39.247  29.767  30.363  1.00  0.00     0.074 A 
ATOM     61  C   UNL A   1      38.253  29.973  29.333  1.00  0.00     0.031 C 
ATOM     62  C   UNL A   1      37.714  34.230  34.735  1.00  0.00     0.029 A 
ATOM     63  C   UNL A   1      38.768  33.226  34.825  1.00  0.00     0.049 A 
ATOM     64  H   UNL A   1      39.269  31.778  33.414  1.00  0.00     0.167 HD
ATOM     65  C   UNL A   1      40.214  28.820  30.315  1.00  0.00     0.037 A 
ATOM     66  C   UNL A   1      39.607  33.066  35.865  1.00  0.00     0.037 A 
ATOM     67  C   UNL A   1      41.206  28.627  31.342  1.00  0.00     0.049 A 
ATOM     68  C   UNL A   1      40.669  32.004  35.786  1.00  0.00     0.074 A 
ATOM     69  C   UNL A   1      42.261  27.731  31.367  1.00  0.00     0.029 A 
ATOM     70  N   UNL A   1      41.258  29.337  32.533  1.00  0.00    -0.354 N 
ATOM     71  N   UNL A   1      40.927  31.159  34.817  1.00  0.00    -0.248 NA
ATOM     72  C   UNL A   1      41.566  31.885  36.943  1.00  0.00     0.031 C 
ATOM     73  C   UNL A   1      42.913  27.858  32.598  1.00  0.00     0.029 A 
ATOM     74  C   UNL A   1      42.308  28.878  33.314  1.00  0.00     0.049 A 
ATOM     75  H   UNL A   1      40.639  30.059  32.787  1.00  0.00     0.167 HD
ATOM     76  C   UNL A   1      42.027  30.423  35.237  1.00  0.00     0.074 A 
ATOM     77  C   UNL A   1      42.406  30.947  36.532  1.00  0.00     0.031 C 
ATOM     78  C   UNL A   1      42.664  29.401  34.609  1.00  0.00     0.037 A 
BRANCH  65  79
ATOM     79  C   UNL A   1      40.247  27.919  29.112  1.00  0.00     0.064 A 
ATOM     80  C   UNL A   1      39.535  26.709  29.077  1.00  0.00     0.173 A 
ATOM     81  C   UNL A   1      40.970  28.284  27.967  1.00  0.00     0.173 A 
ATOM     82  F   UNL A   1      38.837  26.304  30.148  1.00  0.00    -0.203 F 
ATOM     83  C   UNL A   1      39.570  25.887  27.952  1.00  0.00     0.198 A 
ATOM     84  C   UNL A   1      40.975  27.477  26.833  1.00  0.00     0.198 A 
ATOM     85  F   UNL A   1      41.666  29.430  27.944  1.00  0.00    -0.203 F 
ATOM     86  F   UNL A   1      38.926  24.712  27.962  1.00  0.00    -0.200 F 
ATOM     87  C   UNL A   1      40.283  26.276  26.829  1.00  0.00     0.200 A 
ATOM     88  F   UNL A   1      41.653  27.862  25.742  1.00  0.00    -0.200 F 
ATOM     89  F   UNL A   1      40.308  25.490  25.744  1.00  0.00    -0.200 F 
ENDBRANCH  65  79
BRANCH  66  90
ATOM     90  C   UNL A   1      39.494  33.951  37.055  1.00  0.00     0.064 A 
ATOM     91  C   UNL A   1      38.778  33.549  38.190  1.00  0.00     0.173 A 
ATOM     92  C   UNL A   1      40.093  35.219  37.078  1.00  0.00     0.173 A 
ATOM     93  F   UNL A   1      38.173  32.353  38.212  1.00  0.00    -0.203 F 
ATOM     94  C   UNL A   1      38.640  34.392  39.292  1.00  0.00     0.198 A 
ATOM     95  C   UNL A   1      39.984  36.047  38.192  1.00  0.00     0.198 A 
ATOM     96  F   UNL A   1      40.798  35.649  36.020  1.00  0.00    -0.203 F 
ATOM     97  F   UNL A   1      37.903  34.005  40.341  1.00  0.00    -0.200 F 
ATOM     98  C   UNL A   1      39.248  35.638  39.294  1.00  0.00     0.200 A 
ATOM     99  F   UNL A   1      40.589  37.243  38.197  1.00  0.00    -0.200 F 
ATOM    100  F   UNL A   1      39.119  36.448  40.353  1.00  0.00    -0.200 F 
ENDBRANCH  66  90
BRANCH  78 101
ATOM    101  C   UNL A   1      43.848  28.804  35.318  1.00  0.00     0.064 A 
ATOM    102  C   UNL A   1      45.142  29.320  35.156  1.00  0.00     0.173 A 
ATOM    103  C   UNL A   1      43.686  27.696  36.164  1.00  0.00     0.173 A 
ATOM    104  F   UNL A   1      45.355  30.371  34.349  1.00  0.00    -0.203 F 
ATOM    105  C   UNL A   1      46.236  28.719  35.773  1.00  0.00     0.198 A 
ATOM    106  C   UNL A   1      44.777  27.122  36.811  1.00  0.00     0.198 A 
ATOM    107  F   UNL A   1      42.469  27.168  36.364  1.00  0.00    -0.203 F 
ATOM    108  F   UNL A   1      47.472  29.182  35.540  1.00  0.00    -0.200 F 
ATOM    109  C   UNL A   1      46.052  27.623  36.602  1.00  0.00     0.200 A 
ATOM    110  F   UNL A   1      44.595  26.074  37.627  1.00  0.00    -0.200 F 
ATOM    111  F   UNL A   1      47.106  27.042  37.191  1.00  0.00    -0.200 F 
ENDBRANCH  78 101
ENDBRANCH  52  53
ENDBRANCH  44  47
ENDBRANCH  42  43
ENDBRANCH  41  42
ENDBRANCH  40  41
ENDBRANCH   1  40
TORSDOF 18
ENDMDL
MODEL 3
REMARK VINA RESULT:     -13.4      0.728      2.366
REMARK SMILES COc1ccc2[nH]cc([C@H](C(=O)NCCCCCCNC(=O)c3ccc(-c4c5nc(c(-c6c(F)c(F)c(F)c(F)c6F)c6ccc([nH]6)c(-c6c(F)c(F)c(F)c(F)c6F)c6nc(c(-c7c(F)c(F)c(F)c(F)c7F)c7ccc4[nH]7)C=C6)C=C5)cc3)[NH+]3CC[NH+](Cc4cccc5ccccc45)CC3)c2c1
REMARK SMILES IDX 16 1 15 2 14 3 13 4 11 5 12 6 10 8 9 9 3 10 4 11 104 12 5 13
REMARK SMILES IDX 103 14 6 15 7 16 8 17 2 19 1 20 86 21 87 22 102 23 88 25
REMARK SMILES IDX 101 26 89 27 90 29 91 30 92 31 100 32 93 33 95 34 99 35
REMARK SMILES IDX 94 36 96 37 98 38 97 39 17 40 18 41 19 42 20 43 21 44 22 46
REMARK SMILES IDX 23 47 24 48 85 49 25 50 84 51 26 52 27 53 28 54 78 55 29 56
REMARK SMILES IDX 83 57 77 58 79 59 30 60 82 61 76 62 75 63 31 65 63 66 43 67
REMARK SMILES IDX 62 68 44 69 47 70 61 71 80 72 45 73 46 74 60 76 81 77 48 78
REMARK SMILES IDX 32 79 33 80 41 81 34 82 35 83 39 84 42 85 36 86 37 87 40 88
REMARK SMILES IDX 38 89 64 90 65 91 73 92 66 93 67 94 71 95 74 96 68 97 69 98
REMARK SMILES IDX 72 99 70 100 49 101 50 102 58 103 51 104 52 105 56 106
REMARK SMILES IDX 59 107 53 108 54 109 57 110 55 111
REMARK H PARENT 13 7 7 18 86 24 89 28 20 45 79 64 47 75
REMARK Flexibility Score: inf
ROOT
ATOM      1  C   UNL A   1      32.259  30.079  26.332  1.00  0.00     0.002 C 
ENDROOT
BRANCH   1   2
ATOM      2  C   UNL A   1      31.730  29.043  27.339  1.00  0.00     0.021 C 
BRANCH   2   3
ATOM      3  C   UNL A   1      32.162  27.616  27.027  1.00  0.00     0.116 C 
BRANCH   3   4
ATOM      4  N   UNL A   1      30.990  26.779  27.049  1.00  0.00    -0.351 N 
ATOM      5  C   UNL A   1      30.412  26.068  26.054  1.00  0.00     0.283 C 
ATOM      6  O   UNL A   1      29.268  25.684  26.301  1.00  0.00    -0.268 OA
ATOM      7  H   UNL A   1      30.540  26.715  27.921  1.00  0.00     0.163 HD
BRANCH   5   8
ATOM      8  C   UNL A   1      31.195  25.797  24.755  1.00  0.00     0.308 C 
BRANCH   8   9
ATOM      9  C   UNL A   1      31.378  27.060  23.908  1.00  0.00     0.045 A 
ATOM     10  C   UNL A   1      28.210  28.918  22.785  1.00  0.00     0.119 A 
ATOM     11  C   UNL A   1      28.856  29.916  22.068  1.00  0.00     0.048 A 
ATOM     12  C   UNL A   1      28.938  27.947  23.467  1.00  0.00     0.057 A 
ATOM     13  C   UNL A   1      30.255  29.958  22.008  1.00  0.00     0.030 A 
ATOM     14  C   UNL A   1      30.348  27.926  23.380  1.00  0.00     0.013 A 
ATOM     15  C   UNL A   1      30.973  28.951  22.672  1.00  0.00     0.046 A 
ATOM     16  N   UNL A   1      32.329  28.768  22.813  1.00  0.00    -0.361 N 
ATOM     17  C   UNL A   1      32.585  27.632  23.535  1.00  0.00     0.094 A 
ATOM     18  H   UNL A   1      33.018  29.369  22.447  1.00  0.00     0.166 HD
BRANCH  10  19
ATOM     19  O   UNL A   1      26.850  28.878  22.934  1.00  0.00    -0.497 OA
ATOM     20  C   UNL A   1      26.447  27.861  23.848  1.00  0.00     0.278 C 
ENDBRANCH  10  19
ENDBRANCH   8   9
BRANCH   8  21
ATOM     21  N   UNL A   1      32.507  25.176  24.995  1.00  0.00    -0.312 N 
ATOM     22  C   UNL A   1      32.615  24.366  26.206  1.00  0.00     0.325 C 
ATOM     23  C   UNL A   1      33.142  24.551  23.824  1.00  0.00     0.325 C 
ATOM     24  H   UNL A   1      33.077  25.999  25.187  1.00  0.00     0.349 HD
ATOM     25  C   UNL A   1      32.584  22.837  26.073  1.00  0.00     0.324 C 
ATOM     26  C   UNL A   1      33.232  22.994  23.762  1.00  0.00     0.324 C 
ATOM     27  N   UNL A   1      33.437  22.274  25.028  1.00  0.00    -0.322 N 
ATOM     28  H   UNL A   1      33.131  21.319  24.842  1.00  0.00     0.348 HD
BRANCH  27  29
ATOM     29  C   UNL A   1      34.822  21.988  25.436  1.00  0.00     0.300 C 
BRANCH  29  30
ATOM     30  C   UNL A   1      35.426  20.677  24.961  1.00  0.00     0.014 A 
ATOM     31  C   UNL A   1      36.830  20.574  24.998  1.00  0.00     0.010 A 
ATOM     32  C   UNL A   1      34.646  19.529  24.651  1.00  0.00    -0.010 A 
ATOM     33  C   UNL A   1      37.454  19.339  24.905  1.00  0.00     0.001 A 
ATOM     34  C   UNL A   1      35.284  18.266  24.692  1.00  0.00    -0.018 A 
ATOM     35  C   UNL A   1      33.256  19.550  24.366  1.00  0.00     0.009 A 
ATOM     36  C   UNL A   1      36.679  18.188  24.816  1.00  0.00     0.009 A 
ATOM     37  C   UNL A   1      34.512  17.093  24.642  1.00  0.00     0.009 A 
ATOM     38  C   UNL A   1      32.509  18.372  24.274  1.00  0.00     0.001 A 
ATOM     39  C   UNL A   1      33.132  17.145  24.456  1.00  0.00     0.001 A 
ENDBRANCH  29  30
ENDBRANCH  27  29
ENDBRANCH   8  21
ENDBRANCH   5   8
ENDBRANCH   3   4
ENDBRANCH   2   3
ENDBRANCH   1   2
BRANCH   1  40
ATOM     40  C   UNL A   1      31.181  30.980  25.714  1.00  0.00     0.002 C 
BRANCH  40  41
ATOM     41  C   UNL A   1      31.143  32.392  26.295  1.00  0.00     0.021 C 
BRANCH  41  42
ATOM     42  C   UNL A   1      32.402  32.770  27.056  1.00  0.00     0.116 C 
BRANCH  42  43
ATOM     43  N   UNL A   1      32.333  34.119  27.586  1.00  0.00    -0.352 N 
ATOM     44  C   UNL A   1      33.090  34.686  28.576  1.00  0.00     0.251 C 
ATOM     45  H   UNL A   1      31.651  34.703  27.181  1.00  0.00     0.163 HD
ATOM     46  O   UNL A   1      32.794  35.774  29.048  1.00  0.00    -0.269 OA
BRANCH  44  47
ATOM     47  C   UNL A   1      34.256  33.941  29.089  1.00  0.00     0.039 A 
ATOM     48  C   UNL A   1      35.528  34.340  28.687  1.00  0.00     0.014 A 
ATOM     49  C   UNL A   1      34.090  32.881  29.988  1.00  0.00     0.014 A 
ATOM     50  C   UNL A   1      36.643  33.703  29.222  1.00  0.00     0.010 A 
ATOM     51  C   UNL A   1      35.204  32.305  30.587  1.00  0.00     0.010 A 
ATOM     52  C   UNL A   1      36.492  32.704  30.202  1.00  0.00    -0.014 A 
BRANCH  52  53
ATOM     53  C   UNL A   1      37.686  32.091  30.829  1.00  0.00     0.031 A 
ATOM     54  C   UNL A   1      38.122  32.498  32.206  1.00  0.00     0.074 A 
ATOM     55  C   UNL A   1      38.385  31.169  30.138  1.00  0.00     0.049 A 
ATOM     56  N   UNL A   1      39.106  32.032  32.932  1.00  0.00    -0.248 NA
ATOM     57  C   UNL A   1      37.370  33.589  32.847  1.00  0.00     0.031 C 
ATOM     58  C   UNL A   1      38.093  30.743  28.767  1.00  0.00     0.029 A 
ATOM     59  N   UNL A   1      39.473  30.417  30.496  1.00  0.00    -0.354 N 
ATOM     60  C   UNL A   1      39.090  32.768  34.109  1.00  0.00     0.074 A 
ATOM     61  C   UNL A   1      38.043  33.757  33.975  1.00  0.00     0.031 C 
ATOM     62  C   UNL A   1      38.951  29.772  28.418  1.00  0.00     0.029 A 
ATOM     63  C   UNL A   1      39.873  29.534  29.522  1.00  0.00     0.049 A 
ATOM     64  H   UNL A   1      39.925  30.501  31.367  1.00  0.00     0.167 HD
ATOM     65  C   UNL A   1      39.859  32.612  35.213  1.00  0.00     0.037 A 
ATOM     66  C   UNL A   1      40.870  28.630  29.527  1.00  0.00     0.037 A 
ATOM     67  C   UNL A   1      40.895  31.618  35.340  1.00  0.00     0.049 A 
ATOM     68  C   UNL A   1      41.711  28.480  30.765  1.00  0.00     0.074 A 
ATOM     69  C   UNL A   1      41.697  31.341  36.433  1.00  0.00     0.029 A 
ATOM     70  N   UNL A   1      41.279  30.744  34.332  1.00  0.00    -0.354 N 
ATOM     71  N   UNL A   1      41.631  29.123  31.905  1.00  0.00    -0.248 NA
ATOM     72  C   UNL A   1      42.774  27.468  30.718  1.00  0.00     0.031 C 
ATOM     73  C   UNL A   1      42.605  30.343  36.068  1.00  0.00     0.029 A 
ATOM     74  C   UNL A   1      42.328  29.948  34.768  1.00  0.00     0.049 A 
ATOM     75  H   UNL A   1      40.868  30.696  33.439  1.00  0.00     0.167 HD
ATOM     76  C   UNL A   1      42.616  28.579  32.719  1.00  0.00     0.074 A 
ATOM     77  C   UNL A   1      43.256  27.532  31.950  1.00  0.00     0.031 C 
ATOM     78  C   UNL A   1      42.964  28.918  33.986  1.00  0.00     0.037 A 
BRANCH  65  79
ATOM     79  C   UNL A   1      39.611  33.537  36.371  1.00  0.00     0.064 A 
ATOM     80  C   UNL A   1      38.783  33.171  37.444  1.00  0.00     0.173 A 
ATOM     81  C   UNL A   1      40.234  34.792  36.427  1.00  0.00     0.173 A 
ATOM     82  F   UNL A   1      38.151  31.988  37.437  1.00  0.00    -0.203 F 
ATOM     83  C   UNL A   1      38.566  34.037  38.513  1.00  0.00     0.198 A 
ATOM     84  C   UNL A   1      40.043  35.641  37.513  1.00  0.00     0.198 A 
ATOM     85  F   UNL A   1      41.038  35.193  35.430  1.00  0.00    -0.203 F 
ATOM     86  F   UNL A   1      37.730  33.686  39.499  1.00  0.00    -0.200 F 
ATOM     87  C   UNL A   1      39.204  35.268  38.551  1.00  0.00     0.200 A 
ATOM     88  F   UNL A   1      40.672  36.825  37.555  1.00  0.00    -0.200 F 
ATOM     89  F   UNL A   1      39.003  36.096  39.585  1.00  0.00    -0.200 F 
ENDBRANCH  65  79
BRANCH  66  90
ATOM     90  C   UNL A   1      41.107  27.778  28.331  1.00  0.00     0.064 A 
ATOM     91  C   UNL A   1      41.960  28.197  27.302  1.00  0.00     0.173 A 
ATOM     92  C   UNL A   1      40.478  26.532  28.189  1.00  0.00     0.173 A 
ATOM     93  F   UNL A   1      42.572  29.388  27.381  1.00  0.00    -0.203 F 
ATOM     94  C   UNL A   1      42.154  27.416  26.163  1.00  0.00     0.198 A 
ATOM     95  C   UNL A   1      40.700  25.737  27.068  1.00  0.00     0.198 A 
ATOM     96  F   UNL A   1      39.658  26.080  29.150  1.00  0.00    -0.203 F 
ATOM     97  F   UNL A   1      42.931  27.866  25.169  1.00  0.00    -0.200 F 
ATOM     98  C   UNL A   1      41.528  26.184  26.050  1.00  0.00     0.200 A 
ATOM     99  F   UNL A   1      40.107  24.539  26.972  1.00  0.00    -0.200 F 
ATOM    100  F   UNL A   1      41.716  25.432  24.958  1.00  0.00    -0.200 F 
ENDBRANCH  66  90
BRANCH  78 101
ATOM    101  C   UNL A   1      44.077  28.129  34.617  1.00  0.00     0.064 A 
ATOM    102  C   UNL A   1      43.831  26.940  35.322  1.00  0.00     0.173 A 
ATOM    103  C   UNL A   1      45.405  28.571  34.523  1.00  0.00     0.173 A 
ATOM    104  F   UNL A   1      42.578  26.480  35.453  1.00  0.00    -0.203 F 
ATOM    105  C   UNL A   1      44.865  26.253  35.951  1.00  0.00     0.198 A 
ATOM    106  C   UNL A   1      46.442  27.860  35.119  1.00  0.00     0.198 A 
ATOM    107  F   UNL A   1      45.699  29.695  33.852  1.00  0.00    -0.203 F 
ATOM    108  F   UNL A   1      44.595  25.165  36.684  1.00  0.00    -0.200 F 
ATOM    109  C   UNL A   1      46.170  26.711  35.846  1.00  0.00     0.200 A 
ATOM    110  F   UNL A   1      47.705  28.293  35.001  1.00  0.00    -0.200 F 
ATOM    111  F   UNL A   1      47.164  26.051  36.456  1.00  0.00    -0.200 F 
ENDBRANCH  78 101
ENDBRANCH  52  53
ENDBRANCH  44  47
ENDBRANCH  42  43
ENDBRANCH  41  42
ENDBRANCH  40  41
ENDBRANCH   1  40
TORSDOF 18
ENDMDL
