MODEL 1
REMARK VINA RESULT:     -11.8      0.000      0.000
REMARK SMILES CCc1cccc(NC(=O)N2CCO[C@@H](CC(=O)NCCCCCCNC(=O)c3ccc(-c4c5nc(c(-c6c(F)c(F)c(F)c(F)c6F)c6ccc([nH]6)c(-c6c(F)c(F)c(F)c(F)c6F)c6nc(c(-c7c(F)c(F)c(F)c(F)c7F)c7ccc4[nH]7)C=C6)C=C5)cc3)C2)c1
REMARK SMILES IDX 21 1 20 2 19 3 17 4 18 5 16 7 15 8 11 9 12 10 92 11 13 12
REMARK SMILES IDX 14 13 9 14 8 15 10 17 7 18 3 19 4 20 93 21 5 22 6 23 2 24
REMARK SMILES IDX 1 25 22 26 23 27 24 28 25 29 26 30 27 31 28 33 29 34 30 35
REMARK SMILES IDX 91 36 31 37 90 38 32 39 33 40 34 41 84 42 35 43 89 44 83 45
REMARK SMILES IDX 85 46 36 47 88 48 82 49 81 50 37 52 69 53 49 54 68 55 50 56
REMARK SMILES IDX 53 57 67 58 86 59 51 60 52 61 66 63 87 64 54 65 38 66 39 67
REMARK SMILES IDX 47 68 40 69 41 70 45 71 48 72 42 73 43 74 46 75 44 76 70 77
REMARK SMILES IDX 71 78 79 79 72 80 73 81 77 82 80 83 74 84 75 85 78 86 76 87
REMARK SMILES IDX 55 88 56 89 64 90 57 91 58 92 62 93 65 94 59 95 60 96 63 97
REMARK SMILES IDX 61 98
REMARK H PARENT 19 6 8 16 26 32 85 51 53 62
REMARK Flexibility Score: inf
ROOT
ATOM      1  C   UNL A   1      40.051  23.069  27.099  1.00  0.00     0.021 C 
ENDROOT
BRANCH   1   2
ATOM      2  C   UNL A   1      38.808  23.285  26.226  1.00  0.00     0.116 C 
BRANCH   2   3
ATOM      3  N   UNL A   1      38.387  22.033  25.613  1.00  0.00    -0.356 N 
ATOM      4  C   UNL A   1      37.424  21.777  24.681  1.00  0.00     0.222 C 
ATOM      5  O   UNL A   1      37.149  20.602  24.431  1.00  0.00    -0.275 OA
ATOM      6  H   UNL A   1      38.880  21.239  25.921  1.00  0.00     0.163 HD
BRANCH   4   7
ATOM      7  C   UNL A   1      36.695  22.907  23.988  1.00  0.00     0.133 C 
BRANCH   7   8
ATOM      8  C   UNL A   1      35.270  22.533  23.580  1.00  0.00     0.147 C 
ATOM      9  N   UNL A   1      32.967  22.218  24.436  1.00  0.00    -0.320 N 
ATOM     10  C   UNL A   1      32.464  23.161  23.438  1.00  0.00     0.150 C 
ATOM     11  C   UNL A   1      34.350  22.434  24.799  1.00  0.00     0.154 C 
ATOM     12  C   UNL A   1      33.434  23.275  22.252  1.00  0.00     0.182 C 
ATOM     13  O   UNL A   1      34.777  23.559  22.688  1.00  0.00    -0.374 OA
BRANCH   9  14
ATOM     14  C   UNL A   1      32.148  21.716  25.410  1.00  0.00     0.322 C 
ATOM     15  N   UNL A   1      31.846  20.390  25.412  1.00  0.00    -0.308 N 
ATOM     16  H   UNL A   1      31.122  20.151  26.035  1.00  0.00     0.171 HD
ATOM     17  O   UNL A   1      31.724  22.422  26.329  1.00  0.00    -0.248 OA
BRANCH  15  18
ATOM     18  C   UNL A   1      32.365  19.291  24.702  1.00  0.00     0.043 A 
ATOM     19  C   UNL A   1      33.299  17.041  24.817  1.00  0.00    -0.046 A 
ATOM     20  C   UNL A   1      33.285  16.971  23.420  1.00  0.00     0.004 A 
ATOM     21  C   UNL A   1      32.800  18.191  25.451  1.00  0.00     0.029 A 
ATOM     22  C   UNL A   1      32.916  18.079  22.672  1.00  0.00     0.002 A 
ATOM     23  C   UNL A   1      32.514  19.245  23.317  1.00  0.00     0.026 A 
BRANCH  19  24
ATOM     24  C   UNL A   1      33.905  15.918  25.617  1.00  0.00     0.032 C 
ATOM     25  C   UNL A   1      35.409  15.828  25.375  1.00  0.00     0.009 C 
ENDBRANCH  19  24
ENDBRANCH  15  18
ENDBRANCH   9  14
ENDBRANCH   7   8
ENDBRANCH   4   7
ENDBRANCH   2   3
ENDBRANCH   1   2
BRANCH   1  26
ATOM     26  C   UNL A   1      40.473  21.609  27.255  1.00  0.00     0.002 C 
BRANCH  26  27
ATOM     27  C   UNL A   1      41.749  21.223  26.504  1.00  0.00     0.002 C 
BRANCH  27  28
ATOM     28  C   UNL A   1      41.760  19.823  25.882  1.00  0.00     0.021 C 
BRANCH  28  29
ATOM     29  C   UNL A   1      42.979  18.964  26.215  1.00  0.00     0.116 C 
BRANCH  29  30
ATOM     30  N   UNL A   1      43.792  18.684  25.042  1.00  0.00    -0.352 N 
ATOM     31  C   UNL A   1      44.533  19.530  24.256  1.00  0.00     0.251 C 
ATOM     32  H   UNL A   1      43.813  17.739  24.767  1.00  0.00     0.163 HD
ATOM     33  O   UNL A   1      44.985  19.138  23.185  1.00  0.00    -0.269 OA
BRANCH  31  34
ATOM     34  C   UNL A   1      44.784  20.924  24.683  1.00  0.00     0.039 A 
ATOM     35  C   UNL A   1      44.344  21.968  23.865  1.00  0.00     0.014 A 
ATOM     36  C   UNL A   1      45.491  21.204  25.855  1.00  0.00     0.014 A 
ATOM     37  C   UNL A   1      44.558  23.294  24.250  1.00  0.00     0.010 A 
ATOM     38  C   UNL A   1      45.652  22.525  26.271  1.00  0.00     0.010 A 
ATOM     39  C   UNL A   1      45.190  23.582  25.471  1.00  0.00    -0.014 A 
BRANCH  39  40
ATOM     40  C   UNL A   1      45.380  24.983  25.926  1.00  0.00     0.031 A 
ATOM     41  C   UNL A   1      46.734  25.629  25.843  1.00  0.00     0.074 A 
ATOM     42  C   UNL A   1      44.347  25.651  26.474  1.00  0.00     0.049 A 
ATOM     43  N   UNL A   1      47.115  26.812  26.253  1.00  0.00    -0.248 NA
ATOM     44  C   UNL A   1      47.811  24.827  25.239  1.00  0.00     0.031 C 
ATOM     45  C   UNL A   1      42.995  25.121  26.645  1.00  0.00     0.029 A 
ATOM     46  N   UNL A   1      44.278  26.918  26.999  1.00  0.00    -0.354 N 
ATOM     47  C   UNL A   1      48.474  26.889  25.978  1.00  0.00     0.074 A 
ATOM     48  C   UNL A   1      48.861  25.619  25.403  1.00  0.00     0.031 C 
ATOM     49  C   UNL A   1      42.224  26.062  27.214  1.00  0.00     0.029 A 
ATOM     50  C   UNL A   1      43.035  27.246  27.480  1.00  0.00     0.049 A 
ATOM     51  H   UNL A   1      45.047  27.532  27.027  1.00  0.00     0.167 HD
ATOM     52  C   UNL A   1      49.317  27.932  26.169  1.00  0.00     0.037 A 
ATOM     53  C   UNL A   1      42.601  28.374  28.074  1.00  0.00     0.037 A 
ATOM     54  C   UNL A   1      48.924  29.206  26.711  1.00  0.00     0.049 A 
ATOM     55  C   UNL A   1      43.560  29.513  28.281  1.00  0.00     0.074 A 
ATOM     56  C   UNL A   1      49.687  30.349  26.876  1.00  0.00     0.029 A 
ATOM     57  N   UNL A   1      47.653  29.504  27.180  1.00  0.00    -0.354 N 
ATOM     58  N   UNL A   1      44.825  29.600  27.954  1.00  0.00    -0.248 NA
ATOM     59  C   UNL A   1      43.026  30.716  28.938  1.00  0.00     0.031 C 
ATOM     60  C   UNL A   1      48.890  31.325  27.483  1.00  0.00     0.029 A 
ATOM     61  C   UNL A   1      47.617  30.805  27.656  1.00  0.00     0.049 A 
ATOM     62  H   UNL A   1      46.888  28.883  27.175  1.00  0.00     0.167 HD
ATOM     63  C   UNL A   1      45.233  30.871  28.336  1.00  0.00     0.074 A 
ATOM     64  C   UNL A   1      44.076  31.525  28.913  1.00  0.00     0.031 C 
ATOM     65  C   UNL A   1      46.455  31.444  28.218  1.00  0.00     0.037 A 
BRANCH  52  66
ATOM     66  C   UNL A   1      50.756  27.736  25.790  1.00  0.00     0.064 A 
ATOM     67  C   UNL A   1      51.199  27.900  24.468  1.00  0.00     0.173 A 
ATOM     68  C   UNL A   1      51.711  27.408  26.765  1.00  0.00     0.173 A 
ATOM     69  F   UNL A   1      50.324  28.204  23.497  1.00  0.00    -0.203 F 
ATOM     70  C   UNL A   1      52.536  27.712  24.131  1.00  0.00     0.198 A 
ATOM     71  C   UNL A   1      53.053  27.249  26.429  1.00  0.00     0.198 A 
ATOM     72  F   UNL A   1      51.342  27.247  28.045  1.00  0.00    -0.203 F 
ATOM     73  F   UNL A   1      52.927  27.824  22.854  1.00  0.00    -0.200 F 
ATOM     74  C   UNL A   1      53.463  27.392  25.112  1.00  0.00     0.200 A 
ATOM     75  F   UNL A   1      53.949  26.951  27.381  1.00  0.00    -0.200 F 
ATOM     76  F   UNL A   1      54.751  27.214  24.787  1.00  0.00    -0.200 F 
ENDBRANCH  52  66
BRANCH  53  77
ATOM     77  C   UNL A   1      41.180  28.493  28.486  1.00  0.00     0.064 A 
ATOM     78  C   UNL A   1      40.778  28.129  29.779  1.00  0.00     0.173 A 
ATOM     79  C   UNL A   1      40.198  28.966  27.605  1.00  0.00     0.173 A 
ATOM     80  F   UNL A   1      41.679  27.649  30.649  1.00  0.00    -0.203 F 
ATOM     81  C   UNL A   1      39.444  28.222  30.171  1.00  0.00     0.198 A 
ATOM     82  C   UNL A   1      38.868  29.082  28.006  1.00  0.00     0.198 A 
ATOM     83  F   UNL A   1      40.532  29.328  26.358  1.00  0.00    -0.203 F 
ATOM     84  F   UNL A   1      39.081  27.832  31.400  1.00  0.00    -0.200 F 
ATOM     85  C   UNL A   1      38.491  28.704  29.286  1.00  0.00     0.200 A 
ATOM     86  F   UNL A   1      37.952  29.558  27.152  1.00  0.00    -0.200 F 
ATOM     87  F   UNL A   1      37.210  28.797  29.664  1.00  0.00    -0.200 F 
ENDBRANCH  53  77
BRANCH  65  88
ATOM     88  C   UNL A   1      46.596  32.861  28.690  1.00  0.00     0.064 A 
ATOM     89  C   UNL A   1      46.349  33.948  27.839  1.00  0.00     0.173 A 
ATOM     90  C   UNL A   1      46.948  33.133  30.021  1.00  0.00     0.173 A 
ATOM     91  F   UNL A   1      46.027  33.738  26.554  1.00  0.00    -0.203 F 
ATOM     92  C   UNL A   1      46.470  35.256  28.298  1.00  0.00     0.198 A 
ATOM     93  C   UNL A   1      47.041  34.443  30.484  1.00  0.00     0.198 A 
ATOM     94  F   UNL A   1      47.189  32.129  30.877  1.00  0.00    -0.203 F 
ATOM     95  F   UNL A   1      46.271  36.281  27.457  1.00  0.00    -0.200 F 
ATOM     96  C   UNL A   1      46.808  35.503  29.621  1.00  0.00     0.200 A 
ATOM     97  F   UNL A   1      47.358  34.680  31.765  1.00  0.00    -0.200 F 
ATOM     98  F   UNL A   1      46.918  36.764  30.062  1.00  0.00    -0.200 F 
ENDBRANCH  65  88
ENDBRANCH  39  40
ENDBRANCH  31  34
ENDBRANCH  29  30
ENDBRANCH  28  29
ENDBRANCH  27  28
ENDBRANCH  26  27
ENDBRANCH   1  26
TORSDOF 17
ENDMDL
MODEL 2
REMARK VINA RESULT:     -11.7      7.301     12.847
REMARK SMILES CCc1cccc(NC(=O)N2CCO[C@@H](CC(=O)NCCCCCCNC(=O)c3ccc(-c4c5nc(c(-c6c(F)c(F)c(F)c(F)c6F)c6ccc([nH]6)c(-c6c(F)c(F)c(F)c(F)c6F)c6nc(c(-c7c(F)c(F)c(F)c(F)c7F)c7ccc4[nH]7)C=C6)C=C5)cc3)C2)c1
REMARK SMILES IDX 21 1 20 2 19 3 17 4 18 5 16 7 15 8 11 9 12 10 92 11 13 12
REMARK SMILES IDX 14 13 9 14 8 15 10 17 7 18 3 19 4 20 93 21 5 22 6 23 2 24
REMARK SMILES IDX 1 25 22 26 23 27 24 28 25 29 26 30 27 31 28 33 29 34 30 35
REMARK SMILES IDX 91 36 31 37 90 38 32 39 33 40 34 41 84 42 35 43 89 44 83 45
REMARK SMILES IDX 85 46 36 47 88 48 82 49 81 50 37 52 69 53 49 54 68 55 50 56
REMARK SMILES IDX 53 57 67 58 86 59 51 60 52 61 66 63 87 64 54 65 38 66 39 67
REMARK SMILES IDX 47 68 40 69 41 70 45 71 48 72 42 73 43 74 46 75 44 76 70 77
REMARK SMILES IDX 71 78 79 79 72 80 73 81 77 82 80 83 74 84 75 85 78 86 76 87
REMARK SMILES IDX 55 88 56 89 64 90 57 91 58 92 62 93 65 94 59 95 60 96 63 97
REMARK SMILES IDX 61 98
REMARK H PARENT 19 6 8 16 26 32 85 51 53 62
REMARK Flexibility Score: inf
ROOT
ATOM      1  C   UNL A   1      35.776  31.935  28.161  1.00  0.00     0.021 C 
ENDROOT
BRANCH   1   2
ATOM      2  C   UNL A   1      35.017  30.710  27.634  1.00  0.00     0.116 C 
BRANCH   2   3
ATOM      3  N   UNL A   1      33.639  31.057  27.317  1.00  0.00    -0.356 N 
ATOM      4  C   UNL A   1      32.536  30.270  27.158  1.00  0.00     0.222 C 
ATOM      5  O   UNL A   1      31.501  30.790  26.736  1.00  0.00    -0.275 OA
ATOM      6  H   UNL A   1      33.475  32.020  27.197  1.00  0.00     0.163 HD
BRANCH   4   7
ATOM      7  C   UNL A   1      32.587  28.791  27.471  1.00  0.00     0.133 C 
BRANCH   7   8
ATOM      8  C   UNL A   1      31.818  27.943  26.458  1.00  0.00     0.147 C 
ATOM      9  N   UNL A   1      31.848  27.101  24.129  1.00  0.00    -0.320 N 
ATOM     10  C   UNL A   1      31.711  25.730  24.619  1.00  0.00     0.150 C 
ATOM     11  C   UNL A   1      32.470  28.000  25.075  1.00  0.00     0.154 C 
ATOM     12  C   UNL A   1      31.101  25.709  26.029  1.00  0.00     0.182 C 
ATOM     13  O   UNL A   1      31.814  26.575  26.931  1.00  0.00    -0.374 OA
BRANCH   9  14
ATOM     14  C   UNL A   1      32.066  27.358  22.802  1.00  0.00     0.322 C 
ATOM     15  N   UNL A   1      31.076  27.925  22.061  1.00  0.00    -0.308 N 
ATOM     16  H   UNL A   1      31.254  27.914  21.093  1.00  0.00     0.171 HD
ATOM     17  O   UNL A   1      33.159  27.151  22.272  1.00  0.00    -0.248 OA
BRANCH  15  18
ATOM     18  C   UNL A   1      29.849  28.524  22.403  1.00  0.00     0.043 A 
ATOM     19  C   UNL A   1      28.446  30.515  22.285  1.00  0.00    -0.046 A 
ATOM     20  C   UNL A   1      27.400  29.805  22.884  1.00  0.00     0.004 A 
ATOM     21  C   UNL A   1      29.655  29.854  22.012  1.00  0.00     0.029 A 
ATOM     22  C   UNL A   1      27.606  28.509  23.331  1.00  0.00     0.002 A 
ATOM     23  C   UNL A   1      28.843  27.900  23.138  1.00  0.00     0.026 A 
BRANCH  19  24
ATOM     24  C   UNL A   1      28.287  31.986  22.001  1.00  0.00     0.032 C 
ATOM     25  C   UNL A   1      28.078  32.233  20.510  1.00  0.00     0.009 C 
ENDBRANCH  19  24
ENDBRANCH  15  18
ENDBRANCH   9  14
ENDBRANCH   7   8
ENDBRANCH   4   7
ENDBRANCH   2   3
ENDBRANCH   1   2
BRANCH   1  26
ATOM     26  C   UNL A   1      34.919  32.922  28.952  1.00  0.00     0.002 C 
BRANCH  26  27
ATOM     27  C   UNL A   1      35.281  34.395  28.750  1.00  0.00     0.002 C 
BRANCH  27  28
ATOM     28  C   UNL A   1      34.118  35.388  28.858  1.00  0.00     0.021 C 
BRANCH  28  29
ATOM     29  C   UNL A   1      32.863  34.859  29.548  1.00  0.00     0.116 C 
BRANCH  29  30
ATOM     30  N   UNL A   1      32.444  35.707  30.653  1.00  0.00    -0.352 N 
ATOM     31  C   UNL A   1      32.879  35.746  31.954  1.00  0.00     0.251 C 
ATOM     32  H   UNL A   1      31.736  36.355  30.434  1.00  0.00     0.163 HD
ATOM     33  O   UNL A   1      32.257  36.392  32.792  1.00  0.00    -0.269 OA
BRANCH  31  34
ATOM     34  C   UNL A   1      34.090  35.002  32.363  1.00  0.00     0.039 A 
ATOM     35  C   UNL A   1      33.944  33.712  32.880  1.00  0.00     0.014 A 
ATOM     36  C   UNL A   1      35.357  35.586  32.284  1.00  0.00     0.014 A 
ATOM     37  C   UNL A   1      35.073  32.984  33.264  1.00  0.00     0.010 A 
ATOM     38  C   UNL A   1      36.488  34.838  32.609  1.00  0.00     0.010 A 
ATOM     39  C   UNL A   1      36.357  33.532  33.105  1.00  0.00    -0.014 A 
BRANCH  39  40
ATOM     40  C   UNL A   1      37.573  32.755  33.455  1.00  0.00     0.031 A 
ATOM     41  C   UNL A   1      38.309  33.037  34.734  1.00  0.00     0.074 A 
ATOM     42  C   UNL A   1      38.051  31.840  32.589  1.00  0.00     0.049 A 
ATOM     43  N   UNL A   1      39.425  32.517  35.181  1.00  0.00    -0.248 NA
ATOM     44  C   UNL A   1      37.725  34.056  35.619  1.00  0.00     0.031 C 
ATOM     45  C   UNL A   1      37.449  31.502  31.300  1.00  0.00     0.029 A 
ATOM     46  N   UNL A   1      39.161  31.035  32.661  1.00  0.00    -0.354 N 
ATOM     47  C   UNL A   1      39.687  33.159  36.384  1.00  0.00     0.074 A 
ATOM     48  C   UNL A   1      38.636  34.136  36.579  1.00  0.00     0.031 C 
ATOM     49  C   UNL A   1      38.183  30.545  30.710  1.00  0.00     0.029 A 
ATOM     50  C   UNL A   1      39.325  30.228  31.562  1.00  0.00     0.049 A 
ATOM     51  H   UNL A   1      39.779  31.037  33.427  1.00  0.00     0.167 HD
ATOM     52  C   UNL A   1      40.701  32.940  37.255  1.00  0.00     0.037 A 
ATOM     53  C   UNL A   1      40.293  29.337  31.274  1.00  0.00     0.037 A 
ATOM     54  C   UNL A   1      41.726  31.947  37.075  1.00  0.00     0.049 A 
ATOM     55  C   UNL A   1      41.410  29.119  32.256  1.00  0.00     0.074 A 
ATOM     56  C   UNL A   1      42.753  31.599  37.935  1.00  0.00     0.029 A 
ATOM     57  N   UNL A   1      41.855  31.142  35.953  1.00  0.00    -0.354 N 
ATOM     58  N   UNL A   1      41.610  29.682  33.421  1.00  0.00    -0.248 NA
ATOM     59  C   UNL A   1      42.437  28.135  31.881  1.00  0.00     0.031 C 
ATOM     60  C   UNL A   1      43.528  30.613  37.316  1.00  0.00     0.029 A 
ATOM     61  C   UNL A   1      42.959  30.315  36.089  1.00  0.00     0.049 A 
ATOM     62  H   UNL A   1      41.251  31.156  35.175  1.00  0.00     0.167 HD
ATOM     63  C   UNL A   1      42.764  29.104  33.932  1.00  0.00     0.074 A 
ATOM     64  C   UNL A   1      43.217  28.138  32.953  1.00  0.00     0.031 C 
ATOM     65  C   UNL A   1      43.390  29.352  35.108  1.00  0.00     0.037 A 
BRANCH  52  66
ATOM     66  C   UNL A   1      40.750  33.797  38.487  1.00  0.00     0.064 A 
ATOM     67  C   UNL A   1      40.037  33.461  39.648  1.00  0.00     0.173 A 
ATOM     68  C   UNL A   1      41.544  34.954  38.517  1.00  0.00     0.173 A 
ATOM     69  F   UNL A   1      39.255  32.371  39.667  1.00  0.00    -0.203 F 
ATOM     70  C   UNL A   1      40.091  34.268  40.781  1.00  0.00     0.198 A 
ATOM     71  C   UNL A   1      41.618  35.743  39.662  1.00  0.00     0.198 A 
ATOM     72  F   UNL A   1      42.252  35.316  37.436  1.00  0.00    -0.203 F 
ATOM     73  F   UNL A   1      39.362  33.954  41.861  1.00  0.00    -0.200 F 
ATOM     74  C   UNL A   1      40.886  35.404  40.790  1.00  0.00     0.200 A 
ATOM     75  F   UNL A   1      42.396  36.835  39.672  1.00  0.00    -0.200 F 
ATOM     76  F   UNL A   1      40.940  36.178  41.882  1.00  0.00    -0.200 F 
ENDBRANCH  52  66
BRANCH  53  77
ATOM     77  C   UNL A   1      40.228  28.558  30.011  1.00  0.00     0.064 A 
ATOM     78  C   UNL A   1      40.827  29.044  28.840  1.00  0.00     0.173 A 
ATOM     79  C   UNL A   1      39.569  27.323  29.944  1.00  0.00     0.173 A 
ATOM     80  F   UNL A   1      41.449  30.233  28.851  1.00  0.00    -0.203 F 
ATOM     81  C   UNL A   1      40.759  28.329  27.647  1.00  0.00     0.198 A 
ATOM     82  C   UNL A   1      39.523  26.596  28.755  1.00  0.00     0.198 A 
ATOM     83  F   UNL A   1      38.981  26.815  31.037  1.00  0.00    -0.203 F 
ATOM     84  F   UNL A   1      41.308  28.834  26.534  1.00  0.00    -0.200 F 
ATOM     85  C   UNL A   1      40.112  27.103  27.607  1.00  0.00     0.200 A 
ATOM     86  F   UNL A   1      38.906  25.407  28.723  1.00  0.00    -0.200 F 
ATOM     87  F   UNL A   1      40.050  26.414  26.460  1.00  0.00    -0.200 F 
ENDBRANCH  53  77
BRANCH  65  88
ATOM     88  C   UNL A   1      44.614  28.540  35.417  1.00  0.00     0.064 A 
ATOM     89  C   UNL A   1      45.897  28.980  35.064  1.00  0.00     0.173 A 
ATOM     90  C   UNL A   1      44.501  27.323  36.108  1.00  0.00     0.173 A 
ATOM     91  F   UNL A   1      46.054  30.128  34.388  1.00  0.00    -0.203 F 
ATOM     92  C   UNL A   1      47.022  28.221  35.372  1.00  0.00     0.198 A 
ATOM     93  C   UNL A   1      45.631  26.580  36.439  1.00  0.00     0.198 A 
ATOM     94  F   UNL A   1      43.296  26.861  36.473  1.00  0.00    -0.203 F 
ATOM     95  F   UNL A   1      48.236  28.639  34.987  1.00  0.00    -0.200 F 
ATOM     96  C   UNL A   1      46.890  27.026  36.065  1.00  0.00     0.200 A 
ATOM     97  F   UNL A   1      45.501  25.431  37.117  1.00  0.00    -0.200 F 
ATOM     98  F   UNL A   1      47.975  26.300  36.367  1.00  0.00    -0.200 F 
ENDBRANCH  65  88
ENDBRANCH  39  40
ENDBRANCH  31  34
ENDBRANCH  29  30
ENDBRANCH  28  29
ENDBRANCH  27  28
ENDBRANCH  26  27
ENDBRANCH   1  26
TORSDOF 17
ENDMDL
MODEL 3
REMARK VINA RESULT:     -11.5      1.683      3.765
REMARK SMILES CCc1cccc(NC(=O)N2CCO[C@@H](CC(=O)NCCCCCCNC(=O)c3ccc(-c4c5nc(c(-c6c(F)c(F)c(F)c(F)c6F)c6ccc([nH]6)c(-c6c(F)c(F)c(F)c(F)c6F)c6nc(c(-c7c(F)c(F)c(F)c(F)c7F)c7ccc4[nH]7)C=C6)C=C5)cc3)C2)c1
REMARK SMILES IDX 21 1 20 2 19 3 17 4 18 5 16 7 15 8 11 9 12 10 92 11 13 12
REMARK SMILES IDX 14 13 9 14 8 15 10 17 7 18 3 19 4 20 93 21 5 22 6 23 2 24
REMARK SMILES IDX 1 25 22 26 23 27 24 28 25 29 26 30 27 31 28 33 29 34 30 35
REMARK SMILES IDX 91 36 31 37 90 38 32 39 33 40 34 41 84 42 35 43 89 44 83 45
REMARK SMILES IDX 85 46 36 47 88 48 82 49 81 50 37 52 69 53 49 54 68 55 50 56
REMARK SMILES IDX 53 57 67 58 86 59 51 60 52 61 66 63 87 64 54 65 38 66 39 67
REMARK SMILES IDX 47 68 40 69 41 70 45 71 48 72 42 73 43 74 46 75 44 76 70 77
REMARK SMILES IDX 71 78 79 79 72 80 73 81 77 82 80 83 74 84 75 85 78 86 76 87
REMARK SMILES IDX 55 88 56 89 64 90 57 91 58 92 62 93 65 94 59 95 60 96 63 97
REMARK SMILES IDX 61 98
REMARK H PARENT 19 6 8 16 26 32 85 51 53 62
REMARK Flexibility Score: inf
ROOT
ATOM      1  C   UNL A   1      39.659  23.063  26.906  1.00  0.00     0.021 C 
ENDROOT
BRANCH   1   2
ATOM      2  C   UNL A   1      38.315  23.201  26.179  1.00  0.00     0.116 C 
BRANCH   2   3
ATOM      3  N   UNL A   1      37.728  21.892  25.931  1.00  0.00    -0.356 N 
ATOM      4  C   UNL A   1      36.844  21.477  24.978  1.00  0.00     0.222 C 
ATOM      5  O   UNL A   1      36.373  20.342  25.070  1.00  0.00    -0.275 OA
ATOM      6  H   UNL A   1      38.017  21.188  26.555  1.00  0.00     0.163 HD
BRANCH   4   7
ATOM      7  C   UNL A   1      36.433  22.396  23.848  1.00  0.00     0.133 C 
BRANCH   7   8
ATOM      8  C   UNL A   1      35.059  23.030  24.068  1.00  0.00     0.147 C 
ATOM      9  N   UNL A   1      33.331  24.461  23.020  1.00  0.00    -0.320 N 
ATOM     10  C   UNL A   1      32.328  23.422  23.249  1.00  0.00     0.150 C 
ATOM     11  C   UNL A   1      34.681  23.955  22.909  1.00  0.00     0.154 C 
ATOM     12  C   UNL A   1      32.760  22.480  24.383  1.00  0.00     0.182 C 
ATOM     13  O   UNL A   1      34.087  21.963  24.169  1.00  0.00    -0.374 OA
BRANCH   9  14
ATOM     14  C   UNL A   1      33.034  25.582  22.293  1.00  0.00     0.322 C 
ATOM     15  N   UNL A   1      32.524  26.672  22.926  1.00  0.00    -0.308 N 
ATOM     16  H   UNL A   1      32.181  27.361  22.311  1.00  0.00     0.171 HD
ATOM     17  O   UNL A   1      33.278  25.657  21.087  1.00  0.00    -0.248 OA
BRANCH  15  18
ATOM     18  C   UNL A   1      32.388  27.012  24.286  1.00  0.00     0.043 A 
ATOM     19  C   UNL A   1      33.369  28.129  26.219  1.00  0.00    -0.046 A 
ATOM     20  C   UNL A   1      32.197  27.887  26.944  1.00  0.00     0.004 A 
ATOM     21  C   UNL A   1      33.440  27.722  24.876  1.00  0.00     0.029 A 
ATOM     22  C   UNL A   1      31.178  27.129  26.387  1.00  0.00     0.002 A 
ATOM     23  C   UNL A   1      31.306  26.652  25.085  1.00  0.00     0.026 A 
BRANCH  19  24
ATOM     24  C   UNL A   1      34.555  28.760  26.901  1.00  0.00     0.032 C 
ATOM     25  C   UNL A   1      34.239  30.190  27.327  1.00  0.00     0.009 C 
ENDBRANCH  19  24
ENDBRANCH  15  18
ENDBRANCH   9  14
ENDBRANCH   7   8
ENDBRANCH   4   7
ENDBRANCH   2   3
ENDBRANCH   1   2
BRANCH   1  26
ATOM     26  C   UNL A   1      40.683  22.186  26.188  1.00  0.00     0.002 C 
BRANCH  26  27
ATOM     27  C   UNL A   1      41.130  20.949  26.968  1.00  0.00     0.002 C 
BRANCH  27  28
ATOM     28  C   UNL A   1      41.440  19.705  26.128  1.00  0.00     0.021 C 
BRANCH  28  29
ATOM     29  C   UNL A   1      42.720  18.959  26.503  1.00  0.00     0.116 C 
BRANCH  29  30
ATOM     30  N   UNL A   1      43.536  18.649  25.339  1.00  0.00    -0.352 N 
ATOM     31  C   UNL A   1      44.282  19.473  24.535  1.00  0.00     0.251 C 
ATOM     32  H   UNL A   1      43.556  17.697  25.088  1.00  0.00     0.163 HD
ATOM     33  O   UNL A   1      44.736  19.054  23.476  1.00  0.00    -0.269 OA
BRANCH  31  34
ATOM     34  C   UNL A   1      44.535  20.877  24.929  1.00  0.00     0.039 A 
ATOM     35  C   UNL A   1      44.151  21.899  24.057  1.00  0.00     0.014 A 
ATOM     36  C   UNL A   1      45.189  21.185  26.124  1.00  0.00     0.014 A 
ATOM     37  C   UNL A   1      44.369  23.234  24.409  1.00  0.00     0.010 A 
ATOM     38  C   UNL A   1      45.351  22.516  26.505  1.00  0.00     0.010 A 
ATOM     39  C   UNL A   1      44.946  23.553  25.650  1.00  0.00    -0.014 A 
BRANCH  39  40
ATOM     40  C   UNL A   1      45.137  24.965  26.068  1.00  0.00     0.031 A 
ATOM     41  C   UNL A   1      46.491  25.608  25.968  1.00  0.00     0.074 A 
ATOM     42  C   UNL A   1      44.104  25.648  26.598  1.00  0.00     0.049 A 
ATOM     43  N   UNL A   1      46.872  26.802  26.347  1.00  0.00    -0.248 NA
ATOM     44  C   UNL A   1      47.567  24.790  25.386  1.00  0.00     0.031 C 
ATOM     45  C   UNL A   1      42.751  25.124  26.782  1.00  0.00     0.029 A 
ATOM     46  N   UNL A   1      44.036  26.928  27.089  1.00  0.00    -0.354 N 
ATOM     47  C   UNL A   1      48.232  26.871  26.070  1.00  0.00     0.074 A 
ATOM     48  C   UNL A   1      48.618  25.585  25.529  1.00  0.00     0.031 C 
ATOM     49  C   UNL A   1      41.980  26.079  27.326  1.00  0.00     0.029 A 
ATOM     50  C   UNL A   1      42.793  27.269  27.561  1.00  0.00     0.049 A 
ATOM     51  H   UNL A   1      44.805  27.542  27.101  1.00  0.00     0.167 HD
ATOM     52  C   UNL A   1      49.076  27.918  26.234  1.00  0.00     0.037 A 
ATOM     53  C   UNL A   1      42.359  28.413  28.126  1.00  0.00     0.037 A 
ATOM     54  C   UNL A   1      48.683  29.205  26.743  1.00  0.00     0.049 A 
ATOM     55  C   UNL A   1      43.319  29.557  28.302  1.00  0.00     0.074 A 
ATOM     56  C   UNL A   1      49.447  30.351  26.878  1.00  0.00     0.029 A 
ATOM     57  N   UNL A   1      47.411  29.516  27.203  1.00  0.00    -0.354 N 
ATOM     58  N   UNL A   1      44.584  29.634  27.973  1.00  0.00    -0.248 NA
ATOM     59  C   UNL A   1      42.786  30.776  28.928  1.00  0.00     0.031 C 
ATOM     60  C   UNL A   1      48.650  31.343  27.458  1.00  0.00     0.029 A 
ATOM     61  C   UNL A   1      47.377  30.829  27.645  1.00  0.00     0.049 A 
ATOM     62  H   UNL A   1      46.647  28.896  27.215  1.00  0.00     0.167 HD
ATOM     63  C   UNL A   1      44.992  30.915  28.322  1.00  0.00     0.074 A 
ATOM     64  C   UNL A   1      43.836  31.584  28.882  1.00  0.00     0.031 C 
ATOM     65  C   UNL A   1      46.215  31.483  28.190  1.00  0.00     0.037 A 
BRANCH  52  66
ATOM     66  C   UNL A   1      50.514  27.711  25.861  1.00  0.00     0.064 A 
ATOM     67  C   UNL A   1      51.482  27.367  26.818  1.00  0.00     0.173 A 
ATOM     68  C   UNL A   1      50.927  27.829  24.525  1.00  0.00     0.173 A 
ATOM     69  F   UNL A   1      51.141  27.252  28.110  1.00  0.00    -0.203 F 
ATOM     70  C   UNL A   1      52.813  27.181  26.456  1.00  0.00     0.198 A 
ATOM     71  C   UNL A   1      52.254  27.614  24.162  1.00  0.00     0.198 A 
ATOM     72  F   UNL A   1      50.040  28.148  23.569  1.00  0.00    -0.203 F 
ATOM     73  F   UNL A   1      53.729  26.903  27.394  1.00  0.00    -0.200 F 
ATOM     74  C   UNL A   1      53.197  27.299  25.129  1.00  0.00     0.200 A 
ATOM     75  F   UNL A   1      52.621  27.717  22.877  1.00  0.00    -0.200 F 
ATOM     76  F   UNL A   1      54.479  27.116  24.781  1.00  0.00    -0.200 F 
ENDBRANCH  52  66
BRANCH  53  77
ATOM     77  C   UNL A   1      40.937  28.543  28.534  1.00  0.00     0.064 A 
ATOM     78  C   UNL A   1      39.971  28.992  27.622  1.00  0.00     0.173 A 
ATOM     79  C   UNL A   1      40.515  28.228  29.832  1.00  0.00     0.173 A 
ATOM     80  F   UNL A   1      40.333  29.328  26.375  1.00  0.00    -0.203 F 
ATOM     81  C   UNL A   1      38.637  29.134  27.998  1.00  0.00     0.198 A 
ATOM     82  C   UNL A   1      39.176  28.345  30.200  1.00  0.00     0.198 A 
ATOM     83  F   UNL A   1      41.400  27.793  30.740  1.00  0.00    -0.203 F 
ATOM     84  F   UNL A   1      37.742  29.601  27.119  1.00  0.00    -0.200 F 
ATOM     85  C   UNL A   1      38.240  28.804  29.286  1.00  0.00     0.200 A 
ATOM     86  F   UNL A   1      38.793  28.016  31.442  1.00  0.00    -0.200 F 
ATOM     87  F   UNL A   1      36.957  28.937  29.646  1.00  0.00    -0.200 F 
ENDBRANCH  53  77
BRANCH  65  88
ATOM     88  C   UNL A   1      46.357  32.912  28.625  1.00  0.00     0.064 A 
ATOM     89  C   UNL A   1      46.137  33.976  27.738  1.00  0.00     0.173 A 
ATOM     90  C   UNL A   1      46.681  33.220  29.955  1.00  0.00     0.173 A 
ATOM     91  F   UNL A   1      45.842  33.732  26.452  1.00  0.00    -0.203 F 
ATOM     92  C   UNL A   1      46.258  35.296  28.162  1.00  0.00     0.198 A 
ATOM     93  C   UNL A   1      46.774  34.541  30.383  1.00  0.00     0.198 A 
ATOM     94  F   UNL A   1      46.895  32.238  30.844  1.00  0.00    -0.203 F 
ATOM     95  F   UNL A   1      46.087  36.298  27.288  1.00  0.00    -0.200 F 
ATOM     96  C   UNL A   1      46.569  35.578  29.485  1.00  0.00     0.200 A 
ATOM     97  F   UNL A   1      47.064  34.812  31.663  1.00  0.00    -0.200 F 
ATOM     98  F   UNL A   1      46.679  36.850  29.893  1.00  0.00    -0.200 F 
ENDBRANCH  65  88
ENDBRANCH  39  40
ENDBRANCH  31  34
ENDBRANCH  29  30
ENDBRANCH  28  29
ENDBRANCH  27  28
ENDBRANCH  26  27
ENDBRANCH   1  26
TORSDOF 17
ENDMDL
