MODEL 1
REMARK VINA RESULT:     -12.6      0.000      0.000
REMARK SMILES COc1ccc([C@H]2CC(c3ccc(S(C)(=O)=O)cc3)=NN2c2ccc(C(=O)NCCCCCCNC(=O)c3ccc(-c4c5nc(c(-c6c(F)c(F)c(F)c(F)c6F)c6ccc([nH]6)c(-c6c(F)c(F)c(F)c(F)c6F)c6nc(c(-c7c(F)c(F)c(F)c(F)c7F)c7ccc4[nH]7)C=C6)C=C5)cc3)cc2)cc1
REMARK SMILES IDX 31 1 30 2 29 3 28 4 26 5 27 6 25 8 22 9 23 10 102 11 24 12
REMARK SMILES IDX 101 13 21 14 7 15 8 16 9 17 20 18 6 19 3 20 4 21 104 22 5 23
REMARK SMILES IDX 103 24 2 25 1 26 10 27 11 28 19 29 12 30 18 31 13 32 14 33
REMARK SMILES IDX 15 34 16 35 17 36 32 37 33 38 34 39 35 40 36 41 37 43 38 44
REMARK SMILES IDX 39 45 100 46 40 47 99 48 41 49 42 50 43 51 93 52 44 53 98 54
REMARK SMILES IDX 92 55 94 56 45 57 97 58 91 59 90 60 46 62 78 63 58 64 77 65
REMARK SMILES IDX 59 66 62 67 76 68 95 69 60 70 61 71 75 73 96 74 63 75 47 76
REMARK SMILES IDX 48 77 56 78 49 79 50 80 54 81 57 82 51 83 52 84 55 85 53 86
REMARK SMILES IDX 79 87 80 88 88 89 81 90 82 91 86 92 89 93 83 94 84 95 87 96
REMARK SMILES IDX 85 97 64 98 65 99 73 100 66 101 67 102 71 103 74 104 68 105
REMARK SMILES IDX 69 106 72 107 70 108
REMARK H PARENT 28 7 35 42 94 61 62 72
REMARK Flexibility Score: inf
ROOT
ATOM      1  C   UNL A   1      42.215  25.384  27.053  1.00  0.00     0.002 C 
ENDROOT
BRANCH   1   2
ATOM      2  C   UNL A   1      41.093  25.864  26.122  1.00  0.00     0.021 C 
BRANCH   2   3
ATOM      3  C   UNL A   1      39.710  25.346  26.528  1.00  0.00     0.116 C 
BRANCH   3   4
ATOM      4  N   UNL A   1      39.725  23.899  26.584  1.00  0.00    -0.352 N 
ATOM      5  C   UNL A   1      38.825  22.941  26.199  1.00  0.00     0.251 C 
ATOM      6  O   UNL A   1      39.127  21.767  26.419  1.00  0.00    -0.269 OA
ATOM      7  H   UNL A   1      40.548  23.529  26.980  1.00  0.00     0.163 HD
BRANCH   5   8
ATOM      8  C   UNL A   1      37.551  23.241  25.486  1.00  0.00     0.039 A 
ATOM      9  C   UNL A   1      35.020  23.809  24.348  1.00  0.00     0.060 A 
ATOM     10  C   UNL A   1      35.310  24.167  25.668  1.00  0.00     0.029 A 
ATOM     11  C   UNL A   1      36.034  23.221  23.588  1.00  0.00     0.029 A 
ATOM     12  C   UNL A   1      36.549  23.868  26.238  1.00  0.00     0.016 A 
ATOM     13  C   UNL A   1      37.301  22.978  24.138  1.00  0.00     0.016 A 
BRANCH   9  14
ATOM     14  N   UNL A   1      33.764  24.068  23.829  1.00  0.00    -0.257 N 
ATOM     15  C   UNL A   1      33.110  23.276  22.789  1.00  0.00     0.144 C 
ATOM     16  C   UNL A   1      31.864  24.112  22.463  1.00  0.00     0.091 C 
ATOM     17  C   UNL A   1      32.123  25.312  23.326  1.00  0.00     0.071 C 
ATOM     18  N   UNL A   1      33.179  25.268  24.073  1.00  0.00    -0.176 NA
BRANCH  15  19
ATOM     19  C   UNL A   1      32.757  21.880  23.277  1.00  0.00    -0.023 A 
ATOM     20  C   UNL A   1      32.147  19.287  24.196  1.00  0.00     0.118 A 
ATOM     21  C   UNL A   1      32.504  20.288  25.098  1.00  0.00     0.047 A 
ATOM     22  C   UNL A   1      32.052  19.585  22.838  1.00  0.00     0.047 A 
ATOM     23  C   UNL A   1      32.817  21.574  24.644  1.00  0.00     0.010 A 
ATOM     24  C   UNL A   1      32.355  20.872  22.384  1.00  0.00     0.010 A 
BRANCH  20  25
ATOM     25  O   UNL A   1      31.856  18.067  24.742  1.00  0.00    -0.497 OA
ATOM     26  C   UNL A   1      32.779  17.632  25.737  1.00  0.00     0.278 C 
ENDBRANCH  20  25
ENDBRANCH  15  19
BRANCH  17  27
ATOM     27  C   UNL A   1      31.240  26.478  23.281  1.00  0.00    -0.002 A 
ATOM     28  C   UNL A   1      29.873  26.290  23.506  1.00  0.00     0.011 A 
ATOM     29  C   UNL A   1      31.759  27.740  22.990  1.00  0.00     0.011 A 
ATOM     30  C   UNL A   1      29.012  27.385  23.456  1.00  0.00     0.021 A 
ATOM     31  C   UNL A   1      30.895  28.834  22.914  1.00  0.00     0.021 A 
ATOM     32  C   UNL A   1      29.526  28.648  23.144  1.00  0.00     0.067 A 
BRANCH  32  33
ATOM     33  S   UNL A   1      28.416  30.035  23.064  1.00  0.00     0.175 S 
ATOM     34  C   UNL A   1      28.440  30.511  21.354  1.00  0.00     0.163 C 
ATOM     35  O   UNL A   1      27.095  29.530  23.382  1.00  0.00    -0.224 OA
ATOM     36  O   UNL A   1      29.009  31.116  23.829  1.00  0.00    -0.224 OA
ENDBRANCH  32  33
ENDBRANCH  17  27
ENDBRANCH   9  14
ENDBRANCH   5   8
ENDBRANCH   3   4
ENDBRANCH   2   3
ENDBRANCH   1   2
BRANCH   1  37
ATOM     37  C   UNL A   1      43.155  24.335  26.445  1.00  0.00     0.002 C 
BRANCH  37  38
ATOM     38  C   UNL A   1      43.971  24.816  25.242  1.00  0.00     0.021 C 
BRANCH  38  39
ATOM     39  C   UNL A   1      45.476  24.891  25.490  1.00  0.00     0.116 C 
BRANCH  39  40
ATOM     40  N   UNL A   1      46.066  26.071  24.878  1.00  0.00    -0.352 N 
ATOM     41  C   UNL A   1      45.824  27.397  25.141  1.00  0.00     0.251 C 
ATOM     42  H   UNL A   1      46.734  25.895  24.177  1.00  0.00     0.163 HD
ATOM     43  O   UNL A   1      46.251  28.268  24.391  1.00  0.00    -0.269 OA
BRANCH  41  44
ATOM     44  C   UNL A   1      45.029  27.775  26.328  1.00  0.00     0.039 A 
ATOM     45  C   UNL A   1      45.394  27.268  27.578  1.00  0.00     0.014 A 
ATOM     46  C   UNL A   1      43.921  28.618  26.204  1.00  0.00     0.014 A 
ATOM     47  C   UNL A   1      44.684  27.656  28.715  1.00  0.00     0.010 A 
ATOM     48  C   UNL A   1      43.248  29.048  27.346  1.00  0.00     0.010 A 
ATOM     49  C   UNL A   1      43.627  28.574  28.611  1.00  0.00    -0.014 A 
BRANCH  49  50
ATOM     50  C   UNL A   1      42.903  29.056  29.814  1.00  0.00     0.031 A 
ATOM     51  C   UNL A   1      41.482  29.530  29.699  1.00  0.00     0.074 A 
ATOM     52  C   UNL A   1      43.550  29.132  30.994  1.00  0.00     0.049 A 
ATOM     53  N   UNL A   1      40.720  30.090  30.604  1.00  0.00    -0.248 NA
ATOM     54  C   UNL A   1      40.839  29.374  28.384  1.00  0.00     0.031 C 
ATOM     55  C   UNL A   1      44.940  28.735  31.223  1.00  0.00     0.029 A 
ATOM     56  N   UNL A   1      43.128  29.587  32.218  1.00  0.00    -0.354 N 
ATOM     57  C   UNL A   1      39.514  30.356  29.969  1.00  0.00     0.074 A 
ATOM     58  C   UNL A   1      39.660  29.942  28.591  1.00  0.00     0.031 C 
ATOM     59  C   UNL A   1      45.254  28.959  32.509  1.00  0.00     0.029 A 
ATOM     60  C   UNL A   1      44.103  29.549  33.185  1.00  0.00     0.049 A 
ATOM     61  H   UNL A   1      42.213  29.911  32.387  1.00  0.00     0.167 HD
ATOM     62  C   UNL A   1      38.380  30.876  30.497  1.00  0.00     0.037 A 
ATOM     63  C   UNL A   1      44.074  29.959  34.467  1.00  0.00     0.037 A 
ATOM     64  C   UNL A   1      38.231  31.271  31.873  1.00  0.00     0.049 A 
ATOM     65  C   UNL A   1      42.807  30.552  35.021  1.00  0.00     0.074 A 
ATOM     66  C   UNL A   1      37.114  31.782  32.509  1.00  0.00     0.029 A 
ATOM     67  N   UNL A   1      39.234  31.192  32.828  1.00  0.00    -0.354 N 
ATOM     68  N   UNL A   1      41.660  30.760  34.422  1.00  0.00    -0.248 NA
ATOM     69  C   UNL A   1      42.829  30.965  36.431  1.00  0.00     0.031 C 
ATOM     70  C   UNL A   1      37.447  32.041  33.842  1.00  0.00     0.029 A 
ATOM     71  C   UNL A   1      38.763  31.656  34.046  1.00  0.00     0.049 A 
ATOM     72  H   UNL A   1      40.144  30.856  32.665  1.00  0.00     0.167 HD
ATOM     73  C   UNL A   1      40.820  31.304  35.383  1.00  0.00     0.074 A 
ATOM     74  C   UNL A   1      41.582  31.378  36.612  1.00  0.00     0.031 C 
ATOM     75  C   UNL A   1      39.534  31.710  35.259  1.00  0.00     0.037 A 
BRANCH  62  76
ATOM     76  C   UNL A   1      37.199  31.033  29.587  1.00  0.00     0.064 A 
ATOM     77  C   UNL A   1      36.921  32.255  28.958  1.00  0.00     0.173 A 
ATOM     78  C   UNL A   1      36.372  29.939  29.292  1.00  0.00     0.173 A 
ATOM     79  F   UNL A   1      37.678  33.333  29.216  1.00  0.00    -0.203 F 
ATOM     80  C   UNL A   1      35.849  32.383  28.081  1.00  0.00     0.198 A 
ATOM     81  C   UNL A   1      35.313  30.063  28.395  1.00  0.00     0.198 A 
ATOM     82  F   UNL A   1      36.597  28.746  29.863  1.00  0.00    -0.203 F 
ATOM     83  F   UNL A   1      35.582  33.569  27.519  1.00  0.00    -0.200 F 
ATOM     84  C   UNL A   1      35.051  31.286  27.794  1.00  0.00     0.200 A 
ATOM     85  F   UNL A   1      34.551  28.999  28.109  1.00  0.00    -0.200 F 
ATOM     86  F   UNL A   1      34.025  31.406  26.940  1.00  0.00    -0.200 F 
ENDBRANCH  62  76
BRANCH  63  87
ATOM     87  C   UNL A   1      45.284  29.827  35.321  1.00  0.00     0.064 A 
ATOM     88  C   UNL A   1      45.491  28.684  36.104  1.00  0.00     0.173 A 
ATOM     89  C   UNL A   1      46.240  30.850  35.392  1.00  0.00     0.173 A 
ATOM     90  F   UNL A   1      44.593  27.688  36.086  1.00  0.00    -0.203 F 
ATOM     91  C   UNL A   1      46.595  28.579  36.947  1.00  0.00     0.198 A 
ATOM     92  C   UNL A   1      47.358  30.733  36.214  1.00  0.00     0.198 A 
ATOM     93  F   UNL A   1      46.090  31.964  34.659  1.00  0.00    -0.203 F 
ATOM     94  F   UNL A   1      46.741  27.499  37.726  1.00  0.00    -0.200 F 
ATOM     95  C   UNL A   1      47.530  29.602  36.999  1.00  0.00     0.200 A 
ATOM     96  F   UNL A   1      48.265  31.718  36.252  1.00  0.00    -0.200 F 
ATOM     97  F   UNL A   1      48.590  29.504  37.813  1.00  0.00    -0.200 F 
ENDBRANCH  63  87
BRANCH  75  98
ATOM     98  C   UNL A   1      38.862  32.243  36.489  1.00  0.00     0.064 A 
ATOM     99  C   UNL A   1      38.024  31.437  37.273  1.00  0.00     0.173 A 
ATOM    100  C   UNL A   1      39.093  33.561  36.911  1.00  0.00     0.173 A 
ATOM    101  F   UNL A   1      37.760  30.175  36.900  1.00  0.00    -0.203 F 
ATOM    102  C   UNL A   1      37.425  31.938  38.426  1.00  0.00     0.198 A 
ATOM    103  C   UNL A   1      38.514  34.050  38.077  1.00  0.00     0.198 A 
ATOM    104  F   UNL A   1      39.892  34.369  36.197  1.00  0.00    -0.203 F 
ATOM    105  F   UNL A   1      36.596  31.163  39.138  1.00  0.00    -0.200 F 
ATOM    106  C   UNL A   1      37.676  33.241  38.831  1.00  0.00     0.200 A 
ATOM    107  F   UNL A   1      38.765  35.306  38.473  1.00  0.00    -0.200 F 
ATOM    108  F   UNL A   1      37.105  33.719  39.944  1.00  0.00    -0.200 F 
ENDBRANCH  75  98
ENDBRANCH  49  50
ENDBRANCH  41  44
ENDBRANCH  39  40
ENDBRANCH  38  39
ENDBRANCH  37  38
ENDBRANCH   1  37
TORSDOF 18
ENDMDL
MODEL 2
REMARK VINA RESULT:     -12.5      6.097     10.597
REMARK SMILES COc1ccc([C@H]2CC(c3ccc(S(C)(=O)=O)cc3)=NN2c2ccc(C(=O)NCCCCCCNC(=O)c3ccc(-c4c5nc(c(-c6c(F)c(F)c(F)c(F)c6F)c6ccc([nH]6)c(-c6c(F)c(F)c(F)c(F)c6F)c6nc(c(-c7c(F)c(F)c(F)c(F)c7F)c7ccc4[nH]7)C=C6)C=C5)cc3)cc2)cc1
REMARK SMILES IDX 31 1 30 2 29 3 28 4 26 5 27 6 25 8 22 9 23 10 102 11 24 12
REMARK SMILES IDX 101 13 21 14 7 15 8 16 9 17 20 18 6 19 3 20 4 21 104 22 5 23
REMARK SMILES IDX 103 24 2 25 1 26 10 27 11 28 19 29 12 30 18 31 13 32 14 33
REMARK SMILES IDX 15 34 16 35 17 36 32 37 33 38 34 39 35 40 36 41 37 43 38 44
REMARK SMILES IDX 39 45 100 46 40 47 99 48 41 49 42 50 43 51 93 52 44 53 98 54
REMARK SMILES IDX 92 55 94 56 45 57 97 58 91 59 90 60 46 62 78 63 58 64 77 65
REMARK SMILES IDX 59 66 62 67 76 68 95 69 60 70 61 71 75 73 96 74 63 75 47 76
REMARK SMILES IDX 48 77 56 78 49 79 50 80 54 81 57 82 51 83 52 84 55 85 53 86
REMARK SMILES IDX 79 87 80 88 88 89 81 90 82 91 86 92 89 93 83 94 84 95 87 96
REMARK SMILES IDX 85 97 64 98 65 99 73 100 66 101 67 102 71 103 74 104 68 105
REMARK SMILES IDX 69 106 72 107 70 108
REMARK H PARENT 28 7 35 42 94 61 62 72
REMARK Flexibility Score: inf
ROOT
ATOM      1  C   UNL A   1      39.336  28.821  27.803  1.00  0.00     0.002 C 
ENDROOT
BRANCH   1   2
ATOM      2  C   UNL A   1      38.043  29.617  27.575  1.00  0.00     0.021 C 
BRANCH   2   3
ATOM      3  C   UNL A   1      37.010  29.420  28.688  1.00  0.00     0.116 C 
BRANCH   3   4
ATOM      4  N   UNL A   1      36.030  30.485  28.643  1.00  0.00    -0.352 N 
ATOM      5  C   UNL A   1      34.819  30.614  28.016  1.00  0.00     0.251 C 
ATOM      6  O   UNL A   1      34.228  31.686  28.151  1.00  0.00    -0.269 OA
ATOM      7  H   UNL A   1      36.286  31.278  29.169  1.00  0.00     0.163 HD
BRANCH   5   8
ATOM      8  C   UNL A   1      34.166  29.519  27.245  1.00  0.00     0.039 A 
ATOM      9  C   UNL A   1      32.782  27.398  25.975  1.00  0.00     0.060 A 
ATOM     10  C   UNL A   1      32.177  28.141  26.993  1.00  0.00     0.029 A 
ATOM     11  C   UNL A   1      34.062  27.772  25.559  1.00  0.00     0.029 A 
ATOM     12  C   UNL A   1      32.866  29.172  27.637  1.00  0.00     0.016 A 
ATOM     13  C   UNL A   1      34.732  28.849  26.158  1.00  0.00     0.016 A 
BRANCH   9  14
ATOM     14  N   UNL A   1      32.095  26.347  25.395  1.00  0.00    -0.257 N 
ATOM     15  C   UNL A   1      30.658  26.330  25.134  1.00  0.00     0.144 C 
ATOM     16  C   UNL A   1      30.412  24.883  24.685  1.00  0.00     0.091 C 
ATOM     17  C   UNL A   1      31.783  24.310  24.899  1.00  0.00     0.071 C 
ATOM     18  N   UNL A   1      32.699  25.136  25.291  1.00  0.00    -0.176 NA
BRANCH  15  19
ATOM     19  C   UNL A   1      30.264  27.339  24.066  1.00  0.00    -0.023 A 
ATOM     20  C   UNL A   1      29.552  29.244  22.115  1.00  0.00     0.118 A 
ATOM     21  C   UNL A   1      30.894  28.983  22.389  1.00  0.00     0.047 A 
ATOM     22  C   UNL A   1      28.561  28.528  22.782  1.00  0.00     0.047 A 
ATOM     23  C   UNL A   1      31.250  28.046  23.364  1.00  0.00     0.010 A 
ATOM     24  C   UNL A   1      28.916  27.583  23.751  1.00  0.00     0.010 A 
BRANCH  20  25
ATOM     25  O   UNL A   1      29.311  30.174  21.142  1.00  0.00    -0.497 OA
ATOM     26  C   UNL A   1      28.069  30.860  21.278  1.00  0.00     0.278 C 
ENDBRANCH  20  25
ENDBRANCH  15  19
BRANCH  17  27
ATOM     27  C   UNL A   1      32.041  22.882  24.707  1.00  0.00    -0.002 A 
ATOM     28  C   UNL A   1      32.518  22.138  25.790  1.00  0.00     0.011 A 
ATOM     29  C   UNL A   1      31.840  22.295  23.457  1.00  0.00     0.011 A 
ATOM     30  C   UNL A   1      32.783  20.779  25.626  1.00  0.00     0.021 A 
ATOM     31  C   UNL A   1      32.128  20.940  23.284  1.00  0.00     0.021 A 
ATOM     32  C   UNL A   1      32.602  20.191  24.369  1.00  0.00     0.067 A 
BRANCH  32  33
ATOM     33  S   UNL A   1      32.961  18.462  24.166  1.00  0.00     0.175 S 
ATOM     34  C   UNL A   1      32.503  18.119  22.486  1.00  0.00     0.163 C 
ATOM     35  O   UNL A   1      34.398  18.318  24.290  1.00  0.00    -0.224 OA
ATOM     36  O   UNL A   1      32.057  17.722  25.027  1.00  0.00    -0.224 OA
ENDBRANCH  32  33
ENDBRANCH  17  27
ENDBRANCH   9  14
ENDBRANCH   5   8
ENDBRANCH   3   4
ENDBRANCH   2   3
ENDBRANCH   1   2
BRANCH   1  37
ATOM     37  C   UNL A   1      39.132  27.389  28.316  1.00  0.00     0.002 C 
BRANCH  37  38
ATOM     38  C   UNL A   1      39.818  26.301  27.486  1.00  0.00     0.021 C 
BRANCH  38  39
ATOM     39  C   UNL A   1      40.317  25.108  28.299  1.00  0.00     0.116 C 
BRANCH  39  40
ATOM     40  N   UNL A   1      40.674  23.985  27.447  1.00  0.00    -0.352 N 
ATOM     41  C   UNL A   1      41.737  23.853  26.588  1.00  0.00     0.251 C 
ATOM     42  H   UNL A   1      40.070  23.209  27.493  1.00  0.00     0.163 HD
ATOM     43  O   UNL A   1      41.778  22.925  25.787  1.00  0.00    -0.269 OA
BRANCH  41  44
ATOM     44  C   UNL A   1      42.831  24.846  26.617  1.00  0.00     0.039 A 
ATOM     45  C   UNL A   1      43.080  25.613  25.475  1.00  0.00     0.014 A 
ATOM     46  C   UNL A   1      43.614  25.010  27.763  1.00  0.00     0.014 A 
ATOM     47  C   UNL A   1      44.077  26.590  25.503  1.00  0.00     0.010 A 
ATOM     48  C   UNL A   1      44.570  26.022  27.808  1.00  0.00     0.010 A 
ATOM     49  C   UNL A   1      44.807  26.823  26.680  1.00  0.00    -0.014 A 
BRANCH  49  50
ATOM     50  C   UNL A   1      45.823  27.903  26.756  1.00  0.00     0.031 A 
ATOM     51  C   UNL A   1      45.394  29.325  26.983  1.00  0.00     0.074 A 
ATOM     52  C   UNL A   1      47.122  27.611  26.551  1.00  0.00     0.049 A 
ATOM     53  N   UNL A   1      46.112  30.419  26.968  1.00  0.00    -0.248 NA
ATOM     54  C   UNL A   1      43.962  29.550  27.237  1.00  0.00     0.031 C 
ATOM     55  C   UNL A   1      47.656  26.274  26.287  1.00  0.00     0.029 A 
ATOM     56  N   UNL A   1      48.227  28.424  26.514  1.00  0.00    -0.354 N 
ATOM     57  C   UNL A   1      45.223  31.458  27.206  1.00  0.00     0.074 A 
ATOM     58  C   UNL A   1      43.905  30.871  27.313  1.00  0.00     0.031 C 
ATOM     59  C   UNL A   1      48.986  26.358  26.122  1.00  0.00     0.029 A 
ATOM     60  C   UNL A   1      49.392  27.755  26.229  1.00  0.00     0.049 A 
ATOM     61  H   UNL A   1      48.188  29.394  26.677  1.00  0.00     0.167 HD
ATOM     62  C   UNL A   1      45.487  32.779  27.347  1.00  0.00     0.037 A 
ATOM     63  C   UNL A   1      50.644  28.221  26.057  1.00  0.00     0.037 A 
ATOM     64  C   UNL A   1      46.802  33.358  27.257  1.00  0.00     0.049 A 
ATOM     65  C   UNL A   1      50.905  29.696  26.200  1.00  0.00     0.074 A 
ATOM     66  C   UNL A   1      47.174  34.682  27.412  1.00  0.00     0.029 A 
ATOM     67  N   UNL A   1      47.961  32.644  26.992  1.00  0.00    -0.354 N 
ATOM     68  N   UNL A   1      50.062  30.664  26.466  1.00  0.00    -0.248 NA
ATOM     69  C   UNL A   1      52.293  30.145  26.020  1.00  0.00     0.031 C 
ATOM     70  C   UNL A   1      48.556  34.774  27.213  1.00  0.00     0.029 A 
ATOM     71  C   UNL A   1      49.048  33.502  26.970  1.00  0.00     0.049 A 
ATOM     72  H   UNL A   1      48.004  31.673  26.844  1.00  0.00     0.167 HD
ATOM     73  C   UNL A   1      50.817  31.827  26.509  1.00  0.00     0.074 A 
ATOM     74  C   UNL A   1      52.190  31.445  26.259  1.00  0.00     0.031 C 
ATOM     75  C   UNL A   1      50.409  33.100  26.731  1.00  0.00     0.037 A 
BRANCH  62  76
ATOM     76  C   UNL A   1      44.332  33.691  27.632  1.00  0.00     0.064 A 
ATOM     77  C   UNL A   1      43.776  33.782  28.916  1.00  0.00     0.173 A 
ATOM     78  C   UNL A   1      43.814  34.526  26.630  1.00  0.00     0.173 A 
ATOM     79  F   UNL A   1      44.231  32.997  29.904  1.00  0.00    -0.203 F 
ATOM     80  C   UNL A   1      42.733  34.663  29.184  1.00  0.00     0.198 A 
ATOM     81  C   UNL A   1      42.786  35.424  26.907  1.00  0.00     0.198 A 
ATOM     82  F   UNL A   1      44.314  34.481  25.386  1.00  0.00    -0.203 F 
ATOM     83  F   UNL A   1      42.195  34.708  30.410  1.00  0.00    -0.200 F 
ATOM     84  C   UNL A   1      42.244  35.488  28.183  1.00  0.00     0.200 A 
ATOM     85  F   UNL A   1      42.323  36.229  25.942  1.00  0.00    -0.200 F 
ATOM     86  F   UNL A   1      41.247  36.345  28.445  1.00  0.00    -0.200 F 
ENDBRANCH  62  76
BRANCH  63  87
ATOM     87  C   UNL A   1      51.752  27.285  25.730  1.00  0.00     0.064 A 
ATOM     88  C   UNL A   1      52.055  26.965  24.400  1.00  0.00     0.173 A 
ATOM     89  C   UNL A   1      52.509  26.672  26.737  1.00  0.00     0.173 A 
ATOM     90  F   UNL A   1      51.343  27.509  23.401  1.00  0.00    -0.203 F 
ATOM     91  C   UNL A   1      53.056  26.047  24.090  1.00  0.00     0.198 A 
ATOM     92  C   UNL A   1      53.528  25.776  26.427  1.00  0.00     0.198 A 
ATOM     93  F   UNL A   1      52.260  26.947  28.027  1.00  0.00    -0.203 F 
ATOM     94  F   UNL A   1      53.288  25.719  22.813  1.00  0.00    -0.200 F 
ATOM     95  C   UNL A   1      53.794  25.456  25.104  1.00  0.00     0.200 A 
ATOM     96  F   UNL A   1      54.247  25.216  27.409  1.00  0.00    -0.200 F 
ATOM     97  F   UNL A   1      54.754  24.569  24.807  1.00  0.00    -0.200 F 
ENDBRANCH  63  87
BRANCH  75  98
ATOM     98  C   UNL A   1      51.464  34.165  26.743  1.00  0.00     0.064 A 
ATOM     99  C   UNL A   1      51.792  34.883  25.584  1.00  0.00     0.173 A 
ATOM    100  C   UNL A   1      52.121  34.502  27.936  1.00  0.00     0.173 A 
ATOM    101  F   UNL A   1      51.201  34.585  24.416  1.00  0.00    -0.203 F 
ATOM    102  C   UNL A   1      52.756  35.887  25.614  1.00  0.00     0.198 A 
ATOM    103  C   UNL A   1      53.066  35.522  27.968  1.00  0.00     0.198 A 
ATOM    104  F   UNL A   1      51.837  33.847  29.072  1.00  0.00    -0.203 F 
ATOM    105  F   UNL A   1      53.084  36.532  24.487  1.00  0.00    -0.200 F 
ATOM    106  C   UNL A   1      53.387  36.211  26.807  1.00  0.00     0.200 A 
ATOM    107  F   UNL A   1      53.667  35.842  29.123  1.00  0.00    -0.200 F 
ATOM    108  F   UNL A   1      54.310  37.182  26.836  1.00  0.00    -0.200 F 
ENDBRANCH  75  98
ENDBRANCH  49  50
ENDBRANCH  41  44
ENDBRANCH  39  40
ENDBRANCH  38  39
ENDBRANCH  37  38
ENDBRANCH   1  37
TORSDOF 18
ENDMDL
MODEL 3
REMARK VINA RESULT:     -12.5      5.222      8.964
REMARK SMILES COc1ccc([C@H]2CC(c3ccc(S(C)(=O)=O)cc3)=NN2c2ccc(C(=O)NCCCCCCNC(=O)c3ccc(-c4c5nc(c(-c6c(F)c(F)c(F)c(F)c6F)c6ccc([nH]6)c(-c6c(F)c(F)c(F)c(F)c6F)c6nc(c(-c7c(F)c(F)c(F)c(F)c7F)c7ccc4[nH]7)C=C6)C=C5)cc3)cc2)cc1
REMARK SMILES IDX 31 1 30 2 29 3 28 4 26 5 27 6 25 8 22 9 23 10 102 11 24 12
REMARK SMILES IDX 101 13 21 14 7 15 8 16 9 17 20 18 6 19 3 20 4 21 104 22 5 23
REMARK SMILES IDX 103 24 2 25 1 26 10 27 11 28 19 29 12 30 18 31 13 32 14 33
REMARK SMILES IDX 15 34 16 35 17 36 32 37 33 38 34 39 35 40 36 41 37 43 38 44
REMARK SMILES IDX 39 45 100 46 40 47 99 48 41 49 42 50 43 51 93 52 44 53 98 54
REMARK SMILES IDX 92 55 94 56 45 57 97 58 91 59 90 60 46 62 78 63 58 64 77 65
REMARK SMILES IDX 59 66 62 67 76 68 95 69 60 70 61 71 75 73 96 74 63 75 47 76
REMARK SMILES IDX 48 77 56 78 49 79 50 80 54 81 57 82 51 83 52 84 55 85 53 86
REMARK SMILES IDX 79 87 80 88 88 89 81 90 82 91 86 92 89 93 83 94 84 95 87 96
REMARK SMILES IDX 85 97 64 98 65 99 73 100 66 101 67 102 71 103 74 104 68 105
REMARK SMILES IDX 69 106 72 107 70 108
REMARK H PARENT 28 7 35 42 94 61 62 72
REMARK Flexibility Score: inf
ROOT
ATOM      1  C   UNL A   1      38.991  28.938  28.585  1.00  0.00     0.002 C 
ENDROOT
BRANCH   1   2
ATOM      2  C   UNL A   1      37.618  29.281  27.992  1.00  0.00     0.021 C 
BRANCH   2   3
ATOM      3  C   UNL A   1      36.503  29.328  29.040  1.00  0.00     0.116 C 
BRANCH   3   4
ATOM      4  N   UNL A   1      35.653  30.477  28.802  1.00  0.00    -0.352 N 
ATOM      5  C   UNL A   1      34.559  30.678  28.004  1.00  0.00     0.251 C 
ATOM      6  O   UNL A   1      34.068  31.809  27.999  1.00  0.00    -0.269 OA
ATOM      7  H   UNL A   1      35.915  31.274  29.317  1.00  0.00     0.163 HD
BRANCH   5   8
ATOM      8  C   UNL A   1      33.907  29.603  27.205  1.00  0.00     0.039 A 
ATOM      9  C   UNL A   1      32.525  27.515  25.879  1.00  0.00     0.060 A 
ATOM     10  C   UNL A   1      31.914  28.241  26.906  1.00  0.00     0.029 A 
ATOM     11  C   UNL A   1      33.811  27.890  25.484  1.00  0.00     0.029 A 
ATOM     12  C   UNL A   1      32.601  29.255  27.576  1.00  0.00     0.016 A 
ATOM     13  C   UNL A   1      34.480  28.951  26.111  1.00  0.00     0.016 A 
BRANCH   9  14
ATOM     14  N   UNL A   1      31.838  26.479  25.272  1.00  0.00    -0.257 N 
ATOM     15  C   UNL A   1      30.401  26.472  25.006  1.00  0.00     0.144 C 
ATOM     16  C   UNL A   1      30.155  25.036  24.521  1.00  0.00     0.091 C 
ATOM     17  C   UNL A   1      31.524  24.455  24.725  1.00  0.00     0.071 C 
ATOM     18  N   UNL A   1      32.440  25.270  25.140  1.00  0.00    -0.176 NA
BRANCH  15  19
ATOM     19  C   UNL A   1      30.012  27.507  23.962  1.00  0.00    -0.023 A 
ATOM     20  C   UNL A   1      29.273  29.390  22.000  1.00  0.00     0.118 A 
ATOM     21  C   UNL A   1      28.297  28.695  22.713  1.00  0.00     0.047 A 
ATOM     22  C   UNL A   1      30.619  29.179  22.290  1.00  0.00     0.047 A 
ATOM     23  C   UNL A   1      28.661  27.753  23.680  1.00  0.00     0.010 A 
ATOM     24  C   UNL A   1      30.984  28.244  23.264  1.00  0.00     0.010 A 
BRANCH  20  25
ATOM     25  O   UNL A   1      28.813  30.291  21.081  1.00  0.00    -0.497 OA
ATOM     26  C   UNL A   1      28.044  31.357  21.634  1.00  0.00     0.278 C 
ENDBRANCH  20  25
ENDBRANCH  15  19
BRANCH  17  27
ATOM     27  C   UNL A   1      31.781  23.033  24.499  1.00  0.00    -0.002 A 
ATOM     28  C   UNL A   1      31.964  22.202  25.609  1.00  0.00     0.011 A 
ATOM     29  C   UNL A   1      31.870  22.534  23.198  1.00  0.00     0.011 A 
ATOM     30  C   UNL A   1      32.222  20.845  25.416  1.00  0.00     0.021 A 
ATOM     31  C   UNL A   1      32.153  21.181  23.004  1.00  0.00     0.021 A 
ATOM     32  C   UNL A   1      32.331  20.346  24.114  1.00  0.00     0.067 A 
BRANCH  32  33
ATOM     33  S   UNL A   1      32.680  18.619  23.880  1.00  0.00     0.175 S 
ATOM     34  C   UNL A   1      34.408  18.471  24.252  1.00  0.00     0.163 C 
ATOM     35  O   UNL A   1      31.928  17.901  24.890  1.00  0.00    -0.224 OA
ATOM     36  O   UNL A   1      32.508  18.324  22.469  1.00  0.00    -0.224 OA
ENDBRANCH  32  33
ENDBRANCH  17  27
ENDBRANCH   9  14
ENDBRANCH   5   8
ENDBRANCH   3   4
ENDBRANCH   2   3
ENDBRANCH   1   2
BRANCH   1  37
ATOM     37  C   UNL A   1      39.156  27.478  29.032  1.00  0.00     0.002 C 
BRANCH  37  38
ATOM     38  C   UNL A   1      39.245  26.460  27.892  1.00  0.00     0.021 C 
BRANCH  38  39
ATOM     39  C   UNL A   1      40.322  25.395  28.081  1.00  0.00     0.116 C 
BRANCH  39  40
ATOM     40  N   UNL A   1      41.053  25.141  26.849  1.00  0.00    -0.352 N 
ATOM     41  C   UNL A   1      41.857  25.990  26.129  1.00  0.00     0.251 C 
ATOM     42  H   UNL A   1      40.958  24.234  26.480  1.00  0.00     0.163 HD
ATOM     43  O   UNL A   1      42.231  25.684  25.001  1.00  0.00    -0.269 OA
BRANCH  41  44
ATOM     44  C   UNL A   1      42.261  27.286  26.710  1.00  0.00     0.039 A 
ATOM     45  C   UNL A   1      41.798  28.466  26.121  1.00  0.00     0.014 A 
ATOM     46  C   UNL A   1      43.104  27.336  27.823  1.00  0.00     0.014 A 
ATOM     47  C   UNL A   1      42.131  29.698  26.688  1.00  0.00     0.010 A 
ATOM     48  C   UNL A   1      43.389  28.563  28.420  1.00  0.00     0.010 A 
ATOM     49  C   UNL A   1      42.902  29.753  27.860  1.00  0.00    -0.014 A 
BRANCH  49  50
ATOM     50  C   UNL A   1      43.208  31.046  28.521  1.00  0.00     0.031 A 
ATOM     51  C   UNL A   1      44.425  31.829  28.117  1.00  0.00     0.074 A 
ATOM     52  C   UNL A   1      42.428  31.479  29.531  1.00  0.00     0.049 A 
ATOM     53  N   UNL A   1      44.925  32.916  28.648  1.00  0.00    -0.248 NA
ATOM     54  C   UNL A   1      45.198  31.306  26.979  1.00  0.00     0.031 C 
ATOM     55  C   UNL A   1      41.240  30.789  30.036  1.00  0.00     0.029 A 
ATOM     56  N   UNL A   1      42.530  32.593  30.327  1.00  0.00    -0.354 N 
ATOM     57  C   UNL A   1      46.067  33.204  27.914  1.00  0.00     0.074 A 
ATOM     58  C   UNL A   1      46.216  32.152  26.932  1.00  0.00     0.031 C 
ATOM     59  C   UNL A   1      40.720  31.498  31.052  1.00  0.00     0.029 A 
ATOM     60  C   UNL A   1      41.557  32.668  31.293  1.00  0.00     0.049 A 
ATOM     61  H   UNL A   1      43.233  33.273  30.215  1.00  0.00     0.167 HD
ATOM     62  C   UNL A   1      46.902  34.264  28.034  1.00  0.00     0.037 A 
ATOM     63  C   UNL A   1      41.373  33.572  32.275  1.00  0.00     0.037 A 
ATOM     64  C   UNL A   1      46.741  35.319  29.000  1.00  0.00     0.049 A 
ATOM     65  C   UNL A   1      42.328  34.729  32.396  1.00  0.00     0.074 A 
ATOM     66  C   UNL A   1      47.518  36.450  29.181  1.00  0.00     0.029 A 
ATOM     67  N   UNL A   1      45.728  35.374  29.946  1.00  0.00    -0.354 N 
ATOM     68  N   UNL A   1      43.381  35.013  31.670  1.00  0.00    -0.248 NA
ATOM     69  C   UNL A   1      42.067  35.694  33.474  1.00  0.00     0.031 C 
ATOM     70  C   UNL A   1      46.994  37.175  30.256  1.00  0.00     0.029 A 
ATOM     71  C   UNL A   1      45.867  36.514  30.720  1.00  0.00     0.049 A 
ATOM     72  H   UNL A   1      45.016  34.703  30.050  1.00  0.00     0.167 HD
ATOM     73  C   UNL A   1      43.893  36.196  32.184  1.00  0.00     0.074 A 
ATOM     74  C   UNL A   1      43.025  36.588  33.274  1.00  0.00     0.031 C 
ATOM     75  C   UNL A   1      44.986  36.893  31.792  1.00  0.00     0.037 A 
BRANCH  62  76
ATOM     76  C   UNL A   1      48.058  34.349  27.083  1.00  0.00     0.064 A 
ATOM     77  C   UNL A   1      48.034  35.221  25.985  1.00  0.00     0.173 A 
ATOM     78  C   UNL A   1      49.222  33.598  27.302  1.00  0.00     0.173 A 
ATOM     79  F   UNL A   1      46.939  35.952  25.728  1.00  0.00    -0.203 F 
ATOM     80  C   UNL A   1      49.128  35.326  25.130  1.00  0.00     0.198 A 
ATOM     81  C   UNL A   1      50.324  33.724  26.460  1.00  0.00     0.198 A 
ATOM     82  F   UNL A   1      49.298  32.754  28.341  1.00  0.00    -0.203 F 
ATOM     83  F   UNL A   1      49.070  36.140  24.068  1.00  0.00    -0.200 F 
ATOM     84  C   UNL A   1      50.274  34.584  25.372  1.00  0.00     0.200 A 
ATOM     85  F   UNL A   1      51.436  33.016  26.702  1.00  0.00    -0.200 F 
ATOM     86  F   UNL A   1      51.331  34.696  24.556  1.00  0.00    -0.200 F 
ENDBRANCH  62  76
BRANCH  63  87
ATOM     87  C   UNL A   1      40.239  33.424  33.224  1.00  0.00     0.064 A 
ATOM     88  C   UNL A   1      40.351  32.607  34.357  1.00  0.00     0.173 A 
ATOM     89  C   UNL A   1      39.016  34.072  33.005  1.00  0.00     0.173 A 
ATOM     90  F   UNL A   1      41.495  31.949  34.598  1.00  0.00    -0.203 F 
ATOM     91  C   UNL A   1      39.274  32.422  35.221  1.00  0.00     0.198 A 
ATOM     92  C   UNL A   1      37.948  33.909  33.883  1.00  0.00     0.198 A 
ATOM     93  F   UNL A   1      38.859  34.868  31.936  1.00  0.00    -0.203 F 
ATOM     94  F   UNL A   1      39.391  31.593  36.266  1.00  0.00    -0.200 F 
ATOM     95  C   UNL A   1      38.074  33.075  34.985  1.00  0.00     0.200 A 
ATOM     96  F   UNL A   1      36.794  34.551  33.658  1.00  0.00    -0.200 F 
ATOM     97  F   UNL A   1      37.036  32.894  35.812  1.00  0.00    -0.200 F 
ENDBRANCH  63  87
BRANCH  75  98
ATOM     98  C   UNL A   1      45.288  38.165  32.527  1.00  0.00     0.064 A 
ATOM     99  C   UNL A   1      46.168  38.188  33.618  1.00  0.00     0.173 A 
ATOM    100  C   UNL A   1      44.724  39.379  32.108  1.00  0.00     0.173 A 
ATOM    101  F   UNL A   1      46.719  37.049  34.065  1.00  0.00    -0.203 F 
ATOM    102  C   UNL A   1      46.459  39.380  34.276  1.00  0.00     0.198 A 
ATOM    103  C   UNL A   1      45.035  40.572  32.752  1.00  0.00     0.198 A 
ATOM    104  F   UNL A   1      43.879  39.408  31.066  1.00  0.00    -0.203 F 
ATOM    105  F   UNL A   1      47.272  39.374  35.341  1.00  0.00    -0.200 F 
ATOM    106  C   UNL A   1      45.898  40.572  33.839  1.00  0.00     0.200 A 
ATOM    107  F   UNL A   1      44.501  41.724  32.322  1.00  0.00    -0.200 F 
ATOM    108  F   UNL A   1      46.184  41.719  34.468  1.00  0.00    -0.200 F 
ENDBRANCH  75  98
ENDBRANCH  49  50
ENDBRANCH  41  44
ENDBRANCH  39  40
ENDBRANCH  38  39
ENDBRANCH  37  38
ENDBRANCH   1  37
TORSDOF 18
ENDMDL
