MODEL 1
REMARK VINA RESULT:      -9.3      0.000      0.000
REMARK SMILES CC(=O)Oc1ccccc1C(=O)NCCCCCCNC(=O)c1ccc(-c2c3nc(c(-c4c(F)c(F)c(F)c(F)c4F)c4ccc([nH]4)c(-c4c(F)c(F)c(F)c(F)c4F)c4nc(c(-c5c(F)c(F)c(F)c(F)c5F)c5ccc2[nH]5)C=C4)C=C3)cc1
REMARK SMILES IDX 16 1 15 2 14 3 13 4 11 5 12 6 10 8 5 9 6 10 7 11 9 12 8 13
REMARK SMILES IDX 4 14 2 15 1 16 3 17 17 18 18 19 19 20 20 21 21 22 22 24
REMARK SMILES IDX 23 25 24 26 85 27 25 28 84 29 26 30 27 31 28 32 78 33 29 34
REMARK SMILES IDX 83 35 77 36 79 37 30 38 82 39 76 40 75 41 31 43 63 44 43 45
REMARK SMILES IDX 62 46 44 47 47 48 61 49 80 50 45 51 46 52 60 54 81 55 48 56
REMARK SMILES IDX 32 57 33 58 41 59 34 60 35 61 39 62 42 63 36 64 37 65 40 66
REMARK SMILES IDX 38 67 64 68 65 69 73 70 66 71 67 72 71 73 74 74 68 75 69 76
REMARK SMILES IDX 72 77 70 78 49 79 50 80 58 81 51 82 52 83 56 84 59 85 53 86
REMARK SMILES IDX 54 87 57 88 55 89
REMARK H PARENT 13 7 20 23 79 42 47 53
REMARK Flexibility Score: inf
ROOT
ATOM      1  C   UNL A   1      42.601  23.729  28.066  1.00  0.00     0.002 C 
ENDROOT
BRANCH   1   2
ATOM      2  C   UNL A   1      43.880  24.042  27.283  1.00  0.00     0.021 C 
BRANCH   2   3
ATOM      3  C   UNL A   1      43.742  24.278  25.782  1.00  0.00     0.116 C 
BRANCH   3   4
ATOM      4  N   UNL A   1      44.840  24.969  25.156  1.00  0.00    -0.352 N 
ATOM      5  C   UNL A   1      45.151  26.308  25.095  1.00  0.00     0.255 C 
ATOM      6  O   UNL A   1      46.196  26.596  24.503  1.00  0.00    -0.269 OA
ATOM      7  H   UNL A   1      45.479  24.382  24.691  1.00  0.00     0.163 HD
BRANCH   5   8
ATOM      8  C   UNL A   1      44.299  27.427  25.613  1.00  0.00     0.082 A 
ATOM      9  C   UNL A   1      44.656  28.469  26.477  1.00  0.00     0.143 A 
ATOM     10  C   UNL A   1      43.721  29.434  26.889  1.00  0.00     0.048 A 
ATOM     11  C   UNL A   1      42.419  29.409  26.399  1.00  0.00     0.004 A 
ATOM     12  C   UNL A   1      42.977  27.441  25.114  1.00  0.00     0.018 A 
ATOM     13  C   UNL A   1      42.049  28.417  25.500  1.00  0.00     0.001 A 
BRANCH   9  14
ATOM     14  O   UNL A   1      45.917  28.604  27.061  1.00  0.00    -0.426 OA
BRANCH  14  15
ATOM     15  C   UNL A   1      46.859  29.291  26.306  1.00  0.00     0.308 C 
ATOM     16  C   UNL A   1      48.225  28.774  26.661  1.00  0.00     0.139 C 
ATOM     17  O   UNL A   1      46.641  30.175  25.492  1.00  0.00    -0.252 OA
ENDBRANCH  14  15
ENDBRANCH   9  14
ENDBRANCH   5   8
ENDBRANCH   3   4
ENDBRANCH   2   3
ENDBRANCH   1   2
BRANCH   1  18
ATOM     18  C   UNL A   1      42.336  22.273  28.467  1.00  0.00     0.002 C 
BRANCH  18  19
ATOM     19  C   UNL A   1      41.290  21.496  27.666  1.00  0.00     0.021 C 
BRANCH  19  20
ATOM     20  C   UNL A   1      41.042  21.943  26.229  1.00  0.00     0.116 C 
BRANCH  20  21
ATOM     21  N   UNL A   1      39.635  22.075  25.898  1.00  0.00    -0.352 N 
ATOM     22  C   UNL A   1      38.737  23.071  26.198  1.00  0.00     0.251 C 
ATOM     23  H   UNL A   1      39.265  21.330  25.373  1.00  0.00     0.163 HD
ATOM     24  O   UNL A   1      37.553  22.924  25.901  1.00  0.00    -0.269 OA
BRANCH  22  25
ATOM     25  C   UNL A   1      39.156  24.310  26.900  1.00  0.00     0.039 A 
ATOM     26  C   UNL A   1      38.817  24.456  28.251  1.00  0.00     0.014 A 
ATOM     27  C   UNL A   1      39.824  25.348  26.244  1.00  0.00     0.014 A 
ATOM     28  C   UNL A   1      39.197  25.605  28.953  1.00  0.00     0.010 A 
ATOM     29  C   UNL A   1      40.267  26.462  26.963  1.00  0.00     0.010 A 
ATOM     30  C   UNL A   1      39.952  26.607  28.323  1.00  0.00    -0.014 A 
BRANCH  30  31
ATOM     31  C   UNL A   1      40.405  27.812  29.069  1.00  0.00     0.031 A 
ATOM     32  C   UNL A   1      41.809  27.891  29.606  1.00  0.00     0.074 A 
ATOM     33  C   UNL A   1      39.540  28.818  29.309  1.00  0.00     0.049 A 
ATOM     34  N   UNL A   1      42.368  28.826  30.334  1.00  0.00    -0.248 NA
ATOM     35  C   UNL A   1      42.695  26.756  29.307  1.00  0.00     0.031 C 
ATOM     36  C   UNL A   1      38.143  28.851  28.878  1.00  0.00     0.029 A 
ATOM     37  N   UNL A   1      39.708  30.002  29.984  1.00  0.00    -0.354 N 
ATOM     38  C   UNL A   1      43.661  28.386  30.591  1.00  0.00     0.074 A 
ATOM     39  C   UNL A   1      43.787  27.077  29.986  1.00  0.00     0.031 C 
ATOM     40  C   UNL A   1      37.586  30.006  29.278  1.00  0.00     0.029 A 
ATOM     41  C   UNL A   1      38.574  30.777  30.027  1.00  0.00     0.049 A 
ATOM     42  H   UNL A   1      40.559  30.271  30.399  1.00  0.00     0.167 HD
ATOM     43  C   UNL A   1      44.659  29.024  31.248  1.00  0.00     0.037 A 
ATOM     44  C   UNL A   1      38.353  31.972  30.609  1.00  0.00     0.037 A 
ATOM     45  C   UNL A   1      44.543  30.338  31.825  1.00  0.00     0.049 A 
ATOM     46  C   UNL A   1      39.476  32.656  31.343  1.00  0.00     0.074 A 
ATOM     47  C   UNL A   1      45.515  31.091  32.462  1.00  0.00     0.029 A 
ATOM     48  N   UNL A   1      43.381  31.095  31.837  1.00  0.00    -0.354 N 
ATOM     49  N   UNL A   1      40.711  32.255  31.525  1.00  0.00    -0.248 NA
ATOM     50  C   UNL A   1      39.175  33.963  31.945  1.00  0.00     0.031 C 
ATOM     51  C   UNL A   1      44.930  32.283  32.899  1.00  0.00     0.029 A 
ATOM     52  C   UNL A   1      43.606  32.298  32.489  1.00  0.00     0.049 A 
ATOM     53  H   UNL A   1      42.523  30.821  31.440  1.00  0.00     0.167 HD
ATOM     54  C   UNL A   1      41.340  33.269  32.234  1.00  0.00     0.074 A 
ATOM     55  C   UNL A   1      40.355  34.310  32.438  1.00  0.00     0.031 C 
ATOM     56  C   UNL A   1      42.620  33.331  32.677  1.00  0.00     0.037 A 
BRANCH  43  57
ATOM     57  C   UNL A   1      45.973  28.308  31.379  1.00  0.00     0.064 A 
ATOM     58  C   UNL A   1      47.081  28.651  30.588  1.00  0.00     0.173 A 
ATOM     59  C   UNL A   1      46.140  27.293  32.333  1.00  0.00     0.173 A 
ATOM     60  F   UNL A   1      46.972  29.608  29.654  1.00  0.00    -0.203 F 
ATOM     61  C   UNL A   1      48.295  27.984  30.725  1.00  0.00     0.198 A 
ATOM     62  C   UNL A   1      47.365  26.649  32.489  1.00  0.00     0.198 A 
ATOM     63  F   UNL A   1      45.118  26.930  33.121  1.00  0.00    -0.203 F 
ATOM     64  F   UNL A   1      49.323  28.295  29.922  1.00  0.00    -0.200 F 
ATOM     65  C   UNL A   1      48.439  26.988  31.680  1.00  0.00     0.200 A 
ATOM     66  F   UNL A   1      47.507  25.697  33.422  1.00  0.00    -0.200 F 
ATOM     67  F   UNL A   1      49.611  26.352  31.815  1.00  0.00    -0.200 F 
ENDBRANCH  43  57
BRANCH  44  68
ATOM     68  C   UNL A   1      37.016  32.614  30.502  1.00  0.00     0.064 A 
ATOM     69  C   UNL A   1      36.683  33.402  29.392  1.00  0.00     0.173 A 
ATOM     70  C   UNL A   1      36.049  32.459  31.506  1.00  0.00     0.173 A 
ATOM     71  F   UNL A   1      37.583  33.598  28.417  1.00  0.00    -0.203 F 
ATOM     72  C   UNL A   1      35.442  34.028  29.298  1.00  0.00     0.198 A 
ATOM     73  C   UNL A   1      34.797  33.062  31.397  1.00  0.00     0.198 A 
ATOM     74  F   UNL A   1      36.316  31.712  32.587  1.00  0.00    -0.203 F 
ATOM     75  F   UNL A   1      35.167  34.812  28.248  1.00  0.00    -0.200 F 
ATOM     76  C   UNL A   1      34.497  33.852  30.298  1.00  0.00     0.200 A 
ATOM     77  F   UNL A   1      33.882  32.878  32.359  1.00  0.00    -0.200 F 
ATOM     78  F   UNL A   1      33.302  34.450  30.206  1.00  0.00    -0.200 F 
ENDBRANCH  44  68
BRANCH  56  79
ATOM     79  C   UNL A   1      43.042  34.580  33.395  1.00  0.00     0.064 A 
ATOM     80  C   UNL A   1      43.460  35.724  32.702  1.00  0.00     0.173 A 
ATOM     81  C   UNL A   1      42.990  34.643  34.797  1.00  0.00     0.173 A 
ATOM     82  F   UNL A   1      43.542  35.710  31.362  1.00  0.00    -0.203 F 
ATOM     83  C   UNL A   1      43.833  36.879  33.385  1.00  0.00     0.198 A 
ATOM     84  C   UNL A   1      43.335  35.809  35.475  1.00  0.00     0.198 A 
ATOM     85  F   UNL A   1      42.591  33.578  35.508  1.00  0.00    -0.203 F 
ATOM     86  F   UNL A   1      44.274  37.945  32.703  1.00  0.00    -0.200 F 
ATOM     87  C   UNL A   1      43.764  36.923  34.769  1.00  0.00     0.200 A 
ATOM     88  F   UNL A   1      43.252  35.854  36.812  1.00  0.00    -0.200 F 
ATOM     89  F   UNL A   1      44.116  38.037  35.425  1.00  0.00    -0.200 F 
ENDBRANCH  56  79
ENDBRANCH  30  31
ENDBRANCH  22  25
ENDBRANCH  20  21
ENDBRANCH  19  20
ENDBRANCH  18  19
ENDBRANCH   1  18
TORSDOF 15
ENDMDL
MODEL 2
REMARK VINA RESULT:      -9.3      1.525      2.815
REMARK SMILES CC(=O)Oc1ccccc1C(=O)NCCCCCCNC(=O)c1ccc(-c2c3nc(c(-c4c(F)c(F)c(F)c(F)c4F)c4ccc([nH]4)c(-c4c(F)c(F)c(F)c(F)c4F)c4nc(c(-c5c(F)c(F)c(F)c(F)c5F)c5ccc2[nH]5)C=C4)C=C3)cc1
REMARK SMILES IDX 16 1 15 2 14 3 13 4 11 5 12 6 10 8 5 9 6 10 7 11 9 12 8 13
REMARK SMILES IDX 4 14 2 15 1 16 3 17 17 18 18 19 19 20 20 21 21 22 22 24
REMARK SMILES IDX 23 25 24 26 85 27 25 28 84 29 26 30 27 31 28 32 78 33 29 34
REMARK SMILES IDX 83 35 77 36 79 37 30 38 82 39 76 40 75 41 31 43 63 44 43 45
REMARK SMILES IDX 62 46 44 47 47 48 61 49 80 50 45 51 46 52 60 54 81 55 48 56
REMARK SMILES IDX 32 57 33 58 41 59 34 60 35 61 39 62 42 63 36 64 37 65 40 66
REMARK SMILES IDX 38 67 64 68 65 69 73 70 66 71 67 72 71 73 74 74 68 75 69 76
REMARK SMILES IDX 72 77 70 78 49 79 50 80 58 81 51 82 52 83 56 84 59 85 53 86
REMARK SMILES IDX 54 87 57 88 55 89
REMARK H PARENT 13 7 20 23 79 42 47 53
REMARK Flexibility Score: inf
ROOT
ATOM      1  C   UNL A   1      42.365  23.528  28.293  1.00  0.00     0.002 C 
ENDROOT
BRANCH   1   2
ATOM      2  C   UNL A   1      43.754  23.692  28.919  1.00  0.00     0.021 C 
BRANCH   2   3
ATOM      3  C   UNL A   1      44.913  22.954  28.257  1.00  0.00     0.116 C 
BRANCH   3   4
ATOM      4  N   UNL A   1      44.706  22.574  26.883  1.00  0.00    -0.352 N 
ATOM      5  C   UNL A   1      44.819  23.294  25.716  1.00  0.00     0.255 C 
ATOM      6  O   UNL A   1      44.606  22.672  24.671  1.00  0.00    -0.269 OA
ATOM      7  H   UNL A   1      44.436  21.635  26.757  1.00  0.00     0.163 HD
BRANCH   5   8
ATOM      8  C   UNL A   1      45.100  24.762  25.620  1.00  0.00     0.082 A 
ATOM      9  C   UNL A   1      46.324  25.428  25.753  1.00  0.00     0.143 A 
ATOM     10  C   UNL A   1      46.413  26.828  25.659  1.00  0.00     0.048 A 
ATOM     11  C   UNL A   1      45.284  27.589  25.373  1.00  0.00     0.004 A 
ATOM     12  C   UNL A   1      43.976  25.559  25.308  1.00  0.00     0.018 A 
ATOM     13  C   UNL A   1      44.064  26.952  25.185  1.00  0.00     0.001 A 
BRANCH   9  14
ATOM     14  O   UNL A   1      47.530  24.795  26.063  1.00  0.00    -0.426 OA
BRANCH  14  15
ATOM     15  C   UNL A   1      48.036  25.053  27.330  1.00  0.00     0.308 C 
ATOM     16  C   UNL A   1      49.529  25.201  27.226  1.00  0.00     0.139 C 
ATOM     17  O   UNL A   1      47.400  25.142  28.369  1.00  0.00    -0.252 OA
ENDBRANCH  14  15
ENDBRANCH   9  14
ENDBRANCH   5   8
ENDBRANCH   3   4
ENDBRANCH   2   3
ENDBRANCH   1   2
BRANCH   1  18
ATOM     18  C   UNL A   1      41.563  22.267  28.634  1.00  0.00     0.002 C 
BRANCH  18  19
ATOM     19  C   UNL A   1      41.291  21.272  27.504  1.00  0.00     0.021 C 
BRANCH  19  20
ATOM     20  C   UNL A   1      40.998  21.851  26.124  1.00  0.00     0.116 C 
BRANCH  20  21
ATOM     21  N   UNL A   1      39.582  22.004  25.849  1.00  0.00    -0.352 N 
ATOM     22  C   UNL A   1      38.722  23.035  26.139  1.00  0.00     0.251 C 
ATOM     23  H   UNL A   1      39.170  21.244  25.376  1.00  0.00     0.163 HD
ATOM     24  O   UNL A   1      37.522  22.904  25.902  1.00  0.00    -0.269 OA
BRANCH  22  25
ATOM     25  C   UNL A   1      39.200  24.295  26.762  1.00  0.00     0.039 A 
ATOM     26  C   UNL A   1      40.004  25.150  25.998  1.00  0.00     0.014 A 
ATOM     27  C   UNL A   1      38.920  24.622  28.091  1.00  0.00     0.014 A 
ATOM     28  C   UNL A   1      40.472  26.351  26.541  1.00  0.00     0.010 A 
ATOM     29  C   UNL A   1      39.326  25.854  28.610  1.00  0.00     0.010 A 
ATOM     30  C   UNL A   1      40.112  26.729  27.845  1.00  0.00    -0.014 A 
BRANCH  30  31
ATOM     31  C   UNL A   1      40.562  28.025  28.422  1.00  0.00     0.031 A 
ATOM     32  C   UNL A   1      42.011  28.240  28.770  1.00  0.00     0.074 A 
ATOM     33  C   UNL A   1      39.662  28.994  28.681  1.00  0.00     0.049 A 
ATOM     34  N   UNL A   1      42.584  29.272  29.339  1.00  0.00    -0.248 NA
ATOM     35  C   UNL A   1      42.935  27.139  28.461  1.00  0.00     0.031 C 
ATOM     36  C   UNL A   1      38.224  28.901  28.427  1.00  0.00     0.029 A 
ATOM     37  N   UNL A   1      39.823  30.245  29.225  1.00  0.00    -0.354 N 
ATOM     38  C   UNL A   1      43.927  28.939  29.468  1.00  0.00     0.074 A 
ATOM     39  C   UNL A   1      44.074  27.589  28.967  1.00  0.00     0.031 C 
ATOM     40  C   UNL A   1      37.638  30.052  28.792  1.00  0.00     0.029 A 
ATOM     41  C   UNL A   1      38.649  30.950  29.342  1.00  0.00     0.049 A 
ATOM     42  H   UNL A   1      40.696  30.604  29.504  1.00  0.00     0.167 HD
ATOM     43  C   UNL A   1      44.947  29.696  29.938  1.00  0.00     0.037 A 
ATOM     44  C   UNL A   1      38.414  32.179  29.842  1.00  0.00     0.037 A 
ATOM     45  C   UNL A   1      44.806  31.049  30.409  1.00  0.00     0.049 A 
ATOM     46  C   UNL A   1      39.563  32.996  30.367  1.00  0.00     0.074 A 
ATOM     47  C   UNL A   1      45.790  31.916  30.852  1.00  0.00     0.029 A 
ATOM     48  N   UNL A   1      43.602  31.731  30.501  1.00  0.00    -0.354 N 
ATOM     49  N   UNL A   1      40.837  32.690  30.427  1.00  0.00    -0.248 NA
ATOM     50  C   UNL A   1      39.243  34.333  30.887  1.00  0.00     0.031 C 
ATOM     51  C   UNL A   1      45.177  33.107  31.254  1.00  0.00     0.029 A 
ATOM     52  C   UNL A   1      43.816  33.002  31.013  1.00  0.00     0.049 A 
ATOM     53  H   UNL A   1      42.725  31.369  30.240  1.00  0.00     0.167 HD
ATOM     54  C   UNL A   1      41.471  33.803  30.962  1.00  0.00     0.074 A 
ATOM     55  C   UNL A   1      40.445  34.797  31.197  1.00  0.00     0.031 C 
ATOM     56  C   UNL A   1      42.787  33.985  31.234  1.00  0.00     0.037 A 
BRANCH  43  57
ATOM     57  C   UNL A   1      46.316  29.077  29.964  1.00  0.00     0.064 A 
ATOM     58  C   UNL A   1      46.810  28.429  31.107  1.00  0.00     0.173 A 
ATOM     59  C   UNL A   1      47.129  29.096  28.821  1.00  0.00     0.173 A 
ATOM     60  F   UNL A   1      46.076  28.391  32.230  1.00  0.00    -0.203 F 
ATOM     61  C   UNL A   1      48.077  27.854  31.115  1.00  0.00     0.198 A 
ATOM     62  C   UNL A   1      48.383  28.491  28.822  1.00  0.00     0.198 A 
ATOM     63  F   UNL A   1      46.704  29.693  27.698  1.00  0.00    -0.203 F 
ATOM     64  F   UNL A   1      48.547  27.286  32.235  1.00  0.00    -0.200 F 
ATOM     65  C   UNL A   1      48.861  27.878  29.970  1.00  0.00     0.200 A 
ATOM     66  F   UNL A   1      49.133  28.503  27.711  1.00  0.00    -0.200 F 
ATOM     67  F   UNL A   1      50.078  27.317  29.977  1.00  0.00    -0.200 F 
ENDBRANCH  43  57
BRANCH  44  68
ATOM     68  C   UNL A   1      37.030  32.724  29.848  1.00  0.00     0.064 A 
ATOM     69  C   UNL A   1      36.201  32.568  30.967  1.00  0.00     0.173 A 
ATOM     70  C   UNL A   1      36.507  33.403  28.738  1.00  0.00     0.173 A 
ATOM     71  F   UNL A   1      36.649  31.907  32.045  1.00  0.00    -0.203 F 
ATOM     72  C   UNL A   1      34.895  33.053  30.970  1.00  0.00     0.198 A 
ATOM     73  C   UNL A   1      35.209  33.913  28.752  1.00  0.00     0.198 A 
ATOM     74  F   UNL A   1      37.260  33.581  27.643  1.00  0.00    -0.203 F 
ATOM     75  F   UNL A   1      34.109  32.850  32.036  1.00  0.00    -0.200 F 
ATOM     76  C   UNL A   1      34.402  33.730  29.864  1.00  0.00     0.200 A 
ATOM     77  F   UNL A   1      34.742  34.578  27.687  1.00  0.00    -0.200 F 
ATOM     78  F   UNL A   1      33.148  34.200  29.869  1.00  0.00    -0.200 F 
ENDBRANCH  44  68
BRANCH  56  79
ATOM     79  C   UNL A   1      43.200  35.320  31.784  1.00  0.00     0.064 A 
ATOM     80  C   UNL A   1      43.142  35.603  33.156  1.00  0.00     0.173 A 
ATOM     81  C   UNL A   1      43.698  36.316  30.928  1.00  0.00     0.173 A 
ATOM     82  F   UNL A   1      42.659  34.690  34.014  1.00  0.00    -0.203 F 
ATOM     83  C   UNL A   1      43.544  36.842  33.648  1.00  0.00     0.198 A 
ATOM     84  C   UNL A   1      44.128  37.541  31.428  1.00  0.00     0.198 A 
ATOM     85  F   UNL A   1      43.781  36.093  29.608  1.00  0.00    -0.203 F 
ATOM     86  F   UNL A   1      43.436  37.107  34.958  1.00  0.00    -0.200 F 
ATOM     87  C   UNL A   1      44.043  37.807  32.787  1.00  0.00     0.200 A 
ATOM     88  F   UNL A   1      44.623  38.467  30.595  1.00  0.00    -0.200 F 
ATOM     89  F   UNL A   1      44.437  38.995  33.264  1.00  0.00    -0.200 F 
ENDBRANCH  56  79
ENDBRANCH  30  31
ENDBRANCH  22  25
ENDBRANCH  20  21
ENDBRANCH  19  20
ENDBRANCH  18  19
ENDBRANCH   1  18
TORSDOF 15
ENDMDL
MODEL 3
REMARK VINA RESULT:      -9.2      5.251      9.722
REMARK SMILES CC(=O)Oc1ccccc1C(=O)NCCCCCCNC(=O)c1ccc(-c2c3nc(c(-c4c(F)c(F)c(F)c(F)c4F)c4ccc([nH]4)c(-c4c(F)c(F)c(F)c(F)c4F)c4nc(c(-c5c(F)c(F)c(F)c(F)c5F)c5ccc2[nH]5)C=C4)C=C3)cc1
REMARK SMILES IDX 16 1 15 2 14 3 13 4 11 5 12 6 10 8 5 9 6 10 7 11 9 12 8 13
REMARK SMILES IDX 4 14 2 15 1 16 3 17 17 18 18 19 19 20 20 21 21 22 22 24
REMARK SMILES IDX 23 25 24 26 85 27 25 28 84 29 26 30 27 31 28 32 78 33 29 34
REMARK SMILES IDX 83 35 77 36 79 37 30 38 82 39 76 40 75 41 31 43 63 44 43 45
REMARK SMILES IDX 62 46 44 47 47 48 61 49 80 50 45 51 46 52 60 54 81 55 48 56
REMARK SMILES IDX 32 57 33 58 41 59 34 60 35 61 39 62 42 63 36 64 37 65 40 66
REMARK SMILES IDX 38 67 64 68 65 69 73 70 66 71 67 72 71 73 74 74 68 75 69 76
REMARK SMILES IDX 72 77 70 78 49 79 50 80 58 81 51 82 52 83 56 84 59 85 53 86
REMARK SMILES IDX 54 87 57 88 55 89
REMARK H PARENT 13 7 20 23 79 42 47 53
REMARK Flexibility Score: inf
ROOT
ATOM      1  C   UNL A   1      32.168  29.318  26.611  1.00  0.00     0.002 C 
ENDROOT
BRANCH   1   2
ATOM      2  C   UNL A   1      33.444  28.752  25.979  1.00  0.00     0.021 C 
BRANCH   2   3
ATOM      3  C   UNL A   1      33.719  29.104  24.520  1.00  0.00     0.116 C 
BRANCH   3   4
ATOM      4  N   UNL A   1      33.760  27.991  23.607  1.00  0.00    -0.352 N 
ATOM      5  C   UNL A   1      32.760  27.351  22.911  1.00  0.00     0.255 C 
ATOM      6  O   UNL A   1      33.118  26.433  22.167  1.00  0.00    -0.269 OA
ATOM      7  H   UNL A   1      34.661  27.622  23.455  1.00  0.00     0.163 HD
BRANCH   5   8
ATOM      8  C   UNL A   1      31.293  27.626  23.042  1.00  0.00     0.082 A 
ATOM      9  C   UNL A   1      30.310  26.843  23.658  1.00  0.00     0.143 A 
ATOM     10  C   UNL A   1      28.960  27.237  23.672  1.00  0.00     0.048 A 
ATOM     11  C   UNL A   1      28.574  28.452  23.116  1.00  0.00     0.004 A 
ATOM     12  C   UNL A   1      30.875  28.865  22.507  1.00  0.00     0.018 A 
ATOM     13  C   UNL A   1      29.536  29.275  22.543  1.00  0.00     0.001 A 
BRANCH   9  14
ATOM     14  O   UNL A   1      30.551  25.593  24.233  1.00  0.00    -0.426 OA
BRANCH  14  15
ATOM     15  C   UNL A   1      30.828  25.602  25.594  1.00  0.00     0.308 C 
ATOM     16  C   UNL A   1      32.287  25.288  25.785  1.00  0.00     0.139 C 
ATOM     17  O   UNL A   1      30.040  25.816  26.501  1.00  0.00    -0.252 OA
ENDBRANCH  14  15
ENDBRANCH   9  14
ENDBRANCH   5   8
ENDBRANCH   3   4
ENDBRANCH   2   3
ENDBRANCH   1   2
BRANCH   1  18
ATOM     18  C   UNL A   1      31.395  30.395  25.840  1.00  0.00     0.002 C 
BRANCH  18  19
ATOM     19  C   UNL A   1      31.287  31.782  26.476  1.00  0.00     0.021 C 
BRANCH  19  20
ATOM     20  C   UNL A   1      32.587  32.449  26.912  1.00  0.00     0.116 C 
BRANCH  20  21
ATOM     21  N   UNL A   1      32.410  33.809  27.387  1.00  0.00    -0.352 N 
ATOM     22  C   UNL A   1      33.077  34.508  28.363  1.00  0.00     0.251 C 
ATOM     23  H   UNL A   1      31.694  34.312  26.935  1.00  0.00     0.163 HD
ATOM     24  O   UNL A   1      32.684  35.630  28.676  1.00  0.00    -0.269 OA
BRANCH  22  25
ATOM     25  C   UNL A   1      34.245  33.929  29.073  1.00  0.00     0.039 A 
ATOM     26  C   UNL A   1      34.028  32.856  29.946  1.00  0.00     0.014 A 
ATOM     27  C   UNL A   1      35.533  34.453  28.938  1.00  0.00     0.014 A 
ATOM     28  C   UNL A   1      35.100  32.276  30.632  1.00  0.00     0.010 A 
ATOM     29  C   UNL A   1      36.615  33.828  29.565  1.00  0.00     0.010 A 
ATOM     30  C   UNL A   1      36.410  32.737  30.424  1.00  0.00    -0.014 A 
BRANCH  30  31
ATOM     31  C   UNL A   1      37.568  32.100  31.109  1.00  0.00     0.031 A 
ATOM     32  C   UNL A   1      38.372  31.036  30.410  1.00  0.00     0.074 A 
ATOM     33  C   UNL A   1      37.868  32.439  32.378  1.00  0.00     0.049 A 
ATOM     34  N   UNL A   1      39.372  30.320  30.862  1.00  0.00    -0.248 NA
ATOM     35  C   UNL A   1      37.985  30.716  29.028  1.00  0.00     0.031 C 
ATOM     36  C   UNL A   1      37.147  33.426  33.182  1.00  0.00     0.029 A 
ATOM     37  N   UNL A   1      38.854  31.982  33.219  1.00  0.00    -0.354 N 
ATOM     38  C   UNL A   1      39.721  29.459  29.829  1.00  0.00     0.074 A 
ATOM     39  C   UNL A   1      38.794  29.705  28.746  1.00  0.00     0.031 C 
ATOM     40  C   UNL A   1      37.727  33.518  34.389  1.00  0.00     0.029 A 
ATOM     41  C   UNL A   1      38.835  32.570  34.460  1.00  0.00     0.049 A 
ATOM     42  H   UNL A   1      39.512  31.299  32.957  1.00  0.00     0.167 HD
ATOM     43  C   UNL A   1      40.737  28.563  29.778  1.00  0.00     0.037 A 
ATOM     44  C   UNL A   1      39.619  32.365  35.537  1.00  0.00     0.037 A 
ATOM     45  C   UNL A   1      41.678  28.339  30.844  1.00  0.00     0.049 A 
ATOM     46  C   UNL A   1      40.734  31.357  35.458  1.00  0.00     0.074 A 
ATOM     47  C   UNL A   1      42.774  27.494  30.866  1.00  0.00     0.029 A 
ATOM     48  N   UNL A   1      41.631  28.964  32.082  1.00  0.00    -0.354 N 
ATOM     49  N   UNL A   1      41.090  30.594  34.453  1.00  0.00    -0.248 NA
ATOM     50  C   UNL A   1      41.561  31.188  36.662  1.00  0.00     0.031 C 
ATOM     51  C   UNL A   1      43.364  27.573  32.131  1.00  0.00     0.029 A 
ATOM     52  C   UNL A   1      42.668  28.506  32.882  1.00  0.00     0.049 A 
ATOM     53  H   UNL A   1      40.963  29.634  32.353  1.00  0.00     0.167 HD
ATOM     54  C   UNL A   1      42.196  29.878  34.891  1.00  0.00     0.074 A 
ATOM     55  C   UNL A   1      42.461  30.308  36.249  1.00  0.00     0.031 C 
ATOM     56  C   UNL A   1      42.926  28.948  34.228  1.00  0.00     0.037 A 
BRANCH  43  57
ATOM     57  C   UNL A   1      40.887  27.755  28.520  1.00  0.00     0.064 A 
ATOM     58  C   UNL A   1      40.246  26.517  28.360  1.00  0.00     0.173 A 
ATOM     59  C   UNL A   1      41.649  28.242  27.447  1.00  0.00     0.173 A 
ATOM     60  F   UNL A   1      39.513  26.003  29.358  1.00  0.00    -0.203 F 
ATOM     61  C   UNL A   1      40.388  25.783  27.186  1.00  0.00     0.198 A 
ATOM     62  C   UNL A   1      41.763  27.519  26.263  1.00  0.00     0.198 A 
ATOM     63  F   UNL A   1      42.277  29.423  27.543  1.00  0.00    -0.203 F 
ATOM     64  F   UNL A   1      39.808  24.579  27.076  1.00  0.00    -0.200 F 
ATOM     65  C   UNL A   1      41.140  26.287  26.135  1.00  0.00     0.200 A 
ATOM     66  F   UNL A   1      42.479  28.014  25.243  1.00  0.00    -0.200 F 
ATOM     67  F   UNL A   1      41.270  25.581  25.003  1.00  0.00    -0.200 F 
ENDBRANCH  43  57
BRANCH  44  68
ATOM     68  C   UNL A   1      39.392  33.149  36.780  1.00  0.00     0.064 A 
ATOM     69  C   UNL A   1      38.472  32.716  37.745  1.00  0.00     0.173 A 
ATOM     70  C   UNL A   1      40.080  34.346  37.025  1.00  0.00     0.173 A 
ATOM     71  F   UNL A   1      37.774  31.588  37.545  1.00  0.00    -0.203 F 
ATOM     72  C   UNL A   1      38.235  33.459  38.899  1.00  0.00     0.198 A 
ATOM     73  C   UNL A   1      39.862  35.074  38.194  1.00  0.00     0.198 A 
ATOM     74  F   UNL A   1      40.972  34.803  36.135  1.00  0.00    -0.203 F 
ATOM     75  F   UNL A   1      37.317  33.045  39.783  1.00  0.00    -0.200 F 
ATOM     76  C   UNL A   1      38.935  34.635  39.125  1.00  0.00     0.200 A 
ATOM     77  F   UNL A   1      40.551  36.203  38.415  1.00  0.00    -0.200 F 
ATOM     78  F   UNL A   1      38.709  35.348  40.237  1.00  0.00    -0.200 F 
ENDBRANCH  44  68
BRANCH  56  79
ATOM     79  C   UNL A   1      44.105  28.356  34.945  1.00  0.00     0.064 A 
ATOM     80  C   UNL A   1      43.998  27.170  35.686  1.00  0.00     0.173 A 
ATOM     81  C   UNL A   1      45.368  28.963  34.857  1.00  0.00     0.173 A 
ATOM     82  F   UNL A   1      42.809  26.559  35.815  1.00  0.00    -0.203 F 
ATOM     83  C   UNL A   1      45.106  26.628  36.332  1.00  0.00     0.198 A 
ATOM     84  C   UNL A   1      46.479  28.401  35.478  1.00  0.00     0.198 A 
ATOM     85  F   UNL A   1      45.525  30.095  34.154  1.00  0.00    -0.203 F 
ATOM     86  F   UNL A   1      44.970  25.519  37.074  1.00  0.00    -0.200 F 
ATOM     87  C   UNL A   1      46.345  27.238  36.223  1.00  0.00     0.200 A 
ATOM     88  F   UNL A   1      47.679  28.985  35.358  1.00  0.00    -0.200 F 
ATOM     89  F   UNL A   1      47.412  26.710  36.838  1.00  0.00    -0.200 F 
ENDBRANCH  56  79
ENDBRANCH  30  31
ENDBRANCH  22  25
ENDBRANCH  20  21
ENDBRANCH  19  20
ENDBRANCH  18  19
ENDBRANCH   1  18
TORSDOF 15
ENDMDL
