MODEL 1
REMARK VINA RESULT:     -11.5      0.000      0.000
REMARK SMILES CC(C)C[C@H](CNC(=O)c1ccc(O)cc1O)C(=O)NCCCCCCNC(=O)c1ccc(-c2c3nc(c(-c4c(F)c(F)c(F)c(F)c4F)c4ccc([nH]4)c(-c4c(F)c(F)c(F)c(F)c4F)c4nc(c(-c5c(F)c(F)c(F)c(F)c5F)c5ccc2[nH]5)C=C4)C=C3)cc1
REMARK SMILES IDX 22 1 21 2 20 3 18 4 19 5 5 7 4 8 2 9 1 10 3 11 6 12 7 13
REMARK SMILES IDX 8 14 9 16 10 17 11 18 16 19 12 20 15 21 13 22 17 23 14 25
REMARK SMILES IDX 23 27 24 28 25 29 26 30 27 31 28 32 29 34 30 35 31 36 92 37
REMARK SMILES IDX 32 38 91 39 33 40 34 41 35 42 85 43 36 44 90 45 84 46 86 47
REMARK SMILES IDX 37 48 89 49 83 50 82 51 38 53 70 54 50 55 69 56 51 57 54 58
REMARK SMILES IDX 68 59 87 60 52 61 53 62 67 64 88 65 55 66 39 67 40 68 48 69
REMARK SMILES IDX 41 70 42 71 46 72 49 73 43 74 44 75 47 76 45 77 71 78 72 79
REMARK SMILES IDX 80 80 73 81 74 82 78 83 81 84 75 85 76 86 79 87 77 88 56 89
REMARK SMILES IDX 57 90 65 91 58 92 59 93 63 94 66 95 60 96 61 97 64 98 62 99
REMARK H PARENT 20 6 7 15 17 24 14 26 27 33 86 52 54 63
REMARK Flexibility Score: inf
ROOT
ATOM      1  C   UNL A   1      32.979  28.532  27.110  1.00  0.00     0.021 C 
ENDROOT
BRANCH   1   2
ATOM      2  C   UNL A   1      32.796  27.371  26.142  1.00  0.00     0.116 C 
BRANCH   2   3
ATOM      3  N   UNL A   1      31.746  26.495  26.604  1.00  0.00    -0.356 N 
ATOM      4  C   UNL A   1      30.718  25.938  25.917  1.00  0.00     0.224 C 
ATOM      5  O   UNL A   1      29.871  25.314  26.558  1.00  0.00    -0.275 OA
ATOM      6  H   UNL A   1      31.781  26.269  27.560  1.00  0.00     0.163 HD
BRANCH   4   7
ATOM      7  C   UNL A   1      30.593  26.089  24.405  1.00  0.00     0.098 C 
BRANCH   7   8
ATOM      8  C   UNL A   1      29.503  27.069  23.915  1.00  0.00     0.018 C 
BRANCH   8   9
ATOM      9  C   UNL A   1      30.008  28.469  23.490  1.00  0.00    -0.017 C 
ATOM     10  C   UNL A   1      31.404  28.429  22.868  1.00  0.00     0.007 C 
ATOM     11  C   UNL A   1      29.018  29.119  22.521  1.00  0.00     0.007 C 
ENDBRANCH   8   9
ENDBRANCH   7   8
BRANCH   7  12
ATOM     12  C   UNL A   1      30.642  24.693  23.739  1.00  0.00     0.129 C 
BRANCH  12  13
ATOM     13  N   UNL A   1      31.422  24.587  22.508  1.00  0.00    -0.351 N 
ATOM     14  C   UNL A   1      32.767  24.382  22.348  1.00  0.00     0.255 C 
ATOM     15  H   UNL A   1      30.906  24.676  21.673  1.00  0.00     0.163 HD
ATOM     16  O   UNL A   1      33.312  24.623  21.274  1.00  0.00    -0.269 OA
BRANCH  14  17
ATOM     17  C   UNL A   1      33.583  23.917  23.480  1.00  0.00     0.081 A 
ATOM     18  C   UNL A   1      34.368  24.827  24.200  1.00  0.00     0.021 A 
ATOM     19  C   UNL A   1      33.564  22.567  23.836  1.00  0.00     0.132 A 
ATOM     20  C   UNL A   1      35.213  24.366  25.208  1.00  0.00     0.047 A 
ATOM     21  C   UNL A   1      34.412  22.104  24.836  1.00  0.00     0.093 A 
ATOM     22  C   UNL A   1      35.242  23.005  25.501  1.00  0.00     0.119 A 
BRANCH  19  23
ATOM     23  O   UNL A   1      32.742  21.655  23.233  1.00  0.00    -0.507 OA
ATOM     24  H   UNL A   1      31.979  21.344  23.679  1.00  0.00     0.293 HD
ENDBRANCH  19  23
BRANCH  22  25
ATOM     25  O   UNL A   1      36.083  22.510  26.454  1.00  0.00    -0.508 OA
ATOM     26  H   UNL A   1      36.801  21.961  26.205  1.00  0.00     0.293 HD
ENDBRANCH  22  25
ENDBRANCH  14  17
ENDBRANCH  12  13
ENDBRANCH   7  12
ENDBRANCH   4   7
ENDBRANCH   2   3
ENDBRANCH   1   2
BRANCH   1  27
ATOM     27  C   UNL A   1      31.745  29.435  27.180  1.00  0.00     0.002 C 
BRANCH  27  28
ATOM     28  C   UNL A   1      31.717  30.539  26.115  1.00  0.00     0.002 C 
BRANCH  28  29
ATOM     29  C   UNL A   1      31.487  31.947  26.670  1.00  0.00     0.021 C 
BRANCH  29  30
ATOM     30  C   UNL A   1      32.750  32.604  27.215  1.00  0.00     0.116 C 
BRANCH  30  31
ATOM     31  N   UNL A   1      32.518  33.998  27.556  1.00  0.00    -0.352 N 
ATOM     32  C   UNL A   1      33.051  34.735  28.579  1.00  0.00     0.251 C 
ATOM     33  H   UNL A   1      31.891  34.479  26.969  1.00  0.00     0.163 HD
ATOM     34  O   UNL A   1      32.566  35.823  28.882  1.00  0.00    -0.269 OA
BRANCH  32  35
ATOM     35  C   UNL A   1      34.209  34.207  29.324  1.00  0.00     0.039 A 
ATOM     36  C   UNL A   1      33.987  33.456  30.479  1.00  0.00     0.014 A 
ATOM     37  C   UNL A   1      35.510  34.455  28.877  1.00  0.00     0.014 A 
ATOM     38  C   UNL A   1      35.073  32.911  31.163  1.00  0.00     0.010 A 
ATOM     39  C   UNL A   1      36.585  33.846  29.512  1.00  0.00     0.010 A 
ATOM     40  C   UNL A   1      36.378  33.077  30.667  1.00  0.00    -0.014 A 
BRANCH  40  41
ATOM     41  C   UNL A   1      37.539  32.456  31.348  1.00  0.00     0.031 A 
ATOM     42  C   UNL A   1      38.274  31.318  30.699  1.00  0.00     0.074 A 
ATOM     43  C   UNL A   1      37.888  32.876  32.578  1.00  0.00     0.049 A 
ATOM     44  N   UNL A   1      39.275  30.610  31.157  1.00  0.00    -0.248 NA
ATOM     45  C   UNL A   1      37.802  30.901  29.369  1.00  0.00     0.031 C 
ATOM     46  C   UNL A   1      37.215  33.937  33.330  1.00  0.00     0.029 A 
ATOM     47  N   UNL A   1      38.888  32.455  33.417  1.00  0.00    -0.354 N 
ATOM     48  C   UNL A   1      39.542  29.660  30.181  1.00  0.00     0.074 A 
ATOM     49  C   UNL A   1      38.559  29.840  29.135  1.00  0.00     0.031 C 
ATOM     50  C   UNL A   1      37.836  34.099  34.509  1.00  0.00     0.029 A 
ATOM     51  C   UNL A   1      38.921  33.129  34.613  1.00  0.00     0.049 A 
ATOM     52  H   UNL A   1      39.521  31.738  33.184  1.00  0.00     0.167 HD
ATOM     53  C   UNL A   1      40.534  28.738  30.148  1.00  0.00     0.037 A 
ATOM     54  C   UNL A   1      39.731  32.974  35.677  1.00  0.00     0.037 A 
ATOM     55  C   UNL A   1      41.515  28.574  31.189  1.00  0.00     0.049 A 
ATOM     56  C   UNL A   1      40.816  31.934  35.626  1.00  0.00     0.074 A 
ATOM     57  C   UNL A   1      42.596  27.713  31.229  1.00  0.00     0.029 A 
ATOM     58  N   UNL A   1      41.526  29.283  32.383  1.00  0.00    -0.354 N 
ATOM     59  N   UNL A   1      41.111  31.092  34.665  1.00  0.00    -0.248 NA
ATOM     60  C   UNL A   1      41.686  31.828  36.804  1.00  0.00     0.031 C 
ATOM     61  C   UNL A   1      43.224  27.855  32.471  1.00  0.00     0.029 A 
ATOM     62  C   UNL A   1      42.576  28.855  33.180  1.00  0.00     0.049 A 
ATOM     63  H   UNL A   1      40.881  29.986  32.628  1.00  0.00     0.167 HD
ATOM     64  C   UNL A   1      42.215  30.376  35.108  1.00  0.00     0.074 A 
ATOM     65  C   UNL A   1      42.546  30.894  36.420  1.00  0.00     0.031 C 
ATOM     66  C   UNL A   1      42.893  29.381  34.485  1.00  0.00     0.037 A 
BRANCH  53  67
ATOM     67  C   UNL A   1      40.596  27.832  28.951  1.00  0.00     0.064 A 
ATOM     68  C   UNL A   1      39.818  26.667  28.863  1.00  0.00     0.173 A 
ATOM     69  C   UNL A   1      41.438  28.137  27.870  1.00  0.00     0.173 A 
ATOM     70  F   UNL A   1      39.003  26.320  29.871  1.00  0.00    -0.203 F 
ATOM     71  C   UNL A   1      39.913  25.821  27.760  1.00  0.00     0.198 A 
ATOM     72  C   UNL A   1      41.502  27.308  26.753  1.00  0.00     0.198 A 
ATOM     73  F   UNL A   1      42.200  29.241  27.895  1.00  0.00    -0.203 F 
ATOM     74  F   UNL A   1      39.209  24.680  27.732  1.00  0.00    -0.200 F 
ATOM     75  C   UNL A   1      40.749  26.144  26.704  1.00  0.00     0.200 A 
ATOM     76  F   UNL A   1      42.300  27.631  25.726  1.00  0.00    -0.200 F 
ATOM     77  F   UNL A   1      40.838  25.330  25.643  1.00  0.00    -0.200 F 
ENDBRANCH  53  67
BRANCH  54  78
ATOM     78  C   UNL A   1      39.555  33.847  36.867  1.00  0.00     0.064 A 
ATOM     79  C   UNL A   1      38.795  33.423  37.966  1.00  0.00     0.173 A 
ATOM     80  C   UNL A   1      40.159  35.111  36.940  1.00  0.00     0.173 A 
ATOM     81  F   UNL A   1      38.185  32.230  37.937  1.00  0.00    -0.203 F 
ATOM     82  C   UNL A   1      38.633  34.236  39.085  1.00  0.00     0.198 A 
ATOM     83  C   UNL A   1      40.021  35.910  38.071  1.00  0.00     0.198 A 
ATOM     84  F   UNL A   1      40.903  35.559  35.918  1.00  0.00    -0.203 F 
ATOM     85  F   UNL A   1      37.869  33.823  40.106  1.00  0.00    -0.200 F 
ATOM     86  C   UNL A   1      39.253  35.476  39.141  1.00  0.00     0.200 A 
ATOM     87  F   UNL A   1      40.636  37.099  38.129  1.00  0.00    -0.200 F 
ATOM     88  F   UNL A   1      39.106  36.253  40.222  1.00  0.00    -0.200 F 
ENDBRANCH  54  78
BRANCH  66  89
ATOM     89  C   UNL A   1      44.085  28.808  35.197  1.00  0.00     0.064 A 
ATOM     90  C   UNL A   1      45.372  29.343  35.036  1.00  0.00     0.173 A 
ATOM     91  C   UNL A   1      43.930  27.731  36.085  1.00  0.00     0.173 A 
ATOM     92  F   UNL A   1      45.578  30.363  34.188  1.00  0.00    -0.203 F 
ATOM     93  C   UNL A   1      46.462  28.806  35.715  1.00  0.00     0.198 A 
ATOM     94  C   UNL A   1      45.016  27.219  36.789  1.00  0.00     0.198 A 
ATOM     95  F   UNL A   1      42.720  27.186  36.282  1.00  0.00    -0.203 F 
ATOM     96  F   UNL A   1      47.690  29.300  35.506  1.00  0.00    -0.200 F 
ATOM     97  C   UNL A   1      46.282  27.750  36.597  1.00  0.00     0.200 A 
ATOM     98  F   UNL A   1      44.837  26.211  37.654  1.00  0.00    -0.200 F 
ATOM     99  F   UNL A   1      47.330  27.241  37.257  1.00  0.00    -0.200 F 
ENDBRANCH  66  89
ENDBRANCH  40  41
ENDBRANCH  32  35
ENDBRANCH  30  31
ENDBRANCH  29  30
ENDBRANCH  28  29
ENDBRANCH  27  28
ENDBRANCH   1  27
TORSDOF 20
ENDMDL
MODEL 2
REMARK VINA RESULT:     -11.5      5.398     10.973
REMARK SMILES CC(C)C[C@H](CNC(=O)c1ccc(O)cc1O)C(=O)NCCCCCCNC(=O)c1ccc(-c2c3nc(c(-c4c(F)c(F)c(F)c(F)c4F)c4ccc([nH]4)c(-c4c(F)c(F)c(F)c(F)c4F)c4nc(c(-c5c(F)c(F)c(F)c(F)c5F)c5ccc2[nH]5)C=C4)C=C3)cc1
REMARK SMILES IDX 22 1 21 2 20 3 18 4 19 5 5 7 4 8 2 9 1 10 3 11 6 12 7 13
REMARK SMILES IDX 8 14 9 16 10 17 11 18 16 19 12 20 15 21 13 22 17 23 14 25
REMARK SMILES IDX 23 27 24 28 25 29 26 30 27 31 28 32 29 34 30 35 31 36 92 37
REMARK SMILES IDX 32 38 91 39 33 40 34 41 35 42 85 43 36 44 90 45 84 46 86 47
REMARK SMILES IDX 37 48 89 49 83 50 82 51 38 53 70 54 50 55 69 56 51 57 54 58
REMARK SMILES IDX 68 59 87 60 52 61 53 62 67 64 88 65 55 66 39 67 40 68 48 69
REMARK SMILES IDX 41 70 42 71 46 72 49 73 43 74 44 75 47 76 45 77 71 78 72 79
REMARK SMILES IDX 80 80 73 81 74 82 78 83 81 84 75 85 76 86 79 87 77 88 56 89
REMARK SMILES IDX 57 90 65 91 58 92 59 93 63 94 66 95 60 96 61 97 64 98 62 99
REMARK H PARENT 20 6 7 15 17 24 14 26 27 33 86 52 54 63
REMARK Flexibility Score: inf
ROOT
ATOM      1  C   UNL A   1      36.849  23.341  24.485  1.00  0.00     0.021 C 
ENDROOT
BRANCH   1   2
ATOM      2  C   UNL A   1      35.436  23.811  24.806  1.00  0.00     0.116 C 
BRANCH   2   3
ATOM      3  N   UNL A   1      34.815  24.369  23.628  1.00  0.00    -0.356 N 
ATOM      4  C   UNL A   1      33.619  24.078  23.060  1.00  0.00     0.224 C 
ATOM      5  O   UNL A   1      33.354  24.606  21.978  1.00  0.00    -0.275 OA
ATOM      6  H   UNL A   1      35.339  25.064  23.169  1.00  0.00     0.163 HD
BRANCH   4   7
ATOM      7  C   UNL A   1      32.636  23.116  23.716  1.00  0.00     0.098 C 
BRANCH   7   8
ATOM      8  C   UNL A   1      32.845  21.619  23.396  1.00  0.00     0.018 C 
BRANCH   8   9
ATOM      9  C   UNL A   1      33.254  20.731  24.596  1.00  0.00    -0.017 C 
ATOM     10  C   UNL A   1      33.023  21.416  25.942  1.00  0.00     0.007 C 
ATOM     11  C   UNL A   1      32.507  19.396  24.549  1.00  0.00     0.007 C 
ENDBRANCH   8   9
ENDBRANCH   7   8
BRANCH   7  12
ATOM     12  C   UNL A   1      31.199  23.675  23.586  1.00  0.00     0.129 C 
BRANCH  12  13
ATOM     13  N   UNL A   1      30.583  24.179  24.812  1.00  0.00    -0.351 N 
ATOM     14  C   UNL A   1      30.343  25.473  25.193  1.00  0.00     0.255 C 
ATOM     15  H   UNL A   1      30.301  23.490  25.456  1.00  0.00     0.163 HD
ATOM     16  O   UNL A   1      30.107  25.744  26.367  1.00  0.00    -0.269 OA
BRANCH  14  17
ATOM     17  C   UNL A   1      30.417  26.560  24.205  1.00  0.00     0.081 A 
ATOM     18  C   UNL A   1      31.655  27.122  23.869  1.00  0.00     0.021 A 
ATOM     19  C   UNL A   1      29.246  27.023  23.598  1.00  0.00     0.132 A 
ATOM     20  C   UNL A   1      31.709  28.215  23.007  1.00  0.00     0.047 A 
ATOM     21  C   UNL A   1      29.297  28.118  22.744  1.00  0.00     0.093 A 
ATOM     22  C   UNL A   1      30.526  28.716  22.469  1.00  0.00     0.119 A 
BRANCH  19  23
ATOM     23  O   UNL A   1      28.025  26.445  23.814  1.00  0.00    -0.507 OA
ATOM     24  H   UNL A   1      27.935  25.513  23.782  1.00  0.00     0.293 HD
ENDBRANCH  19  23
BRANCH  22  25
ATOM     25  O   UNL A   1      30.532  29.807  21.652  1.00  0.00    -0.508 OA
ATOM     26  H   UNL A   1      29.790  29.990  21.109  1.00  0.00     0.293 HD
ENDBRANCH  22  25
ENDBRANCH  14  17
ENDBRANCH  12  13
ENDBRANCH   7  12
ENDBRANCH   4   7
ENDBRANCH   2   3
ENDBRANCH   1   2
BRANCH   1  27
ATOM     27  C   UNL A   1      37.275  22.146  25.341  1.00  0.00     0.002 C 
BRANCH  27  28
ATOM     28  C   UNL A   1      36.940  20.782  24.723  1.00  0.00     0.002 C 
BRANCH  28  29
ATOM     29  C   UNL A   1      37.999  19.703  24.962  1.00  0.00     0.021 C 
BRANCH  29  30
ATOM     30  C   UNL A   1      39.169  20.173  25.817  1.00  0.00     0.116 C 
BRANCH  30  31
ATOM     31  N   UNL A   1      40.190  19.144  25.934  1.00  0.00    -0.352 N 
ATOM     32  C   UNL A   1      41.547  19.284  26.046  1.00  0.00     0.251 C 
ATOM     33  H   UNL A   1      39.858  18.216  25.932  1.00  0.00     0.163 HD
ATOM     34  O   UNL A   1      42.288  18.318  25.883  1.00  0.00    -0.269 OA
BRANCH  32  35
ATOM     35  C   UNL A   1      42.113  20.609  26.355  1.00  0.00     0.039 A 
ATOM     36  C   UNL A   1      42.504  21.441  25.306  1.00  0.00     0.014 A 
ATOM     37  C   UNL A   1      42.256  21.024  27.683  1.00  0.00     0.014 A 
ATOM     38  C   UNL A   1      42.996  22.715  25.587  1.00  0.00     0.010 A 
ATOM     39  C   UNL A   1      42.669  22.322  27.958  1.00  0.00     0.010 A 
ATOM     40  C   UNL A   1      43.053  23.176  26.914  1.00  0.00    -0.014 A 
BRANCH  40  41
ATOM     41  C   UNL A   1      43.518  24.548  27.227  1.00  0.00     0.031 A 
ATOM     42  C   UNL A   1      42.555  25.565  27.771  1.00  0.00     0.074 A 
ATOM     43  C   UNL A   1      44.791  24.894  26.960  1.00  0.00     0.049 A 
ATOM     44  N   UNL A   1      42.756  26.827  28.055  1.00  0.00    -0.248 NA
ATOM     45  C   UNL A   1      41.175  25.110  27.999  1.00  0.00     0.031 C 
ATOM     46  C   UNL A   1      45.802  24.008  26.382  1.00  0.00     0.029 A 
ATOM     47  N   UNL A   1      45.449  26.086  27.129  1.00  0.00    -0.354 N 
ATOM     48  C   UNL A   1      41.529  27.316  28.481  1.00  0.00     0.074 A 
ATOM     49  C   UNL A   1      40.576  26.235  28.358  1.00  0.00     0.031 C 
ATOM     50  C   UNL A   1      46.959  24.679  26.267  1.00  0.00     0.029 A 
ATOM     51  C   UNL A   1      46.760  26.051  26.722  1.00  0.00     0.049 A 
ATOM     52  H   UNL A   1      45.022  26.888  27.506  1.00  0.00     0.167 HD
ATOM     53  C   UNL A   1      41.229  28.550  28.955  1.00  0.00     0.037 A 
ATOM     54  C   UNL A   1      47.693  27.021  26.710  1.00  0.00     0.037 A 
ATOM     55  C   UNL A   1      42.187  29.617  29.084  1.00  0.00     0.049 A 
ATOM     56  C   UNL A   1      47.336  28.388  27.227  1.00  0.00     0.074 A 
ATOM     57  C   UNL A   1      42.004  30.884  29.608  1.00  0.00     0.029 A 
ATOM     58  N   UNL A   1      43.512  29.543  28.672  1.00  0.00    -0.354 N 
ATOM     59  N   UNL A   1      46.192  28.820  27.702  1.00  0.00    -0.248 NA
ATOM     60  C   UNL A   1      48.400  29.399  27.215  1.00  0.00     0.031 C 
ATOM     61  C   UNL A   1      43.198  31.597  29.457  1.00  0.00     0.029 A 
ATOM     62  C   UNL A   1      44.147  30.753  28.901  1.00  0.00     0.049 A 
ATOM     63  H   UNL A   1      43.936  28.748  28.275  1.00  0.00     0.167 HD
ATOM     64  C   UNL A   1      46.406  30.142  28.070  1.00  0.00     0.074 A 
ATOM     65  C   UNL A   1      47.794  30.435  27.777  1.00  0.00     0.031 C 
ATOM     66  C   UNL A   1      45.532  31.030  28.603  1.00  0.00     0.037 A 
BRANCH  53  67
ATOM     67  C   UNL A   1      39.805  28.808  29.359  1.00  0.00     0.064 A 
ATOM     68  C   UNL A   1      39.349  28.560  30.664  1.00  0.00     0.173 A 
ATOM     69  C   UNL A   1      38.884  29.323  28.433  1.00  0.00     0.173 A 
ATOM     70  F   UNL A   1      40.183  28.059  31.588  1.00  0.00    -0.203 F 
ATOM     71  C   UNL A   1      38.017  28.774  31.012  1.00  0.00     0.198 A 
ATOM     72  C   UNL A   1      37.563  29.570  28.795  1.00  0.00     0.198 A 
ATOM     73  F   UNL A   1      39.266  29.586  27.174  1.00  0.00    -0.203 F 
ATOM     74  F   UNL A   1      37.591  28.464  32.244  1.00  0.00    -0.200 F 
ATOM     75  C   UNL A   1      37.127  29.284  30.080  1.00  0.00     0.200 A 
ATOM     76  F   UNL A   1      36.708  30.079  27.897  1.00  0.00    -0.200 F 
ATOM     77  F   UNL A   1      35.846  29.491  30.417  1.00  0.00    -0.200 F 
ENDBRANCH  53  67
BRANCH  54  78
ATOM     78  C   UNL A   1      49.060  26.719  26.212  1.00  0.00     0.064 A 
ATOM     79  C   UNL A   1      49.418  26.985  24.882  1.00  0.00     0.173 A 
ATOM     80  C   UNL A   1      50.041  26.179  27.056  1.00  0.00     0.173 A 
ATOM     81  F   UNL A   1      48.510  27.485  24.033  1.00  0.00    -0.203 F 
ATOM     82  C   UNL A   1      50.701  26.708  24.413  1.00  0.00     0.198 A 
ATOM     83  C   UNL A   1      51.331  25.931  26.594  1.00  0.00     0.198 A 
ATOM     84  F   UNL A   1      49.752  25.915  28.338  1.00  0.00    -0.203 F 
ATOM     85  F   UNL A   1      51.005  26.935  23.129  1.00  0.00    -0.200 F 
ATOM     86  C   UNL A   1      51.659  26.189  25.272  1.00  0.00     0.200 A 
ATOM     87  F   UNL A   1      52.259  25.447  27.431  1.00  0.00    -0.200 F 
ATOM     88  F   UNL A   1      52.895  25.934  24.823  1.00  0.00    -0.200 F 
ENDBRANCH  54  78
BRANCH  66  89
ATOM     89  C   UNL A   1      46.057  32.397  28.939  1.00  0.00     0.064 A 
ATOM     90  C   UNL A   1      46.642  32.680  30.182  1.00  0.00     0.173 A 
ATOM     91  C   UNL A   1      46.009  33.429  27.988  1.00  0.00     0.173 A 
ATOM     92  F   UNL A   1      46.701  31.735  31.133  1.00  0.00    -0.203 F 
ATOM     93  C   UNL A   1      47.136  33.950  30.469  1.00  0.00     0.198 A 
ATOM     94  C   UNL A   1      46.534  34.687  28.266  1.00  0.00     0.198 A 
ATOM     95  F   UNL A   1      45.465  33.210  26.780  1.00  0.00    -0.203 F 
ATOM     96  F   UNL A   1      47.643  34.212  31.682  1.00  0.00    -0.200 F 
ATOM     97  C   UNL A   1      47.089  34.950  29.509  1.00  0.00     0.200 A 
ATOM     98  F   UNL A   1      46.503  35.646  27.329  1.00  0.00    -0.200 F 
ATOM     99  F   UNL A   1      47.572  36.169  29.783  1.00  0.00    -0.200 F 
ENDBRANCH  66  89
ENDBRANCH  40  41
ENDBRANCH  32  35
ENDBRANCH  30  31
ENDBRANCH  29  30
ENDBRANCH  28  29
ENDBRANCH  27  28
ENDBRANCH   1  27
TORSDOF 20
ENDMDL
MODEL 3
REMARK VINA RESULT:     -11.4      1.421      3.554
REMARK SMILES CC(C)C[C@H](CNC(=O)c1ccc(O)cc1O)C(=O)NCCCCCCNC(=O)c1ccc(-c2c3nc(c(-c4c(F)c(F)c(F)c(F)c4F)c4ccc([nH]4)c(-c4c(F)c(F)c(F)c(F)c4F)c4nc(c(-c5c(F)c(F)c(F)c(F)c5F)c5ccc2[nH]5)C=C4)C=C3)cc1
REMARK SMILES IDX 22 1 21 2 20 3 18 4 19 5 5 7 4 8 2 9 1 10 3 11 6 12 7 13
REMARK SMILES IDX 8 14 9 16 10 17 11 18 16 19 12 20 15 21 13 22 17 23 14 25
REMARK SMILES IDX 23 27 24 28 25 29 26 30 27 31 28 32 29 34 30 35 31 36 92 37
REMARK SMILES IDX 32 38 91 39 33 40 34 41 35 42 85 43 36 44 90 45 84 46 86 47
REMARK SMILES IDX 37 48 89 49 83 50 82 51 38 53 70 54 50 55 69 56 51 57 54 58
REMARK SMILES IDX 68 59 87 60 52 61 53 62 67 64 88 65 55 66 39 67 40 68 48 69
REMARK SMILES IDX 41 70 42 71 46 72 49 73 43 74 44 75 47 76 45 77 71 78 72 79
REMARK SMILES IDX 80 80 73 81 74 82 78 83 81 84 75 85 76 86 79 87 77 88 56 89
REMARK SMILES IDX 57 90 65 91 58 92 59 93 63 94 66 95 60 96 61 97 64 98 62 99
REMARK H PARENT 20 6 7 15 17 24 14 26 27 33 86 52 54 63
REMARK Flexibility Score: inf
ROOT
ATOM      1  C   UNL A   1      33.538  29.078  26.342  1.00  0.00     0.021 C 
ENDROOT
BRANCH   1   2
ATOM      2  C   UNL A   1      33.146  28.990  24.873  1.00  0.00     0.116 C 
BRANCH   2   3
ATOM      3  N   UNL A   1      33.651  27.769  24.293  1.00  0.00    -0.356 N 
ATOM      4  C   UNL A   1      33.098  26.531  24.260  1.00  0.00     0.224 C 
ATOM      5  O   UNL A   1      33.779  25.609  23.807  1.00  0.00    -0.275 OA
ATOM      6  H   UNL A   1      34.530  27.845  23.856  1.00  0.00     0.163 HD
BRANCH   4   7
ATOM      7  C   UNL A   1      31.689  26.273  24.782  1.00  0.00     0.098 C 
BRANCH   7   8
ATOM      8  C   UNL A   1      31.597  25.504  26.119  1.00  0.00     0.018 C 
BRANCH   8   9
ATOM      9  C   UNL A   1      31.662  23.962  26.007  1.00  0.00    -0.017 C 
ATOM     10  C   UNL A   1      32.975  23.386  26.538  1.00  0.00     0.007 C 
ATOM     11  C   UNL A   1      30.476  23.326  26.736  1.00  0.00     0.007 C 
ENDBRANCH   8   9
ENDBRANCH   7   8
BRANCH   7  12
ATOM     12  C   UNL A   1      30.788  25.787  23.622  1.00  0.00     0.129 C 
BRANCH  12  13
ATOM     13  N   UNL A   1      29.355  25.711  23.899  1.00  0.00    -0.351 N 
ATOM     14  C   UNL A   1      28.411  26.703  23.862  1.00  0.00     0.255 C 
ATOM     15  H   UNL A   1      29.020  24.819  24.148  1.00  0.00     0.163 HD
ATOM     16  O   UNL A   1      27.323  26.552  24.413  1.00  0.00    -0.269 OA
BRANCH  14  17
ATOM     17  C   UNL A   1      28.710  27.984  23.202  1.00  0.00     0.081 A 
ATOM     18  C   UNL A   1      30.030  28.308  22.864  1.00  0.00     0.021 A 
ATOM     19  C   UNL A   1      27.669  28.869  22.909  1.00  0.00     0.132 A 
ATOM     20  C   UNL A   1      30.319  29.562  22.329  1.00  0.00     0.047 A 
ATOM     21  C   UNL A   1      27.957  30.123  22.382  1.00  0.00     0.093 A 
ATOM     22  C   UNL A   1      29.281  30.465  22.113  1.00  0.00     0.119 A 
BRANCH  19  23
ATOM     23  O   UNL A   1      26.354  28.560  23.125  1.00  0.00    -0.507 OA
ATOM     24  H   UNL A   1      26.125  27.768  23.570  1.00  0.00     0.293 HD
ENDBRANCH  19  23
BRANCH  22  25
ATOM     25  O   UNL A   1      29.527  31.715  21.627  1.00  0.00    -0.508 OA
ATOM     26  H   UNL A   1      29.756  32.409  22.214  1.00  0.00     0.293 HD
ENDBRANCH  22  25
ENDBRANCH  14  17
ENDBRANCH  12  13
ENDBRANCH   7  12
ENDBRANCH   4   7
ENDBRANCH   2   3
ENDBRANCH   1   2
BRANCH   1  27
ATOM     27  C   UNL A   1      32.632  30.023  27.133  1.00  0.00     0.002 C 
BRANCH  27  28
ATOM     28  C   UNL A   1      31.582  30.745  26.278  1.00  0.00     0.002 C 
BRANCH  28  29
ATOM     29  C   UNL A   1      31.469  32.247  26.550  1.00  0.00     0.021 C 
BRANCH  29  30
ATOM     30  C   UNL A   1      32.680  32.831  27.268  1.00  0.00     0.116 C 
BRANCH  30  31
ATOM     31  N   UNL A   1      32.464  34.224  27.626  1.00  0.00    -0.352 N 
ATOM     32  C   UNL A   1      33.001  34.941  28.661  1.00  0.00     0.251 C 
ATOM     33  H   UNL A   1      31.846  34.720  27.042  1.00  0.00     0.163 HD
ATOM     34  O   UNL A   1      32.528  36.031  28.975  1.00  0.00    -0.269 OA
BRANCH  32  35
ATOM     35  C   UNL A   1      34.149  34.389  29.404  1.00  0.00     0.039 A 
ATOM     36  C   UNL A   1      33.916  33.690  30.589  1.00  0.00     0.014 A 
ATOM     37  C   UNL A   1      35.451  34.564  28.926  1.00  0.00     0.014 A 
ATOM     38  C   UNL A   1      34.990  33.122  31.273  1.00  0.00     0.010 A 
ATOM     39  C   UNL A   1      36.510  33.930  29.564  1.00  0.00     0.010 A 
ATOM     40  C   UNL A   1      36.292  33.213  30.749  1.00  0.00    -0.014 A 
BRANCH  40  41
ATOM     41  C   UNL A   1      37.438  32.566  31.432  1.00  0.00     0.031 A 
ATOM     42  C   UNL A   1      38.146  31.410  30.785  1.00  0.00     0.074 A 
ATOM     43  C   UNL A   1      37.795  32.979  32.662  1.00  0.00     0.049 A 
ATOM     44  N   UNL A   1      39.130  30.680  31.245  1.00  0.00    -0.248 NA
ATOM     45  C   UNL A   1      37.666  31.003  29.455  1.00  0.00     0.031 C 
ATOM     46  C   UNL A   1      37.147  34.056  33.412  1.00  0.00     0.029 A 
ATOM     47  N   UNL A   1      38.785  32.536  33.502  1.00  0.00    -0.354 N 
ATOM     48  C   UNL A   1      39.376  29.723  30.270  1.00  0.00     0.074 A 
ATOM     49  C   UNL A   1      38.399  29.924  29.223  1.00  0.00     0.031 C 
ATOM     50  C   UNL A   1      37.770  34.206  34.591  1.00  0.00     0.029 A 
ATOM     51  C   UNL A   1      38.833  33.210  34.697  1.00  0.00     0.049 A 
ATOM     52  H   UNL A   1      39.401  31.804  33.270  1.00  0.00     0.167 HD
ATOM     53  C   UNL A   1      40.346  28.777  30.239  1.00  0.00     0.037 A 
ATOM     54  C   UNL A   1      39.638  33.038  35.762  1.00  0.00     0.037 A 
ATOM     55  C   UNL A   1      41.322  28.592  31.281  1.00  0.00     0.049 A 
ATOM     56  C   UNL A   1      40.698  31.973  35.713  1.00  0.00     0.074 A 
ATOM     57  C   UNL A   1      42.383  27.706  31.323  1.00  0.00     0.029 A 
ATOM     58  N   UNL A   1      41.348  29.302  32.474  1.00  0.00    -0.354 N 
ATOM     59  N   UNL A   1      40.974  31.123  34.754  1.00  0.00    -0.248 NA
ATOM     60  C   UNL A   1      41.565  31.848  36.892  1.00  0.00     0.031 C 
ATOM     61  C   UNL A   1      43.013  27.835  32.565  1.00  0.00     0.029 A 
ATOM     62  C   UNL A   1      42.388  28.850  33.272  1.00  0.00     0.049 A 
ATOM     63  H   UNL A   1      40.720  30.020  32.718  1.00  0.00     0.167 HD
ATOM     64  C   UNL A   1      42.061  30.382  35.198  1.00  0.00     0.074 A 
ATOM     65  C   UNL A   1      42.403  30.894  36.510  1.00  0.00     0.031 C 
ATOM     66  C   UNL A   1      42.716  29.371  34.577  1.00  0.00     0.037 A 
BRANCH  53  67
ATOM     67  C   UNL A   1      40.388  27.868  29.043  1.00  0.00     0.064 A 
ATOM     68  C   UNL A   1      41.161  28.170  27.910  1.00  0.00     0.173 A 
ATOM     69  C   UNL A   1      39.654  26.672  29.032  1.00  0.00     0.173 A 
ATOM     70  F   UNL A   1      41.876  29.305  27.862  1.00  0.00    -0.203 F 
ATOM     71  C   UNL A   1      41.162  27.332  26.797  1.00  0.00     0.198 A 
ATOM     72  C   UNL A   1      39.687  25.819  27.932  1.00  0.00     0.198 A 
ATOM     73  F   UNL A   1      38.902  26.329  30.089  1.00  0.00    -0.203 F 
ATOM     74  F   UNL A   1      41.855  27.678  25.703  1.00  0.00    -0.200 F 
ATOM     75  C   UNL A   1      40.431  26.156  26.810  1.00  0.00     0.200 A 
ATOM     76  F   UNL A   1      38.991  24.674  27.952  1.00  0.00    -0.200 F 
ATOM     77  F   UNL A   1      40.434  25.350  25.740  1.00  0.00    -0.200 F 
ENDBRANCH  53  67
BRANCH  54  78
ATOM     78  C   UNL A   1      39.482  33.916  36.951  1.00  0.00     0.064 A 
ATOM     79  C   UNL A   1      40.079  35.184  36.994  1.00  0.00     0.173 A 
ATOM     80  C   UNL A   1      38.717  33.517  38.057  1.00  0.00     0.173 A 
ATOM     81  F   UNL A   1      40.833  35.602  35.968  1.00  0.00    -0.203 F 
ATOM     82  C   UNL A   1      39.931  36.012  38.104  1.00  0.00     0.198 A 
ATOM     83  C   UNL A   1      38.545  34.358  39.154  1.00  0.00     0.198 A 
ATOM     84  F   UNL A   1      38.119  32.318  38.062  1.00  0.00    -0.203 F 
ATOM     85  F   UNL A   1      40.545  37.202  38.136  1.00  0.00    -0.200 F 
ATOM     86  C   UNL A   1      39.157  35.602  39.180  1.00  0.00     0.200 A 
ATOM     87  F   UNL A   1      37.782  33.966  40.183  1.00  0.00    -0.200 F 
ATOM     88  F   UNL A   1      39.005  36.404  40.243  1.00  0.00    -0.200 F 
ENDBRANCH  54  78
BRANCH  66  89
ATOM     89  C   UNL A   1      43.894  28.771  35.291  1.00  0.00     0.064 A 
ATOM     90  C   UNL A   1      45.195  29.265  35.117  1.00  0.00     0.173 A 
ATOM     91  C   UNL A   1      43.711  27.710  36.193  1.00  0.00     0.173 A 
ATOM     92  F   UNL A   1      45.427  30.268  34.256  1.00  0.00    -0.203 F 
ATOM     93  C   UNL A   1      46.272  28.704  35.798  1.00  0.00     0.198 A 
ATOM     94  C   UNL A   1      44.785  27.175  36.898  1.00  0.00     0.198 A 
ATOM     95  F   UNL A   1      42.486  27.204  36.402  1.00  0.00    -0.203 F 
ATOM     96  F   UNL A   1      47.513  29.159  35.576  1.00  0.00    -0.200 F 
ATOM     97  C   UNL A   1      46.065  27.665  36.694  1.00  0.00     0.200 A 
ATOM     98  F   UNL A   1      44.579  26.183  37.776  1.00  0.00    -0.200 F 
ATOM     99  F   UNL A   1      47.101  27.132  37.355  1.00  0.00    -0.200 F 
ENDBRANCH  66  89
ENDBRANCH  40  41
ENDBRANCH  32  35
ENDBRANCH  30  31
ENDBRANCH  29  30
ENDBRANCH  28  29
ENDBRANCH  27  28
ENDBRANCH   1  27
TORSDOF 20
ENDMDL
