MODEL 1
REMARK VINA RESULT:     -10.9      0.000      0.000
REMARK SMILES [NH3+]C[C@H]1CC[C@@H](C(=O)N[C@H](CC(=O)NCCCCCCNC(=O)c2ccc(-c3c4nc(c(-c5c(F)c(F)c(F)c(F)c5F)c5ccc([nH]5)c(-c5c(F)c(F)c(F)c(F)c5F)c5nc(c(-c6c(F)c(F)c(F)c(F)c6F)c6ccc3[nH]6)C=C5)C=C4)cc2)c2cccs2)O1
REMARK SMILES IDX 16 1 15 2 14 3 12 4 13 5 11 7 10 8 9 9 7 10 8 11 6 13 3 14
REMARK SMILES IDX 4 15 92 16 5 17 2 18 1 19 87 23 88 24 91 25 89 26 90 27
REMARK SMILES IDX 17 28 18 29 19 30 20 31 21 32 22 33 23 35 24 36 25 37 86 38
REMARK SMILES IDX 26 39 85 40 27 41 28 42 29 43 79 44 30 45 84 46 78 47 80 48
REMARK SMILES IDX 31 49 83 50 77 51 76 52 32 54 64 55 44 56 63 57 45 58 48 59
REMARK SMILES IDX 62 60 81 61 46 62 47 63 61 65 82 66 49 67 33 68 34 69 42 70
REMARK SMILES IDX 35 71 36 72 40 73 43 74 37 75 38 76 41 77 39 78 65 79 66 80
REMARK SMILES IDX 74 81 67 82 68 83 72 84 75 85 69 86 70 87 73 88 71 89 50 90
REMARK SMILES IDX 51 91 59 92 52 93 53 94 57 95 60 96 54 97 55 98 58 99 56 100
REMARK H PARENT 14 6 9 12 1 20 1 21 1 22 21 34 80 53 48 64
REMARK Flexibility Score: inf
ROOT
ATOM      1  C   UNL A   1      32.171  22.817  23.622  1.00  0.00     0.021 C 
ENDROOT
BRANCH   1   2
ATOM      2  C   UNL A   1      30.886  23.642  23.699  1.00  0.00     0.116 C 
BRANCH   2   3
ATOM      3  N   UNL A   1      30.779  24.293  24.990  1.00  0.00    -0.356 N 
ATOM      4  C   UNL A   1      30.283  25.513  25.326  1.00  0.00     0.222 C 
ATOM      5  O   UNL A   1      30.378  25.870  26.502  1.00  0.00    -0.275 OA
ATOM      6  H   UNL A   1      31.121  23.765  25.748  1.00  0.00     0.163 HD
BRANCH   4   7
ATOM      7  C   UNL A   1      29.535  26.356  24.329  1.00  0.00     0.130 C 
BRANCH   7   8
ATOM      8  C   UNL A   1      30.291  27.424  23.533  1.00  0.00     0.132 C 
BRANCH   8   9
ATOM      9  N   UNL A   1      31.491  27.018  22.812  1.00  0.00    -0.346 N 
ATOM     10  C   UNL A   1      32.834  27.126  22.953  1.00  0.00     0.249 C 
ATOM     11  O   UNL A   1      33.490  26.629  22.025  1.00  0.00    -0.272 OA
ATOM     12  H   UNL A   1      31.261  26.526  21.990  1.00  0.00     0.164 HD
BRANCH  10  13
ATOM     13  C   UNL A   1      33.549  27.853  24.112  1.00  0.00     0.207 C 
ATOM     14  C   UNL A   1      33.122  29.053  26.083  1.00  0.00     0.174 C 
ATOM     15  C   UNL A   1      33.936  27.829  26.455  1.00  0.00     0.041 C 
ATOM     16  O   UNL A   1      32.967  29.041  24.645  1.00  0.00    -0.359 OA
ATOM     17  C   UNL A   1      33.681  26.900  25.303  1.00  0.00     0.045 C 
BRANCH  14  18
ATOM     18  C   UNL A   1      31.733  29.072  26.755  1.00  0.00     0.291 C 
BRANCH  18  19
ATOM     19  N   UNL A   1      31.700  28.209  27.946  1.00  0.00    -0.355 N 
ATOM     20  H   UNL A   1      30.952  28.517  28.568  1.00  0.00     0.344 HD
ATOM     21  H   UNL A   1      32.593  28.269  28.434  1.00  0.00     0.344 HD
ATOM     22  H   UNL A   1      31.531  27.245  27.661  1.00  0.00     0.344 HD
ENDBRANCH  18  19
ENDBRANCH  14  18
ENDBRANCH  10  13
ENDBRANCH   8   9
BRANCH   8  23
ATOM     23  C   UNL A   1      29.477  28.541  22.904  1.00  0.00     0.027 A 
ATOM     24  C   UNL A   1      28.133  28.815  23.123  1.00  0.00     0.017 A 
ATOM     25  S   UNL A   1      30.184  29.816  21.997  1.00  0.00    -0.147 S 
ATOM     26  C   UNL A   1      27.666  29.961  22.416  1.00  0.00     0.012 A 
ATOM     27  C   UNL A   1      28.680  30.576  21.726  1.00  0.00     0.065 A 
ENDBRANCH   8  23
ENDBRANCH   7   8
ENDBRANCH   4   7
ENDBRANCH   2   3
ENDBRANCH   1   2
BRANCH   1  28
ATOM     28  C   UNL A   1      33.392  23.507  24.230  1.00  0.00     0.002 C 
BRANCH  28  29
ATOM     29  C   UNL A   1      34.596  22.590  24.463  1.00  0.00     0.002 C 
BRANCH  29  30
ATOM     30  C   UNL A   1      35.973  23.255  24.353  1.00  0.00     0.021 C 
BRANCH  30  31
ATOM     31  C   UNL A   1      36.684  23.521  25.680  1.00  0.00     0.116 C 
BRANCH  31  32
ATOM     32  N   UNL A   1      37.831  22.648  25.876  1.00  0.00    -0.352 N 
ATOM     33  C   UNL A   1      39.101  22.920  26.313  1.00  0.00     0.251 C 
ATOM     34  H   UNL A   1      37.667  21.702  25.657  1.00  0.00     0.163 HD
ATOM     35  O   UNL A   1      39.975  22.061  26.210  1.00  0.00    -0.269 OA
BRANCH  33  36
ATOM     36  C   UNL A   1      39.446  24.238  26.888  1.00  0.00     0.039 A 
ATOM     37  C   UNL A   1      39.057  24.515  28.204  1.00  0.00     0.014 A 
ATOM     38  C   UNL A   1      40.094  25.219  26.134  1.00  0.00     0.014 A 
ATOM     39  C   UNL A   1      39.383  25.743  28.785  1.00  0.00     0.010 A 
ATOM     40  C   UNL A   1      40.469  26.423  26.732  1.00  0.00     0.010 A 
ATOM     41  C   UNL A   1      40.125  26.693  28.066  1.00  0.00    -0.014 A 
BRANCH  41  42
ATOM     42  C   UNL A   1      40.579  27.956  28.703  1.00  0.00     0.031 A 
ATOM     43  C   UNL A   1      41.995  28.109  29.178  1.00  0.00     0.074 A 
ATOM     44  C   UNL A   1      39.687  28.943  28.919  1.00  0.00     0.049 A 
ATOM     45  N   UNL A   1      42.544  29.098  29.837  1.00  0.00    -0.248 NA
ATOM     46  C   UNL A   1      42.912  26.996  28.891  1.00  0.00     0.031 C 
ATOM     47  C   UNL A   1      38.276  28.905  28.534  1.00  0.00     0.029 A 
ATOM     48  N   UNL A   1      39.831  30.163  29.532  1.00  0.00    -0.354 N 
ATOM     49  C   UNL A   1      43.864  28.725  30.052  1.00  0.00     0.074 A 
ATOM     50  C   UNL A   1      44.024  27.401  29.489  1.00  0.00     0.031 C 
ATOM     51  C   UNL A   1      37.686  30.049  28.911  1.00  0.00     0.029 A 
ATOM     52  C   UNL A   1      38.665  30.885  29.600  1.00  0.00     0.049 A 
ATOM     53  H   UNL A   1      40.689  30.489  29.888  1.00  0.00     0.167 HD
ATOM     54  C   UNL A   1      44.854  29.429  30.652  1.00  0.00     0.037 A 
ATOM     55  C   UNL A   1      38.407  32.078  30.169  1.00  0.00     0.037 A 
ATOM     56  C   UNL A   1      44.699  30.753  31.197  1.00  0.00     0.049 A 
ATOM     57  C   UNL A   1      39.519  32.827  30.853  1.00  0.00     0.074 A 
ATOM     58  C   UNL A   1      45.660  31.569  31.768  1.00  0.00     0.029 A 
ATOM     59  N   UNL A   1      43.502  31.453  31.245  1.00  0.00    -0.354 N 
ATOM     60  N   UNL A   1      40.776  32.488  30.997  1.00  0.00    -0.248 NA
ATOM     61  C   UNL A   1      39.173  34.123  31.451  1.00  0.00     0.031 C 
ATOM     62  C   UNL A   1      45.037  32.745  32.202  1.00  0.00     0.029 A 
ATOM     63  C   UNL A   1      43.696  32.680  31.860  1.00  0.00     0.049 A 
ATOM     64  H   UNL A   1      42.643  31.126  30.894  1.00  0.00     0.167 HD
ATOM     65  C   UNL A   1      41.377  33.535  31.682  1.00  0.00     0.074 A 
ATOM     66  C   UNL A   1      40.349  34.528  31.912  1.00  0.00     0.031 C 
ATOM     67  C   UNL A   1      42.665  33.660  32.084  1.00  0.00     0.037 A 
BRANCH  54  68
ATOM     68  C   UNL A   1      46.204  28.781  30.751  1.00  0.00     0.064 A 
ATOM     69  C   UNL A   1      46.558  27.986  31.852  1.00  0.00     0.173 A 
ATOM     70  C   UNL A   1      47.137  28.916  29.711  1.00  0.00     0.173 A 
ATOM     71  F   UNL A   1      45.704  27.833  32.875  1.00  0.00    -0.203 F 
ATOM     72  C   UNL A   1      47.805  27.371  31.920  1.00  0.00     0.198 A 
ATOM     73  C   UNL A   1      48.374  28.278  29.771  1.00  0.00     0.198 A 
ATOM     74  F   UNL A   1      46.845  29.658  28.633  1.00  0.00    -0.203 F 
ATOM     75  F   UNL A   1      48.136  26.650  32.999  1.00  0.00    -0.200 F 
ATOM     76  C   UNL A   1      48.709  27.511  30.877  1.00  0.00     0.200 A 
ATOM     77  F   UNL A   1      49.240  28.403  28.756  1.00  0.00    -0.200 F 
ATOM     78  F   UNL A   1      49.905  26.910  30.940  1.00  0.00    -0.200 F 
ENDBRANCH  54  68
BRANCH  55  79
ATOM     79  C   UNL A   1      37.035  32.642  30.111  1.00  0.00     0.064 A 
ATOM     80  C   UNL A   1      36.128  32.435  31.158  1.00  0.00     0.173 A 
ATOM     81  C   UNL A   1      36.605  33.400  29.012  1.00  0.00     0.173 A 
ATOM     82  F   UNL A   1      36.487  31.699  32.219  1.00  0.00    -0.203 F 
ATOM     83  C   UNL A   1      34.834  32.952  31.101  1.00  0.00     0.198 A 
ATOM     84  C   UNL A   1      35.321  33.939  28.968  1.00  0.00     0.198 A 
ATOM     85  F   UNL A   1      37.438  33.630  27.986  1.00  0.00    -0.203 F 
ATOM     86  F   UNL A   1      33.973  32.706  32.098  1.00  0.00    -0.200 F 
ATOM     87  C   UNL A   1      34.435  33.709  30.010  1.00  0.00     0.200 A 
ATOM     88  F   UNL A   1      34.943  34.681  27.919  1.00  0.00    -0.200 F 
ATOM     89  F   UNL A   1      33.193  34.211  29.959  1.00  0.00    -0.200 F 
ENDBRANCH  55  79
BRANCH  67  90
ATOM     90  C   UNL A   1      43.042  34.925  32.797  1.00  0.00     0.064 A 
ATOM     91  C   UNL A   1      43.450  36.069  32.096  1.00  0.00     0.173 A 
ATOM     92  C   UNL A   1      42.956  35.007  34.195  1.00  0.00     0.173 A 
ATOM     93  F   UNL A   1      43.566  36.035  30.759  1.00  0.00    -0.203 F 
ATOM     94  C   UNL A   1      43.775  37.243  32.769  1.00  0.00     0.198 A 
ATOM     95  C   UNL A   1      43.255  36.190  34.863  1.00  0.00     0.198 A 
ATOM     96  F   UNL A   1      42.567  33.941  34.912  1.00  0.00    -0.203 F 
ATOM     97  F   UNL A   1      44.202  38.311  32.082  1.00  0.00    -0.200 F 
ATOM     98  C   UNL A   1      43.670  37.305  34.151  1.00  0.00     0.200 A 
ATOM     99  F   UNL A   1      43.144  36.252  36.197  1.00  0.00    -0.200 F 
ATOM    100  F   UNL A   1      43.976  38.438  34.796  1.00  0.00    -0.200 F 
ENDBRANCH  67  90
ENDBRANCH  41  42
ENDBRANCH  33  36
ENDBRANCH  31  32
ENDBRANCH  30  31
ENDBRANCH  29  30
ENDBRANCH  28  29
ENDBRANCH   1  28
TORSDOF 19
ENDMDL
MODEL 2
REMARK VINA RESULT:     -10.9      3.997      9.128
REMARK SMILES [NH3+]C[C@H]1CC[C@@H](C(=O)N[C@H](CC(=O)NCCCCCCNC(=O)c2ccc(-c3c4nc(c(-c5c(F)c(F)c(F)c(F)c5F)c5ccc([nH]5)c(-c5c(F)c(F)c(F)c(F)c5F)c5nc(c(-c6c(F)c(F)c(F)c(F)c6F)c6ccc3[nH]6)C=C5)C=C4)cc2)c2cccs2)O1
REMARK SMILES IDX 16 1 15 2 14 3 12 4 13 5 11 7 10 8 9 9 7 10 8 11 6 13 3 14
REMARK SMILES IDX 4 15 92 16 5 17 2 18 1 19 87 23 88 24 91 25 89 26 90 27
REMARK SMILES IDX 17 28 18 29 19 30 20 31 21 32 22 33 23 35 24 36 25 37 86 38
REMARK SMILES IDX 26 39 85 40 27 41 28 42 29 43 79 44 30 45 84 46 78 47 80 48
REMARK SMILES IDX 31 49 83 50 77 51 76 52 32 54 64 55 44 56 63 57 45 58 48 59
REMARK SMILES IDX 62 60 81 61 46 62 47 63 61 65 82 66 49 67 33 68 34 69 42 70
REMARK SMILES IDX 35 71 36 72 40 73 43 74 37 75 38 76 41 77 39 78 65 79 66 80
REMARK SMILES IDX 74 81 67 82 68 83 72 84 75 85 69 86 70 87 73 88 71 89 50 90
REMARK SMILES IDX 51 91 59 92 52 93 53 94 57 95 60 96 54 97 55 98 58 99 56 100
REMARK H PARENT 14 6 9 12 1 20 1 21 1 22 21 34 80 53 48 64
REMARK Flexibility Score: inf
ROOT
ATOM      1  C   UNL A   1      34.931  31.062  28.212  1.00  0.00     0.021 C 
ENDROOT
BRANCH   1   2
ATOM      2  C   UNL A   1      33.943  30.630  27.128  1.00  0.00     0.116 C 
BRANCH   2   3
ATOM      3  N   UNL A   1      32.902  29.795  27.695  1.00  0.00    -0.356 N 
ATOM      4  C   UNL A   1      32.520  28.527  27.387  1.00  0.00     0.222 C 
ATOM      5  O   UNL A   1      31.541  28.062  27.974  1.00  0.00    -0.275 OA
ATOM      6  H   UNL A   1      32.387  30.215  28.422  1.00  0.00     0.163 HD
BRANCH   4   7
ATOM      7  C   UNL A   1      33.330  27.670  26.452  1.00  0.00     0.130 C 
BRANCH   7   8
ATOM      8  C   UNL A   1      32.644  26.524  25.703  1.00  0.00     0.132 C 
BRANCH   8   9
ATOM      9  N   UNL A   1      31.988  25.488  26.491  1.00  0.00    -0.346 N 
ATOM     10  C   UNL A   1      31.773  24.153  26.416  1.00  0.00     0.249 C 
ATOM     11  O   UNL A   1      31.102  23.687  27.349  1.00  0.00    -0.272 OA
ATOM     12  H   UNL A   1      31.588  25.865  27.309  1.00  0.00     0.164 HD
BRANCH  10  13
ATOM     13  C   UNL A   1      32.239  23.242  25.259  1.00  0.00     0.207 C 
ATOM     14  C   UNL A   1      33.857  21.633  24.712  1.00  0.00     0.174 C 
ATOM     15  C   UNL A   1      32.494  20.986  24.565  1.00  0.00     0.041 C 
ATOM     16  O   UNL A   1      33.635  23.014  25.081  1.00  0.00    -0.359 OA
ATOM     17  C   UNL A   1      31.622  21.852  25.428  1.00  0.00     0.045 C 
BRANCH  14  18
ATOM     18  C   UNL A   1      34.731  20.944  25.780  1.00  0.00     0.291 C 
BRANCH  18  19
ATOM     19  N   UNL A   1      35.985  20.434  25.202  1.00  0.00    -0.355 N 
ATOM     20  H   UNL A   1      36.221  19.542  25.636  1.00  0.00     0.344 HD
ATOM     21  H   UNL A   1      36.735  21.104  25.373  1.00  0.00     0.344 HD
ATOM     22  H   UNL A   1      35.867  20.304  24.198  1.00  0.00     0.344 HD
ENDBRANCH  18  19
ENDBRANCH  14  18
ENDBRANCH  10  13
ENDBRANCH   8   9
BRANCH   8  23
ATOM     23  C   UNL A   1      32.017  26.840  24.356  1.00  0.00     0.027 A 
ATOM     24  C   UNL A   1      32.355  26.280  23.130  1.00  0.00     0.017 A 
ATOM     25  S   UNL A   1      30.588  27.776  24.187  1.00  0.00    -0.147 S 
ATOM     26  C   UNL A   1      31.552  26.752  22.052  1.00  0.00     0.012 A 
ATOM     27  C   UNL A   1      30.574  27.610  22.488  1.00  0.00     0.065 A 
ENDBRANCH   8  23
ENDBRANCH   7   8
ENDBRANCH   4   7
ENDBRANCH   2   3
ENDBRANCH   1   2
BRANCH   1  28
ATOM     28  C   UNL A   1      34.396  32.147  29.146  1.00  0.00     0.002 C 
BRANCH  28  29
ATOM     29  C   UNL A   1      34.465  33.569  28.583  1.00  0.00     0.002 C 
BRANCH  29  30
ATOM     30  C   UNL A   1      33.199  34.417  28.753  1.00  0.00     0.021 C 
BRANCH  30  31
ATOM     31  C   UNL A   1      33.422  35.835  29.280  1.00  0.00     0.116 C 
BRANCH  31  32
ATOM     32  N   UNL A   1      32.583  36.134  30.429  1.00  0.00    -0.352 N 
ATOM     33  C   UNL A   1      32.676  35.731  31.736  1.00  0.00     0.251 C 
ATOM     34  H   UNL A   1      31.820  36.725  30.237  1.00  0.00     0.163 HD
ATOM     35  O   UNL A   1      31.739  35.941  32.504  1.00  0.00    -0.269 OA
BRANCH  33  36
ATOM     36  C   UNL A   1      33.877  35.028  32.236  1.00  0.00     0.039 A 
ATOM     37  C   UNL A   1      33.727  33.742  32.766  1.00  0.00     0.014 A 
ATOM     38  C   UNL A   1      35.134  35.639  32.241  1.00  0.00     0.014 A 
ATOM     39  C   UNL A   1      34.843  33.042  33.231  1.00  0.00     0.010 A 
ATOM     40  C   UNL A   1      36.257  34.919  32.653  1.00  0.00     0.010 A 
ATOM     41  C   UNL A   1      36.123  33.611  33.143  1.00  0.00    -0.014 A 
BRANCH  41  42
ATOM     42  C   UNL A   1      37.334  32.840  33.525  1.00  0.00     0.031 A 
ATOM     43  C   UNL A   1      38.055  33.131  34.811  1.00  0.00     0.074 A 
ATOM     44  C   UNL A   1      37.827  31.920  32.672  1.00  0.00     0.049 A 
ATOM     45  N   UNL A   1      39.175  32.626  35.264  1.00  0.00    -0.248 NA
ATOM     46  C   UNL A   1      37.446  34.135  35.696  1.00  0.00     0.031 C 
ATOM     47  C   UNL A   1      37.238  31.568  31.380  1.00  0.00     0.029 A 
ATOM     48  N   UNL A   1      38.945  31.128  32.755  1.00  0.00    -0.354 N 
ATOM     49  C   UNL A   1      39.411  33.255  36.478  1.00  0.00     0.074 A 
ATOM     50  C   UNL A   1      38.339  34.209  36.673  1.00  0.00     0.031 C 
ATOM     51  C   UNL A   1      37.994  30.626  30.795  1.00  0.00     0.029 A 
ATOM     52  C   UNL A   1      39.142  30.338  31.651  1.00  0.00     0.049 A 
ATOM     53  H   UNL A   1      39.549  31.128  33.533  1.00  0.00     0.167 HD
ATOM     54  C   UNL A   1      40.422  33.047  37.356  1.00  0.00     0.037 A 
ATOM     55  C   UNL A   1      40.143  29.487  31.350  1.00  0.00     0.037 A 
ATOM     56  C   UNL A   1      41.479  32.086  37.169  1.00  0.00     0.049 A 
ATOM     57  C   UNL A   1      41.267  29.294  32.330  1.00  0.00     0.074 A 
ATOM     58  C   UNL A   1      42.511  31.761  38.031  1.00  0.00     0.029 A 
ATOM     59  N   UNL A   1      41.642  31.301  36.037  1.00  0.00    -0.354 N 
ATOM     60  N   UNL A   1      41.447  29.853  33.502  1.00  0.00    -0.248 NA
ATOM     61  C   UNL A   1      42.327  28.352  31.945  1.00  0.00     0.031 C 
ATOM     62  C   UNL A   1      43.325  30.811  37.404  1.00  0.00     0.029 A 
ATOM     63  C   UNL A   1      42.774  30.512  36.169  1.00  0.00     0.049 A 
ATOM     64  H   UNL A   1      41.043  31.305  35.257  1.00  0.00     0.167 HD
ATOM     65  C   UNL A   1      42.625  29.316  34.003  1.00  0.00     0.074 A 
ATOM     66  C   UNL A   1      43.110  28.376  33.014  1.00  0.00     0.031 C 
ATOM     67  C   UNL A   1      43.247  29.580  35.178  1.00  0.00     0.037 A 
BRANCH  54  68
ATOM     68  C   UNL A   1      40.436  33.874  38.608  1.00  0.00     0.064 A 
ATOM     69  C   UNL A   1      39.707  33.495  39.746  1.00  0.00     0.173 A 
ATOM     70  C   UNL A   1      41.226  35.031  38.689  1.00  0.00     0.173 A 
ATOM     71  F   UNL A   1      38.930  32.402  39.716  1.00  0.00    -0.203 F 
ATOM     72  C   UNL A   1      39.748  34.259  40.910  1.00  0.00     0.198 A 
ATOM     73  C   UNL A   1      41.285  35.777  39.863  1.00  0.00     0.198 A 
ATOM     74  F   UNL A   1      41.948  35.431  37.632  1.00  0.00    -0.203 F 
ATOM     75  F   UNL A   1      39.012  33.900  41.970  1.00  0.00    -0.200 F 
ATOM     76  C   UNL A   1      40.543  35.395  40.969  1.00  0.00     0.200 A 
ATOM     77  F   UNL A   1      42.064  36.867  39.924  1.00  0.00    -0.200 F 
ATOM     78  F   UNL A   1      40.589  36.123  42.093  1.00  0.00    -0.200 F 
ENDBRANCH  54  68
BRANCH  55  79
ATOM     79  C   UNL A   1      40.122  28.749  30.062  1.00  0.00     0.064 A 
ATOM     80  C   UNL A   1      39.504  27.495  29.963  1.00  0.00     0.173 A 
ATOM     81  C   UNL A   1      40.714  29.281  28.908  1.00  0.00     0.173 A 
ATOM     82  F   UNL A   1      38.944  26.937  31.046  1.00  0.00    -0.203 F 
ATOM     83  C   UNL A   1      39.493  26.792  28.760  1.00  0.00     0.198 A 
ATOM     84  C   UNL A   1      40.678  28.589  27.698  1.00  0.00     0.198 A 
ATOM     85  F   UNL A   1      41.313  30.479  28.950  1.00  0.00    -0.203 F 
ATOM     86  F   UNL A   1      38.930  25.578  28.701  1.00  0.00    -0.200 F 
ATOM     87  C   UNL A   1      40.073  27.343  27.627  1.00  0.00     0.200 A 
ATOM     88  F   UNL A   1      41.229  29.130  26.603  1.00  0.00    -0.200 F 
ATOM     89  F   UNL A   1      40.057  26.670  26.468  1.00  0.00    -0.200 F 
ENDBRANCH  55  79
BRANCH  67  90
ATOM     90  C   UNL A   1      44.512  28.828  35.469  1.00  0.00     0.064 A 
ATOM     91  C   UNL A   1      44.494  27.586  36.119  1.00  0.00     0.173 A 
ATOM     92  C   UNL A   1      45.753  29.336  35.056  1.00  0.00     0.173 A 
ATOM     93  F   UNL A   1      43.334  27.067  36.549  1.00  0.00    -0.203 F 
ATOM     94  C   UNL A   1      45.674  26.888  36.362  1.00  0.00     0.198 A 
ATOM     95  C   UNL A   1      46.928  28.624  35.276  1.00  0.00     0.198 A 
ATOM     96  F   UNL A   1      45.824  30.519  34.426  1.00  0.00    -0.203 F 
ATOM     97  F   UNL A   1      45.637  25.722  37.022  1.00  0.00    -0.200 F 
ATOM     98  C   UNL A   1      46.889  27.404  35.934  1.00  0.00     0.200 A 
ATOM     99  F   UNL A   1      48.099  29.118  34.853  1.00  0.00    -0.200 F 
ATOM    100  F   UNL A   1      48.022  26.727  36.163  1.00  0.00    -0.200 F 
ENDBRANCH  67  90
ENDBRANCH  41  42
ENDBRANCH  33  36
ENDBRANCH  31  32
ENDBRANCH  30  31
ENDBRANCH  29  30
ENDBRANCH  28  29
ENDBRANCH   1  28
TORSDOF 19
ENDMDL
MODEL 3
REMARK VINA RESULT:     -10.8      4.056      9.116
REMARK SMILES [NH3+]C[C@H]1CC[C@@H](C(=O)N[C@H](CC(=O)NCCCCCCNC(=O)c2ccc(-c3c4nc(c(-c5c(F)c(F)c(F)c(F)c5F)c5ccc([nH]5)c(-c5c(F)c(F)c(F)c(F)c5F)c5nc(c(-c6c(F)c(F)c(F)c(F)c6F)c6ccc3[nH]6)C=C5)C=C4)cc2)c2cccs2)O1
REMARK SMILES IDX 16 1 15 2 14 3 12 4 13 5 11 7 10 8 9 9 7 10 8 11 6 13 3 14
REMARK SMILES IDX 4 15 92 16 5 17 2 18 1 19 87 23 88 24 91 25 89 26 90 27
REMARK SMILES IDX 17 28 18 29 19 30 20 31 21 32 22 33 23 35 24 36 25 37 86 38
REMARK SMILES IDX 26 39 85 40 27 41 28 42 29 43 79 44 30 45 84 46 78 47 80 48
REMARK SMILES IDX 31 49 83 50 77 51 76 52 32 54 64 55 44 56 63 57 45 58 48 59
REMARK SMILES IDX 62 60 81 61 46 62 47 63 61 65 82 66 49 67 33 68 34 69 42 70
REMARK SMILES IDX 35 71 36 72 40 73 43 74 37 75 38 76 41 77 39 78 65 79 66 80
REMARK SMILES IDX 74 81 67 82 68 83 72 84 75 85 69 86 70 87 73 88 71 89 50 90
REMARK SMILES IDX 51 91 59 92 52 93 53 94 57 95 60 96 54 97 55 98 58 99 56 100
REMARK H PARENT 14 6 9 12 1 20 1 21 1 22 21 34 80 53 48 64
REMARK Flexibility Score: inf
ROOT
ATOM      1  C   UNL A   1      35.541  31.328  27.813  1.00  0.00     0.021 C 
ENDROOT
BRANCH   1   2
ATOM      2  C   UNL A   1      35.372  29.829  27.562  1.00  0.00     0.116 C 
BRANCH   2   3
ATOM      3  N   UNL A   1      34.063  29.386  28.002  1.00  0.00    -0.356 N 
ATOM      4  C   UNL A   1      33.088  28.714  27.335  1.00  0.00     0.222 C 
ATOM      5  O   UNL A   1      32.019  28.520  27.920  1.00  0.00    -0.275 OA
ATOM      6  H   UNL A   1      33.846  29.608  28.937  1.00  0.00     0.163 HD
BRANCH   4   7
ATOM      7  C   UNL A   1      33.335  28.119  25.976  1.00  0.00     0.130 C 
BRANCH   7   8
ATOM      8  C   UNL A   1      32.244  27.265  25.323  1.00  0.00     0.132 C 
BRANCH   8   9
ATOM      9  N   UNL A   1      31.768  26.092  26.046  1.00  0.00    -0.346 N 
ATOM     10  C   UNL A   1      32.247  24.885  26.431  1.00  0.00     0.249 C 
ATOM     11  O   UNL A   1      31.427  24.172  27.027  1.00  0.00    -0.272 OA
ATOM     12  H   UNL A   1      30.835  26.211  26.338  1.00  0.00     0.164 HD
BRANCH  10  13
ATOM     13  C   UNL A   1      33.666  24.355  26.126  1.00  0.00     0.207 C 
ATOM     14  C   UNL A   1      34.882  22.362  25.890  1.00  0.00     0.174 C 
ATOM     15  C   UNL A   1      34.966  23.113  24.575  1.00  0.00     0.041 C 
ATOM     16  O   UNL A   1      34.128  23.190  26.805  1.00  0.00    -0.359 OA
ATOM     17  C   UNL A   1      33.771  24.020  24.636  1.00  0.00     0.045 C 
BRANCH  14  18
ATOM     18  C   UNL A   1      34.196  20.987  25.748  1.00  0.00     0.291 C 
BRANCH  18  19
ATOM     19  N   UNL A   1      33.288  20.721  26.876  1.00  0.00    -0.355 N 
ATOM     20  H   UNL A   1      33.836  20.531  27.715  1.00  0.00     0.344 HD
ATOM     21  H   UNL A   1      32.707  19.911  26.659  1.00  0.00     0.344 HD
ATOM     22  H   UNL A   1      32.694  21.534  27.033  1.00  0.00     0.344 HD
ENDBRANCH  18  19
ENDBRANCH  14  18
ENDBRANCH  10  13
ENDBRANCH   8   9
BRANCH   8  23
ATOM     23  C   UNL A   1      31.223  27.975  24.451  1.00  0.00     0.027 A 
ATOM     24  C   UNL A   1      30.910  29.328  24.471  1.00  0.00     0.017 A 
ATOM     25  S   UNL A   1      30.464  27.228  23.104  1.00  0.00    -0.147 S 
ATOM     26  C   UNL A   1      29.936  29.699  23.499  1.00  0.00     0.012 A 
ATOM     27  C   UNL A   1      29.576  28.633  22.713  1.00  0.00     0.065 A 
ENDBRANCH   8  23
ENDBRANCH   7   8
ENDBRANCH   4   7
ENDBRANCH   2   3
ENDBRANCH   1   2
BRANCH   1  28
ATOM     28  C   UNL A   1      34.328  31.991  28.464  1.00  0.00     0.002 C 
BRANCH  28  29
ATOM     29  C   UNL A   1      34.507  33.477  28.787  1.00  0.00     0.002 C 
BRANCH  29  30
ATOM     30  C   UNL A   1      33.244  34.340  28.681  1.00  0.00     0.021 C 
BRANCH  30  31
ATOM     31  C   UNL A   1      33.400  35.794  29.127  1.00  0.00     0.116 C 
BRANCH  31  32
ATOM     32  N   UNL A   1      32.547  36.119  30.259  1.00  0.00    -0.352 N 
ATOM     33  C   UNL A   1      32.615  35.732  31.572  1.00  0.00     0.251 C 
ATOM     34  H   UNL A   1      31.795  36.716  30.047  1.00  0.00     0.163 HD
ATOM     35  O   UNL A   1      31.669  35.963  32.323  1.00  0.00    -0.269 OA
BRANCH  33  36
ATOM     36  C   UNL A   1      33.799  35.021  32.100  1.00  0.00     0.039 A 
ATOM     37  C   UNL A   1      33.653  33.692  32.512  1.00  0.00     0.014 A 
ATOM     38  C   UNL A   1      35.033  35.662  32.246  1.00  0.00     0.014 A 
ATOM     39  C   UNL A   1      34.755  32.985  32.999  1.00  0.00     0.010 A 
ATOM     40  C   UNL A   1      36.146  34.940  32.679  1.00  0.00     0.010 A 
ATOM     41  C   UNL A   1      36.020  33.593  33.051  1.00  0.00    -0.014 A 
BRANCH  41  42
ATOM     42  C   UNL A   1      37.225  32.824  33.458  1.00  0.00     0.031 A 
ATOM     43  C   UNL A   1      37.928  33.128  34.749  1.00  0.00     0.074 A 
ATOM     44  C   UNL A   1      37.728  31.895  32.620  1.00  0.00     0.049 A 
ATOM     45  N   UNL A   1      39.042  32.627  35.222  1.00  0.00    -0.248 NA
ATOM     46  C   UNL A   1      37.310  34.142  35.616  1.00  0.00     0.031 C 
ATOM     47  C   UNL A   1      37.156  31.530  31.325  1.00  0.00     0.029 A 
ATOM     48  N   UNL A   1      38.844  31.103  32.726  1.00  0.00    -0.354 N 
ATOM     49  C   UNL A   1      39.263  33.268  36.433  1.00  0.00     0.074 A 
ATOM     50  C   UNL A   1      38.189  34.225  36.604  1.00  0.00     0.031 C 
ATOM     51  C   UNL A   1      37.918  30.581  30.759  1.00  0.00     0.029 A 
ATOM     52  C   UNL A   1      39.054  30.301  31.633  1.00  0.00     0.049 A 
ATOM     53  H   UNL A   1      39.437  31.110  33.512  1.00  0.00     0.167 HD
ATOM     54  C   UNL A   1      40.262  33.067  37.326  1.00  0.00     0.037 A 
ATOM     55  C   UNL A   1      40.058  29.447  31.354  1.00  0.00     0.037 A 
ATOM     56  C   UNL A   1      41.320  32.103  37.163  1.00  0.00     0.049 A 
ATOM     57  C   UNL A   1      41.169  29.262  32.351  1.00  0.00     0.074 A 
ATOM     58  C   UNL A   1      42.340  31.786  38.043  1.00  0.00     0.029 A 
ATOM     59  N   UNL A   1      41.497  31.307  36.042  1.00  0.00    -0.354 N 
ATOM     60  N   UNL A   1      41.334  29.833  33.519  1.00  0.00    -0.248 NA
ATOM     61  C   UNL A   1      42.232  28.315  31.989  1.00  0.00     0.031 C 
ATOM     62  C   UNL A   1      43.162  30.829  37.436  1.00  0.00     0.029 A 
ATOM     63  C   UNL A   1      42.627  30.518  36.197  1.00  0.00     0.049 A 
ATOM     64  H   UNL A   1      40.908  31.303  35.254  1.00  0.00     0.167 HD
ATOM     65  C   UNL A   1      42.504  29.300  34.041  1.00  0.00     0.074 A 
ATOM     66  C   UNL A   1      43.002  28.349  33.069  1.00  0.00     0.031 C 
ATOM     67  C   UNL A   1      43.111  29.576  35.221  1.00  0.00     0.037 A 
BRANCH  54  68
ATOM     68  C   UNL A   1      40.260  33.907  38.570  1.00  0.00     0.064 A 
ATOM     69  C   UNL A   1      40.945  35.130  38.630  1.00  0.00     0.173 A 
ATOM     70  C   UNL A   1      39.527  33.508  39.698  1.00  0.00     0.173 A 
ATOM     71  F   UNL A   1      41.667  35.551  37.581  1.00  0.00    -0.203 F 
ATOM     72  C   UNL A   1      40.915  35.912  39.783  1.00  0.00     0.198 A 
ATOM     73  C   UNL A   1      39.478  34.305  40.839  1.00  0.00     0.198 A 
ATOM     74  F   UNL A   1      38.848  32.351  39.689  1.00  0.00    -0.203 F 
ATOM     75  F   UNL A   1      41.609  37.057  39.831  1.00  0.00    -0.200 F 
ATOM     76  C   UNL A   1      40.176  35.502  40.883  1.00  0.00     0.200 A 
ATOM     77  F   UNL A   1      38.752  33.915  41.896  1.00  0.00    -0.200 F 
ATOM     78  F   UNL A   1      40.142  36.260  41.987  1.00  0.00    -0.200 F 
ENDBRANCH  54  68
BRANCH  55  79
ATOM     79  C   UNL A   1      40.053  28.695  30.074  1.00  0.00     0.064 A 
ATOM     80  C   UNL A   1      40.653  29.227  28.926  1.00  0.00     0.173 A 
ATOM     81  C   UNL A   1      39.452  27.432  29.973  1.00  0.00     0.173 A 
ATOM     82  F   UNL A   1      41.221  30.442  28.969  1.00  0.00    -0.203 F 
ATOM     83  C   UNL A   1      40.640  28.531  27.719  1.00  0.00     0.198 A 
ATOM     84  C   UNL A   1      39.463  26.724  28.772  1.00  0.00     0.198 A 
ATOM     85  F   UNL A   1      38.868  26.877  31.045  1.00  0.00    -0.203 F 
ATOM     86  F   UNL A   1      41.187  29.080  26.625  1.00  0.00    -0.200 F 
ATOM     87  C   UNL A   1      40.051  27.278  27.645  1.00  0.00     0.200 A 
ATOM     88  F   UNL A   1      38.905  25.508  28.708  1.00  0.00    -0.200 F 
ATOM     89  F   UNL A   1      40.044  26.606  26.486  1.00  0.00    -0.200 F 
ENDBRANCH  55  79
BRANCH  67  90
ATOM     90  C   UNL A   1      44.371  28.825  35.537  1.00  0.00     0.064 A 
ATOM     91  C   UNL A   1      45.633  29.334  35.199  1.00  0.00     0.173 A 
ATOM     92  C   UNL A   1      44.318  27.601  36.222  1.00  0.00     0.173 A 
ATOM     93  F   UNL A   1      45.735  30.492  34.527  1.00  0.00    -0.203 F 
ATOM     94  C   UNL A   1      46.795  28.638  35.519  1.00  0.00     0.198 A 
ATOM     95  C   UNL A   1      45.482  26.920  36.564  1.00  0.00     0.198 A 
ATOM     96  F   UNL A   1      43.135  27.073  36.571  1.00  0.00    -0.203 F 
ATOM     97  F   UNL A   1      47.989  29.123  35.149  1.00  0.00    -0.200 F 
ATOM     98  C   UNL A   1      46.720  27.436  36.207  1.00  0.00     0.200 A 
ATOM     99  F   UNL A   1      45.409  25.765  37.238  1.00  0.00    -0.200 F 
ATOM    100  F   UNL A   1      47.840  26.771  36.520  1.00  0.00    -0.200 F 
ENDBRANCH  67  90
ENDBRANCH  41  42
ENDBRANCH  33  36
ENDBRANCH  31  32
ENDBRANCH  30  31
ENDBRANCH  29  30
ENDBRANCH  28  29
ENDBRANCH   1  28
TORSDOF 19
ENDMDL
