MODEL 1
REMARK VINA RESULT:     -11.0      0.000      0.000
REMARK SMILES CCCCC[C@@H]1C[C@H](CC(=O)NCCCCCCNC(=O)c2ccc(-c3c4nc(c(-c5c(F)c(F)c(F)c(F)c5F)c5ccc([nH]5)c(-c5c(F)c(F)c(F)c(F)c5F)c5nc(c(-c6c(F)c(F)c(F)c(F)c6F)c6ccc3[nH]6)C=C5)C=C4)cc2)C(=O)O1
REMARK SMILES IDX 14 1 13 2 12 3 10 4 11 5 9 7 8 8 6 9 7 10 87 11 85 12 86 13
REMARK SMILES IDX 5 14 4 15 3 16 2 17 1 18 15 19 16 20 17 21 18 22 19 23 20 24
REMARK SMILES IDX 21 26 22 27 23 28 84 29 24 30 83 31 25 32 26 33 27 34 77 35
REMARK SMILES IDX 28 36 82 37 76 38 78 39 29 40 81 41 75 42 74 43 30 45 62 46
REMARK SMILES IDX 42 47 61 48 43 49 46 50 60 51 79 52 44 53 45 54 59 56 80 57
REMARK SMILES IDX 47 58 31 59 32 60 40 61 33 62 34 63 38 64 41 65 35 66 36 67
REMARK SMILES IDX 39 68 37 69 63 70 64 71 72 72 65 73 66 74 70 75 73 76 67 77
REMARK SMILES IDX 68 78 71 79 69 80 48 81 49 82 57 83 50 84 51 85 55 86 58 87
REMARK SMILES IDX 52 88 53 89 56 90 54 91
REMARK H PARENT 12 6 19 25 78 44 46 55
REMARK Flexibility Score: inf
ROOT
ATOM      1  C   UNL A   1      33.661  29.202  26.264  1.00  0.00     0.021 C 
ENDROOT
BRANCH   1   2
ATOM      2  C   UNL A   1      33.728  27.748  25.807  1.00  0.00     0.116 C 
BRANCH   2   3
ATOM      3  N   UNL A   1      32.745  26.945  26.518  1.00  0.00    -0.356 N 
ATOM      4  C   UNL A   1      31.930  25.947  26.078  1.00  0.00     0.220 C 
ATOM      5  O   UNL A   1      31.052  25.531  26.836  1.00  0.00    -0.275 OA
ATOM      6  H   UNL A   1      32.653  27.158  27.474  1.00  0.00     0.163 HD
BRANCH   4   7
ATOM      7  C   UNL A   1      32.086  25.373  24.688  1.00  0.00     0.115 C 
BRANCH   7   8
ATOM      8  C   UNL A   1      31.170  25.941  23.596  1.00  0.00     0.112 C 
ATOM      9  C   UNL A   1      29.813  27.830  22.942  1.00  0.00     0.177 C 
ATOM     10  C   UNL A   1      29.974  26.772  24.019  1.00  0.00     0.061 C 
ATOM     11  O   UNL A   1      31.095  27.886  22.282  1.00  0.00    -0.462 OA
ATOM     12  C   UNL A   1      31.901  26.865  22.672  1.00  0.00     0.309 C 
ATOM     13  O   UNL A   1      33.049  26.717  22.274  1.00  0.00    -0.252 OA
BRANCH   9  14
ATOM     14  C   UNL A   1      29.509  29.271  23.391  1.00  0.00     0.045 C 
BRANCH  14  15
ATOM     15  C   UNL A   1      28.168  29.948  23.089  1.00  0.00     0.004 C 
BRANCH  15  16
ATOM     16  C   UNL A   1      27.939  31.429  23.408  1.00  0.00    -0.000 C 
BRANCH  16  17
ATOM     17  C   UNL A   1      28.634  32.462  22.518  1.00  0.00    -0.003 C 
ATOM     18  C   UNL A   1      27.984  32.651  21.154  1.00  0.00     0.004 C 
ENDBRANCH  16  17
ENDBRANCH  15  16
ENDBRANCH  14  15
ENDBRANCH   9  14
ENDBRANCH   7   8
ENDBRANCH   4   7
ENDBRANCH   2   3
ENDBRANCH   1   2
BRANCH   1  19
ATOM     19  C   UNL A   1      32.301  29.650  26.811  1.00  0.00     0.002 C 
BRANCH  19  20
ATOM     20  C   UNL A   1      31.640  30.795  26.047  1.00  0.00     0.002 C 
BRANCH  20  21
ATOM     21  C   UNL A   1      31.427  32.076  26.860  1.00  0.00     0.021 C 
BRANCH  21  22
ATOM     22  C   UNL A   1      32.695  32.845  27.225  1.00  0.00     0.116 C 
BRANCH  22  23
ATOM     23  N   UNL A   1      32.430  34.225  27.609  1.00  0.00    -0.352 N 
ATOM     24  C   UNL A   1      33.004  34.975  28.609  1.00  0.00     0.251 C 
ATOM     25  H   UNL A   1      31.741  34.685  27.077  1.00  0.00     0.163 HD
ATOM     26  O   UNL A   1      32.537  36.063  28.923  1.00  0.00    -0.269 OA
BRANCH  24  27
ATOM     27  C   UNL A   1      34.179  34.442  29.328  1.00  0.00     0.039 A 
ATOM     28  C   UNL A   1      33.991  33.750  30.525  1.00  0.00     0.014 A 
ATOM     29  C   UNL A   1      35.461  34.596  28.794  1.00  0.00     0.014 A 
ATOM     30  C   UNL A   1      35.084  33.140  31.146  1.00  0.00     0.010 A 
ATOM     31  C   UNL A   1      36.530  33.913  29.364  1.00  0.00     0.010 A 
ATOM     32  C   UNL A   1      36.355  33.178  30.547  1.00  0.00    -0.014 A 
BRANCH  32  33
ATOM     33  C   UNL A   1      37.506  32.449  31.141  1.00  0.00     0.031 A 
ATOM     34  C   UNL A   1      38.016  32.819  32.507  1.00  0.00     0.074 A 
ATOM     35  C   UNL A   1      38.132  31.494  30.427  1.00  0.00     0.049 A 
ATOM     36  N   UNL A   1      39.021  32.320  33.181  1.00  0.00    -0.248 NA
ATOM     37  C   UNL A   1      37.322  33.918  33.195  1.00  0.00     0.031 C 
ATOM     38  C   UNL A   1      37.775  31.083  29.069  1.00  0.00     0.029 A 
ATOM     39  N   UNL A   1      39.204  30.695  30.743  1.00  0.00    -0.354 N 
ATOM     40  C   UNL A   1      39.084  33.048  34.361  1.00  0.00     0.074 A 
ATOM     41  C   UNL A   1      38.063  34.069  34.281  1.00  0.00     0.031 C 
ATOM     42  C   UNL A   1      38.585  30.085  28.684  1.00  0.00     0.029 A 
ATOM     43  C   UNL A   1      39.543  29.809  29.749  1.00  0.00     0.049 A 
ATOM     44  H   UNL A   1      39.683  30.751  31.602  1.00  0.00     0.167 HD
ATOM     45  C   UNL A   1      39.896  32.863  35.429  1.00  0.00     0.037 A 
ATOM     46  C   UNL A   1      40.517  28.880  29.704  1.00  0.00     0.037 A 
ATOM     47  C   UNL A   1      40.902  31.836  35.510  1.00  0.00     0.049 A 
ATOM     48  C   UNL A   1      41.419  28.702  30.896  1.00  0.00     0.074 A 
ATOM     49  C   UNL A   1      41.737  31.527  36.569  1.00  0.00     0.029 A 
ATOM     50  N   UNL A   1      41.216  30.956  34.484  1.00  0.00    -0.354 N 
ATOM     51  N   UNL A   1      41.414  29.341  32.041  1.00  0.00    -0.248 NA
ATOM     52  C   UNL A   1      42.459  27.669  30.790  1.00  0.00     0.031 C 
ATOM     53  C   UNL A   1      42.595  30.498  36.163  1.00  0.00     0.029 A 
ATOM     54  C   UNL A   1      42.251  30.122  34.874  1.00  0.00     0.049 A 
ATOM     55  H   UNL A   1      40.767  30.927  33.608  1.00  0.00     0.167 HD
ATOM     56  C   UNL A   1      42.423  28.767  32.803  1.00  0.00     0.074 A 
ATOM     57  C   UNL A   1      43.011  27.720  31.993  1.00  0.00     0.031 C 
ATOM     58  C   UNL A   1      42.826  29.080  34.060  1.00  0.00     0.037 A 
BRANCH  45  59
ATOM     59  C   UNL A   1      39.728  33.798  36.594  1.00  0.00     0.064 A 
ATOM     60  C   UNL A   1      40.390  35.037  36.648  1.00  0.00     0.173 A 
ATOM     61  C   UNL A   1      38.888  33.460  37.666  1.00  0.00     0.173 A 
ATOM     62  F   UNL A   1      41.212  35.407  35.655  1.00  0.00    -0.203 F 
ATOM     63  C   UNL A   1      40.254  35.876  37.751  1.00  0.00     0.198 A 
ATOM     64  C   UNL A   1      38.726  34.320  38.750  1.00  0.00     0.198 A 
ATOM     65  F   UNL A   1      38.225  32.295  37.665  1.00  0.00    -0.203 F 
ATOM     66  F   UNL A   1      40.951  37.020  37.809  1.00  0.00    -0.200 F 
ATOM     67  C   UNL A   1      39.418  35.521  38.797  1.00  0.00     0.200 A 
ATOM     68  F   UNL A   1      37.904  33.982  39.753  1.00  0.00    -0.200 F 
ATOM     69  F   UNL A   1      39.288  36.330  39.857  1.00  0.00    -0.200 F 
ENDBRANCH  45  59
BRANCH  46  70
ATOM     70  C   UNL A   1      40.661  28.016  28.502  1.00  0.00     0.064 A 
ATOM     71  C   UNL A   1      41.446  28.424  27.414  1.00  0.00     0.173 A 
ATOM     72  C   UNL A   1      40.030  26.767  28.417  1.00  0.00     0.173 A 
ATOM     73  F   UNL A   1      42.055  29.620  27.440  1.00  0.00    -0.203 F 
ATOM     74  C   UNL A   1      41.580  27.625  26.281  1.00  0.00     0.198 A 
ATOM     75  C   UNL A   1      40.188  25.954  27.295  1.00  0.00     0.198 A 
ATOM     76  F   UNL A   1      39.272  26.326  29.432  1.00  0.00    -0.203 F 
ATOM     77  F   UNL A   1      42.302  28.059  25.240  1.00  0.00    -0.200 F 
ATOM     78  C   UNL A   1      40.957  26.387  26.225  1.00  0.00     0.200 A 
ATOM     79  F   UNL A   1      39.598  24.752  27.252  1.00  0.00    -0.200 F 
ATOM     80  F   UNL A   1      41.094  25.615  25.139  1.00  0.00    -0.200 F 
ENDBRANCH  46  70
BRANCH  58  81
ATOM     81  C   UNL A   1      43.931  28.256  34.657  1.00  0.00     0.064 A 
ATOM     82  C   UNL A   1      43.674  27.058  35.341  1.00  0.00     0.173 A 
ATOM     83  C   UNL A   1      45.270  28.650  34.505  1.00  0.00     0.173 A 
ATOM     84  F   UNL A   1      42.412  26.644  35.527  1.00  0.00    -0.203 F 
ATOM     85  C   UNL A   1      44.715  26.302  35.876  1.00  0.00     0.198 A 
ATOM     86  C   UNL A   1      46.309  27.873  35.009  1.00  0.00     0.198 A 
ATOM     87  F   UNL A   1      45.572  29.782  33.852  1.00  0.00    -0.203 F 
ATOM     88  F   UNL A   1      44.443  25.188  36.570  1.00  0.00    -0.200 F 
ATOM     89  C   UNL A   1      46.031  26.704  35.701  1.00  0.00     0.200 A 
ATOM     90  F   UNL A   1      47.580  28.255  34.825  1.00  0.00    -0.200 F 
ATOM     91  F   UNL A   1      47.030  25.969  36.207  1.00  0.00    -0.200 F 
ENDBRANCH  58  81
ENDBRANCH  32  33
ENDBRANCH  24  27
ENDBRANCH  22  23
ENDBRANCH  21  22
ENDBRANCH  20  21
ENDBRANCH  19  20
ENDBRANCH   1  19
TORSDOF 18
ENDMDL
MODEL 2
REMARK VINA RESULT:     -10.9      5.987     11.605
REMARK SMILES CCCCC[C@@H]1C[C@H](CC(=O)NCCCCCCNC(=O)c2ccc(-c3c4nc(c(-c5c(F)c(F)c(F)c(F)c5F)c5ccc([nH]5)c(-c5c(F)c(F)c(F)c(F)c5F)c5nc(c(-c6c(F)c(F)c(F)c(F)c6F)c6ccc3[nH]6)C=C5)C=C4)cc2)C(=O)O1
REMARK SMILES IDX 14 1 13 2 12 3 10 4 11 5 9 7 8 8 6 9 7 10 87 11 85 12 86 13
REMARK SMILES IDX 5 14 4 15 3 16 2 17 1 18 15 19 16 20 17 21 18 22 19 23 20 24
REMARK SMILES IDX 21 26 22 27 23 28 84 29 24 30 83 31 25 32 26 33 27 34 77 35
REMARK SMILES IDX 28 36 82 37 76 38 78 39 29 40 81 41 75 42 74 43 30 45 62 46
REMARK SMILES IDX 42 47 61 48 43 49 46 50 60 51 79 52 44 53 45 54 59 56 80 57
REMARK SMILES IDX 47 58 31 59 32 60 40 61 33 62 34 63 38 64 41 65 35 66 36 67
REMARK SMILES IDX 39 68 37 69 63 70 64 71 72 72 65 73 66 74 70 75 73 76 67 77
REMARK SMILES IDX 68 78 71 79 69 80 48 81 49 82 57 83 50 84 51 85 55 86 58 87
REMARK SMILES IDX 52 88 53 89 56 90 54 91
REMARK H PARENT 12 6 19 25 78 44 46 55
REMARK Flexibility Score: inf
ROOT
ATOM      1  C   UNL A   1      36.742  23.297  24.607  1.00  0.00     0.021 C 
ENDROOT
BRANCH   1   2
ATOM      2  C   UNL A   1      35.589  22.926  23.680  1.00  0.00     0.116 C 
BRANCH   2   3
ATOM      3  N   UNL A   1      34.642  24.027  23.580  1.00  0.00    -0.356 N 
ATOM      4  C   UNL A   1      33.641  24.414  24.415  1.00  0.00     0.220 C 
ATOM      5  O   UNL A   1      32.856  25.282  24.028  1.00  0.00    -0.275 OA
ATOM      6  H   UNL A   1      34.743  24.584  22.774  1.00  0.00     0.163 HD
BRANCH   4   7
ATOM      7  C   UNL A   1      33.481  23.784  25.781  1.00  0.00     0.115 C 
BRANCH   7   8
ATOM      8  C   UNL A   1      32.728  22.449  25.845  1.00  0.00     0.112 C 
ATOM      9  C   UNL A   1      32.324  20.352  24.714  1.00  0.00     0.177 C 
ATOM     10  C   UNL A   1      32.198  21.857  24.553  1.00  0.00     0.061 C 
ATOM     11  O   UNL A   1      33.294  20.171  25.766  1.00  0.00    -0.462 OA
ATOM     12  C   UNL A   1      33.583  21.345  26.385  1.00  0.00     0.309 C 
ATOM     13  O   UNL A   1      34.402  21.451  27.289  1.00  0.00    -0.252 OA
BRANCH   9  14
ATOM     14  C   UNL A   1      32.849  19.544  23.514  1.00  0.00     0.045 C 
BRANCH  14  15
ATOM     15  C   UNL A   1      32.531  18.054  23.338  1.00  0.00     0.004 C 
BRANCH  15  16
ATOM     16  C   UNL A   1      33.624  16.989  23.473  1.00  0.00    -0.000 C 
BRANCH  16  17
ATOM     17  C   UNL A   1      34.687  17.196  24.554  1.00  0.00    -0.003 C 
ATOM     18  C   UNL A   1      35.153  15.912  25.226  1.00  0.00     0.004 C 
ENDBRANCH  16  17
ENDBRANCH  15  16
ENDBRANCH  14  15
ENDBRANCH   9  14
ENDBRANCH   7   8
ENDBRANCH   4   7
ENDBRANCH   2   3
ENDBRANCH   1   2
BRANCH   1  19
ATOM     19  C   UNL A   1      37.325  22.135  25.420  1.00  0.00     0.002 C 
BRANCH  19  20
ATOM     20  C   UNL A   1      36.970  20.742  24.905  1.00  0.00     0.002 C 
BRANCH  20  21
ATOM     21  C   UNL A   1      38.100  19.711  25.003  1.00  0.00     0.021 C 
BRANCH  21  22
ATOM     22  C   UNL A   1      39.306  20.131  25.840  1.00  0.00     0.116 C 
BRANCH  22  23
ATOM     23  N   UNL A   1      40.335  19.102  25.905  1.00  0.00    -0.352 N 
ATOM     24  C   UNL A   1      41.697  19.241  26.044  1.00  0.00     0.251 C 
ATOM     25  H   UNL A   1      40.009  18.175  25.841  1.00  0.00     0.163 HD
ATOM     26  O   UNL A   1      42.444  18.281  25.895  1.00  0.00    -0.269 OA
BRANCH  24  27
ATOM     27  C   UNL A   1      42.260  20.573  26.347  1.00  0.00     0.039 A 
ATOM     28  C   UNL A   1      42.703  21.381  25.299  1.00  0.00     0.014 A 
ATOM     29  C   UNL A   1      42.311  21.032  27.665  1.00  0.00     0.014 A 
ATOM     30  C   UNL A   1      43.123  22.686  25.568  1.00  0.00     0.010 A 
ATOM     31  C   UNL A   1      42.643  22.360  27.919  1.00  0.00     0.010 A 
ATOM     32  C   UNL A   1      43.054  23.201  26.874  1.00  0.00    -0.014 A 
BRANCH  32  33
ATOM     33  C   UNL A   1      43.400  24.619  27.160  1.00  0.00     0.031 A 
ATOM     34  C   UNL A   1      44.788  25.130  26.891  1.00  0.00     0.074 A 
ATOM     35  C   UNL A   1      42.482  25.431  27.718  1.00  0.00     0.049 A 
ATOM     36  N   UNL A   1      45.288  26.322  27.098  1.00  0.00    -0.248 NA
ATOM     37  C   UNL A   1      45.753  24.164  26.344  1.00  0.00     0.031 C 
ATOM     38  C   UNL A   1      41.120  25.041  28.084  1.00  0.00     0.029 A 
ATOM     39  N   UNL A   1      42.555  26.755  28.079  1.00  0.00    -0.354 N 
ATOM     40  C   UNL A   1      46.621  26.245  26.717  1.00  0.00     0.074 A 
ATOM     41  C   UNL A   1      46.871  24.873  26.335  1.00  0.00     0.031 C 
ATOM     42  C   UNL A   1      40.474  26.109  28.580  1.00  0.00     0.029 A 
ATOM     43  C   UNL A   1      41.386  27.248  28.604  1.00  0.00     0.049 A 
ATOM     44  H   UNL A   1      43.370  27.297  27.970  1.00  0.00     0.167 HD
ATOM     45  C   UNL A   1      47.545  27.233  26.661  1.00  0.00     0.037 A 
ATOM     46  C   UNL A   1      41.083  28.482  29.052  1.00  0.00     0.037 A 
ATOM     47  C   UNL A   1      47.288  28.601  27.030  1.00  0.00     0.049 A 
ATOM     48  C   UNL A   1      42.131  29.562  28.995  1.00  0.00     0.074 A 
ATOM     49  C   UNL A   1      48.137  29.690  26.953  1.00  0.00     0.029 A 
ATOM     50  N   UNL A   1      46.090  29.065  27.555  1.00  0.00    -0.354 N 
ATOM     51  N   UNL A   1      43.364  29.497  28.553  1.00  0.00    -0.248 NA
ATOM     52  C   UNL A   1      41.741  30.888  29.493  1.00  0.00     0.031 C 
ATOM     53  C   UNL A   1      47.473  30.801  27.487  1.00  0.00     0.029 A 
ATOM     54  C   UNL A   1      46.187  30.419  27.835  1.00  0.00     0.049 A 
ATOM     55  H   UNL A   1      45.288  28.514  27.706  1.00  0.00     0.167 HD
ATOM     56  C   UNL A   1      43.886  30.777  28.689  1.00  0.00     0.074 A 
ATOM     57  C   UNL A   1      42.830  31.600  29.243  1.00  0.00     0.031 C 
ATOM     58  C   UNL A   1      45.128  31.229  28.382  1.00  0.00     0.037 A 
BRANCH  45  59
ATOM     59  C   UNL A   1      48.922  26.864  26.184  1.00  0.00     0.064 A 
ATOM     60  C   UNL A   1      49.301  27.006  24.839  1.00  0.00     0.173 A 
ATOM     61  C   UNL A   1      49.880  26.371  27.083  1.00  0.00     0.173 A 
ATOM     62  F   UNL A   1      48.422  27.464  23.935  1.00  0.00    -0.203 F 
ATOM     63  C   UNL A   1      50.569  26.625  24.405  1.00  0.00     0.198 A 
ATOM     64  C   UNL A   1      51.159  26.026  26.652  1.00  0.00     0.198 A 
ATOM     65  F   UNL A   1      49.578  26.222  28.381  1.00  0.00    -0.203 F 
ATOM     66  F   UNL A   1      50.880  26.705  23.104  1.00  0.00    -0.200 F 
ATOM     67  C   UNL A   1      51.498  26.142  25.312  1.00  0.00     0.200 A 
ATOM     68  F   UNL A   1      52.063  25.575  27.533  1.00  0.00    -0.200 F 
ATOM     69  F   UNL A   1      52.717  25.776  24.893  1.00  0.00    -0.200 F 
ENDBRANCH  45  59
BRANCH  46  70
ATOM     70  C   UNL A   1      39.715  28.772  29.556  1.00  0.00     0.064 A 
ATOM     71  C   UNL A   1      39.387  28.568  30.904  1.00  0.00     0.173 A 
ATOM     72  C   UNL A   1      38.712  29.266  28.709  1.00  0.00     0.173 A 
ATOM     73  F   UNL A   1      40.307  28.078  31.749  1.00  0.00    -0.203 F 
ATOM     74  C   UNL A   1      38.105  28.830  31.382  1.00  0.00     0.198 A 
ATOM     75  C   UNL A   1      37.438  29.556  29.195  1.00  0.00     0.198 A 
ATOM     76  F   UNL A   1      38.974  29.485  27.412  1.00  0.00    -0.203 F 
ATOM     77  F   UNL A   1      37.809  28.585  32.666  1.00  0.00    -0.200 F 
ATOM     78  C   UNL A   1      37.133  29.330  30.529  1.00  0.00     0.200 A 
ATOM     79  F   UNL A   1      36.506  30.055  28.371  1.00  0.00    -0.200 F 
ATOM     80  F   UNL A   1      35.903  29.590  30.991  1.00  0.00    -0.200 F 
ENDBRANCH  46  70
BRANCH  58  81
ATOM     81  C   UNL A   1      45.405  32.689  28.600  1.00  0.00     0.064 A 
ATOM     82  C   UNL A   1      45.985  33.162  29.787  1.00  0.00     0.173 A 
ATOM     83  C   UNL A   1      45.125  33.622  27.590  1.00  0.00     0.173 A 
ATOM     84  F   UNL A   1      46.259  32.315  30.790  1.00  0.00    -0.203 F 
ATOM     85  C   UNL A   1      46.247  34.519  29.964  1.00  0.00     0.198 A 
ATOM     86  C   UNL A   1      45.422  34.972  27.756  1.00  0.00     0.198 A 
ATOM     87  F   UNL A   1      44.578  33.221  26.432  1.00  0.00    -0.203 F 
ATOM     88  F   UNL A   1      46.753  34.956  31.125  1.00  0.00    -0.200 F 
ATOM     89  C   UNL A   1      45.975  35.421  28.945  1.00  0.00     0.200 A 
ATOM     90  F   UNL A   1      45.172  35.838  26.765  1.00  0.00    -0.200 F 
ATOM     91  F   UNL A   1      46.237  36.723  29.114  1.00  0.00    -0.200 F 
ENDBRANCH  58  81
ENDBRANCH  32  33
ENDBRANCH  24  27
ENDBRANCH  22  23
ENDBRANCH  21  22
ENDBRANCH  20  21
ENDBRANCH  19  20
ENDBRANCH   1  19
TORSDOF 18
ENDMDL
MODEL 3
REMARK VINA RESULT:     -10.8      2.252      4.027
REMARK SMILES CCCCC[C@@H]1C[C@H](CC(=O)NCCCCCCNC(=O)c2ccc(-c3c4nc(c(-c5c(F)c(F)c(F)c(F)c5F)c5ccc([nH]5)c(-c5c(F)c(F)c(F)c(F)c5F)c5nc(c(-c6c(F)c(F)c(F)c(F)c6F)c6ccc3[nH]6)C=C5)C=C4)cc2)C(=O)O1
REMARK SMILES IDX 14 1 13 2 12 3 10 4 11 5 9 7 8 8 6 9 7 10 87 11 85 12 86 13
REMARK SMILES IDX 5 14 4 15 3 16 2 17 1 18 15 19 16 20 17 21 18 22 19 23 20 24
REMARK SMILES IDX 21 26 22 27 23 28 84 29 24 30 83 31 25 32 26 33 27 34 77 35
REMARK SMILES IDX 28 36 82 37 76 38 78 39 29 40 81 41 75 42 74 43 30 45 62 46
REMARK SMILES IDX 42 47 61 48 43 49 46 50 60 51 79 52 44 53 45 54 59 56 80 57
REMARK SMILES IDX 47 58 31 59 32 60 40 61 33 62 34 63 38 64 41 65 35 66 36 67
REMARK SMILES IDX 39 68 37 69 63 70 64 71 72 72 65 73 66 74 70 75 73 76 67 77
REMARK SMILES IDX 68 78 71 79 69 80 48 81 49 82 57 83 50 84 51 85 55 86 58 87
REMARK SMILES IDX 52 88 53 89 56 90 54 91
REMARK H PARENT 12 6 19 25 78 44 46 55
REMARK Flexibility Score: inf
ROOT
ATOM      1  C   UNL A   1      30.615  26.468  25.021  1.00  0.00     0.021 C 
ENDROOT
BRANCH   1   2
ATOM      2  C   UNL A   1      29.995  25.545  26.065  1.00  0.00     0.116 C 
BRANCH   2   3
ATOM      3  N   UNL A   1      31.032  24.820  26.784  1.00  0.00    -0.356 N 
ATOM      4  C   UNL A   1      31.332  23.493  26.810  1.00  0.00     0.220 C 
ATOM      5  O   UNL A   1      32.154  23.093  27.635  1.00  0.00    -0.275 OA
ATOM      6  H   UNL A   1      31.613  25.383  27.345  1.00  0.00     0.163 HD
BRANCH   4   7
ATOM      7  C   UNL A   1      30.660  22.527  25.859  1.00  0.00     0.115 C 
BRANCH   7   8
ATOM      8  C   UNL A   1      31.391  22.226  24.544  1.00  0.00     0.112 C 
ATOM      9  C   UNL A   1      33.424  22.583  23.288  1.00  0.00     0.177 C 
ATOM     10  C   UNL A   1      32.261  23.311  23.938  1.00  0.00     0.061 C 
ATOM     11  O   UNL A   1      33.451  21.287  23.921  1.00  0.00    -0.462 OA
ATOM     12  C   UNL A   1      32.344  21.079  24.679  1.00  0.00     0.309 C 
ATOM     13  O   UNL A   1      32.154  20.065  25.339  1.00  0.00    -0.252 OA
BRANCH   9  14
ATOM     14  C   UNL A   1      34.834  23.171  23.476  1.00  0.00     0.045 C 
BRANCH  14  15
ATOM     15  C   UNL A   1      35.171  24.114  24.637  1.00  0.00     0.004 C 
BRANCH  15  16
ATOM     16  C   UNL A   1      35.887  23.604  25.891  1.00  0.00    -0.000 C 
BRANCH  16  17
ATOM     17  C   UNL A   1      37.347  23.169  25.747  1.00  0.00    -0.003 C 
ATOM     18  C   UNL A   1      38.343  24.074  26.460  1.00  0.00     0.004 C 
ENDBRANCH  16  17
ENDBRANCH  15  16
ENDBRANCH  14  15
ENDBRANCH   9  14
ENDBRANCH   7   8
ENDBRANCH   4   7
ENDBRANCH   2   3
ENDBRANCH   1   2
BRANCH   1  19
ATOM     19  C   UNL A   1      31.596  27.508  25.572  1.00  0.00     0.002 C 
BRANCH  19  20
ATOM     20  C   UNL A   1      31.408  28.926  25.036  1.00  0.00     0.002 C 
BRANCH  20  21
ATOM     21  C   UNL A   1      32.526  29.908  25.400  1.00  0.00     0.021 C 
BRANCH  21  22
ATOM     22  C   UNL A   1      32.522  30.406  26.845  1.00  0.00     0.116 C 
BRANCH  22  23
ATOM     23  N   UNL A   1      32.588  31.858  26.942  1.00  0.00    -0.352 N 
ATOM     24  C   UNL A   1      33.525  32.645  27.571  1.00  0.00     0.251 C 
ATOM     25  H   UNL A   1      31.858  32.344  26.495  1.00  0.00     0.163 HD
ATOM     26  O   UNL A   1      33.336  33.847  27.719  1.00  0.00    -0.269 OA
BRANCH  24  27
ATOM     27  C   UNL A   1      34.757  32.023  28.096  1.00  0.00     0.039 A 
ATOM     28  C   UNL A   1      35.911  32.797  28.226  1.00  0.00     0.014 A 
ATOM     29  C   UNL A   1      34.756  30.684  28.494  1.00  0.00     0.014 A 
ATOM     30  C   UNL A   1      37.043  32.248  28.833  1.00  0.00     0.010 A 
ATOM     31  C   UNL A   1      35.851  30.168  29.179  1.00  0.00     0.010 A 
ATOM     32  C   UNL A   1      37.007  30.943  29.356  1.00  0.00    -0.014 A 
BRANCH  32  33
ATOM     33  C   UNL A   1      38.168  30.380  30.095  1.00  0.00     0.031 A 
ATOM     34  C   UNL A   1      38.434  30.791  31.517  1.00  0.00     0.074 A 
ATOM     35  C   UNL A   1      39.018  29.545  29.467  1.00  0.00     0.049 A 
ATOM     36  N   UNL A   1      39.406  30.432  32.316  1.00  0.00    -0.248 NA
ATOM     37  C   UNL A   1      37.499  31.759  32.111  1.00  0.00     0.031 C 
ATOM     38  C   UNL A   1      38.907  29.117  28.072  1.00  0.00     0.029 A 
ATOM     39  N   UNL A   1      40.148  28.907  29.920  1.00  0.00    -0.354 N 
ATOM     40  C   UNL A   1      39.205  31.134  33.497  1.00  0.00     0.074 A 
ATOM     41  C   UNL A   1      38.062  31.994  33.285  1.00  0.00     0.031 C 
ATOM     42  C   UNL A   1      39.901  28.258  27.795  1.00  0.00     0.029 A 
ATOM     43  C   UNL A   1      40.742  28.105  28.977  1.00  0.00     0.049 A 
ATOM     44  H   UNL A   1      40.496  29.015  30.835  1.00  0.00     0.167 HD
ATOM     45  C   UNL A   1      39.890  31.048  34.662  1.00  0.00     0.037 A 
ATOM     46  C   UNL A   1      41.842  27.331  29.058  1.00  0.00     0.037 A 
ATOM     47  C   UNL A   1      41.020  30.181  34.872  1.00  0.00     0.049 A 
ATOM     48  C   UNL A   1      42.598  27.263  30.358  1.00  0.00     0.074 A 
ATOM     49  C   UNL A   1      41.747  29.975  36.031  1.00  0.00     0.029 A 
ATOM     50  N   UNL A   1      41.593  29.380  33.894  1.00  0.00    -0.354 N 
ATOM     51  N   UNL A   1      42.348  27.868  31.495  1.00  0.00    -0.248 NA
ATOM     52  C   UNL A   1      43.786  26.399  30.387  1.00  0.00     0.031 C 
ATOM     53  C   UNL A   1      42.796  29.095  35.739  1.00  0.00     0.029 A 
ATOM     54  C   UNL A   1      42.683  28.701  34.415  1.00  0.00     0.049 A 
ATOM     55  H   UNL A   1      41.272  29.305  32.966  1.00  0.00     0.167 HD
ATOM     56  C   UNL A   1      43.325  27.434  32.381  1.00  0.00     0.074 A 
ATOM     57  C   UNL A   1      44.164  26.504  31.653  1.00  0.00     0.031 C 
ATOM     58  C   UNL A   1      43.509  27.775  33.681  1.00  0.00     0.037 A 
BRANCH  45  59
ATOM     59  C   UNL A   1      39.434  31.922  35.797  1.00  0.00     0.064 A 
ATOM     60  C   UNL A   1      38.422  31.514  36.682  1.00  0.00     0.173 A 
ATOM     61  C   UNL A   1      40.020  33.179  36.011  1.00  0.00     0.173 A 
ATOM     62  F   UNL A   1      37.821  30.325  36.519  1.00  0.00    -0.203 F 
ATOM     63  C   UNL A   1      37.983  32.349  37.707  1.00  0.00     0.198 A 
ATOM     64  C   UNL A   1      39.604  33.995  37.060  1.00  0.00     0.198 A 
ATOM     65  F   UNL A   1      40.996  33.618  35.203  1.00  0.00    -0.203 F 
ATOM     66  F   UNL A   1      36.969  31.963  38.494  1.00  0.00    -0.200 F 
ATOM     67  C   UNL A   1      38.579  33.585  37.899  1.00  0.00     0.200 A 
ATOM     68  F   UNL A   1      40.191  35.184  37.255  1.00  0.00    -0.200 F 
ATOM     69  F   UNL A   1      38.156  34.387  38.885  1.00  0.00    -0.200 F 
ENDBRANCH  45  59
BRANCH  46  70
ATOM     70  C   UNL A   1      42.270  26.526  27.883  1.00  0.00     0.064 A 
ATOM     71  C   UNL A   1      43.219  27.024  26.978  1.00  0.00     0.173 A 
ATOM     72  C   UNL A   1      41.751  25.246  27.644  1.00  0.00     0.173 A 
ATOM     73  F   UNL A   1      43.730  28.252  27.153  1.00  0.00    -0.203 F 
ATOM     74  C   UNL A   1      43.619  26.279  25.871  1.00  0.00     0.198 A 
ATOM     75  C   UNL A   1      42.173  24.489  26.552  1.00  0.00     0.198 A 
ATOM     76  F   UNL A   1      40.845  24.720  28.482  1.00  0.00    -0.203 F 
ATOM     77  F   UNL A   1      44.495  26.797  25.000  1.00  0.00    -0.200 F 
ATOM     78  C   UNL A   1      43.102  25.009  25.662  1.00  0.00     0.200 A 
ATOM     79  F   UNL A   1      41.684  23.256  26.364  1.00  0.00    -0.200 F 
ATOM     80  F   UNL A   1      43.493  24.290  24.602  1.00  0.00    -0.200 F 
ENDBRANCH  46  70
BRANCH  58  81
ATOM     81  C   UNL A   1      44.638  27.111  34.416  1.00  0.00     0.064 A 
ATOM     82  C   UNL A   1      44.482  25.865  35.043  1.00  0.00     0.173 A 
ATOM     83  C   UNL A   1      45.906  27.712  34.458  1.00  0.00     0.173 A 
ATOM     84  F   UNL A   1      43.287  25.255  35.046  1.00  0.00    -0.203 F 
ATOM     85  C   UNL A   1      45.546  25.260  35.708  1.00  0.00     0.198 A 
ATOM     86  C   UNL A   1      46.976  27.087  35.092  1.00  0.00     0.198 A 
ATOM     87  F   UNL A   1      46.112  28.899  33.868  1.00  0.00    -0.203 F 
ATOM     88  F   UNL A   1      45.361  24.095  36.344  1.00  0.00    -0.200 F 
ATOM     89  C   UNL A   1      46.794  25.866  35.724  1.00  0.00     0.200 A 
ATOM     90  F   UNL A   1      48.184  27.667  35.093  1.00  0.00    -0.200 F 
ATOM     91  F   UNL A   1      47.818  25.278  36.356  1.00  0.00    -0.200 F 
ENDBRANCH  58  81
ENDBRANCH  32  33
ENDBRANCH  24  27
ENDBRANCH  22  23
ENDBRANCH  21  22
ENDBRANCH  20  21
ENDBRANCH  19  20
ENDBRANCH   1  19
TORSDOF 18
ENDMDL
