MODEL 1
REMARK VINA RESULT:     -12.8      0.000      0.000
REMARK SMILES O=C(NCCCCCCNC(=O)[C@H]1C[N@H+](Cc2ccc(Cl)c(Cl)c2)CC12CCCCC2)c1ccc(-c2c3nc(c(-c4c(F)c(F)c(F)c(F)c4F)c4ccc([nH]4)c(-c4c(F)c(F)c(F)c(F)c4F)c4nc(c(-c5c(F)c(F)c(F)c(F)c5F)c5ccc2[nH]5)C=C4)C=C3)cc1
REMARK SMILES IDX 6 1 5 2 4 3 3 4 1 5 2 6 32 8 33 9 94 10 34 11 93 12 35 13
REMARK SMILES IDX 36 14 37 15 87 16 38 17 92 18 86 19 88 20 39 21 91 22 85 23
REMARK SMILES IDX 84 24 40 26 72 27 52 28 71 29 53 30 56 31 70 32 89 33 54 34
REMARK SMILES IDX 55 35 69 37 90 38 57 39 41 40 42 41 50 42 43 43 44 44 48 45
REMARK SMILES IDX 51 46 45 47 46 48 49 49 47 50 73 51 74 52 82 53 75 54 76 55
REMARK SMILES IDX 80 56 83 57 77 58 78 59 81 60 79 61 58 62 59 63 67 64 60 65
REMARK SMILES IDX 61 66 65 67 68 68 62 69 63 70 66 71 64 72 7 73 8 74 9 75
REMARK SMILES IDX 10 76 11 77 12 79 13 80 14 81 26 82 15 83 25 84 27 85 31 86
REMARK SMILES IDX 28 88 30 89 29 90 16 91 17 92 18 93 24 94 19 95 22 96 20 97
REMARK SMILES IDX 23 98 21 99
REMARK H PARENT 3 7 88 25 56 36 10 78 15 87
REMARK Flexibility Score: inf
ROOT
ATOM      1  C   UNL A   1      31.465  30.916  25.825  1.00  0.00     0.002 C 
ENDROOT
BRANCH   1   2
ATOM      2  C   UNL A   1      31.248  32.263  26.516  1.00  0.00     0.021 C 
BRANCH   2   3
ATOM      3  C   UNL A   1      32.478  32.778  27.247  1.00  0.00     0.116 C 
BRANCH   3   4
ATOM      4  N   UNL A   1      32.332  34.176  27.616  1.00  0.00    -0.352 N 
ATOM      5  O   UNL A   1      32.589  35.976  28.957  1.00  0.00    -0.269 OA
ATOM      6  C   UNL A   1      32.974  34.864  28.611  1.00  0.00     0.251 C 
ATOM      7  H   UNL A   1      31.689  34.696  27.082  1.00  0.00     0.163 HD
BRANCH   6   8
ATOM      8  C   UNL A   1      34.137  34.239  29.268  1.00  0.00     0.039 A 
ATOM      9  C   UNL A   1      33.953  33.438  30.398  1.00  0.00     0.014 A 
ATOM     10  C   UNL A   1      35.414  34.457  28.747  1.00  0.00     0.014 A 
ATOM     11  C   UNL A   1      35.058  32.940  31.073  1.00  0.00     0.010 A 
ATOM     12  C   UNL A   1      36.517  33.881  29.377  1.00  0.00     0.010 A 
ATOM     13  C   UNL A   1      36.346  33.127  30.549  1.00  0.00    -0.014 A 
BRANCH  13  14
ATOM     14  C   UNL A   1      37.490  32.432  31.183  1.00  0.00     0.031 A 
ATOM     15  C   UNL A   1      38.199  31.308  30.490  1.00  0.00     0.074 A 
ATOM     16  C   UNL A   1      37.875  32.837  32.409  1.00  0.00     0.049 A 
ATOM     17  N   UNL A   1      39.196  30.577  30.919  1.00  0.00    -0.248 NA
ATOM     18  C   UNL A   1      37.726  30.951  29.145  1.00  0.00     0.031 C 
ATOM     19  C   UNL A   1      37.241  33.915  33.174  1.00  0.00     0.029 A 
ATOM     20  N   UNL A   1      38.886  32.402  33.223  1.00  0.00    -0.354 N 
ATOM     21  C   UNL A   1      39.458  29.662  29.909  1.00  0.00     0.074 A 
ATOM     22  C   UNL A   1      38.500  29.914  28.852  1.00  0.00     0.031 C 
ATOM     23  C   UNL A   1      37.898  34.079  34.330  1.00  0.00     0.029 A 
ATOM     24  C   UNL A   1      38.951  33.074  34.418  1.00  0.00     0.049 A 
ATOM     25  H   UNL A   1      39.506  31.679  32.977  1.00  0.00     0.167 HD
ATOM     26  C   UNL A   1      40.417  28.706  29.873  1.00  0.00     0.037 A 
ATOM     27  C   UNL A   1      39.749  32.883  35.483  1.00  0.00     0.037 A 
ATOM     28  C   UNL A   1      41.367  28.475  30.932  1.00  0.00     0.049 A 
ATOM     29  C   UNL A   1      40.774  31.789  35.428  1.00  0.00     0.074 A 
ATOM     30  C   UNL A   1      42.406  27.562  30.975  1.00  0.00     0.029 A 
ATOM     31  N   UNL A   1      41.387  29.158  32.142  1.00  0.00    -0.354 N 
ATOM     32  N   UNL A   1      41.044  30.959  34.450  1.00  0.00    -0.248 NA
ATOM     33  C   UNL A   1      41.602  31.600  36.625  1.00  0.00     0.031 C 
ATOM     34  C   UNL A   1      43.018  27.653  32.230  1.00  0.00     0.029 A 
ATOM     35  C   UNL A   1      42.399  28.663  32.948  1.00  0.00     0.049 A 
ATOM     36  H   UNL A   1      40.772  29.886  32.388  1.00  0.00     0.167 HD
ATOM     37  C   UNL A   1      42.082  30.160  34.904  1.00  0.00     0.074 A 
ATOM     38  C   UNL A   1      42.409  30.622  36.239  1.00  0.00     0.031 C 
ATOM     39  C   UNL A   1      42.707  29.136  34.275  1.00  0.00     0.037 A 
BRANCH  26  40
ATOM     40  C   UNL A   1      40.477  27.818  28.663  1.00  0.00     0.064 A 
ATOM     41  C   UNL A   1      41.262  28.141  27.547  1.00  0.00     0.173 A 
ATOM     42  C   UNL A   1      39.781  26.599  28.644  1.00  0.00     0.173 A 
ATOM     43  F   UNL A   1      41.940  29.298  27.509  1.00  0.00    -0.203 F 
ATOM     44  C   UNL A   1      41.331  27.287  26.448  1.00  0.00     0.198 A 
ATOM     45  C   UNL A   1      39.875  25.735  27.555  1.00  0.00     0.198 A 
ATOM     46  F   UNL A   1      39.020  26.238  29.688  1.00  0.00    -0.203 F 
ATOM     47  F   UNL A   1      42.055  27.636  25.376  1.00  0.00    -0.200 F 
ATOM     48  C   UNL A   1      40.644  26.082  26.457  1.00  0.00     0.200 A 
ATOM     49  F   UNL A   1      39.221  24.565  27.572  1.00  0.00    -0.200 F 
ATOM     50  F   UNL A   1      40.720  25.258  25.402  1.00  0.00    -0.200 F 
ENDBRANCH  26  40
BRANCH  27  51
ATOM     51  C   UNL A   1      39.589  33.737  36.688  1.00  0.00     0.064 A 
ATOM     52  C   UNL A   1      40.234  34.976  36.785  1.00  0.00     0.173 A 
ATOM     53  C   UNL A   1      38.773  33.339  37.759  1.00  0.00     0.173 A 
ATOM     54  F   UNL A   1      41.036  35.394  35.794  1.00  0.00    -0.203 F 
ATOM     55  C   UNL A   1      40.085  35.777  37.916  1.00  0.00     0.198 A 
ATOM     56  C   UNL A   1      38.598  34.154  38.873  1.00  0.00     0.198 A 
ATOM     57  F   UNL A   1      38.126  32.165  37.710  1.00  0.00    -0.203 F 
ATOM     58  F   UNL A   1      40.747  36.938  38.002  1.00  0.00    -0.200 F 
ATOM     59  C   UNL A   1      39.261  35.370  38.955  1.00  0.00     0.200 A 
ATOM     60  F   UNL A   1      37.786  33.766  39.864  1.00  0.00    -0.200 F 
ATOM     61  F   UNL A   1      39.111  36.146  40.037  1.00  0.00    -0.200 F 
ENDBRANCH  27  51
BRANCH  39  62
ATOM     62  C   UNL A   1      43.825  28.463  35.015  1.00  0.00     0.064 A 
ATOM     63  C   UNL A   1      43.597  27.349  35.837  1.00  0.00     0.173 A 
ATOM     64  C   UNL A   1      45.145  28.919  34.876  1.00  0.00     0.173 A 
ATOM     65  F   UNL A   1      42.351  26.887  36.018  1.00  0.00    -0.203 F 
ATOM     66  C   UNL A   1      44.647  26.732  36.510  1.00  0.00     0.198 A 
ATOM     67  C   UNL A   1      46.196  28.280  35.526  1.00  0.00     0.198 A 
ATOM     68  F   UNL A   1      45.415  29.979  34.099  1.00  0.00    -0.203 F 
ATOM     69  F   UNL A   1      44.401  25.700  37.330  1.00  0.00    -0.200 F 
ATOM     70  C   UNL A   1      45.945  27.192  36.348  1.00  0.00     0.200 A 
ATOM     71  F   UNL A   1      47.450  28.718  35.357  1.00  0.00    -0.200 F 
ATOM     72  F   UNL A   1      46.956  26.591  36.992  1.00  0.00    -0.200 F 
ENDBRANCH  39  62
ENDBRANCH  13  14
ENDBRANCH   6   8
ENDBRANCH   3   4
ENDBRANCH   2   3
ENDBRANCH   1   2
BRANCH   1  73
ATOM     73  C   UNL A   1      32.516  30.019  26.494  1.00  0.00     0.002 C 
BRANCH  73  74
ATOM     74  C   UNL A   1      31.945  28.994  27.479  1.00  0.00     0.021 C 
BRANCH  74  75
ATOM     75  C   UNL A   1      32.367  27.567  27.158  1.00  0.00     0.116 C 
BRANCH  75  76
ATOM     76  N   UNL A   1      31.209  26.701  27.063  1.00  0.00    -0.356 N 
ATOM     77  C   UNL A   1      30.835  25.805  26.120  1.00  0.00     0.229 C 
ATOM     78  H   UNL A   1      30.583  26.778  27.819  1.00  0.00     0.163 HD
ATOM     79  O   UNL A   1      29.758  25.225  26.292  1.00  0.00    -0.275 OA
BRANCH  77  80
ATOM     80  C   UNL A   1      31.692  25.471  24.913  1.00  0.00     0.145 C 
ATOM     81  C   UNL A   1      31.445  24.076  24.341  1.00  0.00     0.276 C 
ATOM     82  C   UNL A   1      31.705  26.484  23.725  1.00  0.00     0.037 C 
ATOM     83  N   UNL A   1      31.681  24.171  22.907  1.00  0.00    -0.330 N 
ATOM     84  C   UNL A   1      31.469  25.563  22.499  1.00  0.00     0.270 C 
ATOM     85  C   UNL A   1      30.665  27.633  23.816  1.00  0.00     0.014 C 
ATOM     86  C   UNL A   1      33.089  27.186  23.685  1.00  0.00     0.014 C 
ATOM     87  H   UNL A   1      30.990  23.604  22.416  1.00  0.00     0.348 HD
ATOM     88  C   UNL A   1      30.802  28.713  22.740  1.00  0.00     0.001 C 
ATOM     89  C   UNL A   1      33.245  28.195  22.549  1.00  0.00     0.001 C 
ATOM     90  C   UNL A   1      32.207  29.295  22.675  1.00  0.00     0.000 C 
BRANCH  83  91
ATOM     91  C   UNL A   1      32.860  23.467  22.388  1.00  0.00     0.299 C 
BRANCH  91  92
ATOM     92  C   UNL A   1      33.944  23.114  23.384  1.00  0.00     0.008 A 
ATOM     93  C   UNL A   1      34.863  24.077  23.832  1.00  0.00     0.011 A 
ATOM     94  C   UNL A   1      34.098  21.789  23.823  1.00  0.00     0.031 A 
ATOM     95  C   UNL A   1      35.988  23.703  24.569  1.00  0.00     0.022 A 
ATOM     96  C   UNL A   1      35.213  21.415  24.587  1.00  0.00     0.060 A 
ATOM     97  C   UNL A   1      36.178  22.368  24.927  1.00  0.00     0.059 A 
ATOM     98  Cl  UNL A   1      35.373  19.746  25.004  1.00  0.00    -0.083 Cl
ATOM     99  Cl  UNL A   1      37.647  21.957  25.738  1.00  0.00    -0.083 Cl
ENDBRANCH  91  92
ENDBRANCH  83  91
ENDBRANCH  77  80
ENDBRANCH  75  76
ENDBRANCH  74  75
ENDBRANCH  73  74
ENDBRANCH   1  73
TORSDOF 15
ENDMDL
MODEL 2
REMARK VINA RESULT:     -12.7      0.383      7.133
REMARK SMILES O=C(NCCCCCCNC(=O)[C@H]1C[N@H+](Cc2ccc(Cl)c(Cl)c2)CC12CCCCC2)c1ccc(-c2c3nc(c(-c4c(F)c(F)c(F)c(F)c4F)c4ccc([nH]4)c(-c4c(F)c(F)c(F)c(F)c4F)c4nc(c(-c5c(F)c(F)c(F)c(F)c5F)c5ccc2[nH]5)C=C4)C=C3)cc1
REMARK SMILES IDX 6 1 5 2 4 3 3 4 1 5 2 6 32 8 33 9 94 10 34 11 93 12 35 13
REMARK SMILES IDX 36 14 37 15 87 16 38 17 92 18 86 19 88 20 39 21 91 22 85 23
REMARK SMILES IDX 84 24 40 26 72 27 52 28 71 29 53 30 56 31 70 32 89 33 54 34
REMARK SMILES IDX 55 35 69 37 90 38 57 39 41 40 42 41 50 42 43 43 44 44 48 45
REMARK SMILES IDX 51 46 45 47 46 48 49 49 47 50 73 51 74 52 82 53 75 54 76 55
REMARK SMILES IDX 80 56 83 57 77 58 78 59 81 60 79 61 58 62 59 63 67 64 60 65
REMARK SMILES IDX 61 66 65 67 68 68 62 69 63 70 66 71 64 72 7 73 8 74 9 75
REMARK SMILES IDX 10 76 11 77 12 79 13 80 14 81 26 82 15 83 25 84 27 85 31 86
REMARK SMILES IDX 28 88 30 89 29 90 16 91 17 92 18 93 24 94 19 95 22 96 20 97
REMARK SMILES IDX 23 98 21 99
REMARK H PARENT 3 7 88 25 56 36 10 78 15 87
REMARK Flexibility Score: inf
ROOT
ATOM      1  C   UNL A   1      31.402  31.029  25.821  1.00  0.00     0.002 C 
ENDROOT
BRANCH   1   2
ATOM      2  C   UNL A   1      31.266  32.230  26.760  1.00  0.00     0.021 C 
BRANCH   2   3
ATOM      3  C   UNL A   1      32.600  32.805  27.212  1.00  0.00     0.116 C 
BRANCH   3   4
ATOM      4  N   UNL A   1      32.470  34.192  27.623  1.00  0.00    -0.352 N 
ATOM      5  O   UNL A   1      32.735  35.943  29.026  1.00  0.00    -0.269 OA
ATOM      6  C   UNL A   1      33.107  34.837  28.650  1.00  0.00     0.251 C 
ATOM      7  H   UNL A   1      31.845  34.739  27.096  1.00  0.00     0.163 HD
BRANCH   6   8
ATOM      8  C   UNL A   1      34.249  34.173  29.304  1.00  0.00     0.039 A 
ATOM      9  C   UNL A   1      34.028  33.288  30.364  1.00  0.00     0.014 A 
ATOM     10  C   UNL A   1      35.544  34.436  28.852  1.00  0.00     0.014 A 
ATOM     11  C   UNL A   1      35.110  32.749  31.044  1.00  0.00     0.010 A 
ATOM     12  C   UNL A   1      36.626  33.821  29.481  1.00  0.00     0.010 A 
ATOM     13  C   UNL A   1      36.416  32.982  30.587  1.00  0.00    -0.014 A 
BRANCH  13  14
ATOM     14  C   UNL A   1      37.541  32.248  31.213  1.00  0.00     0.031 A 
ATOM     15  C   UNL A   1      38.014  32.583  32.594  1.00  0.00     0.074 A 
ATOM     16  C   UNL A   1      38.131  31.270  30.500  1.00  0.00     0.049 A 
ATOM     17  N   UNL A   1      39.003  32.058  33.273  1.00  0.00    -0.248 NA
ATOM     18  C   UNL A   1      37.295  33.648  33.306  1.00  0.00     0.031 C 
ATOM     19  C   UNL A   1      37.752  30.875  29.140  1.00  0.00     0.029 A 
ATOM     20  N   UNL A   1      39.164  30.427  30.813  1.00  0.00    -0.354 N 
ATOM     21  C   UNL A   1      39.037  32.739  34.482  1.00  0.00     0.074 A 
ATOM     22  C   UNL A   1      37.984  33.733  34.436  1.00  0.00     0.031 C 
ATOM     23  C   UNL A   1      38.517  29.847  28.750  1.00  0.00     0.029 A 
ATOM     24  C   UNL A   1      39.486  29.558  29.801  1.00  0.00     0.049 A 
ATOM     25  H   UNL A   1      39.630  30.442  31.680  1.00  0.00     0.167 HD
ATOM     26  C   UNL A   1      39.871  32.543  35.531  1.00  0.00     0.037 A 
ATOM     27  C   UNL A   1      40.472  28.649  29.713  1.00  0.00     0.037 A 
ATOM     28  C   UNL A   1      40.909  31.542  35.561  1.00  0.00     0.049 A 
ATOM     29  C   UNL A   1      41.405  28.484  30.876  1.00  0.00     0.074 A 
ATOM     30  C   UNL A   1      41.778  31.232  36.592  1.00  0.00     0.029 A 
ATOM     31  N   UNL A   1      41.224  30.696  34.506  1.00  0.00    -0.354 N 
ATOM     32  N   UNL A   1      41.400  29.101  32.033  1.00  0.00    -0.248 NA
ATOM     33  C   UNL A   1      42.484  27.500  30.723  1.00  0.00     0.031 C 
ATOM     34  C   UNL A   1      42.655  30.239  36.142  1.00  0.00     0.029 A 
ATOM     35  C   UNL A   1      42.296  29.888  34.851  1.00  0.00     0.049 A 
ATOM     36  H   UNL A   1      40.755  30.675  33.641  1.00  0.00     0.167 HD
ATOM     37  C   UNL A   1      42.461  28.572  32.751  1.00  0.00     0.074 A 
ATOM     38  C   UNL A   1      43.074  27.565  31.908  1.00  0.00     0.031 C 
ATOM     39  C   UNL A   1      42.892  28.892  33.996  1.00  0.00     0.037 A 
BRANCH  26  40
ATOM     40  C   UNL A   1      39.718  33.438  36.727  1.00  0.00     0.064 A 
ATOM     41  C   UNL A   1      40.402  34.658  36.829  1.00  0.00     0.173 A 
ATOM     42  C   UNL A   1      38.831  33.096  37.760  1.00  0.00     0.173 A 
ATOM     43  F   UNL A   1      41.269  35.029  35.875  1.00  0.00    -0.203 F 
ATOM     44  C   UNL A   1      40.221  35.492  37.932  1.00  0.00     0.198 A 
ATOM     45  C   UNL A   1      38.631  33.945  38.846  1.00  0.00     0.198 A 
ATOM     46  F   UNL A   1      38.145  31.944  37.709  1.00  0.00    -0.203 F 
ATOM     47  F   UNL A   1      40.917  36.633  38.027  1.00  0.00    -0.200 F 
ATOM     48  C   UNL A   1      39.330  35.138  38.934  1.00  0.00     0.200 A 
ATOM     49  F   UNL A   1      37.759  33.607  39.807  1.00  0.00    -0.200 F 
ATOM     50  F   UNL A   1      39.151  35.946  39.988  1.00  0.00    -0.200 F 
ENDBRANCH  26  40
BRANCH  27  51
ATOM     51  C   UNL A   1      40.630  27.848  28.472  1.00  0.00     0.064 A 
ATOM     52  C   UNL A   1      41.418  28.308  27.411  1.00  0.00     0.173 A 
ATOM     53  C   UNL A   1      40.008  26.597  28.331  1.00  0.00     0.173 A 
ATOM     54  F   UNL A   1      42.021  29.504  27.493  1.00  0.00    -0.203 F 
ATOM     55  C   UNL A   1      41.566  27.557  26.246  1.00  0.00     0.198 A 
ATOM     56  C   UNL A   1      40.182  25.833  27.181  1.00  0.00     0.198 A 
ATOM     57  F   UNL A   1      39.250  26.107  29.322  1.00  0.00    -0.203 F 
ATOM     58  F   UNL A   1      42.291  28.040  25.229  1.00  0.00    -0.200 F 
ATOM     59  C   UNL A   1      40.955  26.317  26.135  1.00  0.00     0.200 A 
ATOM     60  F   UNL A   1      39.607  24.627  27.086  1.00  0.00    -0.200 F 
ATOM     61  F   UNL A   1      41.104  25.591  25.019  1.00  0.00    -0.200 F 
ENDBRANCH  27  51
BRANCH  39  62
ATOM     62  C   UNL A   1      44.066  28.125  34.528  1.00  0.00     0.064 A 
ATOM     63  C   UNL A   1      45.382  28.574  34.344  1.00  0.00     0.173 A 
ATOM     64  C   UNL A   1      43.870  26.943  35.258  1.00  0.00     0.173 A 
ATOM     65  F   UNL A   1      45.622  29.688  33.637  1.00  0.00    -0.203 F 
ATOM     66  C   UNL A   1      46.460  27.855  34.851  1.00  0.00     0.198 A 
ATOM     67  C   UNL A   1      44.948  26.243  35.791  1.00  0.00     0.198 A 
ATOM     68  F   UNL A   1      42.630  26.473  35.464  1.00  0.00    -0.203 F 
ATOM     69  F   UNL A   1      47.711  28.275  34.621  1.00  0.00    -0.200 F 
ATOM     70  C   UNL A   1      46.242  26.695  35.581  1.00  0.00     0.200 A 
ATOM     71  F   UNL A   1      44.734  25.131  36.506  1.00  0.00    -0.200 F 
ATOM     72  F   UNL A   1      47.281  26.008  36.075  1.00  0.00    -0.200 F 
ENDBRANCH  39  62
ENDBRANCH  13  14
ENDBRANCH   6   8
ENDBRANCH   3   4
ENDBRANCH   2   3
ENDBRANCH   1   2
BRANCH   1  73
ATOM     73  C   UNL A   1      32.410  29.970  26.286  1.00  0.00     0.002 C 
BRANCH  73  74
ATOM     74  C   UNL A   1      31.886  29.026  27.375  1.00  0.00     0.021 C 
BRANCH  74  75
ATOM     75  C   UNL A   1      32.335  27.585  27.173  1.00  0.00     0.116 C 
BRANCH  75  76
ATOM     76  N   UNL A   1      31.189  26.703  27.082  1.00  0.00    -0.356 N 
ATOM     77  C   UNL A   1      30.822  25.807  26.136  1.00  0.00     0.229 C 
ATOM     78  H   UNL A   1      30.568  26.765  27.843  1.00  0.00     0.163 HD
ATOM     79  O   UNL A   1      29.755  25.210  26.312  1.00  0.00    -0.275 OA
BRANCH  77  80
ATOM     80  C   UNL A   1      31.674  25.495  24.920  1.00  0.00     0.145 C 
ATOM     81  C   UNL A   1      31.463  24.090  24.357  1.00  0.00     0.276 C 
ATOM     82  C   UNL A   1      31.642  26.503  23.728  1.00  0.00     0.037 C 
ATOM     83  N   UNL A   1      31.679  24.186  22.919  1.00  0.00    -0.330 N 
ATOM     84  C   UNL A   1      31.420  25.570  22.508  1.00  0.00     0.270 C 
ATOM     85  C   UNL A   1      30.569  27.620  23.828  1.00  0.00     0.014 C 
ATOM     86  C   UNL A   1      33.004  27.245  23.669  1.00  0.00     0.014 C 
ATOM     87  H   UNL A   1      30.999  23.596  22.438  1.00  0.00     0.348 HD
ATOM     88  C   UNL A   1      30.661  28.699  22.746  1.00  0.00     0.001 C 
ATOM     89  C   UNL A   1      33.116  28.254  22.528  1.00  0.00     0.001 C 
ATOM     90  C   UNL A   1      32.047  29.323  22.662  1.00  0.00     0.000 C 
BRANCH  83  91
ATOM     91  C   UNL A   1      32.872  23.517  22.388  1.00  0.00     0.299 C 
BRANCH  91  92
ATOM     92  C   UNL A   1      33.949  23.139  23.384  1.00  0.00     0.008 A 
ATOM     93  C   UNL A   1      34.890  24.081  23.831  1.00  0.00     0.011 A 
ATOM     94  C   UNL A   1      34.074  21.812  23.823  1.00  0.00     0.031 A 
ATOM     95  C   UNL A   1      36.006  23.683  24.568  1.00  0.00     0.022 A 
ATOM     96  C   UNL A   1      35.180  21.412  24.586  1.00  0.00     0.060 A 
ATOM     97  C   UNL A   1      36.167  22.344  24.926  1.00  0.00     0.059 A 
ATOM     98  Cl  UNL A   1      35.304  19.741  25.003  1.00  0.00    -0.083 Cl
ATOM     99  Cl  UNL A   1      37.626  21.900  25.736  1.00  0.00    -0.083 Cl
ENDBRANCH  91  92
ENDBRANCH  83  91
ENDBRANCH  77  80
ENDBRANCH  75  76
ENDBRANCH  74  75
ENDBRANCH  73  74
ENDBRANCH   1  73
TORSDOF 15
ENDMDL
MODEL 3
REMARK VINA RESULT:     -12.4      1.501      2.483
REMARK SMILES O=C(NCCCCCCNC(=O)[C@H]1C[N@H+](Cc2ccc(Cl)c(Cl)c2)CC12CCCCC2)c1ccc(-c2c3nc(c(-c4c(F)c(F)c(F)c(F)c4F)c4ccc([nH]4)c(-c4c(F)c(F)c(F)c(F)c4F)c4nc(c(-c5c(F)c(F)c(F)c(F)c5F)c5ccc2[nH]5)C=C4)C=C3)cc1
REMARK SMILES IDX 6 1 5 2 4 3 3 4 1 5 2 6 32 8 33 9 94 10 34 11 93 12 35 13
REMARK SMILES IDX 36 14 37 15 87 16 38 17 92 18 86 19 88 20 39 21 91 22 85 23
REMARK SMILES IDX 84 24 40 26 72 27 52 28 71 29 53 30 56 31 70 32 89 33 54 34
REMARK SMILES IDX 55 35 69 37 90 38 57 39 41 40 42 41 50 42 43 43 44 44 48 45
REMARK SMILES IDX 51 46 45 47 46 48 49 49 47 50 73 51 74 52 82 53 75 54 76 55
REMARK SMILES IDX 80 56 83 57 77 58 78 59 81 60 79 61 58 62 59 63 67 64 60 65
REMARK SMILES IDX 61 66 65 67 68 68 62 69 63 70 66 71 64 72 7 73 8 74 9 75
REMARK SMILES IDX 10 76 11 77 12 79 13 80 14 81 26 82 15 83 25 84 27 85 31 86
REMARK SMILES IDX 28 88 30 89 29 90 16 91 17 92 18 93 24 94 19 95 22 96 20 97
REMARK SMILES IDX 23 98 21 99
REMARK H PARENT 3 7 88 25 56 36 10 78 15 87
REMARK Flexibility Score: inf
ROOT
ATOM      1  C   UNL A   1      31.730  30.207  25.379  1.00  0.00     0.002 C 
ENDROOT
BRANCH   1   2
ATOM      2  C   UNL A   1      31.350  31.473  26.149  1.00  0.00     0.021 C 
BRANCH   2   3
ATOM      3  C   UNL A   1      32.485  32.041  26.986  1.00  0.00     0.116 C 
BRANCH   3   4
ATOM      4  N   UNL A   1      32.304  33.461  27.236  1.00  0.00    -0.352 N 
ATOM      5  O   UNL A   1      32.532  35.377  28.411  1.00  0.00    -0.269 OA
ATOM      6  C   UNL A   1      32.943  34.251  28.155  1.00  0.00     0.251 C 
ATOM      7  H   UNL A   1      31.638  33.915  26.671  1.00  0.00     0.163 HD
BRANCH   6   8
ATOM      8  C   UNL A   1      34.135  33.718  28.841  1.00  0.00     0.039 A 
ATOM      9  C   UNL A   1      33.995  32.721  29.810  1.00  0.00     0.014 A 
ATOM     10  C   UNL A   1      35.395  34.218  28.509  1.00  0.00     0.014 A 
ATOM     11  C   UNL A   1      35.105  32.300  30.526  1.00  0.00     0.010 A 
ATOM     12  C   UNL A   1      36.522  33.728  29.168  1.00  0.00     0.010 A 
ATOM     13  C   UNL A   1      36.382  32.773  30.187  1.00  0.00    -0.014 A 
BRANCH  13  14
ATOM     14  C   UNL A   1      37.570  32.172  30.838  1.00  0.00     0.031 A 
ATOM     15  C   UNL A   1      38.394  31.131  30.143  1.00  0.00     0.074 A 
ATOM     16  C   UNL A   1      37.887  32.586  32.079  1.00  0.00     0.049 A 
ATOM     17  N   UNL A   1      39.443  30.485  30.585  1.00  0.00    -0.248 NA
ATOM     18  C   UNL A   1      37.987  30.758  28.781  1.00  0.00     0.031 C 
ATOM     19  C   UNL A   1      37.140  33.588  32.847  1.00  0.00     0.029 A 
ATOM     20  N   UNL A   1      38.914  32.230  32.911  1.00  0.00    -0.354 N 
ATOM     21  C   UNL A   1      39.811  29.617  29.566  1.00  0.00     0.074 A 
ATOM     22  C   UNL A   1      38.859  29.801  28.490  1.00  0.00     0.031 C 
ATOM     23  C   UNL A   1      37.753  33.789  34.021  1.00  0.00     0.029 A 
ATOM     24  C   UNL A   1      38.890  32.882  34.119  1.00  0.00     0.049 A 
ATOM     25  H   UNL A   1      39.603  31.570  32.668  1.00  0.00     0.167 HD
ATOM     26  C   UNL A   1      40.853  28.753  29.537  1.00  0.00     0.037 A 
ATOM     27  C   UNL A   1      39.677  32.743  35.200  1.00  0.00     0.037 A 
ATOM     28  C   UNL A   1      41.796  28.588  30.616  1.00  0.00     0.049 A 
ATOM     29  C   UNL A   1      40.799  31.748  35.152  1.00  0.00     0.074 A 
ATOM     30  C   UNL A   1      42.912  27.772  30.669  1.00  0.00     0.029 A 
ATOM     31  N   UNL A   1      41.725  29.246  31.837  1.00  0.00    -0.354 N 
ATOM     32  N   UNL A   1      41.166  30.965  34.167  1.00  0.00    -0.248 NA
ATOM     33  C   UNL A   1      41.613  31.611  36.366  1.00  0.00     0.031 C 
ATOM     34  C   UNL A   1      43.484  27.894  31.941  1.00  0.00     0.029 A 
ATOM     35  C   UNL A   1      42.759  28.830  32.660  1.00  0.00     0.049 A 
ATOM     36  H   UNL A   1      41.041  29.911  32.080  1.00  0.00     0.167 HD
ATOM     37  C   UNL A   1      42.262  30.255  34.633  1.00  0.00     0.074 A 
ATOM     38  C   UNL A   1      42.513  30.718  35.983  1.00  0.00     0.031 C 
ATOM     39  C   UNL A   1      42.992  29.303  34.002  1.00  0.00     0.037 A 
BRANCH  26  40
ATOM     40  C   UNL A   1      41.022  27.897  28.315  1.00  0.00     0.064 A 
ATOM     41  C   UNL A   1      41.891  28.257  27.274  1.00  0.00     0.173 A 
ATOM     42  C   UNL A   1      40.346  26.671  28.209  1.00  0.00     0.173 A 
ATOM     43  F   UNL A   1      42.554  29.422  27.320  1.00  0.00    -0.203 F 
ATOM     44  C   UNL A   1      42.059  27.433  26.163  1.00  0.00     0.198 A 
ATOM     45  C   UNL A   1      40.539  25.837  27.110  1.00  0.00     0.198 A 
ATOM     46  F   UNL A   1      39.508  26.274  29.179  1.00  0.00    -0.203 F 
ATOM     47  F   UNL A   1      42.863  27.818  25.162  1.00  0.00    -0.200 F 
ATOM     48  C   UNL A   1      41.389  26.221  26.086  1.00  0.00     0.200 A 
ATOM     49  F   UNL A   1      39.901  24.660  27.044  1.00  0.00    -0.200 F 
ATOM     50  F   UNL A   1      41.561  25.426  25.021  1.00  0.00    -0.200 F 
ENDBRANCH  26  40
BRANCH  27  51
ATOM     51  C   UNL A   1      39.413  33.556  36.415  1.00  0.00     0.064 A 
ATOM     52  C   UNL A   1      38.593  33.073  37.442  1.00  0.00     0.173 A 
ATOM     53  C   UNL A   1      39.989  34.825  36.579  1.00  0.00     0.173 A 
ATOM     54  F   UNL A   1      38.008  31.871  37.324  1.00  0.00    -0.203 F 
ATOM     55  C   UNL A   1      38.344  33.836  38.581  1.00  0.00     0.198 A 
ATOM     56  C   UNL A   1      39.766  35.573  37.732  1.00  0.00     0.198 A 
ATOM     57  F   UNL A   1      40.789  35.329  35.629  1.00  0.00    -0.203 F 
ATOM     58  F   UNL A   1      37.523  33.368  39.530  1.00  0.00    -0.200 F 
ATOM     59  C   UNL A   1      38.937  35.081  38.730  1.00  0.00     0.200 A 
ATOM     60  F   UNL A   1      40.357  36.765  37.880  1.00  0.00    -0.200 F 
ATOM     61  F   UNL A   1      38.705  35.809  39.830  1.00  0.00    -0.200 F 
ENDBRANCH  27  51
BRANCH  39  62
ATOM     62  C   UNL A   1      44.149  28.720  34.759  1.00  0.00     0.064 A 
ATOM     63  C   UNL A   1      44.011  27.557  35.530  1.00  0.00     0.173 A 
ATOM     64  C   UNL A   1      45.417  29.315  34.685  1.00  0.00     0.173 A 
ATOM     65  F   UNL A   1      42.815  26.962  35.648  1.00  0.00    -0.203 F 
ATOM     66  C   UNL A   1      45.097  27.025  36.219  1.00  0.00     0.198 A 
ATOM     67  C   UNL A   1      46.507  28.762  35.350  1.00  0.00     0.198 A 
ATOM     68  F   UNL A   1      45.601  30.427  33.957  1.00  0.00    -0.203 F 
ATOM     69  F   UNL A   1      44.933  25.942  36.991  1.00  0.00    -0.200 F 
ATOM     70  C   UNL A   1      46.345  27.623  36.122  1.00  0.00     0.200 A 
ATOM     71  F   UNL A   1      47.714  29.334  35.244  1.00  0.00    -0.200 F 
ATOM     72  F   UNL A   1      47.391  27.104  36.780  1.00  0.00    -0.200 F 
ENDBRANCH  39  62
ENDBRANCH  13  14
ENDBRANCH   6   8
ENDBRANCH   3   4
ENDBRANCH   2   3
ENDBRANCH   1   2
BRANCH   1  73
ATOM     73  C   UNL A   1      30.668  29.728  24.380  1.00  0.00     0.002 C 
BRANCH  73  74
ATOM     74  C   UNL A   1      31.221  29.321  23.009  1.00  0.00     0.021 C 
BRANCH  74  75
ATOM     75  C   UNL A   1      30.742  27.946  22.564  1.00  0.00     0.116 C 
BRANCH  75  76
ATOM     76  N   UNL A   1      31.766  27.276  21.788  1.00  0.00    -0.356 N 
ATOM     77  C   UNL A   1      32.445  26.125  22.006  1.00  0.00     0.229 C 
ATOM     78  H   UNL A   1      32.010  27.739  20.954  1.00  0.00     0.163 HD
ATOM     79  O   UNL A   1      33.302  25.813  21.173  1.00  0.00    -0.275 OA
BRANCH  77  80
ATOM     80  C   UNL A   1      32.169  25.215  23.188  1.00  0.00     0.145 C 
ATOM     81  C   UNL A   1      32.571  23.759  22.959  1.00  0.00     0.276 C 
ATOM     82  C   UNL A   1      32.710  25.651  24.586  1.00  0.00     0.037 C 
ATOM     83  N   UNL A   1      32.972  23.233  24.256  1.00  0.00    -0.330 N 
ATOM     84  C   UNL A   1      33.402  24.358  25.093  1.00  0.00     0.270 C 
ATOM     85  C   UNL A   1      33.663  26.875  24.581  1.00  0.00     0.014 C 
ATOM     86  C   UNL A   1      31.507  26.070  25.475  1.00  0.00     0.014 C 
ATOM     87  H   UNL A   1      33.780  22.622  24.135  1.00  0.00     0.348 HD
ATOM     88  C   UNL A   1      34.046  27.398  25.968  1.00  0.00     0.001 C 
ATOM     89  C   UNL A   1      31.896  26.502  26.887  1.00  0.00     0.001 C 
ATOM     90  C   UNL A   1      32.832  27.697  26.835  1.00  0.00     0.000 C 
BRANCH  83  91
ATOM     91  C   UNL A   1      32.095  22.219  24.854  1.00  0.00     0.299 C 
BRANCH  91  92
ATOM     92  C   UNL A   1      32.396  20.771  24.527  1.00  0.00     0.008 A 
ATOM     93  C   UNL A   1      33.063  19.942  25.443  1.00  0.00     0.011 A 
ATOM     94  C   UNL A   1      32.077  20.249  23.263  1.00  0.00     0.031 A 
ATOM     95  C   UNL A   1      33.534  18.686  25.058  1.00  0.00     0.022 A 
ATOM     96  C   UNL A   1      32.526  18.977  22.882  1.00  0.00     0.060 A 
ATOM     97  C   UNL A   1      33.289  18.210  23.769  1.00  0.00     0.059 A 
ATOM     98  Cl  UNL A   1      32.171  18.452  21.275  1.00  0.00    -0.083 Cl
ATOM     99  Cl  UNL A   1      33.998  16.700  23.322  1.00  0.00    -0.083 Cl
ENDBRANCH  91  92
ENDBRANCH  83  91
ENDBRANCH  77  80
ENDBRANCH  75  76
ENDBRANCH  74  75
ENDBRANCH  73  74
ENDBRANCH   1  73
TORSDOF 15
ENDMDL
