MODEL 1
REMARK VINA RESULT:     -11.6      0.000      0.000
REMARK SMILES CC[C@@H]1CCC[C@@](Cc2ccccn2)(C(=O)NCCCCCCNC(=O)c2ccc(-c3c4nc(c(-c5c(F)c(F)c(F)c(F)c5F)c5ccc([nH]5)c(-c5c(F)c(F)c(F)c(F)c5F)c5nc(c(-c6c(F)c(F)c(F)c(F)c6F)c6ccc3[nH]6)C=C5)C=C4)cc2)C1
REMARK SMILES IDX 20 1 19 2 18 3 17 4 15 5 16 6 7 8 3 9 4 10 90 11 5 12 6 13
REMARK SMILES IDX 2 14 1 15 8 16 9 17 10 18 14 19 11 20 13 21 12 22 21 23
REMARK SMILES IDX 22 24 23 25 24 26 25 27 26 29 27 30 28 31 89 32 29 33 88 34
REMARK SMILES IDX 30 35 31 36 32 37 82 38 33 39 87 40 81 41 83 42 34 43 86 44
REMARK SMILES IDX 80 45 79 46 35 48 67 49 47 50 66 51 48 52 51 53 65 54 84 55
REMARK SMILES IDX 49 56 50 57 64 59 85 60 52 61 36 62 37 63 45 64 38 65 39 66
REMARK SMILES IDX 43 67 46 68 40 69 41 70 44 71 42 72 68 73 69 74 77 75 70 76
REMARK SMILES IDX 71 77 75 78 78 79 72 80 73 81 76 82 74 83 53 84 54 85 62 86
REMARK SMILES IDX 55 87 56 88 60 89 63 90 57 91 58 92 61 93 59 94
REMARK H PARENT 17 7 24 28 83 47 51 58
REMARK Flexibility Score: inf
ROOT
ATOM      1  C   UNL A   1      32.512  30.064  27.005  1.00  0.00     0.002 C 
ENDROOT
BRANCH   1   2
ATOM      2  C   UNL A   1      33.532  29.346  26.117  1.00  0.00     0.021 C 
BRANCH   2   3
ATOM      3  C   UNL A   1      33.118  29.212  24.658  1.00  0.00     0.116 C 
BRANCH   3   4
ATOM      4  N   UNL A   1      33.515  27.963  24.046  1.00  0.00    -0.356 N 
ATOM      5  C   UNL A   1      32.789  26.988  23.438  1.00  0.00     0.226 C 
ATOM      6  O   UNL A   1      33.436  26.255  22.680  1.00  0.00    -0.274 OA
ATOM      7  H   UNL A   1      34.483  27.788  24.075  1.00  0.00     0.163 HD
BRANCH   5   8
ATOM      8  C   UNL A   1      31.256  26.794  23.605  1.00  0.00     0.055 C 
ATOM      9  C   UNL A   1      31.540  24.369  24.546  1.00  0.00    -0.010 C 
ATOM     10  C   UNL A   1      31.151  24.871  25.943  1.00  0.00     0.003 C 
ATOM     11  C   UNL A   1      30.947  25.259  23.428  1.00  0.00     0.021 C 
ATOM     12  C   UNL A   1      31.375  26.368  26.114  1.00  0.00     0.001 C 
ATOM     13  C   UNL A   1      30.680  27.145  24.995  1.00  0.00     0.017 C 
BRANCH   9  14
ATOM     14  C   UNL A   1      31.194  22.879  24.320  1.00  0.00     0.000 C 
ATOM     15  C   UNL A   1      31.779  21.903  25.332  1.00  0.00     0.004 C 
ENDBRANCH   9  14
BRANCH   8  16
ATOM     16  C   UNL A   1      30.523  27.512  22.432  1.00  0.00     0.073 C 
BRANCH  16  17
ATOM     17  C   UNL A   1      29.522  28.589  22.774  1.00  0.00     0.041 A 
ATOM     18  C   UNL A   1      29.940  29.887  23.063  1.00  0.00     0.024 A 
ATOM     19  N   UNL A   1      28.214  28.230  22.798  1.00  0.00    -0.261 NA
ATOM     20  C   UNL A   1      28.987  30.841  23.419  1.00  0.00     0.003 A 
ATOM     21  C   UNL A   1      27.310  29.181  23.126  1.00  0.00     0.111 A 
ATOM     22  C   UNL A   1      27.645  30.483  23.454  1.00  0.00     0.020 A 
ENDBRANCH  16  17
ENDBRANCH   8  16
ENDBRANCH   5   8
ENDBRANCH   3   4
ENDBRANCH   2   3
ENDBRANCH   1   2
BRANCH   1  23
ATOM     23  C   UNL A   1      31.411  30.843  26.271  1.00  0.00     0.002 C 
BRANCH  23  24
ATOM     24  C   UNL A   1      31.393  32.359  26.496  1.00  0.00     0.021 C 
BRANCH  24  25
ATOM     25  C   UNL A   1      32.689  32.950  27.033  1.00  0.00     0.116 C 
BRANCH  25  26
ATOM     26  N   UNL A   1      32.494  34.262  27.625  1.00  0.00    -0.352 N 
ATOM     27  C   UNL A   1      33.091  34.824  28.723  1.00  0.00     0.251 C 
ATOM     28  H   UNL A   1      31.834  34.833  27.171  1.00  0.00     0.163 HD
ATOM     29  O   UNL A   1      32.668  35.890  29.172  1.00  0.00    -0.269 OA
BRANCH  27  30
ATOM     30  C   UNL A   1      34.228  34.151  29.388  1.00  0.00     0.039 A 
ATOM     31  C   UNL A   1      35.524  34.437  28.953  1.00  0.00     0.014 A 
ATOM     32  C   UNL A   1      34.023  33.220  30.412  1.00  0.00     0.014 A 
ATOM     33  C   UNL A   1      36.617  33.831  29.575  1.00  0.00     0.010 A 
ATOM     34  C   UNL A   1      35.116  32.672  31.080  1.00  0.00     0.010 A 
ATOM     35  C   UNL A   1      36.423  32.964  30.662  1.00  0.00    -0.014 A 
BRANCH  35  36
ATOM     36  C   UNL A   1      37.575  32.349  31.367  1.00  0.00     0.031 A 
ATOM     37  C   UNL A   1      38.322  31.206  30.739  1.00  0.00     0.074 A 
ATOM     38  C   UNL A   1      37.912  32.783  32.598  1.00  0.00     0.049 A 
ATOM     39  N   UNL A   1      39.313  30.497  31.221  1.00  0.00    -0.248 NA
ATOM     40  C   UNL A   1      37.880  30.783  29.401  1.00  0.00     0.031 C 
ATOM     41  C   UNL A   1      37.235  33.854  33.329  1.00  0.00     0.029 A 
ATOM     42  N   UNL A   1      38.902  32.369  33.453  1.00  0.00    -0.354 N 
ATOM     43  C   UNL A   1      39.599  29.541  30.256  1.00  0.00     0.074 A 
ATOM     44  C   UNL A   1      38.646  29.724  29.184  1.00  0.00     0.031 C 
ATOM     45  C   UNL A   1      37.841  34.026  34.515  1.00  0.00     0.029 A 
ATOM     46  C   UNL A   1      38.923  33.055  34.642  1.00  0.00     0.049 A 
ATOM     47  H   UNL A   1      39.537  31.649  33.235  1.00  0.00     0.167 HD
ATOM     48  C   UNL A   1      40.583  28.609  30.256  1.00  0.00     0.037 A 
ATOM     49  C   UNL A   1      39.721  32.911  35.718  1.00  0.00     0.037 A 
ATOM     50  C   UNL A   1      41.546  28.450  31.315  1.00  0.00     0.049 A 
ATOM     51  C   UNL A   1      40.804  31.867  35.692  1.00  0.00     0.074 A 
ATOM     52  C   UNL A   1      42.621  27.581  31.380  1.00  0.00     0.029 A 
ATOM     53  N   UNL A   1      41.547  29.177  32.496  1.00  0.00    -0.354 N 
ATOM     54  N   UNL A   1      41.112  31.016  34.744  1.00  0.00    -0.248 NA
ATOM     55  C   UNL A   1      41.657  31.769  36.885  1.00  0.00     0.031 C 
ATOM     56  C   UNL A   1      43.243  27.747  32.622  1.00  0.00     0.029 A 
ATOM     57  C   UNL A   1      42.589  28.758  33.308  1.00  0.00     0.049 A 
ATOM     58  H   UNL A   1      40.903  29.886  32.724  1.00  0.00     0.167 HD
ATOM     59  C   UNL A   1      42.208  30.304  35.210  1.00  0.00     0.074 A 
ATOM     60  C   UNL A   1      42.521  30.832  36.521  1.00  0.00     0.031 C 
ATOM     61  C   UNL A   1      42.893  29.301  34.607  1.00  0.00     0.037 A 
BRANCH  48  62
ATOM     62  C   UNL A   1      40.670  27.689  29.073  1.00  0.00     0.064 A 
ATOM     63  C   UNL A   1      39.820  26.580  28.937  1.00  0.00     0.173 A 
ATOM     64  C   UNL A   1      41.589  27.939  28.043  1.00  0.00     0.173 A 
ATOM     65  F   UNL A   1      38.930  26.290  29.897  1.00  0.00    -0.203 F 
ATOM     66  C   UNL A   1      39.906  25.742  27.828  1.00  0.00     0.198 A 
ATOM     67  C   UNL A   1      41.652  27.116  26.921  1.00  0.00     0.198 A 
ATOM     68  F   UNL A   1      42.423  28.988  28.119  1.00  0.00    -0.203 F 
ATOM     69  F   UNL A   1      39.117  24.662  27.744  1.00  0.00    -0.200 F 
ATOM     70  C   UNL A   1      40.816  26.014  26.818  1.00  0.00     0.200 A 
ATOM     71  F   UNL A   1      42.522  27.389  25.939  1.00  0.00    -0.200 F 
ATOM     72  F   UNL A   1      40.893  25.211  25.748  1.00  0.00    -0.200 F 
ENDBRANCH  48  62
BRANCH  49  73
ATOM     73  C   UNL A   1      39.538  33.791  36.901  1.00  0.00     0.064 A 
ATOM     74  C   UNL A   1      38.769  33.375  37.997  1.00  0.00     0.173 A 
ATOM     75  C   UNL A   1      40.122  35.065  36.961  1.00  0.00     0.173 A 
ATOM     76  F   UNL A   1      38.174  32.173  37.979  1.00  0.00    -0.203 F 
ATOM     77  C   UNL A   1      38.572  34.208  39.097  1.00  0.00     0.198 A 
ATOM     78  C   UNL A   1      39.949  35.885  38.074  1.00  0.00     0.198 A 
ATOM     79  F   UNL A   1      40.873  35.509  35.943  1.00  0.00    -0.203 F 
ATOM     80  F   UNL A   1      37.793  33.803  40.110  1.00  0.00    -0.200 F 
ATOM     81  C   UNL A   1      39.167  35.459  39.138  1.00  0.00     0.200 A 
ATOM     82  F   UNL A   1      40.539  37.087  38.117  1.00  0.00    -0.200 F 
ATOM     83  F   UNL A   1      38.982  36.258  40.198  1.00  0.00    -0.200 F 
ENDBRANCH  49  73
BRANCH  61  84
ATOM     84  C   UNL A   1      44.073  28.734  35.343  1.00  0.00     0.064 A 
ATOM     85  C   UNL A   1      43.962  27.585  36.139  1.00  0.00     0.173 A 
ATOM     86  C   UNL A   1      45.338  29.326  35.214  1.00  0.00     0.173 A 
ATOM     87  F   UNL A   1      42.771  26.991  36.307  1.00  0.00    -0.203 F 
ATOM     88  C   UNL A   1      45.071  27.066  36.802  1.00  0.00     0.198 A 
ATOM     89  C   UNL A   1      46.451  28.785  35.852  1.00  0.00     0.198 A 
ATOM     90  F   UNL A   1      45.499  30.422  34.458  1.00  0.00    -0.203 F 
ATOM     91  F   UNL A   1      44.932  25.996  37.597  1.00  0.00    -0.200 F 
ATOM     92  C   UNL A   1      46.315  27.660  36.652  1.00  0.00     0.200 A 
ATOM     93  F   UNL A   1      47.654  29.353  35.694  1.00  0.00    -0.200 F 
ATOM     94  F   UNL A   1      47.382  27.154  37.284  1.00  0.00    -0.200 F 
ENDBRANCH  61  84
ENDBRANCH  35  36
ENDBRANCH  27  30
ENDBRANCH  25  26
ENDBRANCH  24  25
ENDBRANCH  23  24
ENDBRANCH   1  23
TORSDOF 16
ENDMDL
MODEL 2
REMARK VINA RESULT:     -11.5      0.686      7.384
REMARK SMILES CC[C@@H]1CCC[C@@](Cc2ccccn2)(C(=O)NCCCCCCNC(=O)c2ccc(-c3c4nc(c(-c5c(F)c(F)c(F)c(F)c5F)c5ccc([nH]5)c(-c5c(F)c(F)c(F)c(F)c5F)c5nc(c(-c6c(F)c(F)c(F)c(F)c6F)c6ccc3[nH]6)C=C5)C=C4)cc2)C1
REMARK SMILES IDX 20 1 19 2 18 3 17 4 15 5 16 6 7 8 3 9 4 10 90 11 5 12 6 13
REMARK SMILES IDX 2 14 1 15 8 16 9 17 10 18 14 19 11 20 13 21 12 22 21 23
REMARK SMILES IDX 22 24 23 25 24 26 25 27 26 29 27 30 28 31 89 32 29 33 88 34
REMARK SMILES IDX 30 35 31 36 32 37 82 38 33 39 87 40 81 41 83 42 34 43 86 44
REMARK SMILES IDX 80 45 79 46 35 48 67 49 47 50 66 51 48 52 51 53 65 54 84 55
REMARK SMILES IDX 49 56 50 57 64 59 85 60 52 61 36 62 37 63 45 64 38 65 39 66
REMARK SMILES IDX 43 67 46 68 40 69 41 70 44 71 42 72 68 73 69 74 77 75 70 76
REMARK SMILES IDX 71 77 75 78 78 79 72 80 73 81 76 82 74 83 53 84 54 85 62 86
REMARK SMILES IDX 55 87 56 88 60 89 63 90 57 91 58 92 61 93 59 94
REMARK H PARENT 17 7 24 28 83 47 51 58
REMARK Flexibility Score: inf
ROOT
ATOM      1  C   UNL A   1      33.188  30.144  27.254  1.00  0.00     0.002 C 
ENDROOT
BRANCH   1   2
ATOM      2  C   UNL A   1      33.953  29.293  26.236  1.00  0.00     0.021 C 
BRANCH   2   3
ATOM      3  C   UNL A   1      33.314  29.230  24.856  1.00  0.00     0.116 C 
BRANCH   3   4
ATOM      4  N   UNL A   1      33.617  28.021  24.122  1.00  0.00    -0.356 N 
ATOM      5  C   UNL A   1      32.814  27.140  23.470  1.00  0.00     0.226 C 
ATOM      6  O   UNL A   1      33.387  26.445  22.622  1.00  0.00    -0.274 OA
ATOM      7  H   UNL A   1      34.574  27.797  24.090  1.00  0.00     0.163 HD
BRANCH   5   8
ATOM      8  C   UNL A   1      31.281  27.008  23.694  1.00  0.00     0.055 C 
ATOM      9  C   UNL A   1      31.505  24.586  24.660  1.00  0.00    -0.010 C 
ATOM     10  C   UNL A   1      31.186  25.122  26.063  1.00  0.00     0.003 C 
ATOM     11  C   UNL A   1      30.908  25.484  23.550  1.00  0.00     0.021 C 
ATOM     12  C   UNL A   1      31.473  26.611  26.202  1.00  0.00     0.001 C 
ATOM     13  C   UNL A   1      30.770  27.400  25.098  1.00  0.00     0.017 C 
BRANCH   9  14
ATOM     14  C   UNL A   1      31.095  23.109  24.468  1.00  0.00     0.000 C 
ATOM     15  C   UNL A   1      31.176  22.232  25.711  1.00  0.00     0.004 C 
ENDBRANCH   9  14
BRANCH   8  16
ATOM     16  C   UNL A   1      30.535  27.739  22.537  1.00  0.00     0.073 C 
BRANCH  16  17
ATOM     17  C   UNL A   1      29.636  28.897  22.893  1.00  0.00     0.041 A 
ATOM     18  C   UNL A   1      30.159  30.060  23.456  1.00  0.00     0.024 A 
ATOM     19  N   UNL A   1      28.310  28.746  22.652  1.00  0.00    -0.261 NA
ATOM     20  C   UNL A   1      29.288  31.089  23.813  1.00  0.00     0.003 A 
ATOM     21  C   UNL A   1      27.492  29.769  22.987  1.00  0.00     0.111 A 
ATOM     22  C   UNL A   1      27.927  30.943  23.577  1.00  0.00     0.020 A 
ENDBRANCH  16  17
ENDBRANCH   8  16
ENDBRANCH   5   8
ENDBRANCH   3   4
ENDBRANCH   2   3
ENDBRANCH   1   2
BRANCH   1  23
ATOM     23  C   UNL A   1      31.759  30.543  26.859  1.00  0.00     0.002 C 
BRANCH  23  24
ATOM     24  C   UNL A   1      31.455  32.045  26.854  1.00  0.00     0.021 C 
BRANCH  24  25
ATOM     25  C   UNL A   1      32.676  32.954  26.810  1.00  0.00     0.116 C 
BRANCH  25  26
ATOM     26  N   UNL A   1      32.469  34.193  27.540  1.00  0.00    -0.352 N 
ATOM     27  C   UNL A   1      33.077  34.647  28.680  1.00  0.00     0.251 C 
ATOM     28  H   UNL A   1      31.792  34.796  27.158  1.00  0.00     0.163 HD
ATOM     29  O   UNL A   1      32.643  35.652  29.246  1.00  0.00    -0.269 OA
BRANCH  27  30
ATOM     30  C   UNL A   1      34.236  33.929  29.253  1.00  0.00     0.039 A 
ATOM     31  C   UNL A   1      35.522  34.383  28.947  1.00  0.00     0.014 A 
ATOM     32  C   UNL A   1      34.065  32.800  30.060  1.00  0.00     0.014 A 
ATOM     33  C   UNL A   1      36.634  33.735  29.489  1.00  0.00     0.010 A 
ATOM     34  C   UNL A   1      35.171  32.201  30.658  1.00  0.00     0.010 A 
ATOM     35  C   UNL A   1      36.467  32.656  30.372  1.00  0.00    -0.014 A 
BRANCH  35  36
ATOM     36  C   UNL A   1      37.637  31.988  30.995  1.00  0.00     0.031 A 
ATOM     37  C   UNL A   1      38.096  32.394  32.368  1.00  0.00     0.074 A 
ATOM     38  C   UNL A   1      38.318  31.055  30.302  1.00  0.00     0.049 A 
ATOM     39  N   UNL A   1      39.129  31.975  33.055  1.00  0.00    -0.248 NA
ATOM     40  C   UNL A   1      37.305  33.431  33.050  1.00  0.00     0.031 C 
ATOM     41  C   UNL A   1      37.996  30.608  28.947  1.00  0.00     0.029 A 
ATOM     42  N   UNL A   1      39.428  30.323  30.640  1.00  0.00    -0.354 N 
ATOM     43  C   UNL A   1      39.120  32.705  34.236  1.00  0.00     0.074 A 
ATOM     44  C   UNL A   1      38.012  33.630  34.153  1.00  0.00     0.031 C 
ATOM     45  C   UNL A   1      38.877  29.666  28.574  1.00  0.00     0.029 A 
ATOM     46  C   UNL A   1      39.845  29.469  29.648  1.00  0.00     0.049 A 
ATOM     47  H   UNL A   1      39.884  30.402  31.509  1.00  0.00     0.167 HD
ATOM     48  C   UNL A   1      39.948  32.595  35.302  1.00  0.00     0.037 A 
ATOM     49  C   UNL A   1      40.896  28.627  29.608  1.00  0.00     0.037 A 
ATOM     50  C   UNL A   1      41.033  31.653  35.391  1.00  0.00     0.049 A 
ATOM     51  C   UNL A   1      41.801  28.526  30.805  1.00  0.00     0.074 A 
ATOM     52  C   UNL A   1      41.888  31.419  36.453  1.00  0.00     0.029 A 
ATOM     53  N   UNL A   1      41.413  30.790  34.373  1.00  0.00    -0.354 N 
ATOM     54  N   UNL A   1      41.740  29.170  31.946  1.00  0.00    -0.248 NA
ATOM     55  C   UNL A   1      42.919  27.576  30.713  1.00  0.00     0.031 C 
ATOM     56  C   UNL A   1      42.817  30.449  36.061  1.00  0.00     0.029 A 
ATOM     57  C   UNL A   1      42.507  30.039  34.774  1.00  0.00     0.049 A 
ATOM     58  H   UNL A   1      40.971  30.720  33.497  1.00  0.00     0.167 HD
ATOM     59  C   UNL A   1      42.788  28.684  32.716  1.00  0.00     0.074 A 
ATOM     60  C   UNL A   1      43.460  27.681  31.918  1.00  0.00     0.031 C 
ATOM     61  C   UNL A   1      43.160  29.038  33.971  1.00  0.00     0.037 A 
BRANCH  48  62
ATOM     62  C   UNL A   1      39.714  33.518  36.464  1.00  0.00     0.064 A 
ATOM     63  C   UNL A   1      40.324  34.780  36.539  1.00  0.00     0.173 A 
ATOM     64  C   UNL A   1      38.837  33.153  37.497  1.00  0.00     0.173 A 
ATOM     65  F   UNL A   1      41.178  35.174  35.583  1.00  0.00    -0.203 F 
ATOM     66  C   UNL A   1      40.087  35.628  37.617  1.00  0.00     0.198 A 
ATOM     67  C   UNL A   1      38.579  34.016  38.559  1.00  0.00     0.198 A 
ATOM     68  F   UNL A   1      38.222  31.960  37.473  1.00  0.00    -0.203 F 
ATOM     69  F   UNL A   1      40.720  36.807  37.692  1.00  0.00    -0.200 F 
ATOM     70  C   UNL A   1      39.210  35.249  38.623  1.00  0.00     0.200 A 
ATOM     71  F   UNL A   1      37.720  33.655  39.521  1.00  0.00    -0.200 F 
ATOM     72  F   UNL A   1      38.978  36.070  39.656  1.00  0.00    -0.200 F 
ENDBRANCH  48  62
BRANCH  49  73
ATOM     73  C   UNL A   1      41.136  27.796  28.399  1.00  0.00     0.064 A 
ATOM     74  C   UNL A   1      41.981  28.242  27.374  1.00  0.00     0.173 A 
ATOM     75  C   UNL A   1      40.523  26.544  28.240  1.00  0.00     0.173 A 
ATOM     76  F   UNL A   1      42.575  29.441  27.472  1.00  0.00    -0.203 F 
ATOM     77  C   UNL A   1      42.189  27.479  26.226  1.00  0.00     0.198 A 
ATOM     78  C   UNL A   1      40.754  25.769  27.105  1.00  0.00     0.198 A 
ATOM     79  F   UNL A   1      39.710  26.067  29.193  1.00  0.00    -0.203 F 
ATOM     80  F   UNL A   1      42.965  27.952  25.242  1.00  0.00    -0.200 F 
ATOM     81  C   UNL A   1      41.579  26.241  26.096  1.00  0.00     0.200 A 
ATOM     82  F   UNL A   1      40.177  24.565  26.990  1.00  0.00    -0.200 F 
ATOM     83  F   UNL A   1      41.782  25.505  24.994  1.00  0.00    -0.200 F 
ENDBRANCH  49  73
BRANCH  61  84
ATOM     84  C   UNL A   1      44.326  28.309  34.574  1.00  0.00     0.064 A 
ATOM     85  C   UNL A   1      44.160  27.103  35.271  1.00  0.00     0.173 A 
ATOM     86  C   UNL A   1      45.629  28.803  34.415  1.00  0.00     0.173 A 
ATOM     87  F   UNL A   1      42.933  26.597  35.465  1.00  0.00    -0.203 F 
ATOM     88  C   UNL A   1      45.255  26.434  35.811  1.00  0.00     0.198 A 
ATOM     89  C   UNL A   1      46.724  28.113  34.927  1.00  0.00     0.198 A 
ATOM     90  F   UNL A   1      45.842  29.948  33.749  1.00  0.00    -0.203 F 
ATOM     91  F   UNL A   1      45.069  25.309  36.516  1.00  0.00    -0.200 F 
ATOM     92  C   UNL A   1      46.536  26.934  35.632  1.00  0.00     0.200 A 
ATOM     93  F   UNL A   1      47.962  28.592  34.740  1.00  0.00    -0.200 F 
ATOM     94  F   UNL A   1      47.590  26.284  36.144  1.00  0.00    -0.200 F 
ENDBRANCH  61  84
ENDBRANCH  35  36
ENDBRANCH  27  30
ENDBRANCH  25  26
ENDBRANCH  24  25
ENDBRANCH  23  24
ENDBRANCH   1  23
TORSDOF 16
ENDMDL
MODEL 3
REMARK VINA RESULT:     -11.4      4.701      8.273
REMARK SMILES CC[C@@H]1CCC[C@@](Cc2ccccn2)(C(=O)NCCCCCCNC(=O)c2ccc(-c3c4nc(c(-c5c(F)c(F)c(F)c(F)c5F)c5ccc([nH]5)c(-c5c(F)c(F)c(F)c(F)c5F)c5nc(c(-c6c(F)c(F)c(F)c(F)c6F)c6ccc3[nH]6)C=C5)C=C4)cc2)C1
REMARK SMILES IDX 20 1 19 2 18 3 17 4 15 5 16 6 7 8 3 9 4 10 90 11 5 12 6 13
REMARK SMILES IDX 2 14 1 15 8 16 9 17 10 18 14 19 11 20 13 21 12 22 21 23
REMARK SMILES IDX 22 24 23 25 24 26 25 27 26 29 27 30 28 31 89 32 29 33 88 34
REMARK SMILES IDX 30 35 31 36 32 37 82 38 33 39 87 40 81 41 83 42 34 43 86 44
REMARK SMILES IDX 80 45 79 46 35 48 67 49 47 50 66 51 48 52 51 53 65 54 84 55
REMARK SMILES IDX 49 56 50 57 64 59 85 60 52 61 36 62 37 63 45 64 38 65 39 66
REMARK SMILES IDX 43 67 46 68 40 69 41 70 44 71 42 72 68 73 69 74 77 75 70 76
REMARK SMILES IDX 71 77 75 78 78 79 72 80 73 81 76 82 74 83 53 84 54 85 62 86
REMARK SMILES IDX 55 87 56 88 60 89 63 90 57 91 58 92 61 93 59 94
REMARK H PARENT 17 7 24 28 83 47 51 58
REMARK Flexibility Score: inf
ROOT
ATOM      1  C   UNL A   1      34.272  23.092  23.114  1.00  0.00     0.002 C 
ENDROOT
BRANCH   1   2
ATOM      2  C   UNL A   1      33.177  22.913  24.167  1.00  0.00     0.021 C 
BRANCH   2   3
ATOM      3  C   UNL A   1      31.816  23.465  23.766  1.00  0.00     0.116 C 
BRANCH   3   4
ATOM      4  N   UNL A   1      31.136  24.179  24.823  1.00  0.00    -0.356 N 
ATOM      5  C   UNL A   1      30.874  25.502  24.992  1.00  0.00     0.226 C 
ATOM      6  O   UNL A   1      29.949  25.752  25.775  1.00  0.00    -0.274 OA
ATOM      7  H   UNL A   1      30.803  23.605  25.550  1.00  0.00     0.163 HD
BRANCH   5   8
ATOM      8  C   UNL A   1      31.612  26.650  24.248  1.00  0.00     0.055 C 
ATOM      9  C   UNL A   1      32.038  27.978  26.463  1.00  0.00    -0.010 C 
ATOM     10  C   UNL A   1      33.527  27.611  26.389  1.00  0.00     0.003 C 
ATOM     11  C   UNL A   1      31.375  27.977  25.065  1.00  0.00     0.021 C 
ATOM     12  C   UNL A   1      33.786  26.371  25.545  1.00  0.00     0.001 C 
ATOM     13  C   UNL A   1      33.149  26.519  24.163  1.00  0.00     0.017 C 
BRANCH   9  14
ATOM     14  C   UNL A   1      31.778  29.307  27.207  1.00  0.00     0.000 C 
ATOM     15  C   UNL A   1      32.725  30.451  26.872  1.00  0.00     0.004 C 
ENDBRANCH   9  14
BRANCH   8  16
ATOM     16  C   UNL A   1      30.932  26.877  22.864  1.00  0.00     0.073 C 
BRANCH  16  17
ATOM     17  C   UNL A   1      29.901  27.973  22.752  1.00  0.00     0.041 A 
ATOM     18  C   UNL A   1      28.625  27.812  23.291  1.00  0.00     0.024 A 
ATOM     19  N   UNL A   1      30.269  29.102  22.098  1.00  0.00    -0.261 NA
ATOM     20  C   UNL A   1      27.687  28.830  23.126  1.00  0.00     0.003 A 
ATOM     21  C   UNL A   1      29.346  30.082  21.972  1.00  0.00     0.111 A 
ATOM     22  C   UNL A   1      28.051  29.989  22.452  1.00  0.00     0.020 A 
ENDBRANCH  16  17
ENDBRANCH   8  16
ENDBRANCH   5   8
ENDBRANCH   3   4
ENDBRANCH   2   3
ENDBRANCH   1   2
BRANCH   1  23
ATOM     23  C   UNL A   1      35.689  23.346  23.650  1.00  0.00     0.002 C 
BRANCH  23  24
ATOM     24  C   UNL A   1      36.493  22.103  24.045  1.00  0.00     0.021 C 
BRANCH  24  25
ATOM     25  C   UNL A   1      36.859  22.009  25.520  1.00  0.00     0.116 C 
BRANCH  25  26
ATOM     26  N   UNL A   1      37.871  20.999  25.775  1.00  0.00    -0.352 N 
ATOM     27  C   UNL A   1      39.185  21.149  26.133  1.00  0.00     0.251 C 
ATOM     28  H   UNL A   1      37.569  20.068  25.675  1.00  0.00     0.163 HD
ATOM     29  O   UNL A   1      39.934  20.171  26.138  1.00  0.00    -0.269 OA
BRANCH  27  30
ATOM     30  C   UNL A   1      39.719  22.480  26.493  1.00  0.00     0.039 A 
ATOM     31  C   UNL A   1      40.647  22.569  27.535  1.00  0.00     0.014 A 
ATOM     32  C   UNL A   1      39.292  23.637  25.836  1.00  0.00     0.014 A 
ATOM     33  C   UNL A   1      41.183  23.811  27.884  1.00  0.00     0.010 A 
ATOM     34  C   UNL A   1      39.881  24.863  26.135  1.00  0.00     0.010 A 
ATOM     35  C   UNL A   1      40.825  24.964  27.168  1.00  0.00    -0.014 A 
BRANCH  35  36
ATOM     36  C   UNL A   1      41.422  26.284  27.494  1.00  0.00     0.031 A 
ATOM     37  C   UNL A   1      42.836  26.594  27.090  1.00  0.00     0.074 A 
ATOM     38  C   UNL A   1      40.708  27.181  28.202  1.00  0.00     0.049 A 
ATOM     39  N   UNL A   1      43.553  27.662  27.335  1.00  0.00    -0.248 NA
ATOM     40  C   UNL A   1      43.550  25.554  26.332  1.00  0.00     0.031 C 
ATOM     41  C   UNL A   1      39.343  26.978  28.689  1.00  0.00     0.029 A 
ATOM     42  N   UNL A   1      41.036  28.437  28.644  1.00  0.00    -0.354 N 
ATOM     43  C   UNL A   1      44.801  27.416  26.778  1.00  0.00     0.074 A 
ATOM     44  C   UNL A   1      44.763  26.079  26.228  1.00  0.00     0.031 C 
ATOM     45  C   UNL A   1      38.944  28.079  29.346  1.00  0.00     0.029 A 
ATOM     46  C   UNL A   1      40.034  29.048  29.358  1.00  0.00     0.049 A 
ATOM     47  H   UNL A   1      41.907  28.861  28.468  1.00  0.00     0.167 HD
ATOM     48  C   UNL A   1      45.874  28.240  26.712  1.00  0.00     0.037 A 
ATOM     49  C   UNL A   1      40.003  30.251  29.962  1.00  0.00     0.037 A 
ATOM     50  C   UNL A   1      45.898  29.581  27.237  1.00  0.00     0.049 A 
ATOM     51  C   UNL A   1      41.209  31.146  29.875  1.00  0.00     0.074 A 
ATOM     52  C   UNL A   1      46.912  30.519  27.163  1.00  0.00     0.029 A 
ATOM     53  N   UNL A   1      44.856  30.172  27.938  1.00  0.00    -0.354 N 
ATOM     54  N   UNL A   1      42.359  30.932  29.283  1.00  0.00    -0.248 NA
ATOM     55  C   UNL A   1      41.111  32.456  30.535  1.00  0.00     0.031 C 
ATOM     56  C   UNL A   1      46.504  31.660  27.862  1.00  0.00     0.029 A 
ATOM     57  C   UNL A   1      45.214  31.454  28.324  1.00  0.00     0.049 A 
ATOM     58  H   UNL A   1      43.991  29.744  28.132  1.00  0.00     0.167 HD
ATOM     59  C   UNL A   1      43.107  32.085  29.472  1.00  0.00     0.074 A 
ATOM     60  C   UNL A   1      42.276  33.003  30.221  1.00  0.00     0.031 C 
ATOM     61  C   UNL A   1      44.371  32.359  29.062  1.00  0.00     0.037 A 
BRANCH  48  62
ATOM     62  C   UNL A   1      47.114  27.717  26.046  1.00  0.00     0.064 A 
ATOM     63  C   UNL A   1      47.289  27.782  24.655  1.00  0.00     0.173 A 
ATOM     64  C   UNL A   1      48.159  27.178  26.812  1.00  0.00     0.173 A 
ATOM     65  F   UNL A   1      46.316  28.279  23.876  1.00  0.00    -0.203 F 
ATOM     66  C   UNL A   1      48.450  27.303  24.054  1.00  0.00     0.198 A 
ATOM     67  C   UNL A   1      49.332  26.727  26.211  1.00  0.00     0.198 A 
ATOM     68  F   UNL A   1      48.048  27.096  28.147  1.00  0.00    -0.203 F 
ATOM     69  F   UNL A   1      48.572  27.331  22.720  1.00  0.00    -0.200 F 
ATOM     70  C   UNL A   1      49.473  26.782  24.832  1.00  0.00     0.200 A 
ATOM     71  F   UNL A   1      50.325  26.238  26.965  1.00  0.00    -0.200 F 
ATOM     72  F   UNL A   1      50.592  26.328  24.253  1.00  0.00    -0.200 F 
ENDBRANCH  48  62
BRANCH  49  73
ATOM     73  C   UNL A   1      38.779  30.688  30.684  1.00  0.00     0.064 A 
ATOM     74  C   UNL A   1      37.706  31.271  29.996  1.00  0.00     0.173 A 
ATOM     75  C   UNL A   1      38.658  30.537  32.073  1.00  0.00     0.173 A 
ATOM     76  F   UNL A   1      37.782  31.454  28.670  1.00  0.00    -0.203 F 
ATOM     77  C   UNL A   1      36.568  31.707  30.672  1.00  0.00     0.198 A 
ATOM     78  C   UNL A   1      37.507  30.947  32.744  1.00  0.00     0.198 A 
ATOM     79  F   UNL A   1      39.653  29.979  32.779  1.00  0.00    -0.203 F 
ATOM     80  F   UNL A   1      35.577  32.304  29.995  1.00  0.00    -0.200 F 
ATOM     81  C   UNL A   1      36.467  31.539  32.044  1.00  0.00     0.200 A 
ATOM     82  F   UNL A   1      37.407  30.767  34.068  1.00  0.00    -0.200 F 
ATOM     83  F   UNL A   1      35.371  31.953  32.693  1.00  0.00    -0.200 F 
ENDBRANCH  49  73
BRANCH  61  84
ATOM     84  C   UNL A   1      44.919  33.720  29.383  1.00  0.00     0.064 A 
ATOM     85  C   UNL A   1      44.724  34.813  28.526  1.00  0.00     0.173 A 
ATOM     86  C   UNL A   1      45.610  33.940  30.583  1.00  0.00     0.173 A 
ATOM     87  F   UNL A   1      44.084  34.651  27.359  1.00  0.00    -0.203 F 
ATOM     88  C   UNL A   1      45.227  36.071  28.847  1.00  0.00     0.198 A 
ATOM     89  C   UNL A   1      46.082  35.206  30.917  1.00  0.00     0.198 A 
ATOM     90  F   UNL A   1      45.815  32.929  31.441  1.00  0.00    -0.203 F 
ATOM     91  F   UNL A   1      45.072  37.090  27.991  1.00  0.00    -0.200 F 
ATOM     92  C   UNL A   1      45.898  36.268  30.045  1.00  0.00     0.200 A 
ATOM     93  F   UNL A   1      46.718  35.397  32.081  1.00  0.00    -0.200 F 
ATOM     94  F   UNL A   1      46.373  37.482  30.357  1.00  0.00    -0.200 F 
ENDBRANCH  61  84
ENDBRANCH  35  36
ENDBRANCH  27  30
ENDBRANCH  25  26
ENDBRANCH  24  25
ENDBRANCH  23  24
ENDBRANCH   1  23
TORSDOF 16
ENDMDL
