MODEL 1
REMARK VINA RESULT:      -9.3      0.000      0.000
REMARK SMILES CC1CC[NH+]([C@H](c2ccc(F)cc2)c2ccc([C@@H](C)C(=O)NCCCCCCNC(=O)c3ccc(-c4c5nc(c(-c6c(F)c(F)c(F)c(F)c6F)c6ccc([nH]6)c(-c6c(F)c(F)c(F)c(F)c6F)c6nc(c(-c7c(F)c(F)c(F)c(F)c7F)c7ccc4[nH]7)C=C6)C=C5)cc3)cc2-c2ccc(C(F)(F)F)cc2)CC1
REMARK SMILES IDX 25 1 24 2 23 3 22 4 20 5 21 6 18 8 19 9 17 10 14 11 15 12
REMARK SMILES IDX 96 13 16 14 95 15 6 16 5 17 1 18 2 19 3 20 108 21 4 22
REMARK SMILES IDX 107 23 7 25 8 26 13 27 9 28 12 29 10 30 11 31 97 32 98 33
REMARK SMILES IDX 106 34 99 35 105 36 100 37 101 38 102 39 103 40 104 41 26 42
REMARK SMILES IDX 27 43 28 44 29 45 30 46 31 48 32 49 33 50 94 51 34 52 93 53
REMARK SMILES IDX 35 54 36 55 37 56 87 57 38 58 92 59 86 60 88 61 39 62 91 63
REMARK SMILES IDX 85 64 84 65 40 67 72 68 52 69 71 70 53 71 56 72 70 73 89 74
REMARK SMILES IDX 54 75 55 76 69 78 90 79 57 80 41 81 42 82 50 83 43 84 44 85
REMARK SMILES IDX 48 86 51 87 45 88 46 89 49 90 47 91 73 92 74 93 82 94 75 95
REMARK SMILES IDX 76 96 80 97 83 98 77 99 78 100 81 101 79 102 58 103 59 104
REMARK SMILES IDX 67 105 60 106 61 107 65 108 68 109 62 110 63 111 66 112
REMARK SMILES IDX 64 113
REMARK H PARENT 22 7 5 24 29 47 88 66 56 77
REMARK Flexibility Score: inf
ROOT
ATOM      1  C   UNL A   1      43.603  23.153  25.256  1.00  0.00     0.002 C 
ENDROOT
BRANCH   1   2
ATOM      2  C   UNL A   1      43.936  24.646  25.265  1.00  0.00     0.021 C 
BRANCH   2   3
ATOM      3  C   UNL A   1      45.386  24.959  25.657  1.00  0.00     0.116 C 
BRANCH   3   4
ATOM      4  N   UNL A   1      45.928  26.053  24.876  1.00  0.00    -0.356 N 
ATOM      5  C   UNL A   1      45.853  27.406  25.000  1.00  0.00     0.227 C 
ATOM      6  O   UNL A   1      46.386  28.060  24.094  1.00  0.00    -0.274 OA
ATOM      7  H   UNL A   1      46.457  25.758  24.100  1.00  0.00     0.163 HD
BRANCH   5   8
ATOM      8  C   UNL A   1      45.173  28.144  26.171  1.00  0.00     0.105 C 
ATOM      9  C   UNL A   1      43.647  28.100  26.129  1.00  0.00     0.023 C 
BRANCH   8  10
ATOM     10  C   UNL A   1      45.776  29.509  26.448  1.00  0.00    -0.035 A 
ATOM     11  C   UNL A   1      46.968  31.948  27.369  1.00  0.00     0.022 A 
ATOM     12  C   UNL A   1      47.715  30.891  26.830  1.00  0.00     0.011 A 
ATOM     13  C   UNL A   1      45.553  31.818  27.300  1.00  0.00    -0.009 A 
ATOM     14  C   UNL A   1      47.127  29.754  26.290  1.00  0.00     0.005 A 
ATOM     15  C   UNL A   1      44.992  30.570  26.919  1.00  0.00     0.013 A 
BRANCH  11  16
ATOM     16  C   UNL A   1      47.676  33.213  27.937  1.00  0.00     0.247 C 
BRANCH  16  17
ATOM     17  N   UNL A   1      48.833  33.782  27.165  1.00  0.00    -0.325 N 
ATOM     18  C   UNL A   1      51.315  36.896  25.340  1.00  0.00     0.008 C 
ATOM     19  C   UNL A   1      50.251  36.101  26.079  1.00  0.00    -0.003 C 
ATOM     20  C   UNL A   1      50.849  35.349  27.265  1.00  0.00     0.065 C 
ATOM     21  C   UNL A   1      49.614  35.080  25.151  1.00  0.00     0.065 C 
ATOM     22  C   UNL A   1      49.823  34.473  27.997  1.00  0.00     0.263 C 
ATOM     23  C   UNL A   1      48.482  34.360  25.869  1.00  0.00     0.263 C 
ATOM     24  H   UNL A   1      49.381  32.983  26.847  1.00  0.00     0.348 HD
ENDBRANCH  16  17
BRANCH  16  25
ATOM     25  C   UNL A   1      48.041  33.095  29.431  1.00  0.00     0.014 A 
ATOM     26  C   UNL A   1      48.725  31.975  29.947  1.00  0.00     0.013 A 
ATOM     27  C   UNL A   1      47.688  34.128  30.320  1.00  0.00     0.013 A 
ATOM     28  C   UNL A   1      49.064  31.903  31.299  1.00  0.00     0.040 A 
ATOM     29  C   UNL A   1      47.992  34.036  31.680  1.00  0.00     0.040 A 
ATOM     30  C   UNL A   1      48.685  32.930  32.154  1.00  0.00     0.123 A 
ATOM     31  F   UNL A   1      48.994  32.852  33.455  1.00  0.00    -0.207 F 
ENDBRANCH  16  25
ENDBRANCH  11  16
BRANCH  13  32
ATOM     32  C   UNL A   1      44.617  32.936  27.539  1.00  0.00    -0.018 A 
ATOM     33  C   UNL A   1      44.287  33.848  26.526  1.00  0.00     0.009 A 
ATOM     34  C   UNL A   1      44.071  33.141  28.817  1.00  0.00     0.009 A 
ATOM     35  C   UNL A   1      43.410  34.909  26.775  1.00  0.00     0.014 A 
ATOM     36  C   UNL A   1      43.184  34.192  29.066  1.00  0.00     0.014 A 
ATOM     37  C   UNL A   1      42.837  35.083  28.043  1.00  0.00     0.056 A 
BRANCH  37  38
ATOM     38  C   UNL A   1      41.884  36.224  28.297  1.00  0.00     0.416 C 
ATOM     39  F   UNL A   1      41.521  36.863  27.151  1.00  0.00    -0.166 F 
ATOM     40  F   UNL A   1      40.724  35.819  28.885  1.00  0.00    -0.166 F 
ATOM     41  F   UNL A   1      42.397  37.186  29.115  1.00  0.00    -0.166 F 
ENDBRANCH  37  38
ENDBRANCH  13  32
ENDBRANCH   8  10
ENDBRANCH   5   8
ENDBRANCH   3   4
ENDBRANCH   2   3
ENDBRANCH   1   2
BRANCH   1  42
ATOM     42  C   UNL A   1      42.789  22.671  26.465  1.00  0.00     0.002 C 
BRANCH  42  43
ATOM     43  C   UNL A   1      41.743  21.595  26.157  1.00  0.00     0.021 C 
BRANCH  43  44
ATOM     44  C   UNL A   1      40.476  21.699  26.998  1.00  0.00     0.116 C 
BRANCH  44  45
ATOM     45  N   UNL A   1      39.339  22.137  26.195  1.00  0.00    -0.352 N 
ATOM     46  C   UNL A   1      38.666  23.336  26.226  1.00  0.00     0.251 C 
ATOM     47  H   UNL A   1      39.008  21.483  25.539  1.00  0.00     0.163 HD
ATOM     48  O   UNL A   1      37.575  23.460  25.688  1.00  0.00    -0.269 OA
BRANCH  46  49
ATOM     49  C   UNL A   1      39.290  24.483  26.913  1.00  0.00     0.039 A 
ATOM     50  C   UNL A   1      40.134  25.353  26.220  1.00  0.00     0.014 A 
ATOM     51  C   UNL A   1      39.015  24.694  28.261  1.00  0.00     0.014 A 
ATOM     52  C   UNL A   1      40.631  26.489  26.868  1.00  0.00     0.010 A 
ATOM     53  C   UNL A   1      39.439  25.863  28.877  1.00  0.00     0.010 A 
ATOM     54  C   UNL A   1      40.248  26.777  28.189  1.00  0.00    -0.014 A 
BRANCH  54  55
ATOM     55  C   UNL A   1      40.657  28.020  28.894  1.00  0.00     0.031 A 
ATOM     56  C   UNL A   1      42.029  28.117  29.500  1.00  0.00     0.074 A 
ATOM     57  C   UNL A   1      39.756  28.999  29.106  1.00  0.00     0.049 A 
ATOM     58  N   UNL A   1      42.518  29.026  30.306  1.00  0.00    -0.248 NA
ATOM     59  C   UNL A   1      42.967  27.024  29.193  1.00  0.00     0.031 C 
ATOM     60  C   UNL A   1      38.379  29.001  28.614  1.00  0.00     0.029 A 
ATOM     61  N   UNL A   1      39.857  30.173  29.812  1.00  0.00    -0.354 N 
ATOM     62  C   UNL A   1      43.801  28.600  30.621  1.00  0.00     0.074 A 
ATOM     63  C   UNL A   1      43.998  27.324  29.969  1.00  0.00     0.031 C 
ATOM     64  C   UNL A   1      37.770  30.127  29.015  1.00  0.00     0.029 A 
ATOM     65  C   UNL A   1      38.694  30.904  29.837  1.00  0.00     0.049 A 
ATOM     66  H   UNL A   1      40.686  30.463  30.259  1.00  0.00     0.167 HD
ATOM     67  C   UNL A   1      44.740  29.231  31.363  1.00  0.00     0.037 A 
ATOM     68  C   UNL A   1      38.397  32.058  30.465  1.00  0.00     0.037 A 
ATOM     69  C   UNL A   1      44.551  30.518  31.974  1.00  0.00     0.049 A 
ATOM     70  C   UNL A   1      39.451  32.738  31.296  1.00  0.00     0.074 A 
ATOM     71  C   UNL A   1      45.467  31.277  32.679  1.00  0.00     0.029 A 
ATOM     72  N   UNL A   1      43.364  31.237  31.954  1.00  0.00    -0.354 N 
ATOM     73  N   UNL A   1      40.682  32.358  31.535  1.00  0.00    -0.248 NA
ATOM     74  C   UNL A   1      39.079  34.004  31.946  1.00  0.00     0.031 C 
ATOM     75  C   UNL A   1      44.819  32.425  33.138  1.00  0.00     0.029 A 
ATOM     76  C   UNL A   1      43.518  32.416  32.663  1.00  0.00     0.049 A 
ATOM     77  H   UNL A   1      42.537  30.952  31.503  1.00  0.00     0.167 HD
ATOM     78  C   UNL A   1      41.240  33.345  32.336  1.00  0.00     0.074 A 
ATOM     79  C   UNL A   1      40.214  34.345  32.544  1.00  0.00     0.031 C 
ATOM     80  C   UNL A   1      42.492  33.412  32.850  1.00  0.00     0.037 A 
BRANCH  67  81
ATOM     81  C   UNL A   1      46.066  28.550  31.551  1.00  0.00     0.064 A 
ATOM     82  C   UNL A   1      46.319  27.791  32.704  1.00  0.00     0.173 A 
ATOM     83  C   UNL A   1      47.110  28.705  30.626  1.00  0.00     0.173 A 
ATOM     84  F   UNL A   1      45.360  27.617  33.625  1.00  0.00    -0.203 F 
ATOM     85  C   UNL A   1      47.571  27.224  32.928  1.00  0.00     0.198 A 
ATOM     86  C   UNL A   1      48.349  28.106  30.836  1.00  0.00     0.198 A 
ATOM     87  F   UNL A   1      46.918  29.414  29.503  1.00  0.00    -0.203 F 
ATOM     88  F   UNL A   1      47.800  26.534  34.055  1.00  0.00    -0.200 F 
ATOM     89  C   UNL A   1      48.583  27.376  31.991  1.00  0.00     0.200 A 
ATOM     90  F   UNL A   1      49.315  28.232  29.917  1.00  0.00    -0.200 F 
ATOM     91  F   UNL A   1      49.782  26.816  32.202  1.00  0.00    -0.200 F 
ENDBRANCH  67  81
BRANCH  68  92
ATOM     92  C   UNL A   1      37.044  32.650  30.297  1.00  0.00     0.064 A 
ATOM     93  C   UNL A   1      36.728  33.463  29.197  1.00  0.00     0.173 A 
ATOM     94  C   UNL A   1      36.054  32.461  31.273  1.00  0.00     0.173 A 
ATOM     95  F   UNL A   1      37.642  33.682  28.240  1.00  0.00    -0.203 F 
ATOM     96  C   UNL A   1      35.486  34.086  29.095  1.00  0.00     0.198 A 
ATOM     97  C   UNL A   1      34.803  33.063  31.155  1.00  0.00     0.198 A 
ATOM     98  F   UNL A   1      36.302  31.679  32.332  1.00  0.00    -0.203 F 
ATOM     99  F   UNL A   1      35.228  34.894  28.058  1.00  0.00    -0.200 F 
ATOM    100  C   UNL A   1      34.524  33.883  30.073  1.00  0.00     0.200 A 
ATOM    101  F   UNL A   1      33.869  32.849  32.091  1.00  0.00    -0.200 F 
ATOM    102  F   UNL A   1      33.329  34.482  29.973  1.00  0.00    -0.200 F 
ENDBRANCH  68  92
BRANCH  80 103
ATOM    103  C   UNL A   1      42.861  34.615  33.668  1.00  0.00     0.064 A 
ATOM    104  C   UNL A   1      43.358  35.769  33.040  1.00  0.00     0.173 A 
ATOM    105  C   UNL A   1      42.864  34.575  35.069  1.00  0.00     0.173 A 
ATOM    106  F   UNL A   1      43.385  35.850  31.701  1.00  0.00    -0.203 F 
ATOM    107  C   UNL A   1      43.879  36.821  33.785  1.00  0.00     0.198 A 
ATOM    108  C   UNL A   1      43.360  35.643  35.811  1.00  0.00     0.198 A 
ATOM    109  F   UNL A   1      42.390  33.499  35.714  1.00  0.00    -0.203 F 
ATOM    110  F   UNL A   1      44.402  37.887  33.163  1.00  0.00    -0.200 F 
ATOM    111  C   UNL A   1      43.882  36.757  35.170  1.00  0.00     0.200 A 
ATOM    112  F   UNL A   1      43.346  35.587  37.151  1.00  0.00    -0.200 F 
ATOM    113  F   UNL A   1      44.395  37.766  35.888  1.00  0.00    -0.200 F 
ENDBRANCH  80 103
ENDBRANCH  54  55
ENDBRANCH  46  49
ENDBRANCH  44  45
ENDBRANCH  43  44
ENDBRANCH  42  43
ENDBRANCH   1  42
TORSDOF 19
ENDMDL
MODEL 2
REMARK VINA RESULT:      -9.1      3.960     10.294
REMARK SMILES CC1CC[NH+]([C@H](c2ccc(F)cc2)c2ccc([C@@H](C)C(=O)NCCCCCCNC(=O)c3ccc(-c4c5nc(c(-c6c(F)c(F)c(F)c(F)c6F)c6ccc([nH]6)c(-c6c(F)c(F)c(F)c(F)c6F)c6nc(c(-c7c(F)c(F)c(F)c(F)c7F)c7ccc4[nH]7)C=C6)C=C5)cc3)cc2-c2ccc(C(F)(F)F)cc2)CC1
REMARK SMILES IDX 25 1 24 2 23 3 22 4 20 5 21 6 18 8 19 9 17 10 14 11 15 12
REMARK SMILES IDX 96 13 16 14 95 15 6 16 5 17 1 18 2 19 3 20 108 21 4 22
REMARK SMILES IDX 107 23 7 25 8 26 13 27 9 28 12 29 10 30 11 31 97 32 98 33
REMARK SMILES IDX 106 34 99 35 105 36 100 37 101 38 102 39 103 40 104 41 26 42
REMARK SMILES IDX 27 43 28 44 29 45 30 46 31 48 32 49 33 50 94 51 34 52 93 53
REMARK SMILES IDX 35 54 36 55 37 56 87 57 38 58 92 59 86 60 88 61 39 62 91 63
REMARK SMILES IDX 85 64 84 65 40 67 72 68 52 69 71 70 53 71 56 72 70 73 89 74
REMARK SMILES IDX 54 75 55 76 69 78 90 79 57 80 41 81 42 82 50 83 43 84 44 85
REMARK SMILES IDX 48 86 51 87 45 88 46 89 49 90 47 91 73 92 74 93 82 94 75 95
REMARK SMILES IDX 76 96 80 97 83 98 77 99 78 100 81 101 79 102 58 103 59 104
REMARK SMILES IDX 67 105 60 106 61 107 65 108 68 109 62 110 63 111 66 112
REMARK SMILES IDX 64 113
REMARK H PARENT 22 7 5 24 29 47 88 66 56 77
REMARK Flexibility Score: inf
ROOT
ATOM      1  C   UNL A   1      37.011  32.576  30.960  1.00  0.00     0.002 C 
ENDROOT
BRANCH   1   2
ATOM      2  C   UNL A   1      36.117  32.042  32.081  1.00  0.00     0.021 C 
BRANCH   2   3
ATOM      3  C   UNL A   1      36.852  31.816  33.410  1.00  0.00     0.116 C 
BRANCH   3   4
ATOM      4  N   UNL A   1      37.596  30.573  33.406  1.00  0.00    -0.356 N 
ATOM      5  C   UNL A   1      38.831  30.230  33.863  1.00  0.00     0.227 C 
ATOM      6  O   UNL A   1      39.191  29.070  33.625  1.00  0.00    -0.274 OA
ATOM      7  H   UNL A   1      37.111  29.825  32.988  1.00  0.00     0.163 HD
BRANCH   5   8
ATOM      8  C   UNL A   1      39.770  31.172  34.643  1.00  0.00     0.105 C 
ATOM      9  C   UNL A   1      40.135  32.450  33.889  1.00  0.00     0.023 C 
BRANCH   8  10
ATOM     10  C   UNL A   1      40.933  30.449  35.298  1.00  0.00    -0.035 A 
ATOM     11  C   UNL A   1      43.378  29.357  36.324  1.00  0.00     0.022 A 
ATOM     12  C   UNL A   1      42.672  30.385  36.968  1.00  0.00     0.011 A 
ATOM     13  C   UNL A   1      42.738  28.764  35.200  1.00  0.00    -0.009 A 
ATOM     14  C   UNL A   1      41.438  30.840  36.524  1.00  0.00     0.005 A 
ATOM     15  C   UNL A   1      41.575  29.378  34.664  1.00  0.00     0.013 A 
BRANCH  11  16
ATOM     16  C   UNL A   1      44.746  28.864  36.879  1.00  0.00     0.247 C 
BRANCH  16  17
ATOM     17  N   UNL A   1      44.977  28.941  38.361  1.00  0.00    -0.325 N 
ATOM     18  C   UNL A   1      47.281  28.878  42.087  1.00  0.00     0.008 C 
ATOM     19  C   UNL A   1      46.810  28.845  40.642  1.00  0.00    -0.003 C 
ATOM     20  C   UNL A   1      46.203  30.183  40.228  1.00  0.00     0.065 C 
ATOM     21  C   UNL A   1      45.748  27.773  40.458  1.00  0.00     0.065 C 
ATOM     22  C   UNL A   1      45.647  30.170  38.798  1.00  0.00     0.263 C 
ATOM     23  C   UNL A   1      45.356  27.676  38.991  1.00  0.00     0.263 C 
ATOM     24  H   UNL A   1      44.058  29.067  38.785  1.00  0.00     0.348 HD
ENDBRANCH  16  17
BRANCH  16  25
ATOM     25  C   UNL A   1      45.960  29.441  36.121  1.00  0.00     0.014 A 
ATOM     26  C   UNL A   1      47.031  28.628  35.696  1.00  0.00     0.013 A 
ATOM     27  C   UNL A   1      46.014  30.818  35.836  1.00  0.00     0.013 A 
ATOM     28  C   UNL A   1      48.106  29.172  34.991  1.00  0.00     0.040 A 
ATOM     29  C   UNL A   1      47.110  31.367  35.167  1.00  0.00     0.040 A 
ATOM     30  C   UNL A   1      48.139  30.538  34.742  1.00  0.00     0.123 A 
ATOM     31  F   UNL A   1      49.180  31.063  34.083  1.00  0.00    -0.207 F 
ENDBRANCH  16  25
ENDBRANCH  11  16
BRANCH  13  32
ATOM     32  C   UNL A   1      43.179  27.495  34.585  1.00  0.00    -0.018 A 
ATOM     33  C   UNL A   1      43.949  27.474  33.413  1.00  0.00     0.009 A 
ATOM     34  C   UNL A   1      42.786  26.265  35.140  1.00  0.00     0.009 A 
ATOM     35  C   UNL A   1      44.345  26.263  32.836  1.00  0.00     0.014 A 
ATOM     36  C   UNL A   1      43.192  25.053  34.575  1.00  0.00     0.014 A 
ATOM     37  C   UNL A   1      43.983  25.040  33.421  1.00  0.00     0.056 A 
BRANCH  37  38
ATOM     38  C   UNL A   1      44.426  23.739  32.797  1.00  0.00     0.416 C 
ATOM     39  F   UNL A   1      45.013  23.918  31.581  1.00  0.00    -0.166 F 
ATOM     40  F   UNL A   1      45.337  23.074  33.559  1.00  0.00    -0.166 F 
ATOM     41  F   UNL A   1      43.403  22.862  32.592  1.00  0.00    -0.166 F 
ENDBRANCH  37  38
ENDBRANCH  13  32
ENDBRANCH   8  10
ENDBRANCH   5   8
ENDBRANCH   3   4
ENDBRANCH   2   3
ENDBRANCH   1   2
BRANCH   1  42
ATOM     42  C   UNL A   1      36.275  33.389  29.887  1.00  0.00     0.002 C 
BRANCH  42  43
ATOM     43  C   UNL A   1      34.898  32.846  29.492  1.00  0.00     0.021 C 
BRANCH  43  44
ATOM     44  C   UNL A   1      34.745  32.562  28.001  1.00  0.00     0.116 C 
BRANCH  44  45
ATOM     45  N   UNL A   1      34.069  31.291  27.769  1.00  0.00    -0.352 N 
ATOM     46  C   UNL A   1      34.606  30.029  27.668  1.00  0.00     0.251 C 
ATOM     47  H   UNL A   1      33.092  31.343  27.669  1.00  0.00     0.163 HD
ATOM     48  O   UNL A   1      33.955  29.101  27.208  1.00  0.00    -0.269 OA
BRANCH  46  49
ATOM     49  C   UNL A   1      35.987  29.805  28.138  1.00  0.00     0.039 A 
ATOM     50  C   UNL A   1      36.229  29.317  29.423  1.00  0.00     0.014 A 
ATOM     51  C   UNL A   1      37.046  30.076  27.276  1.00  0.00     0.014 A 
ATOM     52  C   UNL A   1      37.541  29.019  29.808  1.00  0.00     0.010 A 
ATOM     53  C   UNL A   1      38.335  29.701  27.628  1.00  0.00     0.010 A 
ATOM     54  C   UNL A   1      38.599  29.164  28.896  1.00  0.00    -0.014 A 
BRANCH  54  55
ATOM     55  C   UNL A   1      39.995  28.764  29.209  1.00  0.00     0.031 A 
ATOM     56  C   UNL A   1      40.912  29.735  29.903  1.00  0.00     0.074 A 
ATOM     57  C   UNL A   1      40.477  27.591  28.754  1.00  0.00     0.049 A 
ATOM     58  N   UNL A   1      42.203  29.658  30.103  1.00  0.00    -0.248 NA
ATOM     59  C   UNL A   1      40.302  30.978  30.402  1.00  0.00     0.031 C 
ATOM     60  C   UNL A   1      39.704  26.587  28.024  1.00  0.00     0.029 A 
ATOM     61  N   UNL A   1      41.740  27.056  28.817  1.00  0.00    -0.354 N 
ATOM     62  C   UNL A   1      42.559  30.848  30.722  1.00  0.00     0.074 A 
ATOM     63  C   UNL A   1      41.364  31.655  30.813  1.00  0.00     0.031 C 
ATOM     64  C   UNL A   1      40.501  25.550  27.724  1.00  0.00     0.029 A 
ATOM     65  C   UNL A   1      41.854  25.837  28.193  1.00  0.00     0.049 A 
ATOM     66  H   UNL A   1      42.493  27.503  29.267  1.00  0.00     0.167 HD
ATOM     67  C   UNL A   1      43.770  31.220  31.198  1.00  0.00     0.037 A 
ATOM     68  C   UNL A   1      42.929  25.047  28.000  1.00  0.00     0.037 A 
ATOM     69  C   UNL A   1      44.946  30.394  31.140  1.00  0.00     0.049 A 
ATOM     70  C   UNL A   1      44.269  25.485  28.526  1.00  0.00     0.074 A 
ATOM     71  C   UNL A   1      46.200  30.649  31.665  1.00  0.00     0.029 A 
ATOM     72  N   UNL A   1      45.012  29.155  30.520  1.00  0.00    -0.354 N 
ATOM     73  N   UNL A   1      44.582  26.584  29.167  1.00  0.00    -0.248 NA
ATOM     74  C   UNL A   1      45.405  24.578  28.303  1.00  0.00     0.031 C 
ATOM     75  C   UNL A   1      47.042  29.593  31.310  1.00  0.00     0.029 A 
ATOM     76  C   UNL A   1      46.297  28.647  30.623  1.00  0.00     0.049 A 
ATOM     77  H   UNL A   1      44.260  28.703  30.075  1.00  0.00     0.167 HD
ATOM     78  C   UNL A   1      45.939  26.492  29.447  1.00  0.00     0.074 A 
ATOM     79  C   UNL A   1      46.392  25.227  28.909  1.00  0.00     0.031 C 
ATOM     80  C   UNL A   1      46.733  27.378  30.095  1.00  0.00     0.037 A 
BRANCH  67  81
ATOM     81  C   UNL A   1      43.892  32.575  31.836  1.00  0.00     0.064 A 
ATOM     82  C   UNL A   1      43.822  32.713  33.231  1.00  0.00     0.173 A 
ATOM     83  C   UNL A   1      44.007  33.743  31.067  1.00  0.00     0.173 A 
ATOM     84  F   UNL A   1      43.703  31.630  34.014  1.00  0.00    -0.203 F 
ATOM     85  C   UNL A   1      43.851  33.970  33.830  1.00  0.00     0.198 A 
ATOM     86  C   UNL A   1      44.072  34.995  31.671  1.00  0.00     0.198 A 
ATOM     87  F   UNL A   1      44.086  33.666  29.730  1.00  0.00    -0.203 F 
ATOM     88  F   UNL A   1      43.745  34.078  35.161  1.00  0.00    -0.200 F 
ATOM     89  C   UNL A   1      43.983  35.109  33.050  1.00  0.00     0.200 A 
ATOM     90  F   UNL A   1      44.227  36.092  30.918  1.00  0.00    -0.200 F 
ATOM     91  F   UNL A   1      44.026  36.317  33.629  1.00  0.00    -0.200 F 
ENDBRANCH  67  81
BRANCH  68  92
ATOM     92  C   UNL A   1      42.760  23.747  27.301  1.00  0.00     0.064 A 
ATOM     93  C   UNL A   1      42.279  22.610  27.968  1.00  0.00     0.173 A 
ATOM     94  C   UNL A   1      43.137  23.603  25.958  1.00  0.00     0.173 A 
ATOM     95  F   UNL A   1      41.912  22.693  29.255  1.00  0.00    -0.203 F 
ATOM     96  C   UNL A   1      42.209  21.374  27.328  1.00  0.00     0.198 A 
ATOM     97  C   UNL A   1      43.041  22.372  25.311  1.00  0.00     0.198 A 
ATOM     98  F   UNL A   1      43.586  24.664  25.273  1.00  0.00    -0.203 F 
ATOM     99  F   UNL A   1      41.790  20.295  28.002  1.00  0.00    -0.200 F 
ATOM    100  C   UNL A   1      42.588  21.257  25.999  1.00  0.00     0.200 A 
ATOM    101  F   UNL A   1      43.389  22.268  24.022  1.00  0.00    -0.200 F 
ATOM    102  F   UNL A   1      42.520  20.069  25.383  1.00  0.00    -0.200 F 
ENDBRANCH  68  92
BRANCH  80 103
ATOM    103  C   UNL A   1      48.176  27.023  30.301  1.00  0.00     0.064 A 
ATOM    104  C   UNL A   1      49.140  27.414  29.356  1.00  0.00     0.173 A 
ATOM    105  C   UNL A   1      48.581  26.178  31.343  1.00  0.00     0.173 A 
ATOM    106  F   UNL A   1      48.798  28.214  28.335  1.00  0.00    -0.203 F 
ATOM    107  C   UNL A   1      50.445  26.941  29.427  1.00  0.00     0.198 A 
ATOM    108  C   UNL A   1      49.897  25.729  31.426  1.00  0.00     0.198 A 
ATOM    109  F   UNL A   1      47.700  25.786  32.275  1.00  0.00    -0.203 F 
ATOM    110  F   UNL A   1      51.333  27.280  28.482  1.00  0.00    -0.200 F 
ATOM    111  C   UNL A   1      50.823  26.097  30.461  1.00  0.00     0.200 A 
ATOM    112  F   UNL A   1      50.265  24.928  32.436  1.00  0.00    -0.200 F 
ATOM    113  F   UNL A   1      52.078  25.632  30.523  1.00  0.00    -0.200 F 
ENDBRANCH  80 103
ENDBRANCH  54  55
ENDBRANCH  46  49
ENDBRANCH  44  45
ENDBRANCH  43  44
ENDBRANCH  42  43
ENDBRANCH   1  42
TORSDOF 19
ENDMDL
MODEL 3
REMARK VINA RESULT:      -9.1      4.106     10.409
REMARK SMILES CC1CC[NH+]([C@H](c2ccc(F)cc2)c2ccc([C@@H](C)C(=O)NCCCCCCNC(=O)c3ccc(-c4c5nc(c(-c6c(F)c(F)c(F)c(F)c6F)c6ccc([nH]6)c(-c6c(F)c(F)c(F)c(F)c6F)c6nc(c(-c7c(F)c(F)c(F)c(F)c7F)c7ccc4[nH]7)C=C6)C=C5)cc3)cc2-c2ccc(C(F)(F)F)cc2)CC1
REMARK SMILES IDX 25 1 24 2 23 3 22 4 20 5 21 6 18 8 19 9 17 10 14 11 15 12
REMARK SMILES IDX 96 13 16 14 95 15 6 16 5 17 1 18 2 19 3 20 108 21 4 22
REMARK SMILES IDX 107 23 7 25 8 26 13 27 9 28 12 29 10 30 11 31 97 32 98 33
REMARK SMILES IDX 106 34 99 35 105 36 100 37 101 38 102 39 103 40 104 41 26 42
REMARK SMILES IDX 27 43 28 44 29 45 30 46 31 48 32 49 33 50 94 51 34 52 93 53
REMARK SMILES IDX 35 54 36 55 37 56 87 57 38 58 92 59 86 60 88 61 39 62 91 63
REMARK SMILES IDX 85 64 84 65 40 67 72 68 52 69 71 70 53 71 56 72 70 73 89 74
REMARK SMILES IDX 54 75 55 76 69 78 90 79 57 80 41 81 42 82 50 83 43 84 44 85
REMARK SMILES IDX 48 86 51 87 45 88 46 89 49 90 47 91 73 92 74 93 82 94 75 95
REMARK SMILES IDX 76 96 80 97 83 98 77 99 78 100 81 101 79 102 58 103 59 104
REMARK SMILES IDX 67 105 60 106 61 107 65 108 68 109 62 110 63 111 66 112
REMARK SMILES IDX 64 113
REMARK H PARENT 22 7 5 24 29 47 88 66 56 77
REMARK Flexibility Score: inf
ROOT
ATOM      1  C   UNL A   1      53.048  29.435  23.854  1.00  0.00     0.002 C 
ENDROOT
BRANCH   1   2
ATOM      2  C   UNL A   1      51.933  29.160  22.844  1.00  0.00     0.021 C 
BRANCH   2   3
ATOM      3  C   UNL A   1      51.790  27.681  22.461  1.00  0.00     0.116 C 
BRANCH   3   4
ATOM      4  N   UNL A   1      50.464  27.384  21.956  1.00  0.00    -0.356 N 
ATOM      5  C   UNL A   1      49.289  27.068  22.566  1.00  0.00     0.227 C 
ATOM      6  O   UNL A   1      48.346  26.798  21.810  1.00  0.00    -0.274 OA
ATOM      7  H   UNL A   1      50.401  27.418  20.974  1.00  0.00     0.163 HD
BRANCH   5   8
ATOM      8  C   UNL A   1      49.073  27.038  24.092  1.00  0.00     0.105 C 
ATOM      9  C   UNL A   1      50.137  26.251  24.854  1.00  0.00     0.023 C 
BRANCH   8  10
ATOM     10  C   UNL A   1      47.638  26.740  24.486  1.00  0.00    -0.035 A 
ATOM     11  C   UNL A   1      45.067  26.189  25.631  1.00  0.00     0.022 A 
ATOM     12  C   UNL A   1      45.522  27.490  25.369  1.00  0.00     0.011 A 
ATOM     13  C   UNL A   1      45.889  25.128  25.157  1.00  0.00    -0.009 A 
ATOM     14  C   UNL A   1      46.722  27.750  24.720  1.00  0.00     0.005 A 
ATOM     15  C   UNL A   1      47.190  25.426  24.672  1.00  0.00     0.013 A 
BRANCH  11  16
ATOM     16  C   UNL A   1      43.700  25.951  26.337  1.00  0.00     0.247 C 
BRANCH  16  17
ATOM     17  N   UNL A   1      42.850  27.149  26.651  1.00  0.00    -0.325 N 
ATOM     18  C   UNL A   1      39.282  29.320  27.974  1.00  0.00     0.008 C 
ATOM     19  C   UNL A   1      40.317  28.273  27.596  1.00  0.00    -0.003 C 
ATOM     20  C   UNL A   1      41.556  28.377  28.481  1.00  0.00     0.065 C 
ATOM     21  C   UNL A   1      40.757  28.462  26.153  1.00  0.00     0.065 C 
ATOM     22  C   UNL A   1      42.659  27.386  28.086  1.00  0.00     0.263 C 
ATOM     23  C   UNL A   1      41.714  27.350  25.751  1.00  0.00     0.263 C 
ATOM     24  H   UNL A   1      43.406  27.966  26.399  1.00  0.00     0.348 HD
ENDBRANCH  16  17
BRANCH  16  25
ATOM     25  C   UNL A   1      43.797  25.030  27.570  1.00  0.00     0.014 A 
ATOM     26  C   UNL A   1      44.744  25.248  28.593  1.00  0.00     0.013 A 
ATOM     27  C   UNL A   1      42.921  23.936  27.695  1.00  0.00     0.013 A 
ATOM     28  C   UNL A   1      44.795  24.413  29.710  1.00  0.00     0.040 A 
ATOM     29  C   UNL A   1      43.001  23.078  28.793  1.00  0.00     0.040 A 
ATOM     30  C   UNL A   1      43.929  23.330  29.794  1.00  0.00     0.123 A 
ATOM     31  F   UNL A   1      43.991  22.518  30.857  1.00  0.00    -0.207 F 
ENDBRANCH  16  25
ENDBRANCH  11  16
BRANCH  13  32
ATOM     32  C   UNL A   1      45.441  23.723  25.075  1.00  0.00    -0.018 A 
ATOM     33  C   UNL A   1      44.366  23.339  24.261  1.00  0.00     0.009 A 
ATOM     34  C   UNL A   1      46.059  22.736  25.862  1.00  0.00     0.009 A 
ATOM     35  C   UNL A   1      43.946  22.006  24.207  1.00  0.00     0.014 A 
ATOM     36  C   UNL A   1      45.653  21.400  25.800  1.00  0.00     0.014 A 
ATOM     37  C   UNL A   1      44.596  21.020  24.964  1.00  0.00     0.056 A 
BRANCH  37  38
ATOM     38  C   UNL A   1      44.143  19.583  24.889  1.00  0.00     0.416 C 
ATOM     39  F   UNL A   1      42.816  19.441  25.159  1.00  0.00    -0.166 F 
ATOM     40  F   UNL A   1      44.337  19.034  23.658  1.00  0.00    -0.166 F 
ATOM     41  F   UNL A   1      44.792  18.765  25.766  1.00  0.00    -0.166 F 
ENDBRANCH  37  38
ENDBRANCH  13  32
ENDBRANCH   8  10
ENDBRANCH   5   8
ENDBRANCH   3   4
ENDBRANCH   2   3
ENDBRANCH   1   2
BRANCH   1  42
ATOM     42  C   UNL A   1      52.898  28.697  25.191  1.00  0.00     0.002 C 
BRANCH  42  43
ATOM     43  C   UNL A   1      54.211  28.420  25.931  1.00  0.00     0.021 C 
BRANCH  43  44
ATOM     44  C   UNL A   1      54.117  28.575  27.445  1.00  0.00     0.116 C 
BRANCH  44  45
ATOM     45  N   UNL A   1      54.416  27.321  28.128  1.00  0.00    -0.352 N 
ATOM     46  C   UNL A   1      53.668  26.641  29.060  1.00  0.00     0.251 C 
ATOM     47  H   UNL A   1      55.274  26.904  27.889  1.00  0.00     0.163 HD
ATOM     48  O   UNL A   1      54.163  25.751  29.738  1.00  0.00    -0.269 OA
BRANCH  46  49
ATOM     49  C   UNL A   1      52.244  26.993  29.222  1.00  0.00     0.039 A 
ATOM     50  C   UNL A   1      51.263  26.351  28.466  1.00  0.00     0.014 A 
ATOM     51  C   UNL A   1      51.892  27.969  30.151  1.00  0.00     0.014 A 
ATOM     52  C   UNL A   1      49.914  26.632  28.711  1.00  0.00     0.010 A 
ATOM     53  C   UNL A   1      50.555  28.184  30.451  1.00  0.00     0.010 A 
ATOM     54  C   UNL A   1      49.549  27.516  29.740  1.00  0.00    -0.014 A 
BRANCH  54  55
ATOM     55  C   UNL A   1      48.135  27.774  30.118  1.00  0.00     0.031 A 
ATOM     56  C   UNL A   1      47.393  28.924  29.495  1.00  0.00     0.074 A 
ATOM     57  C   UNL A   1      47.566  27.064  31.112  1.00  0.00     0.049 A 
ATOM     58  N   UNL A   1      46.229  29.431  29.814  1.00  0.00    -0.248 NA
ATOM     59  C   UNL A   1      48.069  29.627  28.392  1.00  0.00     0.031 C 
ATOM     60  C   UNL A   1      48.198  25.959  31.830  1.00  0.00     0.029 A 
ATOM     61  N   UNL A   1      46.334  27.185  31.708  1.00  0.00    -0.354 N 
ATOM     62  C   UNL A   1      46.050  30.521  28.974  1.00  0.00     0.074 A 
ATOM     63  C   UNL A   1      47.246  30.641  28.170  1.00  0.00     0.031 C 
ATOM     64  C   UNL A   1      47.346  25.489  32.754  1.00  0.00     0.029 A 
ATOM     65  C   UNL A   1      46.127  26.293  32.732  1.00  0.00     0.049 A 
ATOM     66  H   UNL A   1      45.662  27.849  31.427  1.00  0.00     0.167 HD
ATOM     67  C   UNL A   1      44.971  31.330  28.863  1.00  0.00     0.037 A 
ATOM     68  C   UNL A   1      45.083  26.149  33.572  1.00  0.00     0.037 A 
ATOM     69  C   UNL A   1      43.769  31.180  29.638  1.00  0.00     0.049 A 
ATOM     70  C   UNL A   1      43.899  27.068  33.441  1.00  0.00     0.074 A 
ATOM     71  C   UNL A   1      42.592  31.899  29.544  1.00  0.00     0.029 A 
ATOM     72  N   UNL A   1      43.591  30.246  30.649  1.00  0.00    -0.354 N 
ATOM     73  N   UNL A   1      43.713  28.055  32.600  1.00  0.00    -0.248 NA
ATOM     74  C   UNL A   1      42.781  26.857  34.373  1.00  0.00     0.031 C 
ATOM     75  C   UNL A   1      41.724  31.444  30.538  1.00  0.00     0.029 A 
ATOM     76  C   UNL A   1      42.333  30.395  31.208  1.00  0.00     0.049 A 
ATOM     77  H   UNL A   1      44.258  29.578  30.926  1.00  0.00     0.167 HD
ATOM     78  C   UNL A   1      42.452  28.565  32.880  1.00  0.00     0.074 A 
ATOM     79  C   UNL A   1      41.914  27.778  33.969  1.00  0.00     0.031 C 
ATOM     80  C   UNL A   1      41.803  29.593  32.283  1.00  0.00     0.037 A 
BRANCH  67  81
ATOM     81  C   UNL A   1      45.028  32.449  27.862  1.00  0.00     0.064 A 
ATOM     82  C   UNL A   1      44.440  32.301  26.596  1.00  0.00     0.173 A 
ATOM     83  C   UNL A   1      45.723  33.639  28.126  1.00  0.00     0.173 A 
ATOM     84  F   UNL A   1      43.769  31.181  26.287  1.00  0.00    -0.203 F 
ATOM     85  C   UNL A   1      44.556  33.298  25.630  1.00  0.00     0.198 A 
ATOM     86  C   UNL A   1      45.807  34.648  27.170  1.00  0.00     0.198 A 
ATOM     87  F   UNL A   1      46.297  33.834  29.322  1.00  0.00    -0.203 F 
ATOM     88  F   UNL A   1      44.016  33.118  24.416  1.00  0.00    -0.200 F 
ATOM     89  C   UNL A   1      45.233  34.472  25.920  1.00  0.00     0.200 A 
ATOM     90  F   UNL A   1      46.439  35.792  27.462  1.00  0.00    -0.200 F 
ATOM     91  F   UNL A   1      45.331  35.436  24.994  1.00  0.00    -0.200 F 
ENDBRANCH  67  81
BRANCH  68  92
ATOM     92  C   UNL A   1      45.113  25.067  34.590  1.00  0.00     0.064 A 
ATOM     93  C   UNL A   1      45.708  25.255  35.847  1.00  0.00     0.173 A 
ATOM     94  C   UNL A   1      44.595  23.797  34.299  1.00  0.00     0.173 A 
ATOM     95  F   UNL A   1      46.226  26.449  36.172  1.00  0.00    -0.203 F 
ATOM     96  C   UNL A   1      45.811  24.207  36.760  1.00  0.00     0.198 A 
ATOM     97  C   UNL A   1      44.674  22.757  35.224  1.00  0.00     0.198 A 
ATOM     98  F   UNL A   1      44.000  23.572  33.119  1.00  0.00    -0.203 F 
ATOM     99  F   UNL A   1      46.427  24.402  37.934  1.00  0.00    -0.200 F 
ATOM    100  C   UNL A   1      45.291  22.960  36.448  1.00  0.00     0.200 A 
ATOM    101  F   UNL A   1      44.152  21.560  34.927  1.00  0.00    -0.200 F 
ATOM    102  F   UNL A   1      45.389  21.953  37.327  1.00  0.00    -0.200 F 
ENDBRANCH  68  92
BRANCH  80 103
ATOM    103  C   UNL A   1      40.418  29.930  32.754  1.00  0.00     0.064 A 
ATOM    104  C   UNL A   1      39.304  29.295  32.181  1.00  0.00     0.173 A 
ATOM    105  C   UNL A   1      40.187  30.975  33.659  1.00  0.00     0.173 A 
ATOM    106  F   UNL A   1      39.475  28.296  31.301  1.00  0.00    -0.203 F 
ATOM    107  C   UNL A   1      38.012  29.721  32.466  1.00  0.00     0.198 A 
ATOM    108  C   UNL A   1      38.890  31.379  33.964  1.00  0.00     0.198 A 
ATOM    109  F   UNL A   1      41.218  31.604  34.241  1.00  0.00    -0.203 F 
ATOM    110  F   UNL A   1      36.966  29.140  31.861  1.00  0.00    -0.200 F 
ATOM    111  C   UNL A   1      37.805  30.764  33.356  1.00  0.00     0.200 A 
ATOM    112  F   UNL A   1      38.690  32.376  34.839  1.00  0.00    -0.200 F 
ATOM    113  F   UNL A   1      36.560  31.182  33.623  1.00  0.00    -0.200 F 
ENDBRANCH  80 103
ENDBRANCH  54  55
ENDBRANCH  46  49
ENDBRANCH  44  45
ENDBRANCH  43  44
ENDBRANCH  42  43
ENDBRANCH   1  42
TORSDOF 19
ENDMDL
