MODEL 1
REMARK VINA RESULT:     -12.7      0.000      0.000
REMARK SMILES Cc1cc2c(c(C)c1Br)C=C(C(=O)NCCCCCCNC(=O)c1ccc(-c3c4nc(c(-c5c(F)c(F)c(F)c(F)c5F)c5ccc([nH]5)c(-c5c(F)c(F)c(F)c(F)c5F)c5nc(c(-c6c(F)c(F)c(F)c(F)c6F)c6ccc3[nH]6)C=C5)C=C4)cc1)[C@@H](C(F)(F)F)O2
REMARK SMILES IDX 18 1 17 2 16 3 15 4 14 5 12 6 13 7 11 9 1 10 2 11 3 12 8 13
REMARK SMILES IDX 4 14 6 15 9 16 5 17 92 18 7 19 10 20 87 21 88 22 89 23 90 24
REMARK SMILES IDX 91 25 19 26 20 27 21 28 22 29 23 31 24 32 25 33 86 34 26 35
REMARK SMILES IDX 85 36 27 37 28 38 29 39 79 40 30 41 84 42 78 43 80 44 31 45
REMARK SMILES IDX 83 46 77 47 76 48 32 50 64 51 44 52 63 53 45 54 48 55 62 56
REMARK SMILES IDX 81 57 46 58 47 59 61 61 82 62 49 63 33 64 34 65 42 66 35 67
REMARK SMILES IDX 36 68 40 69 43 70 37 71 38 72 41 73 39 74 65 75 66 76 74 77
REMARK SMILES IDX 67 78 68 79 72 80 75 81 69 82 70 83 73 84 71 85 50 86 51 87
REMARK SMILES IDX 59 88 52 89 53 90 57 91 60 92 54 93 55 94 58 95 56 96
REMARK H PARENT 14 8 21 30 80 49 48 60
REMARK Flexibility Score: inf
ROOT
ATOM      1  C   UNL A   1      31.549  30.842  26.063  1.00  0.00     0.002 C 
ENDROOT
BRANCH   1   2
ATOM      2  C   UNL A   1      32.060  29.846  27.112  1.00  0.00     0.002 C 
BRANCH   2   3
ATOM      3  C   UNL A   1      33.543  29.484  26.990  1.00  0.00     0.021 C 
BRANCH   3   4
ATOM      4  C   UNL A   1      33.782  28.072  26.470  1.00  0.00     0.116 C 
BRANCH   4   5
ATOM      5  N   UNL A   1      33.793  28.028  25.020  1.00  0.00    -0.352 N 
ATOM      6  C   UNL A   1      33.599  27.098  24.056  1.00  0.00     0.251 C 
ATOM      7  O   UNL A   1      33.688  27.517  22.897  1.00  0.00    -0.270 OA
ATOM      8  H   UNL A   1      33.996  28.911  24.635  1.00  0.00     0.163 HD
BRANCH   6   9
ATOM      9  C   UNL A   1      33.294  25.657  24.300  1.00  0.00     0.067 C 
ATOM     10  C   UNL A   1      33.174  19.258  25.418  1.00  0.00     0.046 C 
ATOM     11  C   UNL A   1      33.606  20.671  25.130  1.00  0.00    -0.033 A 
ATOM     12  C   UNL A   1      32.592  21.633  25.166  1.00  0.00     0.051 A 
ATOM     13  C   UNL A   1      34.924  21.088  24.847  1.00  0.00     0.024 A 
ATOM     14  C   UNL A   1      32.867  22.970  24.911  1.00  0.00     0.128 A 
ATOM     15  C   UNL A   1      35.218  22.456  24.587  1.00  0.00    -0.026 A 
ATOM     16  Br  UNL A   1      36.321  19.781  24.832  1.00  0.00    -0.050 Br
ATOM     17  C   UNL A   1      34.162  23.402  24.626  1.00  0.00     0.021 A 
ATOM     18  O   UNL A   1      31.790  23.798  25.004  1.00  0.00    -0.475 OA
ATOM     19  C   UNL A   1      36.616  22.942  24.270  1.00  0.00     0.046 C 
ATOM     20  C   UNL A   1      34.359  24.841  24.415  1.00  0.00     0.026 C 
ATOM     21  C   UNL A   1      31.907  25.098  24.385  1.00  0.00     0.314 C 
BRANCH  21  22
ATOM     22  C   UNL A   1      31.181  25.076  23.027  1.00  0.00     0.429 C 
ATOM     23  F   UNL A   1      32.059  24.804  22.028  1.00  0.00    -0.167 F 
ATOM     24  F   UNL A   1      30.224  24.123  22.958  1.00  0.00    -0.167 F 
ATOM     25  F   UNL A   1      30.587  26.255  22.735  1.00  0.00    -0.167 F 
ENDBRANCH  21  22
ENDBRANCH   6   9
ENDBRANCH   4   5
ENDBRANCH   3   4
ENDBRANCH   2   3
ENDBRANCH   1   2
BRANCH   1  26
ATOM     26  C   UNL A   1      31.387  32.282  26.558  1.00  0.00     0.021 C 
BRANCH  26  27
ATOM     27  C   UNL A   1      32.615  32.840  27.267  1.00  0.00     0.116 C 
BRANCH  27  28
ATOM     28  N   UNL A   1      32.440  34.236  27.630  1.00  0.00    -0.352 N 
ATOM     29  C   UNL A   1      33.023  34.944  28.648  1.00  0.00     0.251 C 
ATOM     30  H   UNL A   1      31.814  34.744  27.066  1.00  0.00     0.163 HD
ATOM     31  O   UNL A   1      32.598  36.053  28.959  1.00  0.00    -0.269 OA
BRANCH  29  32
ATOM     32  C   UNL A   1      34.162  34.357  29.377  1.00  0.00     0.039 A 
ATOM     33  C   UNL A   1      33.919  33.654  30.559  1.00  0.00     0.014 A 
ATOM     34  C   UNL A   1      35.466  34.505  28.895  1.00  0.00     0.014 A 
ATOM     35  C   UNL A   1      34.984  33.056  31.232  1.00  0.00     0.010 A 
ATOM     36  C   UNL A   1      36.515  33.846  29.525  1.00  0.00     0.010 A 
ATOM     37  C   UNL A   1      36.286  33.127  30.706  1.00  0.00    -0.014 A 
BRANCH  37  38
ATOM     38  C   UNL A   1      37.423  32.477  31.400  1.00  0.00     0.031 A 
ATOM     39  C   UNL A   1      38.159  31.349  30.733  1.00  0.00     0.074 A 
ATOM     40  C   UNL A   1      37.773  32.885  32.635  1.00  0.00     0.049 A 
ATOM     41  N   UNL A   1      39.158  30.633  31.184  1.00  0.00    -0.248 NA
ATOM     42  C   UNL A   1      37.702  30.959  29.389  1.00  0.00     0.031 C 
ATOM     43  C   UNL A   1      37.113  33.952  33.389  1.00  0.00     0.029 A 
ATOM     44  N   UNL A   1      38.773  32.456  33.471  1.00  0.00    -0.354 N 
ATOM     45  C   UNL A   1      39.449  29.719  30.181  1.00  0.00     0.074 A 
ATOM     46  C   UNL A   1      38.481  29.920  29.127  1.00  0.00     0.031 C 
ATOM     47  C   UNL A   1      37.751  34.120  34.560  1.00  0.00     0.029 A 
ATOM     48  C   UNL A   1      38.836  33.148  34.655  1.00  0.00     0.049 A 
ATOM     49  H   UNL A   1      39.387  31.721  33.244  1.00  0.00     0.167 HD
ATOM     50  C   UNL A   1      40.457  28.819  30.129  1.00  0.00     0.037 A 
ATOM     51  C   UNL A   1      39.676  33.013  35.699  1.00  0.00     0.037 A 
ATOM     52  C   UNL A   1      41.430  28.637  31.173  1.00  0.00     0.049 A 
ATOM     53  C   UNL A   1      40.757  31.966  35.635  1.00  0.00     0.074 A 
ATOM     54  C   UNL A   1      42.506  27.768  31.206  1.00  0.00     0.029 A 
ATOM     55  N   UNL A   1      41.446  29.340  32.370  1.00  0.00    -0.354 N 
ATOM     56  N   UNL A   1      41.053  31.140  34.661  1.00  0.00    -0.248 NA
ATOM     57  C   UNL A   1      41.623  31.832  36.816  1.00  0.00     0.031 C 
ATOM     58  C   UNL A   1      43.145  27.911  32.439  1.00  0.00     0.029 A 
ATOM     59  C   UNL A   1      42.500  28.907  33.155  1.00  0.00     0.049 A 
ATOM     60  H   UNL A   1      40.802  30.041  32.622  1.00  0.00     0.167 HD
ATOM     61  C   UNL A   1      42.151  30.411  35.098  1.00  0.00     0.074 A 
ATOM     62  C   UNL A   1      42.481  30.904  36.418  1.00  0.00     0.031 C 
ATOM     63  C   UNL A   1      42.822  29.419  34.463  1.00  0.00     0.037 A 
BRANCH  50  64
ATOM     64  C   UNL A   1      40.584  27.978  28.894  1.00  0.00     0.064 A 
ATOM     65  C   UNL A   1      39.870  26.777  28.754  1.00  0.00     0.173 A 
ATOM     66  C   UNL A   1      41.364  28.408  27.810  1.00  0.00     0.173 A 
ATOM     67  F   UNL A   1      39.121  26.315  29.767  1.00  0.00    -0.203 F 
ATOM     68  C   UNL A   1      39.941  26.034  27.579  1.00  0.00     0.198 A 
ATOM     69  C   UNL A   1      41.408  27.677  26.625  1.00  0.00     0.198 A 
ATOM     70  F   UNL A   1      42.063  29.549  27.890  1.00  0.00    -0.203 F 
ATOM     71  F   UNL A   1      39.276  24.875  27.481  1.00  0.00    -0.200 F 
ATOM     72  C   UNL A   1      40.700  26.490  26.512  1.00  0.00     0.200 A 
ATOM     73  F   UNL A   1      42.130  28.126  25.589  1.00  0.00    -0.200 F 
ATOM     74  F   UNL A   1      40.750  25.784  25.375  1.00  0.00    -0.200 F 
ENDBRANCH  50  64
BRANCH  51  75
ATOM     75  C   UNL A   1      39.555  33.914  36.875  1.00  0.00     0.064 A 
ATOM     76  C   UNL A   1      40.196  35.161  36.891  1.00  0.00     0.173 A 
ATOM     77  C   UNL A   1      38.800  33.555  38.002  1.00  0.00     0.173 A 
ATOM     78  F   UNL A   1      40.946  35.541  35.847  1.00  0.00    -0.203 F 
ATOM     79  C   UNL A   1      40.101  36.006  37.995  1.00  0.00     0.198 A 
ATOM     80  C   UNL A   1      38.681  34.415  39.092  1.00  0.00     0.198 A 
ATOM     81  F   UNL A   1      38.164  32.375  38.037  1.00  0.00    -0.203 F 
ATOM     82  F   UNL A   1      40.761  37.173  38.001  1.00  0.00    -0.200 F 
ATOM     83  C   UNL A   1      39.337  35.636  39.091  1.00  0.00     0.200 A 
ATOM     84  F   UNL A   1      37.929  34.060  40.144  1.00  0.00    -0.200 F 
ATOM     85  F   UNL A   1      39.240  36.452  40.150  1.00  0.00    -0.200 F 
ENDBRANCH  51  75
BRANCH  63  86
ATOM     86  C   UNL A   1      43.997  28.809  35.170  1.00  0.00     0.064 A 
ATOM     87  C   UNL A   1      45.286  29.348  35.049  1.00  0.00     0.173 A 
ATOM     88  C   UNL A   1      43.817  27.726  36.044  1.00  0.00     0.173 A 
ATOM     89  F   UNL A   1      45.512  30.376  34.217  1.00  0.00    -0.203 F 
ATOM     90  C   UNL A   1      46.353  28.819  35.769  1.00  0.00     0.198 A 
ATOM     91  C   UNL A   1      44.879  27.219  36.786  1.00  0.00     0.198 A 
ATOM     92  F   UNL A   1      42.601  27.180  36.202  1.00  0.00    -0.203 F 
ATOM     93  F   UNL A   1      47.582  29.328  35.613  1.00  0.00    -0.200 F 
ATOM     94  C   UNL A   1      46.147  27.763  36.645  1.00  0.00     0.200 A 
ATOM     95  F   UNL A   1      44.674  26.213  37.647  1.00  0.00    -0.200 F 
ATOM     96  F   UNL A   1      47.171  27.270  37.353  1.00  0.00    -0.200 F 
ENDBRANCH  63  86
ENDBRANCH  37  38
ENDBRANCH  29  32
ENDBRANCH  27  28
ENDBRANCH  26  27
ENDBRANCH   1  26
TORSDOF 14
ENDMDL
MODEL 2
REMARK VINA RESULT:     -12.7      4.296      7.965
REMARK SMILES Cc1cc2c(c(C)c1Br)C=C(C(=O)NCCCCCCNC(=O)c1ccc(-c3c4nc(c(-c5c(F)c(F)c(F)c(F)c5F)c5ccc([nH]5)c(-c5c(F)c(F)c(F)c(F)c5F)c5nc(c(-c6c(F)c(F)c(F)c(F)c6F)c6ccc3[nH]6)C=C5)C=C4)cc1)[C@@H](C(F)(F)F)O2
REMARK SMILES IDX 18 1 17 2 16 3 15 4 14 5 12 6 13 7 11 9 1 10 2 11 3 12 8 13
REMARK SMILES IDX 4 14 6 15 9 16 5 17 92 18 7 19 10 20 87 21 88 22 89 23 90 24
REMARK SMILES IDX 91 25 19 26 20 27 21 28 22 29 23 31 24 32 25 33 86 34 26 35
REMARK SMILES IDX 85 36 27 37 28 38 29 39 79 40 30 41 84 42 78 43 80 44 31 45
REMARK SMILES IDX 83 46 77 47 76 48 32 50 64 51 44 52 63 53 45 54 48 55 62 56
REMARK SMILES IDX 81 57 46 58 47 59 61 61 82 62 49 63 33 64 34 65 42 66 35 67
REMARK SMILES IDX 36 68 40 69 43 70 37 71 38 72 41 73 39 74 65 75 66 76 74 77
REMARK SMILES IDX 67 78 68 79 72 80 75 81 69 82 70 83 73 84 71 85 50 86 51 87
REMARK SMILES IDX 59 88 52 89 53 90 57 91 60 92 54 93 55 94 58 95 56 96
REMARK H PARENT 14 8 21 30 80 49 48 60
REMARK Flexibility Score: inf
ROOT
ATOM      1  C   UNL A   1      35.204  22.816  26.481  1.00  0.00     0.002 C 
ENDROOT
BRANCH   1   2
ATOM      2  C   UNL A   1      33.736  22.835  26.929  1.00  0.00     0.002 C 
BRANCH   2   3
ATOM      3  C   UNL A   1      32.817  23.725  26.088  1.00  0.00     0.021 C 
BRANCH   3   4
ATOM      4  C   UNL A   1      32.279  23.034  24.841  1.00  0.00     0.116 C 
BRANCH   4   5
ATOM      5  N   UNL A   1      32.909  23.535  23.634  1.00  0.00    -0.352 N 
ATOM      6  C   UNL A   1      33.049  24.729  23.013  1.00  0.00     0.251 C 
ATOM      7  O   UNL A   1      33.710  24.704  21.970  1.00  0.00    -0.270 OA
ATOM      8  H   UNL A   1      33.354  22.814  23.134  1.00  0.00     0.163 HD
BRANCH   6   9
ATOM      9  C   UNL A   1      32.478  26.022  23.496  1.00  0.00     0.067 C 
ATOM     10  C   UNL A   1      31.066  31.776  26.163  1.00  0.00     0.046 C 
ATOM     11  C   UNL A   1      31.727  30.478  25.783  1.00  0.00    -0.033 A 
ATOM     12  C   UNL A   1      31.086  29.744  24.780  1.00  0.00     0.051 A 
ATOM     13  C   UNL A   1      32.919  29.967  26.338  1.00  0.00     0.024 A 
ATOM     14  C   UNL A   1      31.597  28.527  24.349  1.00  0.00     0.128 A 
ATOM     15  C   UNL A   1      33.454  28.723  25.902  1.00  0.00    -0.026 A 
ATOM     16  Br  UNL A   1      33.819  30.984  27.685  1.00  0.00    -0.050 Br
ATOM     17  C   UNL A   1      32.773  28.002  24.887  1.00  0.00     0.021 A 
ATOM     18  O   UNL A   1      30.886  27.934  23.351  1.00  0.00    -0.475 OA
ATOM     19  C   UNL A   1      34.724  28.136  26.479  1.00  0.00     0.046 C 
ATOM     20  C   UNL A   1      33.257  26.733  24.334  1.00  0.00     0.026 C 
ATOM     21  C   UNL A   1      31.116  26.525  23.128  1.00  0.00     0.314 C 
BRANCH  21  22
ATOM     22  C   UNL A   1      29.979  25.719  23.781  1.00  0.00     0.429 C 
ATOM     23  F   UNL A   1      28.793  26.360  23.618  1.00  0.00    -0.167 F 
ATOM     24  F   UNL A   1      29.823  24.492  23.234  1.00  0.00    -0.167 F 
ATOM     25  F   UNL A   1      30.164  25.540  25.108  1.00  0.00    -0.167 F 
ENDBRANCH  21  22
ENDBRANCH   6   9
ENDBRANCH   4   5
ENDBRANCH   3   4
ENDBRANCH   2   3
ENDBRANCH   1   2
BRANCH   1  26
ATOM     26  C   UNL A   1      35.689  24.092  25.786  1.00  0.00     0.021 C 
BRANCH  26  27
ATOM     27  C   UNL A   1      36.947  23.906  24.947  1.00  0.00     0.116 C 
BRANCH  27  28
ATOM     28  N   UNL A   1      37.777  22.827  25.454  1.00  0.00    -0.352 N 
ATOM     29  C   UNL A   1      38.937  22.897  26.180  1.00  0.00     0.251 C 
ATOM     30  H   UNL A   1      37.463  21.918  25.246  1.00  0.00     0.163 HD
ATOM     31  O   UNL A   1      39.637  21.900  26.336  1.00  0.00    -0.269 OA
BRANCH  29  32
ATOM     32  C   UNL A   1      39.347  24.187  26.766  1.00  0.00     0.039 A 
ATOM     33  C   UNL A   1      39.013  24.463  28.093  1.00  0.00     0.014 A 
ATOM     34  C   UNL A   1      40.056  25.120  26.003  1.00  0.00     0.014 A 
ATOM     35  C   UNL A   1      39.435  25.660  28.671  1.00  0.00     0.010 A 
ATOM     36  C   UNL A   1      40.540  26.277  26.602  1.00  0.00     0.010 A 
ATOM     37  C   UNL A   1      40.223  26.563  27.937  1.00  0.00    -0.014 A 
BRANCH  37  38
ATOM     38  C   UNL A   1      40.696  27.829  28.546  1.00  0.00     0.031 A 
ATOM     39  C   UNL A   1      42.159  28.018  28.834  1.00  0.00     0.074 A 
ATOM     40  C   UNL A   1      39.809  28.792  28.861  1.00  0.00     0.049 A 
ATOM     41  N   UNL A   1      42.767  29.036  29.389  1.00  0.00    -0.248 NA
ATOM     42  C   UNL A   1      43.057  26.910  28.470  1.00  0.00     0.031 C 
ATOM     43  C   UNL A   1      38.363  28.707  28.651  1.00  0.00     0.029 A 
ATOM     44  N   UNL A   1      39.992  30.032  29.418  1.00  0.00    -0.354 N 
ATOM     45  C   UNL A   1      44.112  28.693  29.432  1.00  0.00     0.074 A 
ATOM     46  C   UNL A   1      44.226  27.348  28.914  1.00  0.00     0.031 C 
ATOM     47  C   UNL A   1      37.795  29.861  29.038  1.00  0.00     0.029 A 
ATOM     48  C   UNL A   1      38.829  30.749  29.560  1.00  0.00     0.049 A 
ATOM     49  H   UNL A   1      40.873  30.375  29.693  1.00  0.00     0.167 HD
ATOM     50  C   UNL A   1      45.160  29.447  29.833  1.00  0.00     0.037 A 
ATOM     51  C   UNL A   1      38.624  31.985  30.054  1.00  0.00     0.037 A 
ATOM     52  C   UNL A   1      45.043  30.792  30.329  1.00  0.00     0.049 A 
ATOM     53  C   UNL A   1      39.805  32.782  30.542  1.00  0.00     0.074 A 
ATOM     54  C   UNL A   1      46.048  31.650  30.737  1.00  0.00     0.029 A 
ATOM     55  N   UNL A   1      43.845  31.476  30.481  1.00  0.00    -0.354 N 
ATOM     56  N   UNL A   1      41.077  32.466  30.533  1.00  0.00    -0.248 NA
ATOM     57  C   UNL A   1      39.522  34.109  31.109  1.00  0.00     0.031 C 
ATOM     58  C   UNL A   1      45.458  32.835  31.180  1.00  0.00     0.029 A 
ATOM     59  C   UNL A   1      44.087  32.738  30.998  1.00  0.00     0.049 A 
ATOM     60  H   UNL A   1      42.957  31.117  30.256  1.00  0.00     0.167 HD
ATOM     61  C   UNL A   1      41.746  33.561  31.063  1.00  0.00     0.074 A 
ATOM     62  C   UNL A   1      40.742  34.557  31.368  1.00  0.00     0.031 C 
ATOM     63  C   UNL A   1      43.075  33.723  31.283  1.00  0.00     0.037 A 
BRANCH  50  64
ATOM     64  C   UNL A   1      46.533  28.853  29.727  1.00  0.00     0.064 A 
ATOM     65  C   UNL A   1      47.305  29.005  28.564  1.00  0.00     0.173 A 
ATOM     66  C   UNL A   1      47.114  28.190  30.818  1.00  0.00     0.173 A 
ATOM     67  F   UNL A   1      46.791  29.618  27.487  1.00  0.00    -0.203 F 
ATOM     68  C   UNL A   1      48.604  28.507  28.495  1.00  0.00     0.198 A 
ATOM     69  C   UNL A   1      48.423  27.720  30.756  1.00  0.00     0.198 A 
ATOM     70  F   UNL A   1      46.421  28.020  31.953  1.00  0.00    -0.203 F 
ATOM     71  F   UNL A   1      49.309  28.637  27.364  1.00  0.00    -0.200 F 
ATOM     72  C   UNL A   1      49.166  27.876  29.595  1.00  0.00     0.200 A 
ATOM     73  F   UNL A   1      48.971  27.124  31.824  1.00  0.00    -0.200 F 
ATOM     74  F   UNL A   1      50.422  27.417  29.534  1.00  0.00    -0.200 F 
ENDBRANCH  50  64
BRANCH  51  75
ATOM     75  C   UNL A   1      37.253  32.560  30.077  1.00  0.00     0.064 A 
ATOM     76  C   UNL A   1      36.802  33.381  29.034  1.00  0.00     0.173 A 
ATOM     77  C   UNL A   1      36.365  32.304  31.134  1.00  0.00     0.173 A 
ATOM     78  F   UNL A   1      37.619  33.673  28.012  1.00  0.00    -0.203 F 
ATOM     79  C   UNL A   1      35.525  33.937  29.054  1.00  0.00     0.198 A 
ATOM     80  C   UNL A   1      35.078  32.835  31.137  1.00  0.00     0.198 A 
ATOM     81  F   UNL A   1      36.745  31.522  32.155  1.00  0.00    -0.203 F 
ATOM     82  F   UNL A   1      35.136  34.754  28.065  1.00  0.00    -0.200 F 
ATOM     83  C   UNL A   1      34.660  33.658  30.102  1.00  0.00     0.200 A 
ATOM     84  F   UNL A   1      34.240  32.551  32.145  1.00  0.00    -0.200 F 
ATOM     85  F   UNL A   1      33.429  34.186  30.118  1.00  0.00    -0.200 F 
ENDBRANCH  51  75
BRANCH  63  86
ATOM     86  C   UNL A   1      43.532  35.031  31.859  1.00  0.00     0.064 A 
ATOM     87  C   UNL A   1      43.859  36.119  31.038  1.00  0.00     0.173 A 
ATOM     88  C   UNL A   1      43.560  35.224  33.249  1.00  0.00     0.173 A 
ATOM     89  F   UNL A   1      43.859  35.981  29.703  1.00  0.00    -0.203 F 
ATOM     90  C   UNL A   1      44.209  37.350  31.587  1.00  0.00     0.198 A 
ATOM     91  C   UNL A   1      43.879  36.464  33.794  1.00  0.00     0.198 A 
ATOM     92  F   UNL A   1      43.246  34.217  34.078  1.00  0.00    -0.203 F 
ATOM     93  F   UNL A   1      44.551  38.366  30.784  1.00  0.00    -0.200 F 
ATOM     94  C   UNL A   1      44.208  37.524  32.963  1.00  0.00     0.200 A 
ATOM     95  F   UNL A   1      43.857  36.636  35.123  1.00  0.00    -0.200 F 
ATOM     96  F   UNL A   1      44.523  38.716  33.488  1.00  0.00    -0.200 F 
ENDBRANCH  63  86
ENDBRANCH  37  38
ENDBRANCH  29  32
ENDBRANCH  27  28
ENDBRANCH  26  27
ENDBRANCH   1  26
TORSDOF 14
ENDMDL
MODEL 3
REMARK VINA RESULT:     -12.6      5.422      9.666
REMARK SMILES Cc1cc2c(c(C)c1Br)C=C(C(=O)NCCCCCCNC(=O)c1ccc(-c3c4nc(c(-c5c(F)c(F)c(F)c(F)c5F)c5ccc([nH]5)c(-c5c(F)c(F)c(F)c(F)c5F)c5nc(c(-c6c(F)c(F)c(F)c(F)c6F)c6ccc3[nH]6)C=C5)C=C4)cc1)[C@@H](C(F)(F)F)O2
REMARK SMILES IDX 18 1 17 2 16 3 15 4 14 5 12 6 13 7 11 9 1 10 2 11 3 12 8 13
REMARK SMILES IDX 4 14 6 15 9 16 5 17 92 18 7 19 10 20 87 21 88 22 89 23 90 24
REMARK SMILES IDX 91 25 19 26 20 27 21 28 22 29 23 31 24 32 25 33 86 34 26 35
REMARK SMILES IDX 85 36 27 37 28 38 29 39 79 40 30 41 84 42 78 43 80 44 31 45
REMARK SMILES IDX 83 46 77 47 76 48 32 50 64 51 44 52 63 53 45 54 48 55 62 56
REMARK SMILES IDX 81 57 46 58 47 59 61 61 82 62 49 63 33 64 34 65 42 66 35 67
REMARK SMILES IDX 36 68 40 69 43 70 37 71 38 72 41 73 39 74 65 75 66 76 74 77
REMARK SMILES IDX 67 78 68 79 72 80 75 81 69 82 70 83 73 84 71 85 50 86 51 87
REMARK SMILES IDX 59 88 52 89 53 90 57 91 60 92 54 93 55 94 58 95 56 96
REMARK H PARENT 14 8 21 30 80 49 48 60
REMARK Flexibility Score: inf
ROOT
ATOM      1  C   UNL A   1      36.878  20.325  25.007  1.00  0.00     0.002 C 
ENDROOT
BRANCH   1   2
ATOM      2  C   UNL A   1      36.973  21.723  24.381  1.00  0.00     0.002 C 
BRANCH   2   3
ATOM      3  C   UNL A   1      37.483  22.818  25.322  1.00  0.00     0.021 C 
BRANCH   3   4
ATOM      4  C   UNL A   1      36.437  23.881  25.636  1.00  0.00     0.116 C 
BRANCH   4   5
ATOM      5  N   UNL A   1      35.326  23.336  26.393  1.00  0.00    -0.352 N 
ATOM      6  C   UNL A   1      33.990  23.534  26.473  1.00  0.00     0.251 C 
ATOM      7  O   UNL A   1      33.398  22.803  27.274  1.00  0.00    -0.270 OA
ATOM      8  H   UNL A   1      35.625  22.634  27.015  1.00  0.00     0.163 HD
BRANCH   6   9
ATOM      9  C   UNL A   1      33.220  24.539  25.681  1.00  0.00     0.067 C 
ATOM     10  C   UNL A   1      30.267  29.702  23.068  1.00  0.00     0.046 C 
ATOM     11  C   UNL A   1      31.033  28.775  23.974  1.00  0.00    -0.033 A 
ATOM     12  C   UNL A   1      31.261  27.490  23.471  1.00  0.00     0.051 A 
ATOM     13  C   UNL A   1      31.535  29.100  25.252  1.00  0.00     0.024 A 
ATOM     14  C   UNL A   1      31.951  26.544  24.217  1.00  0.00     0.128 A 
ATOM     15  C   UNL A   1      32.247  28.140  26.024  1.00  0.00    -0.026 A 
ATOM     16  Br  UNL A   1      31.258  30.868  25.930  1.00  0.00    -0.050 Br
ATOM     17  C   UNL A   1      32.453  26.844  25.484  1.00  0.00     0.021 A 
ATOM     18  O   UNL A   1      32.121  25.345  23.595  1.00  0.00    -0.475 OA
ATOM     19  C   UNL A   1      32.793  28.445  27.401  1.00  0.00     0.046 C 
ATOM     20  C   UNL A   1      33.207  25.792  26.174  1.00  0.00     0.026 C 
ATOM     21  C   UNL A   1      32.466  24.216  24.428  1.00  0.00     0.314 C 
BRANCH  21  22
ATOM     22  C   UNL A   1      31.203  23.374  24.684  1.00  0.00     0.429 C 
ATOM     23  F   UNL A   1      30.315  23.535  23.670  1.00  0.00    -0.167 F 
ATOM     24  F   UNL A   1      31.461  22.047  24.752  1.00  0.00    -0.167 F 
ATOM     25  F   UNL A   1      30.575  23.714  25.832  1.00  0.00    -0.167 F 
ENDBRANCH  21  22
ENDBRANCH   6   9
ENDBRANCH   4   5
ENDBRANCH   3   4
ENDBRANCH   2   3
ENDBRANCH   1   2
BRANCH   1  26
ATOM     26  C   UNL A   1      38.167  19.499  24.955  1.00  0.00     0.021 C 
BRANCH  26  27
ATOM     27  C   UNL A   1      39.238  19.953  25.938  1.00  0.00     0.116 C 
BRANCH  27  28
ATOM     28  N   UNL A   1      40.362  19.033  25.973  1.00  0.00    -0.352 N 
ATOM     29  C   UNL A   1      41.702  19.307  26.056  1.00  0.00     0.251 C 
ATOM     30  H   UNL A   1      40.128  18.078  25.929  1.00  0.00     0.163 HD
ATOM     31  O   UNL A   1      42.533  18.428  25.847  1.00  0.00    -0.269 OA
BRANCH  29  32
ATOM     32  C   UNL A   1      42.141  20.675  26.391  1.00  0.00     0.039 A 
ATOM     33  C   UNL A   1      42.335  21.594  25.358  1.00  0.00     0.014 A 
ATOM     34  C   UNL A   1      42.362  21.044  27.721  1.00  0.00     0.014 A 
ATOM     35  C   UNL A   1      42.706  22.902  25.667  1.00  0.00     0.010 A 
ATOM     36  C   UNL A   1      42.657  22.366  28.031  1.00  0.00     0.010 A 
ATOM     37  C   UNL A   1      42.845  23.304  27.006  1.00  0.00    -0.014 A 
BRANCH  37  38
ATOM     38  C   UNL A   1      43.217  24.697  27.348  1.00  0.00     0.031 A 
ATOM     39  C   UNL A   1      44.621  25.176  27.111  1.00  0.00     0.074 A 
ATOM     40  C   UNL A   1      42.299  25.519  27.893  1.00  0.00     0.049 A 
ATOM     41  N   UNL A   1      45.151  26.344  27.369  1.00  0.00    -0.248 NA
ATOM     42  C   UNL A   1      45.563  24.207  26.524  1.00  0.00     0.031 C 
ATOM     43  C   UNL A   1      40.913  25.155  28.192  1.00  0.00     0.029 A 
ATOM     44  N   UNL A   1      42.391  26.830  28.286  1.00  0.00    -0.354 N 
ATOM     45  C   UNL A   1      46.478  26.252  26.971  1.00  0.00     0.074 A 
ATOM     46  C   UNL A   1      46.695  24.896  26.520  1.00  0.00     0.031 C 
ATOM     47  C   UNL A   1      40.274  26.229  28.685  1.00  0.00     0.029 A 
ATOM     48  C   UNL A   1      41.214  27.343  28.775  1.00  0.00     0.049 A 
ATOM     49  H   UNL A   1      43.222  27.354  28.225  1.00  0.00     0.167 HD
ATOM     50  C   UNL A   1      47.419  27.223  26.950  1.00  0.00     0.037 A 
ATOM     51  C   UNL A   1      40.928  28.573  29.241  1.00  0.00     0.037 A 
ATOM     52  C   UNL A   1      47.193  28.576  27.382  1.00  0.00     0.049 A 
ATOM     53  C   UNL A   1      42.011  29.619  29.254  1.00  0.00     0.074 A 
ATOM     54  C   UNL A   1      48.075  29.641  27.377  1.00  0.00     0.029 A 
ATOM     55  N   UNL A   1      45.994  29.051  27.895  1.00  0.00    -0.354 N 
ATOM     56  N   UNL A   1      43.249  29.535  28.830  1.00  0.00    -0.248 NA
ATOM     57  C   UNL A   1      41.657  30.934  29.809  1.00  0.00     0.031 C 
ATOM     58  C   UNL A   1      47.427  30.748  27.929  1.00  0.00     0.029 A 
ATOM     59  C   UNL A   1      46.122  30.388  28.229  1.00  0.00     0.049 A 
ATOM     60  H   UNL A   1      45.175  28.516  28.005  1.00  0.00     0.167 HD
ATOM     61  C   UNL A   1      43.811  30.786  29.041  1.00  0.00     0.074 A 
ATOM     62  C   UNL A   1      42.775  31.619  29.614  1.00  0.00     0.031 C 
ATOM     63  C   UNL A   1      45.075  31.206  28.786  1.00  0.00     0.037 A 
BRANCH  50  64
ATOM     64  C   UNL A   1      48.777  26.872  26.416  1.00  0.00     0.064 A 
ATOM     65  C   UNL A   1      49.762  26.310  27.245  1.00  0.00     0.173 A 
ATOM     66  C   UNL A   1      49.075  27.026  25.055  1.00  0.00     0.173 A 
ATOM     67  F   UNL A   1      49.532  26.155  28.557  1.00  0.00    -0.203 F 
ATOM     68  C   UNL A   1      50.997  25.926  26.730  1.00  0.00     0.198 A 
ATOM     69  C   UNL A   1      50.300  26.613  24.538  1.00  0.00     0.198 A 
ATOM     70  F   UNL A   1      48.168  27.555  24.220  1.00  0.00    -0.203 F 
ATOM     71  F   UNL A   1      51.933  25.422  27.546  1.00  0.00    -0.200 F 
ATOM     72  C   UNL A   1      51.261  26.067  25.376  1.00  0.00     0.200 A 
ATOM     73  F   UNL A   1      50.548  26.736  23.227  1.00  0.00    -0.200 F 
ATOM     74  F   UNL A   1      52.442  25.677  24.879  1.00  0.00    -0.200 F 
ENDBRANCH  50  64
BRANCH  51  75
ATOM     75  C   UNL A   1      39.550  28.895  29.697  1.00  0.00     0.064 A 
ATOM     76  C   UNL A   1      38.607  29.430  28.808  1.00  0.00     0.173 A 
ATOM     77  C   UNL A   1      39.144  28.677  31.023  1.00  0.00     0.173 A 
ATOM     78  F   UNL A   1      38.952  29.676  27.536  1.00  0.00    -0.203 F 
ATOM     79  C   UNL A   1      37.318  29.749  29.230  1.00  0.00     0.198 A 
ATOM     80  C   UNL A   1      37.846  28.968  31.436  1.00  0.00     0.198 A 
ATOM     81  F   UNL A   1      40.005  28.165  31.914  1.00  0.00    -0.203 F 
ATOM     82  F   UNL A   1      36.451  30.300  28.369  1.00  0.00    -0.200 F 
ATOM     83  C   UNL A   1      36.935  29.511  30.541  1.00  0.00     0.200 A 
ATOM     84  F   UNL A   1      37.475  28.723  32.700  1.00  0.00    -0.200 F 
ATOM     85  F   UNL A   1      35.694  29.811  30.945  1.00  0.00    -0.200 F 
ENDBRANCH  51  75
BRANCH  63  86
ATOM     86  C   UNL A   1      45.413  32.634  29.101  1.00  0.00     0.064 A 
ATOM     87  C   UNL A   1      45.176  33.663  28.178  1.00  0.00     0.173 A 
ATOM     88  C   UNL A   1      45.896  32.987  30.370  1.00  0.00     0.173 A 
ATOM     89  F   UNL A   1      44.726  33.375  26.947  1.00  0.00    -0.203 F 
ATOM     90  C   UNL A   1      45.424  34.992  28.509  1.00  0.00     0.198 A 
ATOM     91  C   UNL A   1      46.112  34.320  30.710  1.00  0.00     0.198 A 
ATOM     92  F   UNL A   1      46.129  32.041  31.292  1.00  0.00    -0.203 F 
ATOM     93  F   UNL A   1      45.223  35.955  27.600  1.00  0.00    -0.200 F 
ATOM     94  C   UNL A   1      45.880  35.320  29.777  1.00  0.00     0.200 A 
ATOM     95  F   UNL A   1      46.533  34.636  31.941  1.00  0.00    -0.200 F 
ATOM     96  F   UNL A   1      46.095  36.602  30.102  1.00  0.00    -0.200 F 
ENDBRANCH  63  86
ENDBRANCH  37  38
ENDBRANCH  29  32
ENDBRANCH  27  28
ENDBRANCH  26  27
ENDBRANCH   1  26
TORSDOF 14
ENDMDL
