MODEL 1
REMARK VINA RESULT:     -12.6      0.000      0.000
REMARK SMILES Cn1ncc(C(=O)NCCCCCCNC(=O)c2ccc(-c3c4nc(c(-c5c(F)c(F)c(F)c(F)c5F)c5ccc([nH]5)c(-c5c(F)c(F)c(F)c(F)c5F)c5nc(c(-c6c(F)c(F)c(F)c(F)c6F)c6ccc3[nH]6)C=C5)C=C4)cc2)c1C(=O)NCC1CC[NH+](Cc2ccccc2)CC1
REMARK SMILES IDX 10 1 9 2 8 3 6 4 7 5 5 7 1 8 2 9 3 10 81 11 4 12 82 13 83 14
REMARK SMILES IDX 84 15 85 17 86 18 87 19 98 20 88 21 97 22 89 23 90 25 91 26
REMARK SMILES IDX 92 27 96 28 93 29 95 30 94 31 11 32 12 33 13 34 14 35 15 36
REMARK SMILES IDX 16 37 17 39 18 40 19 41 80 42 20 43 79 44 21 45 22 46 23 47
REMARK SMILES IDX 73 48 24 49 78 50 72 51 74 52 25 53 77 54 71 55 70 56 26 58
REMARK SMILES IDX 58 59 38 60 57 61 39 62 42 63 56 64 75 65 40 66 41 67 55 69
REMARK SMILES IDX 76 70 43 71 27 72 28 73 36 74 29 75 30 76 34 77 37 78 31 79
REMARK SMILES IDX 32 80 35 81 33 82 59 83 60 84 68 85 61 86 62 87 66 88 69 89
REMARK SMILES IDX 63 90 64 91 67 92 65 93 44 94 45 95 53 96 46 97 47 98 51 99
REMARK SMILES IDX 54 100 48 101 49 102 52 103 50 104
REMARK H PARENT 8 6 84 16 89 24 15 38 74 57 42 68
REMARK Flexibility Score: inf
ROOT
ATOM      1  C   UNL A   1      34.873  31.292  28.085  1.00  0.00     0.021 C 
ENDROOT
BRANCH   1   2
ATOM      2  C   UNL A   1      33.977  30.579  27.081  1.00  0.00     0.116 C 
BRANCH   2   3
ATOM      3  N   UNL A   1      33.010  29.699  27.678  1.00  0.00    -0.352 N 
ATOM      4  C   UNL A   1      32.005  28.917  27.179  1.00  0.00     0.255 C 
ATOM      5  O   UNL A   1      31.356  28.315  28.043  1.00  0.00    -0.269 OA
ATOM      6  H   UNL A   1      33.090  29.646  28.659  1.00  0.00     0.163 HD
BRANCH   4   7
ATOM      7  C   UNL A   1      31.608  28.799  25.778  1.00  0.00     0.090 A 
ATOM      8  C   UNL A   1      30.344  27.722  22.565  1.00  0.00     0.174 C 
ATOM      9  N   UNL A   1      30.896  28.352  23.738  1.00  0.00    -0.262 N 
ATOM     10  N   UNL A   1      30.713  29.675  23.847  1.00  0.00    -0.180 NA
ATOM     11  C   UNL A   1      31.495  27.765  24.835  1.00  0.00     0.138 A 
ATOM     12  C   UNL A   1      31.104  29.936  25.087  1.00  0.00     0.149 A 
BRANCH  11  13
ATOM     13  C   UNL A   1      31.772  26.357  24.970  1.00  0.00     0.270 C 
ATOM     14  O   UNL A   1      30.897  25.498  25.031  1.00  0.00    -0.268 OA
ATOM     15  N   UNL A   1      33.054  26.009  25.349  1.00  0.00    -0.350 N 
ATOM     16  H   UNL A   1      33.256  26.012  26.312  1.00  0.00     0.163 HD
BRANCH  15  17
ATOM     17  C   UNL A   1      34.131  25.640  24.444  1.00  0.00     0.120 C 
BRANCH  17  18
ATOM     18  C   UNL A   1      34.966  24.405  24.857  1.00  0.00     0.019 C 
ATOM     19  C   UNL A   1      35.150  23.358  23.747  1.00  0.00     0.067 C 
ATOM     20  C   UNL A   1      34.490  23.705  26.139  1.00  0.00     0.067 C 
ATOM     21  C   UNL A   1      33.974  22.373  23.621  1.00  0.00     0.262 C 
ATOM     22  C   UNL A   1      33.295  22.778  25.916  1.00  0.00     0.262 C 
ATOM     23  N   UNL A   1      33.644  21.777  24.911  1.00  0.00    -0.331 N 
ATOM     24  H   UNL A   1      34.517  21.349  25.222  1.00  0.00     0.348 HD
BRANCH  23  25
ATOM     25  C   UNL A   1      32.727  20.629  24.869  1.00  0.00     0.299 C 
BRANCH  25  26
ATOM     26  C   UNL A   1      33.188  19.340  24.219  1.00  0.00     0.006 A 
ATOM     27  C   UNL A   1      32.429  18.718  23.216  1.00  0.00     0.009 A 
ATOM     28  C   UNL A   1      34.325  18.675  24.678  1.00  0.00     0.009 A 
ATOM     29  C   UNL A   1      32.802  17.472  22.696  1.00  0.00     0.001 A 
ATOM     30  C   UNL A   1      34.704  17.434  24.152  1.00  0.00     0.001 A 
ATOM     31  C   UNL A   1      33.944  16.831  23.162  1.00  0.00     0.000 A 
ENDBRANCH  25  26
ENDBRANCH  23  25
ENDBRANCH  17  18
ENDBRANCH  15  17
ENDBRANCH  11  13
ENDBRANCH   4   7
ENDBRANCH   2   3
ENDBRANCH   1   2
BRANCH   1  32
ATOM     32  C   UNL A   1      34.914  32.819  28.090  1.00  0.00     0.002 C 
BRANCH  32  33
ATOM     33  C   UNL A   1      34.277  33.500  29.295  1.00  0.00     0.002 C 
BRANCH  33  34
ATOM     34  C   UNL A   1      33.218  34.554  28.974  1.00  0.00     0.021 C 
BRANCH  34  35
ATOM     35  C   UNL A   1      33.409  35.915  29.640  1.00  0.00     0.116 C 
BRANCH  35  36
ATOM     36  N   UNL A   1      32.490  36.143  30.736  1.00  0.00    -0.352 N 
ATOM     37  C   UNL A   1      32.586  35.701  32.032  1.00  0.00     0.251 C 
ATOM     38  H   UNL A   1      31.695  36.683  30.525  1.00  0.00     0.163 HD
ATOM     39  O   UNL A   1      31.662  35.847  32.822  1.00  0.00    -0.269 OA
BRANCH  37  40
ATOM     40  C   UNL A   1      33.822  35.015  32.458  1.00  0.00     0.039 A 
ATOM     41  C   UNL A   1      33.732  33.709  32.940  1.00  0.00     0.014 A 
ATOM     42  C   UNL A   1      35.063  35.651  32.343  1.00  0.00     0.014 A 
ATOM     43  C   UNL A   1      34.899  33.020  33.271  1.00  0.00     0.010 A 
ATOM     44  C   UNL A   1      36.227  34.937  32.607  1.00  0.00     0.010 A 
ATOM     45  C   UNL A   1      36.156  33.620  33.086  1.00  0.00    -0.014 A 
BRANCH  45  46
ATOM     46  C   UNL A   1      37.402  32.887  33.418  1.00  0.00     0.031 A 
ATOM     47  C   UNL A   1      38.128  33.187  34.700  1.00  0.00     0.074 A 
ATOM     48  C   UNL A   1      37.902  31.985  32.552  1.00  0.00     0.049 A 
ATOM     49  N   UNL A   1      39.246  32.682  35.158  1.00  0.00    -0.248 NA
ATOM     50  C   UNL A   1      37.530  34.208  35.575  1.00  0.00     0.031 C 
ATOM     51  C   UNL A   1      37.311  31.639  31.258  1.00  0.00     0.029 A 
ATOM     52  N   UNL A   1      39.021  31.195  32.627  1.00  0.00    -0.354 N 
ATOM     53  C   UNL A   1      39.489  33.331  36.361  1.00  0.00     0.074 A 
ATOM     54  C   UNL A   1      38.434  34.306  36.537  1.00  0.00     0.031 C 
ATOM     55  C   UNL A   1      38.059  30.690  30.672  1.00  0.00     0.029 A 
ATOM     56  C   UNL A   1      39.199  30.384  31.532  1.00  0.00     0.049 A 
ATOM     57  H   UNL A   1      39.639  31.207  33.394  1.00  0.00     0.167 HD
ATOM     58  C   UNL A   1      40.484  33.114  37.252  1.00  0.00     0.037 A 
ATOM     59  C   UNL A   1      40.174  29.498  31.255  1.00  0.00     0.037 A 
ATOM     60  C   UNL A   1      41.515  32.124  37.084  1.00  0.00     0.049 A 
ATOM     61  C   UNL A   1      41.274  29.282  32.258  1.00  0.00     0.074 A 
ATOM     62  C   UNL A   1      42.536  31.785  37.955  1.00  0.00     0.029 A 
ATOM     63  N   UNL A   1      41.658  31.315  35.966  1.00  0.00    -0.354 N 
ATOM     64  N   UNL A   1      41.454  29.850  33.426  1.00  0.00    -0.248 NA
ATOM     65  C   UNL A   1      42.305  28.293  31.909  1.00  0.00     0.031 C 
ATOM     66  C   UNL A   1      43.326  30.806  37.342  1.00  0.00     0.029 A 
ATOM     67  C   UNL A   1      42.765  30.496  36.113  1.00  0.00     0.049 A 
ATOM     68  H   UNL A   1      41.061  31.323  35.183  1.00  0.00     0.167 HD
ATOM     69  C   UNL A   1      42.596  29.270  33.962  1.00  0.00     0.074 A 
ATOM     70  C   UNL A   1      43.059  28.294  32.999  1.00  0.00     0.031 C 
ATOM     71  C   UNL A   1      43.206  29.523  35.146  1.00  0.00     0.037 A 
BRANCH  58  72
ATOM     72  C   UNL A   1      40.506  33.963  38.490  1.00  0.00     0.064 A 
ATOM     73  C   UNL A   1      39.782  33.609  39.639  1.00  0.00     0.173 A 
ATOM     74  C   UNL A   1      41.288  35.127  38.542  1.00  0.00     0.173 A 
ATOM     75  F   UNL A   1      39.009  32.512  39.639  1.00  0.00    -0.203 F 
ATOM     76  C   UNL A   1      39.815  34.406  40.782  1.00  0.00     0.198 A 
ATOM     77  C   UNL A   1      41.343  35.904  39.696  1.00  0.00     0.198 A 
ATOM     78  F   UNL A   1      42.003  35.510  37.473  1.00  0.00    -0.203 F 
ATOM     79  F   UNL A   1      39.073  34.075  41.847  1.00  0.00    -0.200 F 
ATOM     80  C   UNL A   1      40.600  35.547  40.811  1.00  0.00     0.200 A 
ATOM     81  F   UNL A   1      42.114  37.000  39.728  1.00  0.00    -0.200 F 
ATOM     82  F   UNL A   1      40.637  36.308  41.914  1.00  0.00    -0.200 F 
ENDBRANCH  58  72
BRANCH  59  83
ATOM     83  C   UNL A   1      40.140  28.728  29.983  1.00  0.00     0.064 A 
ATOM     84  C   UNL A   1      39.482  27.494  29.905  1.00  0.00     0.173 A 
ATOM     85  C   UNL A   1      40.771  29.205  28.824  1.00  0.00     0.173 A 
ATOM     86  F   UNL A   1      38.881  26.985  30.991  1.00  0.00    -0.203 F 
ATOM     87  C   UNL A   1      39.475  26.754  28.724  1.00  0.00     0.198 A 
ATOM     88  C   UNL A   1      40.739  28.478  27.636  1.00  0.00     0.198 A 
ATOM     89  F   UNL A   1      41.411  30.383  28.844  1.00  0.00    -0.203 F 
ATOM     90  F   UNL A   1      38.879  25.554  28.691  1.00  0.00    -0.200 F 
ATOM     91  C   UNL A   1      40.098  27.249  27.589  1.00  0.00     0.200 A 
ATOM     92  F   UNL A   1      41.330  28.968  26.537  1.00  0.00    -0.200 F 
ATOM     93  F   UNL A   1      40.089  26.539  26.453  1.00  0.00    -0.200 F 
ENDBRANCH  59  83
BRANCH  71  94
ATOM     94  C   UNL A   1      44.422  28.708  35.482  1.00  0.00     0.064 A 
ATOM     95  C   UNL A   1      45.713  29.134  35.140  1.00  0.00     0.173 A 
ATOM     96  C   UNL A   1      44.294  27.505  36.192  1.00  0.00     0.173 A 
ATOM     97  F   UNL A   1      45.888  30.270  34.448  1.00  0.00    -0.203 F 
ATOM     98  C   UNL A   1      46.830  28.372  35.474  1.00  0.00     0.198 A 
ATOM     99  C   UNL A   1      45.414  26.761  36.553  1.00  0.00     0.198 A 
ATOM    100  F   UNL A   1      43.081  27.056  36.550  1.00  0.00    -0.203 F 
ATOM    101  F   UNL A   1      48.051  28.774  35.093  1.00  0.00    -0.200 F 
ATOM    102  C   UNL A   1      46.680  27.192  36.186  1.00  0.00     0.200 A 
ATOM    103  F   UNL A   1      45.268  25.629  37.255  1.00  0.00    -0.200 F 
ATOM    104  F   UNL A   1      47.756  26.464  36.514  1.00  0.00    -0.200 F 
ENDBRANCH  71  94
ENDBRANCH  45  46
ENDBRANCH  37  40
ENDBRANCH  35  36
ENDBRANCH  34  35
ENDBRANCH  33  34
ENDBRANCH  32  33
ENDBRANCH   1  32
TORSDOF 18
ENDMDL
MODEL 2
REMARK VINA RESULT:     -12.5      2.209      5.067
REMARK SMILES Cn1ncc(C(=O)NCCCCCCNC(=O)c2ccc(-c3c4nc(c(-c5c(F)c(F)c(F)c(F)c5F)c5ccc([nH]5)c(-c5c(F)c(F)c(F)c(F)c5F)c5nc(c(-c6c(F)c(F)c(F)c(F)c6F)c6ccc3[nH]6)C=C5)C=C4)cc2)c1C(=O)NCC1CC[NH+](Cc2ccccc2)CC1
REMARK SMILES IDX 10 1 9 2 8 3 6 4 7 5 5 7 1 8 2 9 3 10 81 11 4 12 82 13 83 14
REMARK SMILES IDX 84 15 85 17 86 18 87 19 98 20 88 21 97 22 89 23 90 25 91 26
REMARK SMILES IDX 92 27 96 28 93 29 95 30 94 31 11 32 12 33 13 34 14 35 15 36
REMARK SMILES IDX 16 37 17 39 18 40 19 41 80 42 20 43 79 44 21 45 22 46 23 47
REMARK SMILES IDX 73 48 24 49 78 50 72 51 74 52 25 53 77 54 71 55 70 56 26 58
REMARK SMILES IDX 58 59 38 60 57 61 39 62 42 63 56 64 75 65 40 66 41 67 55 69
REMARK SMILES IDX 76 70 43 71 27 72 28 73 36 74 29 75 30 76 34 77 37 78 31 79
REMARK SMILES IDX 32 80 35 81 33 82 59 83 60 84 68 85 61 86 62 87 66 88 69 89
REMARK SMILES IDX 63 90 64 91 67 92 65 93 44 94 45 95 53 96 46 97 47 98 51 99
REMARK SMILES IDX 54 100 48 101 49 102 52 103 50 104
REMARK H PARENT 8 6 84 16 89 24 15 38 74 57 42 68
REMARK Flexibility Score: inf
ROOT
ATOM      1  C   UNL A   1      31.774  28.370  27.246  1.00  0.00     0.021 C 
ENDROOT
BRANCH   1   2
ATOM      2  C   UNL A   1      32.477  27.102  26.778  1.00  0.00     0.116 C 
BRANCH   2   3
ATOM      3  N   UNL A   1      31.738  25.895  27.029  1.00  0.00    -0.352 N 
ATOM      4  C   UNL A   1      31.920  24.583  26.687  1.00  0.00     0.255 C 
ATOM      5  O   UNL A   1      31.022  23.829  27.077  1.00  0.00    -0.269 OA
ATOM      6  H   UNL A   1      30.925  26.045  27.565  1.00  0.00     0.163 HD
BRANCH   4   7
ATOM      7  C   UNL A   1      33.004  24.040  25.872  1.00  0.00     0.090 A 
ATOM      8  C   UNL A   1      35.242  23.063  23.204  1.00  0.00     0.174 C 
ATOM      9  N   UNL A   1      34.505  23.350  24.409  1.00  0.00    -0.262 N 
ATOM     10  N   UNL A   1      35.230  23.574  25.512  1.00  0.00    -0.180 NA
ATOM     11  C   UNL A   1      33.146  23.541  24.568  1.00  0.00     0.138 A 
ATOM     12  C   UNL A   1      34.333  24.027  26.379  1.00  0.00     0.149 A 
BRANCH  11  13
ATOM     13  C   UNL A   1      32.164  23.391  23.524  1.00  0.00     0.270 C 
ATOM     14  O   UNL A   1      31.402  22.431  23.443  1.00  0.00    -0.268 OA
ATOM     15  N   UNL A   1      32.303  24.206  22.417  1.00  0.00    -0.350 N 
ATOM     16  H   UNL A   1      32.916  23.904  21.709  1.00  0.00     0.163 HD
BRANCH  15  17
ATOM     17  C   UNL A   1      31.621  25.473  22.210  1.00  0.00     0.120 C 
BRANCH  17  18
ATOM     18  C   UNL A   1      31.266  26.267  23.489  1.00  0.00     0.019 C 
ATOM     19  C   UNL A   1      29.933  25.866  24.142  1.00  0.00     0.067 C 
ATOM     20  C   UNL A   1      31.313  27.794  23.332  1.00  0.00     0.067 C 
ATOM     21  C   UNL A   1      28.705  26.552  23.517  1.00  0.00     0.262 C 
ATOM     22  C   UNL A   1      30.064  28.375  22.668  1.00  0.00     0.262 C 
ATOM     23  N   UNL A   1      28.887  27.998  23.446  1.00  0.00    -0.331 N 
ATOM     24  H   UNL A   1      29.077  28.275  24.409  1.00  0.00     0.348 HD
BRANCH  23  25
ATOM     25  C   UNL A   1      27.684  28.778  23.124  1.00  0.00     0.299 C 
BRANCH  25  26
ATOM     26  C   UNL A   1      27.839  30.196  22.613  1.00  0.00     0.006 A 
ATOM     27  C   UNL A   1      27.915  30.471  21.239  1.00  0.00     0.009 A 
ATOM     28  C   UNL A   1      28.022  31.259  23.498  1.00  0.00     0.009 A 
ATOM     29  C   UNL A   1      28.167  31.768  20.775  1.00  0.00     0.001 A 
ATOM     30  C   UNL A   1      28.265  32.557  23.035  1.00  0.00     0.001 A 
ATOM     31  C   UNL A   1      28.338  32.814  21.674  1.00  0.00     0.000 A 
ENDBRANCH  25  26
ENDBRANCH  23  25
ENDBRANCH  17  18
ENDBRANCH  15  17
ENDBRANCH  11  13
ENDBRANCH   4   7
ENDBRANCH   2   3
ENDBRANCH   1   2
BRANCH   1  32
ATOM     32  C   UNL A   1      32.432  29.723  26.983  1.00  0.00     0.002 C 
BRANCH  32  33
ATOM     33  C   UNL A   1      31.615  30.715  26.164  1.00  0.00     0.002 C 
BRANCH  33  34
ATOM     34  C   UNL A   1      31.405  32.086  26.807  1.00  0.00     0.021 C 
BRANCH  34  35
ATOM     35  C   UNL A   1      32.673  32.881  27.107  1.00  0.00     0.116 C 
BRANCH  35  36
ATOM     36  N   UNL A   1      32.402  34.219  27.592  1.00  0.00    -0.352 N 
ATOM     37  C   UNL A   1      33.008  34.887  28.627  1.00  0.00     0.251 C 
ATOM     38  H   UNL A   1      31.692  34.711  27.121  1.00  0.00     0.163 HD
ATOM     39  O   UNL A   1      32.580  35.962  29.023  1.00  0.00    -0.269 OA
BRANCH  37  40
ATOM     40  C   UNL A   1      34.179  34.269  29.281  1.00  0.00     0.039 A 
ATOM     41  C   UNL A   1      33.967  33.355  30.311  1.00  0.00     0.014 A 
ATOM     42  C   UNL A   1      35.474  34.570  28.846  1.00  0.00     0.014 A 
ATOM     43  C   UNL A   1      35.060  32.703  30.885  1.00  0.00     0.010 A 
ATOM     44  C   UNL A   1      36.555  33.869  29.372  1.00  0.00     0.010 A 
ATOM     45  C   UNL A   1      36.359  32.938  30.404  1.00  0.00    -0.014 A 
BRANCH  45  46
ATOM     46  C   UNL A   1      37.525  32.237  30.996  1.00  0.00     0.031 A 
ATOM     47  C   UNL A   1      38.006  32.613  32.369  1.00  0.00     0.074 A 
ATOM     48  C   UNL A   1      38.172  31.294  30.285  1.00  0.00     0.049 A 
ATOM     49  N   UNL A   1      39.024  32.144  33.049  1.00  0.00    -0.248 NA
ATOM     50  C   UNL A   1      37.261  33.674  33.064  1.00  0.00     0.031 C 
ATOM     51  C   UNL A   1      37.826  30.873  28.927  1.00  0.00     0.029 A 
ATOM     52  N   UNL A   1      39.259  30.520  30.605  1.00  0.00    -0.354 N 
ATOM     53  C   UNL A   1      39.044  32.860  34.238  1.00  0.00     0.074 A 
ATOM     54  C   UNL A   1      37.976  33.833  34.167  1.00  0.00     0.031 C 
ATOM     55  C   UNL A   1      38.667  29.901  28.539  1.00  0.00     0.029 A 
ATOM     56  C   UNL A   1      39.632  29.653  29.607  1.00  0.00     0.049 A 
ATOM     57  H   UNL A   1      39.728  30.580  31.469  1.00  0.00     0.167 HD
ATOM     58  C   UNL A   1      39.862  32.701  35.305  1.00  0.00     0.037 A 
ATOM     59  C   UNL A   1      40.641  28.763  29.559  1.00  0.00     0.037 A 
ATOM     60  C   UNL A   1      40.906  31.714  35.381  1.00  0.00     0.049 A 
ATOM     61  C   UNL A   1      41.542  28.612  30.755  1.00  0.00     0.074 A 
ATOM     62  C   UNL A   1      41.753  31.433  36.440  1.00  0.00     0.029 A 
ATOM     63  N   UNL A   1      41.249  30.847  34.353  1.00  0.00    -0.354 N 
ATOM     64  N   UNL A   1      41.508  29.245  31.903  1.00  0.00    -0.248 NA
ATOM     65  C   UNL A   1      42.619  27.617  30.653  1.00  0.00     0.031 C 
ATOM     66  C   UNL A   1      42.640  30.430  36.034  1.00  0.00     0.029 A 
ATOM     67  C   UNL A   1      42.311  30.048  34.743  1.00  0.00     0.049 A 
ATOM     68  H   UNL A   1      40.803  30.806  33.476  1.00  0.00     0.167 HD
ATOM     69  C   UNL A   1      42.534  28.706  32.668  1.00  0.00     0.074 A 
ATOM     70  C   UNL A   1      43.163  27.684  31.859  1.00  0.00     0.031 C 
ATOM     71  C   UNL A   1      42.920  29.029  33.927  1.00  0.00     0.037 A 
BRANCH  58  72
ATOM     72  C   UNL A   1      39.659  33.617  36.479  1.00  0.00     0.064 A 
ATOM     73  C   UNL A   1      38.834  33.261  37.556  1.00  0.00     0.173 A 
ATOM     74  C   UNL A   1      40.326  34.850  36.543  1.00  0.00     0.173 A 
ATOM     75  F   UNL A   1      38.165  32.098  37.539  1.00  0.00    -0.203 F 
ATOM     76  C   UNL A   1      38.659  34.119  38.639  1.00  0.00     0.198 A 
ATOM     77  C   UNL A   1      40.172  35.691  37.642  1.00  0.00     0.198 A 
ATOM     78  F   UNL A   1      41.131  35.237  35.542  1.00  0.00    -0.203 F 
ATOM     79  F   UNL A   1      37.824  33.780  39.631  1.00  0.00    -0.200 F 
ATOM     80  C   UNL A   1      39.333  35.329  38.684  1.00  0.00     0.200 A 
ATOM     81  F   UNL A   1      40.837  36.855  37.690  1.00  0.00    -0.200 F 
ATOM     82  F   UNL A   1      39.170  36.150  39.731  1.00  0.00    -0.200 F 
ENDBRANCH  58  72
BRANCH  59  83
ATOM     83  C   UNL A   1      40.839  27.925  28.346  1.00  0.00     0.064 A 
ATOM     84  C   UNL A   1      40.265  26.650  28.250  1.00  0.00     0.173 A 
ATOM     85  C   UNL A   1      41.609  28.376  27.265  1.00  0.00     0.173 A 
ATOM     86  F   UNL A   1      39.536  26.165  29.267  1.00  0.00    -0.203 F 
ATOM     87  C   UNL A   1      40.473  25.849  27.129  1.00  0.00     0.198 A 
ATOM     88  C   UNL A   1      41.793  27.586  26.132  1.00  0.00     0.198 A 
ATOM     89  F   UNL A   1      42.177  29.591  27.304  1.00  0.00    -0.203 F 
ATOM     90  F   UNL A   1      39.953  24.614  27.085  1.00  0.00    -0.200 F 
ATOM     91  C   UNL A   1      41.232  26.319  26.069  1.00  0.00     0.200 A 
ATOM     92  F   UNL A   1      42.515  28.051  25.103  1.00  0.00    -0.200 F 
ATOM     93  F   UNL A   1      41.430  25.550  24.990  1.00  0.00    -0.200 F 
ENDBRANCH  59  83
BRANCH  71  94
ATOM     94  C   UNL A   1      44.054  28.245  34.521  1.00  0.00     0.064 A 
ATOM     95  C   UNL A   1      43.842  27.035  35.196  1.00  0.00     0.173 A 
ATOM     96  C   UNL A   1      45.377  28.693  34.375  1.00  0.00     0.173 A 
ATOM     97  F   UNL A   1      42.596  26.572  35.375  1.00  0.00    -0.203 F 
ATOM     98  C   UNL A   1      44.909  26.314  35.726  1.00  0.00     0.198 A 
ATOM     99  C   UNL A   1      46.444  27.954  34.877  1.00  0.00     0.198 A 
ATOM    100  F   UNL A   1      45.635  29.841  33.731  1.00  0.00    -0.203 F 
ATOM    101  F   UNL A   1      44.678  25.185  36.410  1.00  0.00    -0.200 F 
ATOM    102  C   UNL A   1      46.208  26.770  35.559  1.00  0.00     0.200 A 
ATOM    103  F   UNL A   1      47.700  28.388  34.702  1.00  0.00    -0.200 F 
ATOM    104  F   UNL A   1      47.234  26.070  36.063  1.00  0.00    -0.200 F 
ENDBRANCH  71  94
ENDBRANCH  45  46
ENDBRANCH  37  40
ENDBRANCH  35  36
ENDBRANCH  34  35
ENDBRANCH  33  34
ENDBRANCH  32  33
ENDBRANCH   1  32
TORSDOF 18
ENDMDL
MODEL 3
REMARK VINA RESULT:     -12.5      1.697      2.665
REMARK SMILES Cn1ncc(C(=O)NCCCCCCNC(=O)c2ccc(-c3c4nc(c(-c5c(F)c(F)c(F)c(F)c5F)c5ccc([nH]5)c(-c5c(F)c(F)c(F)c(F)c5F)c5nc(c(-c6c(F)c(F)c(F)c(F)c6F)c6ccc3[nH]6)C=C5)C=C4)cc2)c1C(=O)NCC1CC[NH+](Cc2ccccc2)CC1
REMARK SMILES IDX 10 1 9 2 8 3 6 4 7 5 5 7 1 8 2 9 3 10 81 11 4 12 82 13 83 14
REMARK SMILES IDX 84 15 85 17 86 18 87 19 98 20 88 21 97 22 89 23 90 25 91 26
REMARK SMILES IDX 92 27 96 28 93 29 95 30 94 31 11 32 12 33 13 34 14 35 15 36
REMARK SMILES IDX 16 37 17 39 18 40 19 41 80 42 20 43 79 44 21 45 22 46 23 47
REMARK SMILES IDX 73 48 24 49 78 50 72 51 74 52 25 53 77 54 71 55 70 56 26 58
REMARK SMILES IDX 58 59 38 60 57 61 39 62 42 63 56 64 75 65 40 66 41 67 55 69
REMARK SMILES IDX 76 70 43 71 27 72 28 73 36 74 29 75 30 76 34 77 37 78 31 79
REMARK SMILES IDX 32 80 35 81 33 82 59 83 60 84 68 85 61 86 62 87 66 88 69 89
REMARK SMILES IDX 63 90 64 91 67 92 65 93 44 94 45 95 53 96 46 97 47 98 51 99
REMARK SMILES IDX 54 100 48 101 49 102 52 103 50 104
REMARK H PARENT 8 6 84 16 89 24 15 38 74 57 42 68
REMARK Flexibility Score: inf
ROOT
ATOM      1  C   UNL A   1      31.445  28.429  27.360  1.00  0.00     0.021 C 
ENDROOT
BRANCH   1   2
ATOM      2  C   UNL A   1      32.165  27.125  27.040  1.00  0.00     0.116 C 
BRANCH   2   3
ATOM      3  N   UNL A   1      31.322  26.119  26.451  1.00  0.00    -0.352 N 
ATOM      4  C   UNL A   1      30.538  26.077  25.332  1.00  0.00     0.255 C 
ATOM      5  O   UNL A   1      29.927  25.012  25.183  1.00  0.00    -0.269 OA
ATOM      6  H   UNL A   1      31.308  25.279  26.966  1.00  0.00     0.163 HD
BRANCH   4   7
ATOM      7  C   UNL A   1      30.318  27.164  24.382  1.00  0.00     0.090 A 
ATOM      8  C   UNL A   1      30.512  29.558  21.678  1.00  0.00     0.174 C 
ATOM      9  N   UNL A   1      30.233  28.708  22.808  1.00  0.00    -0.262 N 
ATOM     10  N   UNL A   1      28.943  28.440  23.048  1.00  0.00    -0.180 NA
ATOM     11  C   UNL A   1      31.119  28.030  23.621  1.00  0.00     0.138 A 
ATOM     12  C   UNL A   1      28.996  27.484  23.965  1.00  0.00     0.149 A 
BRANCH  11  13
ATOM     13  C   UNL A   1      32.555  28.127  23.539  1.00  0.00     0.270 C 
ATOM     14  O   UNL A   1      33.172  29.179  23.686  1.00  0.00    -0.268 OA
ATOM     15  N   UNL A   1      33.220  27.055  22.974  1.00  0.00    -0.350 N 
ATOM     16  H   UNL A   1      33.291  27.037  21.992  1.00  0.00     0.163 HD
BRANCH  15  17
ATOM     17  C   UNL A   1      33.821  25.953  23.706  1.00  0.00     0.120 C 
BRANCH  17  18
ATOM     18  C   UNL A   1      34.177  24.701  22.870  1.00  0.00     0.019 C 
ATOM     19  C   UNL A   1      32.973  24.004  22.218  1.00  0.00     0.067 C 
ATOM     20  C   UNL A   1      35.029  23.656  23.608  1.00  0.00     0.067 C 
ATOM     21  C   UNL A   1      32.240  23.025  23.154  1.00  0.00     0.262 C 
ATOM     22  C   UNL A   1      34.215  22.759  24.540  1.00  0.00     0.262 C 
ATOM     23  N   UNL A   1      33.172  22.087  23.770  1.00  0.00    -0.331 N 
ATOM     24  H   UNL A   1      33.639  21.640  22.981  1.00  0.00     0.348 HD
BRANCH  23  25
ATOM     25  C   UNL A   1      32.561  20.944  24.464  1.00  0.00     0.299 C 
BRANCH  25  26
ATOM     26  C   UNL A   1      33.012  19.541  24.112  1.00  0.00     0.006 A 
ATOM     27  C   UNL A   1      34.166  18.982  24.682  1.00  0.00     0.009 A 
ATOM     28  C   UNL A   1      32.354  18.804  23.126  1.00  0.00     0.009 A 
ATOM     29  C   UNL A   1      34.639  17.728  24.273  1.00  0.00     0.001 A 
ATOM     30  C   UNL A   1      32.821  17.548  22.724  1.00  0.00     0.001 A 
ATOM     31  C   UNL A   1      33.963  17.008  23.295  1.00  0.00     0.000 A 
ENDBRANCH  25  26
ENDBRANCH  23  25
ENDBRANCH  17  18
ENDBRANCH  15  17
ENDBRANCH  11  13
ENDBRANCH   4   7
ENDBRANCH   2   3
ENDBRANCH   1   2
BRANCH   1  32
ATOM     32  C   UNL A   1      32.182  29.751  27.160  1.00  0.00     0.002 C 
BRANCH  32  33
ATOM     33  C   UNL A   1      31.558  30.720  26.162  1.00  0.00     0.002 C 
BRANCH  33  34
ATOM     34  C   UNL A   1      31.373  32.153  26.661  1.00  0.00     0.021 C 
BRANCH  34  35
ATOM     35  C   UNL A   1      32.623  32.829  27.220  1.00  0.00     0.116 C 
BRANCH  35  36
ATOM     36  N   UNL A   1      32.382  34.187  27.662  1.00  0.00    -0.352 N 
ATOM     37  C   UNL A   1      33.020  34.881  28.660  1.00  0.00     0.251 C 
ATOM     38  H   UNL A   1      31.671  34.674  27.188  1.00  0.00     0.163 HD
ATOM     39  O   UNL A   1      32.618  35.977  29.026  1.00  0.00    -0.269 OA
BRANCH  37  40
ATOM     40  C   UNL A   1      34.195  34.269  29.311  1.00  0.00     0.039 A 
ATOM     41  C   UNL A   1      33.990  33.372  30.359  1.00  0.00     0.014 A 
ATOM     42  C   UNL A   1      35.488  34.556  28.858  1.00  0.00     0.014 A 
ATOM     43  C   UNL A   1      35.086  32.724  30.931  1.00  0.00     0.010 A 
ATOM     44  C   UNL A   1      36.570  33.857  29.384  1.00  0.00     0.010 A 
ATOM     45  C   UNL A   1      36.381  32.945  30.433  1.00  0.00    -0.014 A 
BRANCH  45  46
ATOM     46  C   UNL A   1      37.549  32.246  31.024  1.00  0.00     0.031 A 
ATOM     47  C   UNL A   1      38.034  32.628  32.394  1.00  0.00     0.074 A 
ATOM     48  C   UNL A   1      38.196  31.302  30.314  1.00  0.00     0.049 A 
ATOM     49  N   UNL A   1      39.054  32.163  33.073  1.00  0.00    -0.248 NA
ATOM     50  C   UNL A   1      37.289  33.690  33.088  1.00  0.00     0.031 C 
ATOM     51  C   UNL A   1      37.846  30.876  28.958  1.00  0.00     0.029 A 
ATOM     52  N   UNL A   1      39.285  30.531  30.633  1.00  0.00    -0.354 N 
ATOM     53  C   UNL A   1      39.077  32.882  34.259  1.00  0.00     0.074 A 
ATOM     54  C   UNL A   1      38.007  33.854  34.188  1.00  0.00     0.031 C 
ATOM     55  C   UNL A   1      38.687  29.904  28.571  1.00  0.00     0.029 A 
ATOM     56  C   UNL A   1      39.656  29.661  29.637  1.00  0.00     0.049 A 
ATOM     57  H   UNL A   1      39.757  30.594  31.496  1.00  0.00     0.167 HD
ATOM     58  C   UNL A   1      39.898  32.729  35.324  1.00  0.00     0.037 A 
ATOM     59  C   UNL A   1      40.666  28.772  29.589  1.00  0.00     0.037 A 
ATOM     60  C   UNL A   1      40.944  31.743  35.401  1.00  0.00     0.049 A 
ATOM     61  C   UNL A   1      41.571  28.627  30.783  1.00  0.00     0.074 A 
ATOM     62  C   UNL A   1      41.794  31.466  36.458  1.00  0.00     0.029 A 
ATOM     63  N   UNL A   1      41.285  30.873  34.375  1.00  0.00    -0.354 N 
ATOM     64  N   UNL A   1      41.539  29.264  31.929  1.00  0.00    -0.248 NA
ATOM     65  C   UNL A   1      42.649  27.633  30.681  1.00  0.00     0.031 C 
ATOM     66  C   UNL A   1      42.681  30.463  36.053  1.00  0.00     0.029 A 
ATOM     67  C   UNL A   1      42.349  30.077  34.765  1.00  0.00     0.049 A 
ATOM     68  H   UNL A   1      40.837  30.829  33.499  1.00  0.00     0.167 HD
ATOM     69  C   UNL A   1      42.568  28.728  32.693  1.00  0.00     0.074 A 
ATOM     70  C   UNL A   1      43.197  27.704  31.886  1.00  0.00     0.031 C 
ATOM     71  C   UNL A   1      42.957  29.056  33.950  1.00  0.00     0.037 A 
BRANCH  58  72
ATOM     72  C   UNL A   1      39.698  33.648  36.495  1.00  0.00     0.064 A 
ATOM     73  C   UNL A   1      40.306  34.911  36.552  1.00  0.00     0.173 A 
ATOM     74  C   UNL A   1      38.860  33.275  37.558  1.00  0.00     0.173 A 
ATOM     75  F   UNL A   1      41.126  35.312  35.568  1.00  0.00    -0.203 F 
ATOM     76  C   UNL A   1      40.108  35.754  37.644  1.00  0.00     0.198 A 
ATOM     77  C   UNL A   1      38.640  34.134  38.632  1.00  0.00     0.198 A 
ATOM     78  F   UNL A   1      38.250  32.080  37.552  1.00  0.00    -0.203 F 
ATOM     79  F   UNL A   1      40.741  36.934  37.700  1.00  0.00    -0.200 F 
ATOM     80  C   UNL A   1      39.269  35.368  38.678  1.00  0.00     0.200 A 
ATOM     81  F   UNL A   1      37.818  33.764  39.624  1.00  0.00    -0.200 F 
ATOM     82  F   UNL A   1      39.074  36.183  39.723  1.00  0.00    -0.200 F 
ENDBRANCH  58  72
BRANCH  59  83
ATOM     83  C   UNL A   1      40.862  27.931  28.378  1.00  0.00     0.064 A 
ATOM     84  C   UNL A   1      40.280  26.659  28.284  1.00  0.00     0.173 A 
ATOM     85  C   UNL A   1      41.638  28.375  27.298  1.00  0.00     0.173 A 
ATOM     86  F   UNL A   1      39.546  26.181  29.300  1.00  0.00    -0.203 F 
ATOM     87  C   UNL A   1      40.486  25.855  27.165  1.00  0.00     0.198 A 
ATOM     88  C   UNL A   1      41.819  27.581  26.167  1.00  0.00     0.198 A 
ATOM     89  F   UNL A   1      42.212  29.587  27.336  1.00  0.00    -0.203 F 
ATOM     90  F   UNL A   1      39.959  24.623  27.122  1.00  0.00    -0.200 F 
ATOM     91  C   UNL A   1      41.250  26.318  26.106  1.00  0.00     0.200 A 
ATOM     92  F   UNL A   1      42.546  28.040  25.139  1.00  0.00    -0.200 F 
ATOM     93  F   UNL A   1      41.446  25.545  25.029  1.00  0.00    -0.200 F 
ENDBRANCH  59  83
BRANCH  71  94
ATOM     94  C   UNL A   1      44.095  28.276  34.543  1.00  0.00     0.064 A 
ATOM     95  C   UNL A   1      45.421  28.721  34.452  1.00  0.00     0.173 A 
ATOM     96  C   UNL A   1      43.847  27.088  35.248  1.00  0.00     0.173 A 
ATOM     97  F   UNL A   1      45.712  29.843  33.776  1.00  0.00    -0.203 F 
ATOM     98  C   UNL A   1      46.461  27.991  35.023  1.00  0.00     0.198 A 
ATOM     99  C   UNL A   1      44.885  26.378  35.845  1.00  0.00     0.198 A 
ATOM    100  F   UNL A   1      42.594  26.622  35.371  1.00  0.00    -0.203 F 
ATOM    101  F   UNL A   1      47.727  28.410  34.881  1.00  0.00    -0.200 F 
ATOM    102  C   UNL A   1      46.191  26.826  35.725  1.00  0.00     0.200 A 
ATOM    103  F   UNL A   1      44.621  25.261  36.536  1.00  0.00    -0.200 F 
ATOM    104  F   UNL A   1      47.193  26.131  36.280  1.00  0.00    -0.200 F 
ENDBRANCH  71  94
ENDBRANCH  45  46
ENDBRANCH  37  40
ENDBRANCH  35  36
ENDBRANCH  34  35
ENDBRANCH  33  34
ENDBRANCH  32  33
ENDBRANCH   1  32
TORSDOF 18
ENDMDL
