MODEL 1
REMARK VINA RESULT:      -9.7      0.000      0.000
REMARK SMILES O=C(COc1ccc(/C=C2\C(=O)N(c3ccc(Cl)cc3Cl)C(=O)N=C2O)cc1Cl)NCCCCCCNC(=O)c1ccc(-c2c3nc(c(-c4c(F)c(F)c(F)c(F)c4F)c4ccc([nH]4)c(-c4c(F)c(F)c(F)c(F)c4F)c4nc(c(-c5c(F)c(F)c(F)c(F)c5F)c5ccc2[nH]5)C=C4)C=C3)cc1
REMARK SMILES IDX 32 1 31 2 30 3 1 4 2 5 3 7 4 8 5 9 6 10 28 11 7 12 27 13
REMARK SMILES IDX 29 14 8 15 9 16 10 17 11 18 25 19 12 20 13 21 24 22 22 23
REMARK SMILES IDX 23 24 26 25 14 27 15 28 20 29 16 30 19 31 21 32 17 33 18 34
REMARK SMILES IDX 33 35 34 36 35 37 36 38 37 39 38 40 39 42 40 43 41 44 102 45
REMARK SMILES IDX 42 46 101 47 43 48 44 49 45 50 95 51 46 52 100 53 94 54
REMARK SMILES IDX 96 55 47 56 99 57 93 58 92 59 48 61 80 62 60 63 79 64 61 65
REMARK SMILES IDX 64 66 78 67 97 68 62 69 63 70 77 72 98 73 65 74 49 75 50 76
REMARK SMILES IDX 58 77 51 78 52 79 56 80 59 81 53 82 54 83 57 84 55 85 81 86
REMARK SMILES IDX 82 87 90 88 83 89 84 90 88 91 91 92 85 93 86 94 89 95 87 96
REMARK SMILES IDX 66 97 67 98 75 99 68 100 69 101 73 102 76 103 70 104 71 105
REMARK SMILES IDX 74 106 72 107
REMARK H PARENT 30 6 26 26 37 41 96 60 64 71
REMARK Flexibility Score: inf
ROOT
ATOM      1  C   UNL A   1      37.948  33.647  31.159  1.00  0.00     0.021 C 
ENDROOT
BRANCH   1   2
ATOM      2  C   UNL A   1      37.440  34.567  32.258  1.00  0.00     0.116 C 
BRANCH   2   3
ATOM      3  N   UNL A   1      37.949  34.232  33.567  1.00  0.00    -0.353 N 
ATOM      4  O   UNL A   1      35.932  34.161  34.680  1.00  0.00    -0.271 OA
ATOM      5  C   UNL A   1      37.131  33.905  34.629  1.00  0.00     0.257 C 
ATOM      6  H   UNL A   1      38.922  34.239  33.707  1.00  0.00     0.163 HD
BRANCH   5   7
ATOM      7  C   UNL A   1      37.865  33.162  35.748  1.00  0.00     0.329 C 
BRANCH   7   8
ATOM      8  O   UNL A   1      37.516  31.773  35.762  1.00  0.00    -0.482 OA
BRANCH   8   9
ATOM      9  C   UNL A   1      38.372  30.970  35.057  1.00  0.00     0.138 A 
ATOM     10  C   UNL A   1      39.624  30.776  35.639  1.00  0.00     0.048 A 
ATOM     11  C   UNL A   1      38.140  30.479  33.767  1.00  0.00     0.083 A 
ATOM     12  C   UNL A   1      40.631  30.092  34.949  1.00  0.00     0.012 A 
ATOM     13  C   UNL A   1      39.142  29.770  33.094  1.00  0.00     0.032 A 
ATOM     14  Cl  UNL A   1      36.695  30.763  32.876  1.00  0.00    -0.080 Cl
ATOM     15  C   UNL A   1      40.396  29.560  33.675  1.00  0.00    -0.023 A 
BRANCH  15  16
ATOM     16  C   UNL A   1      41.427  28.918  32.840  1.00  0.00     0.027 C 
ATOM     17  C   UNL A   1      42.251  27.893  33.125  1.00  0.00     0.103 C 
ATOM     18  C   UNL A   1      42.268  27.143  34.396  1.00  0.00     0.272 C 
ATOM     19  C   UNL A   1      43.320  27.516  32.210  1.00  0.00     0.228 C 
ATOM     20  O   UNL A   1      41.236  26.903  35.012  1.00  0.00    -0.268 OA
ATOM     21  N   UNL A   1      43.558  26.795  34.775  1.00  0.00    -0.224 N 
ATOM     22  N   UNL A   1      44.368  26.851  32.511  1.00  0.00    -0.156 NA
ATOM     23  C   UNL A   1      44.557  26.501  33.830  1.00  0.00     0.358 C 
ATOM     24  O   UNL A   1      45.572  25.878  34.141  1.00  0.00    -0.245 OA
BRANCH  19  25
ATOM     25  O   UNL A   1      43.160  27.893  30.935  1.00  0.00    -0.493 OA
ATOM     26  H   UNL A   1      43.195  27.254  30.250  1.00  0.00     0.295 HD
ENDBRANCH  19  25
BRANCH  21  27
ATOM     27  C   UNL A   1      43.843  26.603  36.167  1.00  0.00     0.073 A 
ATOM     28  C   UNL A   1      44.394  27.644  36.934  1.00  0.00     0.030 A 
ATOM     29  C   UNL A   1      43.667  25.343  36.780  1.00  0.00     0.066 A 
ATOM     30  C   UNL A   1      44.738  27.442  38.274  1.00  0.00     0.023 A 
ATOM     31  C   UNL A   1      44.003  25.147  38.123  1.00  0.00     0.043 A 
ATOM     32  Cl  UNL A   1      43.219  23.929  35.881  1.00  0.00    -0.082 Cl
ATOM     33  C   UNL A   1      44.537  26.198  38.863  1.00  0.00     0.042 A 
ATOM     34  Cl  UNL A   1      44.986  25.947  40.503  1.00  0.00    -0.084 Cl
ENDBRANCH  21  27
ENDBRANCH  15  16
ENDBRANCH   8   9
ENDBRANCH   7   8
ENDBRANCH   5   7
ENDBRANCH   2   3
ENDBRANCH   1   2
BRANCH   1  35
ATOM     35  C   UNL A   1      37.804  34.184  29.730  1.00  0.00     0.002 C 
BRANCH  35  36
ATOM     36  C   UNL A   1      37.157  33.246  28.707  1.00  0.00     0.002 C 
BRANCH  36  37
ATOM     37  C   UNL A   1      35.643  33.372  28.534  1.00  0.00     0.021 C 
BRANCH  37  38
ATOM     38  C   UNL A   1      34.793  32.482  29.433  1.00  0.00     0.116 C 
BRANCH  38  39
ATOM     39  N   UNL A   1      34.057  31.463  28.705  1.00  0.00    -0.352 N 
ATOM     40  C   UNL A   1      34.511  30.288  28.156  1.00  0.00     0.251 C 
ATOM     41  H   UNL A   1      33.095  31.638  28.588  1.00  0.00     0.163 HD
ATOM     42  O   UNL A   1      33.756  29.585  27.491  1.00  0.00    -0.269 OA
BRANCH  40  43
ATOM     43  C   UNL A   1      35.925  29.882  28.330  1.00  0.00     0.039 A 
ATOM     44  C   UNL A   1      36.799  30.026  27.248  1.00  0.00     0.014 A 
ATOM     45  C   UNL A   1      36.392  29.363  29.541  1.00  0.00     0.014 A 
ATOM     46  C   UNL A   1      38.152  29.716  27.400  1.00  0.00     0.010 A 
ATOM     47  C   UNL A   1      37.752  29.116  29.711  1.00  0.00     0.010 A 
ATOM     48  C   UNL A   1      38.646  29.291  28.644  1.00  0.00    -0.014 A 
BRANCH  48  49
ATOM     49  C   UNL A   1      40.094  29.038  28.849  1.00  0.00     0.031 A 
ATOM     50  C   UNL A   1      40.971  30.097  29.454  1.00  0.00     0.074 A 
ATOM     51  C   UNL A   1      40.634  27.881  28.422  1.00  0.00     0.049 A 
ATOM     52  N   UNL A   1      42.267  30.089  29.647  1.00  0.00    -0.248 NA
ATOM     53  C   UNL A   1      40.307  31.341  29.873  1.00  0.00     0.031 C 
ATOM     54  C   UNL A   1      39.899  26.797  27.770  1.00  0.00     0.029 A 
ATOM     55  N   UNL A   1      41.931  27.432  28.457  1.00  0.00    -0.354 N 
ATOM     56  C   UNL A   1      42.574  31.329  30.192  1.00  0.00     0.074 A 
ATOM     57  C   UNL A   1      41.338  32.080  30.256  1.00  0.00     0.031 C 
ATOM     58  C   UNL A   1      40.752  25.802  27.478  1.00  0.00     0.029 A 
ATOM     59  C   UNL A   1      42.097  26.189  27.895  1.00  0.00     0.049 A 
ATOM     60  H   UNL A   1      42.671  27.949  28.848  1.00  0.00     0.167 HD
ATOM     61  C   UNL A   1      43.773  31.791  30.619  1.00  0.00     0.037 A 
ATOM     62  C   UNL A   1      43.209  25.450  27.729  1.00  0.00     0.037 A 
ATOM     63  C   UNL A   1      44.997  31.032  30.579  1.00  0.00     0.049 A 
ATOM     64  C   UNL A   1      44.527  25.977  28.222  1.00  0.00     0.074 A 
ATOM     65  C   UNL A   1      46.248  31.385  31.053  1.00  0.00     0.029 A 
ATOM     66  N   UNL A   1      45.121  29.766  30.028  1.00  0.00    -0.354 N 
ATOM     67  N   UNL A   1      44.795  27.121  28.802  1.00  0.00    -0.248 NA
ATOM     68  C   UNL A   1      45.697  25.105  28.047  1.00  0.00     0.031 C 
ATOM     69  C   UNL A   1      47.139  30.348  30.753  1.00  0.00     0.029 A 
ATOM     70  C   UNL A   1      46.433  29.331  30.131  1.00  0.00     0.049 A 
ATOM     71  H   UNL A   1      44.385  29.251  29.623  1.00  0.00     0.167 HD
ATOM     72  C   UNL A   1      46.154  27.101  29.079  1.00  0.00     0.074 A 
ATOM     73  C   UNL A   1      46.656  25.824  28.615  1.00  0.00     0.031 C 
ATOM     74  C   UNL A   1      46.918  28.056  29.664  1.00  0.00     0.037 A 
BRANCH  61  75
ATOM     75  C   UNL A   1      43.817  33.187  31.167  1.00  0.00     0.064 A 
ATOM     76  C   UNL A   1      43.600  33.449  32.529  1.00  0.00     0.173 A 
ATOM     77  C   UNL A   1      44.095  34.275  30.326  1.00  0.00     0.173 A 
ATOM     78  F   UNL A   1      43.320  32.445  33.373  1.00  0.00    -0.203 F 
ATOM     79  C   UNL A   1      43.624  34.751  33.021  1.00  0.00     0.198 A 
ATOM     80  C   UNL A   1      44.147  35.573  30.827  1.00  0.00     0.198 A 
ATOM     81  F   UNL A   1      44.317  34.079  29.018  1.00  0.00    -0.203 F 
ATOM     82  F   UNL A   1      43.358  34.982  34.314  1.00  0.00    -0.200 F 
ATOM     83  C   UNL A   1      43.901  35.811  32.172  1.00  0.00     0.200 A 
ATOM     84  F   UNL A   1      44.426  36.596  30.008  1.00  0.00    -0.200 F 
ATOM     85  F   UNL A   1      43.924  37.064  32.646  1.00  0.00    -0.200 F 
ENDBRANCH  61  75
BRANCH  62  86
ATOM     86  C   UNL A   1      43.111  24.114  27.088  1.00  0.00     0.064 A 
ATOM     87  C   UNL A   1      43.455  23.937  25.742  1.00  0.00     0.173 A 
ATOM     88  C   UNL A   1      42.698  22.987  27.813  1.00  0.00     0.173 A 
ATOM     89  F   UNL A   1      43.836  24.990  25.005  1.00  0.00    -0.203 F 
ATOM     90  C   UNL A   1      43.379  22.683  25.139  1.00  0.00     0.198 A 
ATOM     91  C   UNL A   1      42.645  21.729  27.215  1.00  0.00     0.198 A 
ATOM     92  F   UNL A   1      42.363  23.105  29.107  1.00  0.00    -0.203 F 
ATOM     93  F   UNL A   1      43.684  22.547  23.842  1.00  0.00    -0.200 F 
ATOM     94  C   UNL A   1      42.982  21.579  25.878  1.00  0.00     0.200 A 
ATOM     95  F   UNL A   1      42.274  20.662  27.936  1.00  0.00    -0.200 F 
ATOM     96  F   UNL A   1      42.921  20.371  25.302  1.00  0.00    -0.200 F 
ENDBRANCH  62  86
BRANCH  74  97
ATOM     97  C   UNL A   1      48.373  27.749  29.857  1.00  0.00     0.064 A 
ATOM     98  C   UNL A   1      49.328  28.076  28.883  1.00  0.00     0.173 A 
ATOM     99  C   UNL A   1      48.822  27.155  31.047  1.00  0.00     0.173 A 
ATOM    100  F   UNL A   1      48.945  28.628  27.722  1.00  0.00    -0.203 F 
ATOM    101  C   UNL A   1      50.678  27.801  29.085  1.00  0.00     0.198 A 
ATOM    102  C   UNL A   1      50.175  26.906  31.256  1.00  0.00     0.198 A 
ATOM    103  F   UNL A   1      47.949  26.828  32.010  1.00  0.00    -0.203 F 
ATOM    104  F   UNL A   1      51.568  28.084  28.124  1.00  0.00    -0.200 F 
ATOM    105  C   UNL A   1      51.101  27.223  30.273  1.00  0.00     0.200 A 
ATOM    106  F   UNL A   1      50.585  26.358  32.409  1.00  0.00    -0.200 F 
ATOM    107  F   UNL A   1      52.401  26.966  30.468  1.00  0.00    -0.200 F 
ENDBRANCH  74  97
ENDBRANCH  48  49
ENDBRANCH  40  43
ENDBRANCH  38  39
ENDBRANCH  37  38
ENDBRANCH  36  37
ENDBRANCH  35  36
ENDBRANCH   1  35
TORSDOF 18
ENDMDL
MODEL 2
REMARK VINA RESULT:      -9.1      4.497      9.687
REMARK SMILES O=C(COc1ccc(/C=C2\C(=O)N(c3ccc(Cl)cc3Cl)C(=O)N=C2O)cc1Cl)NCCCCCCNC(=O)c1ccc(-c2c3nc(c(-c4c(F)c(F)c(F)c(F)c4F)c4ccc([nH]4)c(-c4c(F)c(F)c(F)c(F)c4F)c4nc(c(-c5c(F)c(F)c(F)c(F)c5F)c5ccc2[nH]5)C=C4)C=C3)cc1
REMARK SMILES IDX 32 1 31 2 30 3 1 4 2 5 3 7 4 8 5 9 6 10 28 11 7 12 27 13
REMARK SMILES IDX 29 14 8 15 9 16 10 17 11 18 25 19 12 20 13 21 24 22 22 23
REMARK SMILES IDX 23 24 26 25 14 27 15 28 20 29 16 30 19 31 21 32 17 33 18 34
REMARK SMILES IDX 33 35 34 36 35 37 36 38 37 39 38 40 39 42 40 43 41 44 102 45
REMARK SMILES IDX 42 46 101 47 43 48 44 49 45 50 95 51 46 52 100 53 94 54
REMARK SMILES IDX 96 55 47 56 99 57 93 58 92 59 48 61 80 62 60 63 79 64 61 65
REMARK SMILES IDX 64 66 78 67 97 68 62 69 63 70 77 72 98 73 65 74 49 75 50 76
REMARK SMILES IDX 58 77 51 78 52 79 56 80 59 81 53 82 54 83 57 84 55 85 81 86
REMARK SMILES IDX 82 87 90 88 83 89 84 90 88 91 91 92 85 93 86 94 89 95 87 96
REMARK SMILES IDX 66 97 67 98 75 99 68 100 69 101 73 102 76 103 70 104 71 105
REMARK SMILES IDX 74 106 72 107
REMARK H PARENT 30 6 26 26 37 41 96 60 64 71
REMARK Flexibility Score: inf
ROOT
ATOM      1  C   UNL A   1      36.036  22.082  25.776  1.00  0.00     0.021 C 
ENDROOT
BRANCH   1   2
ATOM      2  C   UNL A   1      34.776  22.315  24.956  1.00  0.00     0.116 C 
BRANCH   2   3
ATOM      3  N   UNL A   1      34.229  23.641  25.111  1.00  0.00    -0.353 N 
ATOM      4  O   UNL A   1      32.190  23.039  26.001  1.00  0.00    -0.271 OA
ATOM      5  C   UNL A   1      33.041  23.891  25.767  1.00  0.00     0.257 C 
ATOM      6  H   UNL A   1      34.725  24.401  24.730  1.00  0.00     0.163 HD
BRANCH   5   7
ATOM      7  C   UNL A   1      32.889  25.350  26.204  1.00  0.00     0.329 C 
BRANCH   7   8
ATOM      8  O   UNL A   1      33.795  26.201  25.491  1.00  0.00    -0.482 OA
BRANCH   8   9
ATOM      9  C   UNL A   1      33.669  27.532  25.788  1.00  0.00     0.138 A 
ATOM     10  C   UNL A   1      33.377  27.821  27.121  1.00  0.00     0.048 A 
ATOM     11  C   UNL A   1      33.659  28.571  24.851  1.00  0.00     0.083 A 
ATOM     12  C   UNL A   1      33.087  29.131  27.517  1.00  0.00     0.012 A 
ATOM     13  C   UNL A   1      33.397  29.884  25.259  1.00  0.00     0.032 A 
ATOM     14  Cl  UNL A   1      33.866  28.340  23.158  1.00  0.00    -0.080 Cl
ATOM     15  C   UNL A   1      33.116  30.185  26.595  1.00  0.00    -0.023 A 
BRANCH  15  16
ATOM     16  C   UNL A   1      32.726  31.571  26.906  1.00  0.00     0.027 C 
ATOM     17  C   UNL A   1      33.386  32.517  27.600  1.00  0.00     0.103 C 
ATOM     18  C   UNL A   1      34.724  32.354  28.200  1.00  0.00     0.272 C 
ATOM     19  C   UNL A   1      32.745  33.782  27.937  1.00  0.00     0.228 C 
ATOM     20  O   UNL A   1      35.599  31.696  27.646  1.00  0.00    -0.268 OA
ATOM     21  N   UNL A   1      34.826  32.999  29.426  1.00  0.00    -0.224 N 
ATOM     22  N   UNL A   1      33.094  34.574  28.875  1.00  0.00    -0.156 NA
ATOM     23  C   UNL A   1      34.128  34.189  29.699  1.00  0.00     0.358 C 
ATOM     24  O   UNL A   1      34.464  34.932  30.622  1.00  0.00    -0.245 OA
BRANCH  19  25
ATOM     25  O   UNL A   1      31.711  34.138  27.165  1.00  0.00    -0.493 OA
ATOM     26  H   UNL A   1      31.259  34.942  27.330  1.00  0.00     0.295 HD
ENDBRANCH  19  25
BRANCH  21  27
ATOM     27  C   UNL A   1      35.767  32.509  30.391  1.00  0.00     0.073 A 
ATOM     28  C   UNL A   1      35.329  31.785  31.512  1.00  0.00     0.030 A 
ATOM     29  C   UNL A   1      37.141  32.820  30.291  1.00  0.00     0.066 A 
ATOM     30  C   UNL A   1      36.234  31.364  32.491  1.00  0.00     0.023 A 
ATOM     31  C   UNL A   1      38.045  32.391  31.268  1.00  0.00     0.043 A 
ATOM     32  Cl  UNL A   1      37.762  33.901  29.085  1.00  0.00    -0.082 Cl
ATOM     33  C   UNL A   1      37.586  31.665  32.362  1.00  0.00     0.042 A 
ATOM     34  Cl  UNL A   1      38.691  31.169  33.582  1.00  0.00    -0.084 Cl
ENDBRANCH  21  27
ENDBRANCH  15  16
ENDBRANCH   8   9
ENDBRANCH   7   8
ENDBRANCH   5   7
ENDBRANCH   2   3
ENDBRANCH   1   2
BRANCH   1  35
ATOM     35  C   UNL A   1      37.351  22.462  25.088  1.00  0.00     0.002 C 
BRANCH  35  36
ATOM     36  C   UNL A   1      38.642  22.022  25.784  1.00  0.00     0.002 C 
BRANCH  36  37
ATOM     37  C   UNL A   1      39.211  20.666  25.365  1.00  0.00     0.021 C 
BRANCH  37  38
ATOM     38  C   UNL A   1      39.704  19.772  26.495  1.00  0.00     0.116 C 
BRANCH  38  39
ATOM     39  N   UNL A   1      40.772  18.871  26.094  1.00  0.00    -0.352 N 
ATOM     40  C   UNL A   1      42.115  19.123  25.954  1.00  0.00     0.251 C 
ATOM     41  H   UNL A   1      40.493  17.948  25.894  1.00  0.00     0.163 HD
ATOM     42  O   UNL A   1      42.863  18.255  25.513  1.00  0.00    -0.269 OA
BRANCH  40  43
ATOM     43  C   UNL A   1      42.663  20.456  26.297  1.00  0.00     0.039 A 
ATOM     44  C   UNL A   1      43.205  21.238  25.273  1.00  0.00     0.014 A 
ATOM     45  C   UNL A   1      42.647  20.936  27.609  1.00  0.00     0.014 A 
ATOM     46  C   UNL A   1      43.668  22.526  25.552  1.00  0.00     0.010 A 
ATOM     47  C   UNL A   1      43.049  22.243  27.875  1.00  0.00     0.010 A 
ATOM     48  C   UNL A   1      43.561  23.052  26.849  1.00  0.00    -0.014 A 
BRANCH  48  49
ATOM     49  C   UNL A   1      43.969  24.448  27.148  1.00  0.00     0.031 A 
ATOM     50  C   UNL A   1      42.951  25.455  27.601  1.00  0.00     0.074 A 
ATOM     51  C   UNL A   1      45.244  24.827  26.939  1.00  0.00     0.049 A 
ATOM     52  N   UNL A   1      43.100  26.734  27.842  1.00  0.00    -0.248 NA
ATOM     53  C   UNL A   1      41.576  24.965  27.783  1.00  0.00     0.031 C 
ATOM     54  C   UNL A   1      46.314  23.958  26.450  1.00  0.00     0.029 A 
ATOM     55  N   UNL A   1      45.852  26.048  27.098  1.00  0.00    -0.354 N 
ATOM     56  C   UNL A   1      41.840  27.203  28.184  1.00  0.00     0.074 A 
ATOM     57  C   UNL A   1      40.929  26.083  28.076  1.00  0.00     0.031 C 
ATOM     58  C   UNL A   1      47.450  24.668  26.359  1.00  0.00     0.029 A 
ATOM     59  C   UNL A   1      47.182  26.047  26.757  1.00  0.00     0.049 A 
ATOM     60  H   UNL A   1      45.380  26.847  27.425  1.00  0.00     0.167 HD
ATOM     61  C   UNL A   1      41.478  28.448  28.573  1.00  0.00     0.037 A 
ATOM     62  C   UNL A   1      48.082  27.048  26.757  1.00  0.00     0.037 A 
ATOM     63  C   UNL A   1      42.390  29.555  28.706  1.00  0.00     0.049 A 
ATOM     64  C   UNL A   1      47.662  28.419  27.206  1.00  0.00     0.074 A 
ATOM     65  C   UNL A   1      42.134  30.836  29.162  1.00  0.00     0.029 A 
ATOM     66  N   UNL A   1      43.737  29.509  28.379  1.00  0.00    -0.354 N 
ATOM     67  N   UNL A   1      46.483  28.835  27.597  1.00  0.00    -0.248 NA
ATOM     68  C   UNL A   1      48.701  29.458  27.222  1.00  0.00     0.031 C 
ATOM     69  C   UNL A   1      43.318  31.578  29.072  1.00  0.00     0.029 A 
ATOM     70  C   UNL A   1      44.321  30.746  28.602  1.00  0.00     0.049 A 
ATOM     71  H   UNL A   1      44.209  28.715  28.037  1.00  0.00     0.167 HD
ATOM     72  C   UNL A   1      46.638  30.174  27.925  1.00  0.00     0.074 A 
ATOM     73  C   UNL A   1      48.031  30.500  27.698  1.00  0.00     0.031 C 
ATOM     74  C   UNL A   1      45.710  31.055  28.372  1.00  0.00     0.037 A 
BRANCH  61  75
ATOM     75  C   UNL A   1      40.028  28.679  28.884  1.00  0.00     0.064 A 
ATOM     76  C   UNL A   1      39.512  28.482  30.175  1.00  0.00     0.173 A 
ATOM     77  C   UNL A   1      39.146  29.115  27.884  1.00  0.00     0.173 A 
ATOM     78  F   UNL A   1      40.312  28.055  31.163  1.00  0.00    -0.203 F 
ATOM     79  C   UNL A   1      38.161  28.680  30.444  1.00  0.00     0.198 A 
ATOM     80  C   UNL A   1      37.800  29.340  28.165  1.00  0.00     0.198 A 
ATOM     81  F   UNL A   1      39.588  29.324  26.636  1.00  0.00    -0.203 F 
ATOM     82  F   UNL A   1      37.681  28.433  31.671  1.00  0.00    -0.200 F 
ATOM     83  C   UNL A   1      37.307  29.113  29.442  1.00  0.00     0.200 A 
ATOM     84  F   UNL A   1      36.978  29.769  27.197  1.00  0.00    -0.200 F 
ATOM     85  F   UNL A   1      36.007  29.302  29.702  1.00  0.00    -0.200 F 
ENDBRANCH  61  75
BRANCH  62  86
ATOM     86  C   UNL A   1      49.482  26.774  26.344  1.00  0.00     0.064 A 
ATOM     87  C   UNL A   1      49.897  26.996  25.025  1.00  0.00     0.173 A 
ATOM     88  C   UNL A   1      50.436  26.310  27.262  1.00  0.00     0.173 A 
ATOM     89  F   UNL A   1      49.015  27.420  24.108  1.00  0.00    -0.203 F 
ATOM     90  C   UNL A   1      51.213  26.755  24.635  1.00  0.00     0.198 A 
ATOM     91  C   UNL A   1      51.757  26.092  26.876  1.00  0.00     0.198 A 
ATOM     92  F   UNL A   1      50.087  26.087  28.538  1.00  0.00    -0.203 F 
ATOM     93  F   UNL A   1      51.577  26.947  23.359  1.00  0.00    -0.200 F 
ATOM     94  C   UNL A   1      52.143  26.311  25.562  1.00  0.00     0.200 A 
ATOM     95  F   UNL A   1      52.656  25.676  27.778  1.00  0.00    -0.200 F 
ATOM     96  F   UNL A   1      53.411  26.090  25.190  1.00  0.00    -0.200 F 
ENDBRANCH  62  86
BRANCH  74  97
ATOM     97  C   UNL A   1      46.174  32.450  28.668  1.00  0.00     0.064 A 
ATOM     98  C   UNL A   1      46.188  33.444  27.679  1.00  0.00     0.173 A 
ATOM     99  C   UNL A   1      46.572  32.806  29.965  1.00  0.00     0.173 A 
ATOM    100  F   UNL A   1      45.834  33.148  26.419  1.00  0.00    -0.203 F 
ATOM    101  C   UNL A   1      46.604  34.740  27.974  1.00  0.00     0.198 A 
ATOM    102  C   UNL A   1      46.961  34.109  30.263  1.00  0.00     0.198 A 
ATOM    103  F   UNL A   1      46.571  31.892  30.947  1.00  0.00    -0.203 F 
ATOM    104  F   UNL A   1      46.649  35.665  27.004  1.00  0.00    -0.200 F 
ATOM    105  C   UNL A   1      46.983  35.073  29.266  1.00  0.00     0.200 A 
ATOM    106  F   UNL A   1      47.318  34.432  31.514  1.00  0.00    -0.200 F 
ATOM    107  F   UNL A   1      47.376  36.322  29.549  1.00  0.00    -0.200 F 
ENDBRANCH  74  97
ENDBRANCH  48  49
ENDBRANCH  40  43
ENDBRANCH  38  39
ENDBRANCH  37  38
ENDBRANCH  36  37
ENDBRANCH  35  36
ENDBRANCH   1  35
TORSDOF 18
ENDMDL
MODEL 3
REMARK VINA RESULT:      -8.7      4.428     12.405
REMARK SMILES O=C(COc1ccc(/C=C2\C(=O)N(c3ccc(Cl)cc3Cl)C(=O)N=C2O)cc1Cl)NCCCCCCNC(=O)c1ccc(-c2c3nc(c(-c4c(F)c(F)c(F)c(F)c4F)c4ccc([nH]4)c(-c4c(F)c(F)c(F)c(F)c4F)c4nc(c(-c5c(F)c(F)c(F)c(F)c5F)c5ccc2[nH]5)C=C4)C=C3)cc1
REMARK SMILES IDX 32 1 31 2 30 3 1 4 2 5 3 7 4 8 5 9 6 10 28 11 7 12 27 13
REMARK SMILES IDX 29 14 8 15 9 16 10 17 11 18 25 19 12 20 13 21 24 22 22 23
REMARK SMILES IDX 23 24 26 25 14 27 15 28 20 29 16 30 19 31 21 32 17 33 18 34
REMARK SMILES IDX 33 35 34 36 35 37 36 38 37 39 38 40 39 42 40 43 41 44 102 45
REMARK SMILES IDX 42 46 101 47 43 48 44 49 45 50 95 51 46 52 100 53 94 54
REMARK SMILES IDX 96 55 47 56 99 57 93 58 92 59 48 61 80 62 60 63 79 64 61 65
REMARK SMILES IDX 64 66 78 67 97 68 62 69 63 70 77 72 98 73 65 74 49 75 50 76
REMARK SMILES IDX 58 77 51 78 52 79 56 80 59 81 53 82 54 83 57 84 55 85 81 86
REMARK SMILES IDX 82 87 90 88 83 89 84 90 88 91 91 92 85 93 86 94 89 95 87 96
REMARK SMILES IDX 66 97 67 98 75 99 68 100 69 101 73 102 76 103 70 104 71 105
REMARK SMILES IDX 74 106 72 107
REMARK H PARENT 30 6 26 26 37 41 96 60 64 71
REMARK Flexibility Score: inf
ROOT
ATOM      1  C   UNL A   1      47.174  28.442  31.732  1.00  0.00     0.021 C 
ENDROOT
BRANCH   1   2
ATOM      2  C   UNL A   1      46.990  28.902  30.294  1.00  0.00     0.116 C 
BRANCH   2   3
ATOM      3  N   UNL A   1      47.216  27.857  29.325  1.00  0.00    -0.353 N 
ATOM      4  O   UNL A   1      47.304  29.186  27.444  1.00  0.00    -0.271 OA
ATOM      5  C   UNL A   1      47.510  28.112  28.001  1.00  0.00     0.257 C 
ATOM      6  H   UNL A   1      47.157  26.921  29.621  1.00  0.00     0.163 HD
BRANCH   5   7
ATOM      7  C   UNL A   1      48.146  26.919  27.283  1.00  0.00     0.329 C 
BRANCH   7   8
ATOM      8  O   UNL A   1      47.585  26.741  25.977  1.00  0.00    -0.482 OA
BRANCH   8   9
ATOM      9  C   UNL A   1      47.119  25.477  25.732  1.00  0.00     0.138 A 
ATOM     10  C   UNL A   1      46.539  24.833  26.824  1.00  0.00     0.048 A 
ATOM     11  C   UNL A   1      47.320  24.758  24.548  1.00  0.00     0.083 A 
ATOM     12  C   UNL A   1      46.154  23.491  26.735  1.00  0.00     0.012 A 
ATOM     13  C   UNL A   1      46.907  23.425  24.456  1.00  0.00     0.032 A 
ATOM     14  Cl  UNL A   1      48.146  25.383  23.173  1.00  0.00    -0.080 Cl
ATOM     15  C   UNL A   1      46.312  22.774  25.542  1.00  0.00    -0.023 A 
BRANCH  15  16
ATOM     16  C   UNL A   1      46.029  21.336  25.393  1.00  0.00     0.027 C 
ATOM     17  C   UNL A   1      44.856  20.703  25.206  1.00  0.00     0.103 C 
ATOM     18  C   UNL A   1      43.543  21.365  25.076  1.00  0.00     0.272 C 
ATOM     19  C   UNL A   1      44.775  19.249  25.251  1.00  0.00     0.228 C 
ATOM     20  O   UNL A   1      43.422  22.440  24.498  1.00  0.00    -0.268 OA
ATOM     21  N   UNL A   1      42.533  20.641  25.695  1.00  0.00    -0.224 N 
ATOM     22  N   UNL A   1      43.720  18.562  25.467  1.00  0.00    -0.156 NA
ATOM     23  C   UNL A   1      42.553  19.236  25.750  1.00  0.00     0.358 C 
ATOM     24  O   UNL A   1      41.532  18.588  25.982  1.00  0.00    -0.245 OA
BRANCH  19  25
ATOM     25  O   UNL A   1      45.917  18.592  25.019  1.00  0.00    -0.493 OA
ATOM     26  H   UNL A   1      46.696  18.830  25.483  1.00  0.00     0.295 HD
ENDBRANCH  19  25
BRANCH  21  27
ATOM     27  C   UNL A   1      41.376  21.337  26.176  1.00  0.00     0.073 A 
ATOM     28  C   UNL A   1      40.163  21.283  25.469  1.00  0.00     0.030 A 
ATOM     29  C   UNL A   1      41.446  22.169  27.316  1.00  0.00     0.066 A 
ATOM     30  C   UNL A   1      39.051  22.014  25.894  1.00  0.00     0.023 A 
ATOM     31  C   UNL A   1      40.329  22.892  27.745  1.00  0.00     0.043 A 
ATOM     32  Cl  UNL A   1      42.941  22.500  28.131  1.00  0.00    -0.082 Cl
ATOM     33  C   UNL A   1      39.137  22.810  27.032  1.00  0.00     0.042 A 
ATOM     34  Cl  UNL A   1      37.775  23.729  27.536  1.00  0.00    -0.084 Cl
ENDBRANCH  21  27
ENDBRANCH  15  16
ENDBRANCH   8   9
ENDBRANCH   7   8
ENDBRANCH   5   7
ENDBRANCH   2   3
ENDBRANCH   1   2
BRANCH   1  35
ATOM     35  C   UNL A   1      48.198  27.321  31.940  1.00  0.00     0.002 C 
BRANCH  35  36
ATOM     36  C   UNL A   1      47.652  25.979  32.437  1.00  0.00     0.002 C 
BRANCH  36  37
ATOM     37  C   UNL A   1      48.584  25.155  33.327  1.00  0.00     0.021 C 
BRANCH  37  38
ATOM     38  C   UNL A   1      47.908  24.307  34.396  1.00  0.00     0.116 C 
BRANCH  38  39
ATOM     39  N   UNL A   1      48.125  24.799  35.746  1.00  0.00    -0.352 N 
ATOM     40  C   UNL A   1      47.436  25.764  36.441  1.00  0.00     0.251 C 
ATOM     41  H   UNL A   1      48.872  24.383  36.233  1.00  0.00     0.163 HD
ATOM     42  O   UNL A   1      47.821  26.119  37.551  1.00  0.00    -0.269 OA
BRANCH  40  43
ATOM     43  C   UNL A   1      46.247  26.410  35.838  1.00  0.00     0.039 A 
ATOM     44  C   UNL A   1      46.356  27.733  35.401  1.00  0.00     0.014 A 
ATOM     45  C   UNL A   1      45.035  25.727  35.702  1.00  0.00     0.014 A 
ATOM     46  C   UNL A   1      45.274  28.349  34.767  1.00  0.00     0.010 A 
ATOM     47  C   UNL A   1      43.979  26.319  35.012  1.00  0.00     0.010 A 
ATOM     48  C   UNL A   1      44.088  27.634  34.536  1.00  0.00    -0.014 A 
BRANCH  48  49
ATOM     49  C   UNL A   1      42.958  28.242  33.790  1.00  0.00     0.031 A 
ATOM     50  C   UNL A   1      42.816  28.016  32.312  1.00  0.00     0.074 A 
ATOM     51  C   UNL A   1      42.101  29.059  34.431  1.00  0.00     0.049 A 
ATOM     52  N   UNL A   1      41.940  28.517  31.477  1.00  0.00    -0.248 NA
ATOM     53  C   UNL A   1      43.808  27.129  31.684  1.00  0.00     0.031 C 
ATOM     54  C   UNL A   1      42.163  29.400  35.852  1.00  0.00     0.029 A 
ATOM     55  N   UNL A   1      41.018  29.762  33.965  1.00  0.00    -0.354 N 
ATOM     56  C   UNL A   1      42.285  28.023  30.227  1.00  0.00     0.074 A 
ATOM     57  C   UNL A   1      43.477  27.220  30.404  1.00  0.00     0.031 C 
ATOM     58  C   UNL A   1      41.156  30.238  36.146  1.00  0.00     0.029 A 
ATOM     59  C   UNL A   1      40.395  30.514  34.931  1.00  0.00     0.049 A 
ATOM     60  H   UNL A   1      40.716  29.731  33.029  1.00  0.00     0.167 HD
ATOM     61  C   UNL A   1      41.655  28.205  29.042  1.00  0.00     0.037 A 
ATOM     62  C   UNL A   1      39.335  31.340  34.845  1.00  0.00     0.037 A 
ATOM     63  C   UNL A   1      40.455  28.983  28.872  1.00  0.00     0.049 A 
ATOM     64  C   UNL A   1      38.642  31.516  33.523  1.00  0.00     0.074 A 
ATOM     65  C   UNL A   1      39.701  29.168  27.726  1.00  0.00     0.029 A 
ATOM     66  N   UNL A   1      39.837  29.708  29.880  1.00  0.00    -0.354 N 
ATOM     67  N   UNL A   1      38.934  30.986  32.360  1.00  0.00    -0.248 NA
ATOM     68  C   UNL A   1      37.468  32.399  33.502  1.00  0.00     0.031 C 
ATOM     69  C   UNL A   1      38.648  30.039  28.031  1.00  0.00     0.029 A 
ATOM     70  C   UNL A   1      38.721  30.361  29.377  1.00  0.00     0.049 A 
ATOM     71  H   UNL A   1      40.145  29.753  30.814  1.00  0.00     0.167 HD
ATOM     72  C   UNL A   1      37.971  31.451  31.475  1.00  0.00     0.074 A 
ATOM     73  C   UNL A   1      37.078  32.298  32.239  1.00  0.00     0.031 C 
ATOM     74  C   UNL A   1      37.841  31.200  30.149  1.00  0.00     0.037 A 
BRANCH  61  75
ATOM     75  C   UNL A   1      42.256  27.548  27.834  1.00  0.00     0.064 A 
ATOM     76  C   UNL A   1      41.708  26.378  27.284  1.00  0.00     0.173 A 
ATOM     77  C   UNL A   1      43.383  28.101  27.209  1.00  0.00     0.173 A 
ATOM     78  F   UNL A   1      40.638  25.803  27.851  1.00  0.00    -0.203 F 
ATOM     79  C   UNL A   1      42.288  25.767  26.176  1.00  0.00     0.198 A 
ATOM     80  C   UNL A   1      43.943  27.503  26.082  1.00  0.00     0.198 A 
ATOM     81  F   UNL A   1      43.942  29.222  27.689  1.00  0.00    -0.203 F 
ATOM     82  F   UNL A   1      41.781  24.621  25.703  1.00  0.00    -0.200 F 
ATOM     83  C   UNL A   1      43.401  26.332  25.573  1.00  0.00     0.200 A 
ATOM     84  F   UNL A   1      45.013  28.056  25.493  1.00  0.00    -0.200 F 
ATOM     85  F   UNL A   1      43.959  25.743  24.506  1.00  0.00    -0.200 F 
ENDBRANCH  61  75
BRANCH  62  86
ATOM     86  C   UNL A   1      38.849  32.037  36.062  1.00  0.00     0.064 A 
ATOM     87  C   UNL A   1      38.048  31.372  36.998  1.00  0.00     0.173 A 
ATOM     88  C   UNL A   1      39.196  33.370  36.326  1.00  0.00     0.173 A 
ATOM     89  F   UNL A   1      37.674  30.103  36.777  1.00  0.00    -0.203 F 
ATOM     90  C   UNL A   1      37.601  32.016  38.150  1.00  0.00     0.198 A 
ATOM     91  C   UNL A   1      38.769  34.006  37.490  1.00  0.00     0.198 A 
ATOM     92  F   UNL A   1      39.967  34.048  35.462  1.00  0.00    -0.203 F 
ATOM     93  F   UNL A   1      36.810  31.366  39.014  1.00  0.00    -0.200 F 
ATOM     94  C   UNL A   1      37.968  33.330  38.399  1.00  0.00     0.200 A 
ATOM     95  F   UNL A   1      39.137  35.272  37.733  1.00  0.00    -0.200 F 
ATOM     96  F   UNL A   1      37.549  33.946  39.512  1.00  0.00    -0.200 F 
ENDBRANCH  62  86
BRANCH  74  97
ATOM     97  C   UNL A   1      36.678  31.830  29.443  1.00  0.00     0.064 A 
ATOM     98  C   UNL A   1      35.568  31.075  29.039  1.00  0.00     0.173 A 
ATOM     99  C   UNL A   1      36.657  33.212  29.201  1.00  0.00     0.173 A 
ATOM    100  F   UNL A   1      35.549  29.747  29.231  1.00  0.00    -0.203 F 
ATOM    101  C   UNL A   1      34.487  31.677  28.400  1.00  0.00     0.198 A 
ATOM    102  C   UNL A   1      35.564  33.815  28.587  1.00  0.00     0.198 A 
ATOM    103  F   UNL A   1      37.693  33.979  29.573  1.00  0.00    -0.203 F 
ATOM    104  F   UNL A   1      33.454  30.930  27.986  1.00  0.00    -0.200 F 
ATOM    105  C   UNL A   1      34.483  33.047  28.181  1.00  0.00     0.200 A 
ATOM    106  F   UNL A   1      35.556  35.141  28.385  1.00  0.00    -0.200 F 
ATOM    107  F   UNL A   1      33.439  33.626  27.573  1.00  0.00    -0.200 F 
ENDBRANCH  74  97
ENDBRANCH  48  49
ENDBRANCH  40  43
ENDBRANCH  38  39
ENDBRANCH  37  38
ENDBRANCH  36  37
ENDBRANCH  35  36
ENDBRANCH   1  35
TORSDOF 18
ENDMDL
