MODEL 1
REMARK VINA RESULT:     -11.8      0.000      0.000
REMARK SMILES C[C@@H](C(=O)NCCCCCCNC(=O)c1ccc(-c2c3nc(c(-c4c(F)c(F)c(F)c(F)c4F)c4ccc([nH]4)c(-c4c(F)c(F)c(F)c(F)c4F)c4nc(c(-c5c(F)c(F)c(F)c(F)c5F)c5ccc2[nH]5)C=C4)C=C3)cc1)c1ccc(-c2cccc(OC(=O)NCCC3CCCCC3)c2)c(F)c1
REMARK SMILES IDX 6 1 5 2 3 3 4 4 2 6 1 7 78 8 79 9 102 10 80 11 100 12 81 13
REMARK SMILES IDX 101 14 82 15 83 16 99 17 84 18 86 19 85 20 87 21 88 22 89 23
REMARK SMILES IDX 90 24 91 26 92 27 93 28 94 29 98 30 95 31 97 32 96 33 7 34
REMARK SMILES IDX 8 35 9 36 10 37 11 38 12 39 13 40 14 42 15 43 16 44 77 45
REMARK SMILES IDX 17 46 76 47 18 48 19 49 20 50 70 51 21 52 75 53 69 54 71 55
REMARK SMILES IDX 22 56 74 57 68 58 67 59 23 61 55 62 35 63 54 64 36 65 39 66
REMARK SMILES IDX 53 67 72 68 37 69 38 70 52 72 73 73 40 74 24 75 25 76 33 77
REMARK SMILES IDX 26 78 27 79 31 80 34 81 28 82 29 83 32 84 30 85 56 86 57 87
REMARK SMILES IDX 65 88 58 89 59 90 63 91 66 92 60 93 61 94 64 95 62 96 41 97
REMARK SMILES IDX 42 98 50 99 43 100 44 101 48 102 51 103 45 104 46 105 49 106
REMARK SMILES IDX 47 107
REMARK H PARENT 5 5 90 25 12 41 71 60 39 71
REMARK Flexibility Score: inf
ROOT
ATOM      1  C   UNL A   1      33.629  21.103  26.928  1.00  0.00     0.116 C 
ENDROOT
BRANCH   1   2
ATOM      2  N   UNL A   1      34.325  20.413  25.864  1.00  0.00    -0.356 N 
ATOM      3  C   UNL A   1      33.778  19.731  24.815  1.00  0.00     0.227 C 
ATOM      4  O   UNL A   1      34.424  18.771  24.395  1.00  0.00    -0.274 OA
ATOM      5  H   UNL A   1      35.309  20.437  25.902  1.00  0.00     0.163 HD
BRANCH   3   6
ATOM      6  C   UNL A   1      32.425  20.192  24.251  1.00  0.00     0.105 C 
ATOM      7  C   UNL A   1      32.058  19.317  23.042  1.00  0.00     0.023 C 
BRANCH   6   8
ATOM      8  C   UNL A   1      32.311  21.670  23.871  1.00  0.00    -0.033 A 
ATOM      9  C   UNL A   1      31.439  22.575  24.492  1.00  0.00     0.005 A 
ATOM     10  C   UNL A   1      33.128  22.168  22.842  1.00  0.00     0.044 A 
ATOM     11  C   UNL A   1      31.451  23.936  24.170  1.00  0.00     0.012 A 
ATOM     12  C   UNL A   1      33.139  23.523  22.526  1.00  0.00     0.131 A 
ATOM     13  C   UNL A   1      32.316  24.437  23.193  1.00  0.00     0.018 A 
ATOM     14  F   UNL A   1      33.967  23.935  21.554  1.00  0.00    -0.206 F 
BRANCH  13  15
ATOM     15  C   UNL A   1      32.275  25.852  22.820  1.00  0.00    -0.012 A 
ATOM     16  C   UNL A   1      33.436  26.633  22.712  1.00  0.00     0.009 A 
ATOM     17  C   UNL A   1      31.032  26.467  22.619  1.00  0.00     0.056 A 
ATOM     18  C   UNL A   1      33.349  27.997  22.421  1.00  0.00     0.004 A 
ATOM     19  C   UNL A   1      30.940  27.828  22.367  1.00  0.00     0.133 A 
ATOM     20  C   UNL A   1      32.099  28.598  22.254  1.00  0.00     0.047 A 
BRANCH  19  21
ATOM     21  O   UNL A   1      29.714  28.519  22.226  1.00  0.00    -0.410 OA
BRANCH  21  22
ATOM     22  C   UNL A   1      29.612  29.891  22.010  1.00  0.00     0.412 C 
ATOM     23  O   UNL A   1      29.464  30.465  20.936  1.00  0.00    -0.224 OA
ATOM     24  N   UNL A   1      29.661  30.632  23.152  1.00  0.00    -0.321 N 
ATOM     25  H   UNL A   1      29.567  31.606  23.041  1.00  0.00     0.167 HD
BRANCH  24  26
ATOM     26  C   UNL A   1      29.834  30.159  24.506  1.00  0.00     0.119 C 
BRANCH  26  27
ATOM     27  C   UNL A   1      31.158  30.646  25.094  1.00  0.00     0.025 C 
BRANCH  27  28
ATOM     28  C   UNL A   1      31.869  29.617  26.000  1.00  0.00    -0.009 C 
ATOM     29  C   UNL A   1      31.340  28.191  25.777  1.00  0.00     0.003 C 
ATOM     30  C   UNL A   1      33.388  29.679  25.767  1.00  0.00     0.003 C 
ATOM     31  C   UNL A   1      32.106  27.157  26.600  1.00  0.00     0.000 C 
ATOM     32  C   UNL A   1      34.133  28.648  26.610  1.00  0.00     0.000 C 
ATOM     33  C   UNL A   1      33.608  27.240  26.355  1.00  0.00     0.000 C 
ENDBRANCH  27  28
ENDBRANCH  26  27
ENDBRANCH  24  26
ENDBRANCH  21  22
ENDBRANCH  19  21
ENDBRANCH  13  15
ENDBRANCH   6   8
ENDBRANCH   3   6
ENDBRANCH   1   2
BRANCH   1  34
ATOM     34  C   UNL A   1      34.413  22.359  27.329  1.00  0.00     0.021 C 
BRANCH  34  35
ATOM     35  C   UNL A   1      33.970  23.631  26.593  1.00  0.00     0.002 C 
BRANCH  35  36
ATOM     36  C   UNL A   1      34.945  24.116  25.520  1.00  0.00     0.002 C 
BRANCH  36  37
ATOM     37  C   UNL A   1      36.413  24.093  25.948  1.00  0.00     0.021 C 
BRANCH  37  38
ATOM     38  C   UNL A   1      37.345  23.450  24.930  1.00  0.00     0.116 C 
BRANCH  38  39
ATOM     39  N   UNL A   1      38.227  22.470  25.545  1.00  0.00    -0.352 N 
ATOM     40  C   UNL A   1      39.335  22.677  26.326  1.00  0.00     0.251 C 
ATOM     41  H   UNL A   1      37.996  21.529  25.377  1.00  0.00     0.163 HD
ATOM     42  O   UNL A   1      40.097  21.751  26.583  1.00  0.00    -0.269 OA
BRANCH  40  43
ATOM     43  C   UNL A   1      39.619  24.032  26.842  1.00  0.00     0.039 A 
ATOM     44  C   UNL A   1      39.261  24.342  28.155  1.00  0.00     0.014 A 
ATOM     45  C   UNL A   1      40.243  24.987  26.034  1.00  0.00     0.014 A 
ATOM     46  C   UNL A   1      39.583  25.596  28.678  1.00  0.00     0.010 A 
ATOM     47  C   UNL A   1      40.636  26.204  26.582  1.00  0.00     0.010 A 
ATOM     48  C   UNL A   1      40.307  26.522  27.907  1.00  0.00    -0.014 A 
BRANCH  48  49
ATOM     49  C   UNL A   1      40.730  27.827  28.477  1.00  0.00     0.031 A 
ATOM     50  C   UNL A   1      42.165  28.058  28.860  1.00  0.00     0.074 A 
ATOM     51  C   UNL A   1      39.807  28.783  28.700  1.00  0.00     0.049 A 
ATOM     52  N   UNL A   1      42.714  29.110  29.414  1.00  0.00    -0.248 NA
ATOM     53  C   UNL A   1      43.104  26.954  28.611  1.00  0.00     0.031 C 
ATOM     54  C   UNL A   1      38.377  28.660  28.414  1.00  0.00     0.029 A 
ATOM     55  N   UNL A   1      39.933  30.045  29.224  1.00  0.00    -0.354 N 
ATOM     56  C   UNL A   1      44.055  28.791  29.585  1.00  0.00     0.074 A 
ATOM     57  C   UNL A   1      44.225  27.426  29.134  1.00  0.00     0.031 C 
ATOM     58  C   UNL A   1      37.762  29.809  28.740  1.00  0.00     0.029 A 
ATOM     59  C   UNL A   1      38.745  30.732  29.298  1.00  0.00     0.049 A 
ATOM     60  H   UNL A   1      40.793  30.424  29.518  1.00  0.00     0.167 HD
ATOM     61  C   UNL A   1      45.056  29.572  30.052  1.00  0.00     0.037 A 
ATOM     62  C   UNL A   1      38.477  31.963  29.773  1.00  0.00     0.037 A 
ATOM     63  C   UNL A   1      44.883  30.934  30.487  1.00  0.00     0.049 A 
ATOM     64  C   UNL A   1      39.606  32.801  30.311  1.00  0.00     0.074 A 
ATOM     65  C   UNL A   1      45.844  31.828  30.926  1.00  0.00     0.029 A 
ATOM     66  N   UNL A   1      43.666  31.596  30.546  1.00  0.00    -0.354 N 
ATOM     67  N   UNL A   1      40.882  32.515  30.399  1.00  0.00    -0.248 NA
ATOM     68  C   UNL A   1      39.256  34.138  30.811  1.00  0.00     0.031 C 
ATOM     69  C   UNL A   1      45.201  33.009  31.310  1.00  0.00     0.029 A 
ATOM     70  C   UNL A   1      43.847  32.877  31.043  1.00  0.00     0.049 A 
ATOM     71  H   UNL A   1      42.800  31.214  30.274  1.00  0.00     0.167 HD
ATOM     72  C   UNL A   1      41.491  33.644  30.931  1.00  0.00     0.074 A 
ATOM     73  C   UNL A   1      40.446  34.626  31.130  1.00  0.00     0.031 C 
ATOM     74  C   UNL A   1      42.798  33.848  31.230  1.00  0.00     0.037 A 
BRANCH  61  75
ATOM     75  C   UNL A   1      46.434  28.975  30.121  1.00  0.00     0.064 A 
ATOM     76  C   UNL A   1      46.897  28.318  31.273  1.00  0.00     0.173 A 
ATOM     77  C   UNL A   1      47.287  29.022  29.009  1.00  0.00     0.173 A 
ATOM     78  F   UNL A   1      46.126  28.254  32.370  1.00  0.00    -0.203 F 
ATOM     79  C   UNL A   1      48.171  27.760  31.317  1.00  0.00     0.198 A 
ATOM     80  C   UNL A   1      48.548  28.430  29.044  1.00  0.00     0.198 A 
ATOM     81  F   UNL A   1      46.894  29.631  27.879  1.00  0.00    -0.203 F 
ATOM     82  F   UNL A   1      48.610  27.185  32.446  1.00  0.00    -0.200 F 
ATOM     83  C   UNL A   1      48.992  27.808  30.201  1.00  0.00     0.200 A 
ATOM     84  F   UNL A   1      49.333  28.464  27.960  1.00  0.00    -0.200 F 
ATOM     85  F   UNL A   1      50.215  27.261  30.242  1.00  0.00    -0.200 F 
ENDBRANCH  61  75
BRANCH  62  86
ATOM     86  C   UNL A   1      37.084  32.485  29.750  1.00  0.00     0.064 A 
ATOM     87  C   UNL A   1      36.611  33.230  28.660  1.00  0.00     0.173 A 
ATOM     88  C   UNL A   1      36.203  32.265  30.819  1.00  0.00     0.173 A 
ATOM     89  F   UNL A   1      37.420  33.485  27.622  1.00  0.00    -0.203 F 
ATOM     90  C   UNL A   1      35.321  33.758  28.654  1.00  0.00     0.198 A 
ATOM     91  C   UNL A   1      34.903  32.764  30.796  1.00  0.00     0.198 A 
ATOM     92  F   UNL A   1      36.602  31.553  31.883  1.00  0.00    -0.203 F 
ATOM     93  F   UNL A   1      34.914  34.515  27.625  1.00  0.00    -0.200 F 
ATOM     94  C   UNL A   1      34.467  33.520  29.720  1.00  0.00     0.200 A 
ATOM     95  F   UNL A   1      34.075  32.515  31.821  1.00  0.00    -0.200 F 
ATOM     96  F   UNL A   1      33.226  34.025  29.713  1.00  0.00    -0.200 F 
ENDBRANCH  62  86
BRANCH  74  97
ATOM     97  C   UNL A   1      43.181  35.200  31.764  1.00  0.00     0.064 A 
ATOM     98  C   UNL A   1      43.623  36.231  30.921  1.00  0.00     0.173 A 
ATOM     99  C   UNL A   1      43.067  35.477  33.136  1.00  0.00     0.173 A 
ATOM    100  F   UNL A   1      43.763  36.013  29.605  1.00  0.00    -0.203 F 
ATOM    101  C   UNL A   1      43.969  37.478  31.437  1.00  0.00     0.198 A 
ATOM    102  C   UNL A   1      43.378  36.737  33.641  1.00  0.00     0.198 A 
ATOM    103  F   UNL A   1      42.641  34.531  33.985  1.00  0.00    -0.203 F 
ATOM    104  F   UNL A   1      44.444  38.428  30.620  1.00  0.00    -0.200 F 
ATOM    105  C   UNL A   1      43.837  37.732  32.793  1.00  0.00     0.200 A 
ATOM    106  F   UNL A   1      43.233  36.985  34.950  1.00  0.00    -0.200 F 
ATOM    107  F   UNL A   1      44.162  38.935  33.285  1.00  0.00    -0.200 F 
ENDBRANCH  74  97
ENDBRANCH  48  49
ENDBRANCH  40  43
ENDBRANCH  38  39
ENDBRANCH  37  38
ENDBRANCH  36  37
ENDBRANCH  35  36
ENDBRANCH  34  35
ENDBRANCH   1  34
TORSDOF 20
ENDMDL
MODEL 2
REMARK VINA RESULT:     -11.5      1.213      2.111
REMARK SMILES C[C@@H](C(=O)NCCCCCCNC(=O)c1ccc(-c2c3nc(c(-c4c(F)c(F)c(F)c(F)c4F)c4ccc([nH]4)c(-c4c(F)c(F)c(F)c(F)c4F)c4nc(c(-c5c(F)c(F)c(F)c(F)c5F)c5ccc2[nH]5)C=C4)C=C3)cc1)c1ccc(-c2cccc(OC(=O)NCCC3CCCCC3)c2)c(F)c1
REMARK SMILES IDX 6 1 5 2 3 3 4 4 2 6 1 7 78 8 79 9 102 10 80 11 100 12 81 13
REMARK SMILES IDX 101 14 82 15 83 16 99 17 84 18 86 19 85 20 87 21 88 22 89 23
REMARK SMILES IDX 90 24 91 26 92 27 93 28 94 29 98 30 95 31 97 32 96 33 7 34
REMARK SMILES IDX 8 35 9 36 10 37 11 38 12 39 13 40 14 42 15 43 16 44 77 45
REMARK SMILES IDX 17 46 76 47 18 48 19 49 20 50 70 51 21 52 75 53 69 54 71 55
REMARK SMILES IDX 22 56 74 57 68 58 67 59 23 61 55 62 35 63 54 64 36 65 39 66
REMARK SMILES IDX 53 67 72 68 37 69 38 70 52 72 73 73 40 74 24 75 25 76 33 77
REMARK SMILES IDX 26 78 27 79 31 80 34 81 28 82 29 83 32 84 30 85 56 86 57 87
REMARK SMILES IDX 65 88 58 89 59 90 63 91 66 92 60 93 61 94 64 95 62 96 41 97
REMARK SMILES IDX 42 98 50 99 43 100 44 101 48 102 51 103 45 104 46 105 49 106
REMARK SMILES IDX 47 107
REMARK H PARENT 5 5 90 25 12 41 71 60 39 71
REMARK Flexibility Score: inf
ROOT
ATOM      1  C   UNL A   1      32.628  21.110  27.095  1.00  0.00     0.116 C 
ENDROOT
BRANCH   1   2
ATOM      2  N   UNL A   1      33.470  20.245  26.298  1.00  0.00    -0.356 N 
ATOM      3  C   UNL A   1      33.158  19.635  25.116  1.00  0.00     0.227 C 
ATOM      4  O   UNL A   1      33.693  18.547  24.908  1.00  0.00    -0.274 OA
ATOM      5  H   UNL A   1      34.374  20.074  26.649  1.00  0.00     0.163 HD
BRANCH   3   6
ATOM      6  C   UNL A   1      32.177  20.329  24.157  1.00  0.00     0.105 C 
ATOM      7  C   UNL A   1      32.174  19.583  22.814  1.00  0.00     0.023 C 
BRANCH   6   8
ATOM      8  C   UNL A   1      32.399  21.824  23.918  1.00  0.00    -0.033 A 
ATOM      9  C   UNL A   1      31.467  22.818  24.248  1.00  0.00     0.005 A 
ATOM     10  C   UNL A   1      33.607  22.243  23.336  1.00  0.00     0.044 A 
ATOM     11  C   UNL A   1      31.768  24.176  24.097  1.00  0.00     0.012 A 
ATOM     12  C   UNL A   1      33.903  23.595  23.190  1.00  0.00     0.131 A 
ATOM     13  C   UNL A   1      33.000  24.588  23.581  1.00  0.00     0.018 A 
ATOM     14  F   UNL A   1      35.089  23.924  22.656  1.00  0.00    -0.206 F 
BRANCH  13  15
ATOM     15  C   UNL A   1      33.278  26.010  23.369  1.00  0.00    -0.012 A 
ATOM     16  C   UNL A   1      33.572  26.535  22.102  1.00  0.00     0.009 A 
ATOM     17  C   UNL A   1      33.309  26.869  24.475  1.00  0.00     0.056 A 
ATOM     18  C   UNL A   1      33.900  27.886  21.952  1.00  0.00     0.004 A 
ATOM     19  C   UNL A   1      33.670  28.202  24.335  1.00  0.00     0.133 A 
ATOM     20  C   UNL A   1      33.956  28.720  23.071  1.00  0.00     0.047 A 
BRANCH  19  21
ATOM     21  O   UNL A   1      33.789  29.100  25.421  1.00  0.00    -0.410 OA
BRANCH  21  22
ATOM     22  C   UNL A   1      32.979  29.067  26.554  1.00  0.00     0.412 C 
ATOM     23  O   UNL A   1      33.230  28.533  27.630  1.00  0.00    -0.224 OA
ATOM     24  N   UNL A   1      31.803  29.737  26.408  1.00  0.00    -0.321 N 
ATOM     25  H   UNL A   1      31.214  29.755  27.198  1.00  0.00     0.167 HD
BRANCH  24  26
ATOM     26  C   UNL A   1      31.315  30.423  25.235  1.00  0.00     0.119 C 
BRANCH  26  27
ATOM     27  C   UNL A   1      30.634  29.450  24.272  1.00  0.00     0.025 C 
BRANCH  27  28
ATOM     28  C   UNL A   1      29.401  30.031  23.546  1.00  0.00    -0.009 C 
ATOM     29  C   UNL A   1      29.161  31.505  23.910  1.00  0.00     0.003 C 
ATOM     30  C   UNL A   1      29.564  29.863  22.026  1.00  0.00     0.003 C 
ATOM     31  C   UNL A   1      28.002  32.112  23.121  1.00  0.00     0.000 C 
ATOM     32  C   UNL A   1      28.388  30.463  21.260  1.00  0.00     0.000 C 
ATOM     33  C   UNL A   1      28.184  31.930  21.619  1.00  0.00     0.000 C 
ENDBRANCH  27  28
ENDBRANCH  26  27
ENDBRANCH  24  26
ENDBRANCH  21  22
ENDBRANCH  19  21
ENDBRANCH  13  15
ENDBRANCH   6   8
ENDBRANCH   3   6
ENDBRANCH   1   2
BRANCH   1  34
ATOM     34  C   UNL A   1      33.495  22.145  27.823  1.00  0.00     0.021 C 
BRANCH  34  35
ATOM     35  C   UNL A   1      34.099  23.211  26.899  1.00  0.00     0.002 C 
BRANCH  35  36
ATOM     36  C   UNL A   1      35.543  22.939  26.475  1.00  0.00     0.002 C 
BRANCH  36  37
ATOM     37  C   UNL A   1      36.223  24.115  25.773  1.00  0.00     0.021 C 
BRANCH  37  38
ATOM     38  C   UNL A   1      37.366  23.710  24.852  1.00  0.00     0.116 C 
BRANCH  38  39
ATOM     39  N   UNL A   1      38.214  22.695  25.456  1.00  0.00    -0.352 N 
ATOM     40  C   UNL A   1      39.294  22.855  26.287  1.00  0.00     0.251 C 
ATOM     41  H   UNL A   1      37.982  21.764  25.237  1.00  0.00     0.163 HD
ATOM     42  O   UNL A   1      40.037  21.911  26.532  1.00  0.00    -0.269 OA
BRANCH  40  43
ATOM     43  C   UNL A   1      39.570  24.183  26.873  1.00  0.00     0.039 A 
ATOM     44  C   UNL A   1      39.143  24.448  28.175  1.00  0.00     0.014 A 
ATOM     45  C   UNL A   1      40.254  25.158  26.141  1.00  0.00     0.014 A 
ATOM     46  C   UNL A   1      39.455  25.674  28.766  1.00  0.00     0.010 A 
ATOM     47  C   UNL A   1      40.635  26.344  26.759  1.00  0.00     0.010 A 
ATOM     48  C   UNL A   1      40.236  26.616  28.076  1.00  0.00    -0.014 A 
BRANCH  48  49
ATOM     49  C   UNL A   1      40.647  27.889  28.721  1.00  0.00     0.031 A 
ATOM     50  C   UNL A   1      42.060  28.077  29.197  1.00  0.00     0.074 A 
ATOM     51  C   UNL A   1      39.729  28.854  28.927  1.00  0.00     0.049 A 
ATOM     52  N   UNL A   1      42.594  29.096  29.824  1.00  0.00    -0.248 NA
ATOM     53  C   UNL A   1      42.993  26.965  28.960  1.00  0.00     0.031 C 
ATOM     54  C   UNL A   1      38.316  28.770  28.553  1.00  0.00     0.029 A 
ATOM     55  N   UNL A   1      39.845  30.092  29.507  1.00  0.00    -0.354 N 
ATOM     56  C   UNL A   1      43.916  28.743  30.061  1.00  0.00     0.074 A 
ATOM     57  C   UNL A   1      44.089  27.394  29.567  1.00  0.00     0.031 C 
ATOM     58  C   UNL A   1      37.704  29.917  28.887  1.00  0.00     0.029 A 
ATOM     59  C   UNL A   1      38.667  30.799  29.538  1.00  0.00     0.049 A 
ATOM     60  H   UNL A   1      40.692  30.442  29.866  1.00  0.00     0.167 HD
ATOM     61  C   UNL A   1      44.901  29.486  30.617  1.00  0.00     0.037 A 
ATOM     62  C   UNL A   1      38.393  32.016  30.046  1.00  0.00     0.037 A 
ATOM     63  C   UNL A   1      44.726  30.833  31.095  1.00  0.00     0.049 A 
ATOM     64  C   UNL A   1      39.502  32.810  30.682  1.00  0.00     0.074 A 
ATOM     65  C   UNL A   1      45.674  31.691  31.626  1.00  0.00     0.029 A 
ATOM     66  N   UNL A   1      43.519  31.516  31.108  1.00  0.00    -0.354 N 
ATOM     67  N   UNL A   1      40.766  32.495  30.834  1.00  0.00    -0.248 NA
ATOM     68  C   UNL A   1      39.146  34.133  31.214  1.00  0.00     0.031 C 
ATOM     69  C   UNL A   1      45.030  32.868  32.017  1.00  0.00     0.029 A 
ATOM     70  C   UNL A   1      43.693  32.773  31.666  1.00  0.00     0.049 A 
ATOM     71  H   UNL A   1      42.665  31.162  30.771  1.00  0.00     0.167 HD
ATOM     72  C   UNL A   1      41.361  33.590  31.446  1.00  0.00     0.074 A 
ATOM     73  C   UNL A   1      40.323  34.584  31.621  1.00  0.00     0.031 C 
ATOM     74  C   UNL A   1      42.651  33.757  31.829  1.00  0.00     0.037 A 
BRANCH  61  75
ATOM     75  C   UNL A   1      46.261  28.860  30.744  1.00  0.00     0.064 A 
ATOM     76  C   UNL A   1      46.679  28.236  31.930  1.00  0.00     0.173 A 
ATOM     77  C   UNL A   1      47.143  28.845  29.653  1.00  0.00     0.173 A 
ATOM     78  F   UNL A   1      45.880  28.230  33.009  1.00  0.00    -0.203 F 
ATOM     79  C   UNL A   1      47.938  27.649  32.028  1.00  0.00     0.198 A 
ATOM     80  C   UNL A   1      48.388  28.226  29.742  1.00  0.00     0.198 A 
ATOM     81  F   UNL A   1      46.793  29.421  28.492  1.00  0.00    -0.203 F 
ATOM     82  F   UNL A   1      48.335  27.107  33.188  1.00  0.00    -0.200 F 
ATOM     83  C   UNL A   1      48.788  27.637  30.932  1.00  0.00     0.200 A 
ATOM     84  F   UNL A   1      49.200  28.201  28.678  1.00  0.00    -0.200 F 
ATOM     85  F   UNL A   1      49.995  27.062  31.024  1.00  0.00    -0.200 F 
ENDBRANCH  61  75
BRANCH  62  86
ATOM     86  C   UNL A   1      37.013  32.565  29.961  1.00  0.00     0.064 A 
ATOM     87  C   UNL A   1      36.588  33.277  28.830  1.00  0.00     0.173 A 
ATOM     88  C   UNL A   1      36.097  32.406  31.011  1.00  0.00     0.173 A 
ATOM     89  F   UNL A   1      37.432  33.474  27.807  1.00  0.00    -0.203 F 
ATOM     90  C   UNL A   1      35.311  33.832  28.765  1.00  0.00     0.198 A 
ATOM     91  C   UNL A   1      34.809  32.930  30.931  1.00  0.00     0.198 A 
ATOM     92  F   UNL A   1      36.449  31.728  32.113  1.00  0.00    -0.203 F 
ATOM     93  F   UNL A   1      34.951  34.556  27.696  1.00  0.00    -0.200 F 
ATOM     94  C   UNL A   1      34.421  33.653  29.813  1.00  0.00     0.200 A 
ATOM     95  F   UNL A   1      33.947  32.740  31.939  1.00  0.00    -0.200 F 
ATOM     96  F   UNL A   1      33.192  34.184  29.750  1.00  0.00    -0.200 F 
ENDBRANCH  62  86
BRANCH  74  97
ATOM     97  C   UNL A   1      43.025  35.079  32.439  1.00  0.00     0.064 A 
ATOM     98  C   UNL A   1      43.513  36.141  31.661  1.00  0.00     0.173 A 
ATOM     99  C   UNL A   1      42.857  35.297  33.815  1.00  0.00     0.173 A 
ATOM    100  F   UNL A   1      43.705  35.980  30.344  1.00  0.00    -0.203 F 
ATOM    101  C   UNL A   1      43.848  37.360  32.246  1.00  0.00     0.198 A 
ATOM    102  C   UNL A   1      43.159  36.529  34.389  1.00  0.00     0.198 A 
ATOM    103  F   UNL A   1      42.385  34.319  34.603  1.00  0.00    -0.203 F 
ATOM    104  F   UNL A   1      44.367  38.339  31.493  1.00  0.00    -0.200 F 
ATOM    105  C   UNL A   1      43.663  37.555  33.606  1.00  0.00     0.200 A 
ATOM    106  F   UNL A   1      42.961  36.722  35.701  1.00  0.00    -0.200 F 
ATOM    107  F   UNL A   1      43.979  38.732  34.164  1.00  0.00    -0.200 F 
ENDBRANCH  74  97
ENDBRANCH  48  49
ENDBRANCH  40  43
ENDBRANCH  38  39
ENDBRANCH  37  38
ENDBRANCH  36  37
ENDBRANCH  35  36
ENDBRANCH  34  35
ENDBRANCH   1  34
TORSDOF 20
ENDMDL
MODEL 3
REMARK VINA RESULT:     -11.2      5.678     10.549
REMARK SMILES C[C@@H](C(=O)NCCCCCCNC(=O)c1ccc(-c2c3nc(c(-c4c(F)c(F)c(F)c(F)c4F)c4ccc([nH]4)c(-c4c(F)c(F)c(F)c(F)c4F)c4nc(c(-c5c(F)c(F)c(F)c(F)c5F)c5ccc2[nH]5)C=C4)C=C3)cc1)c1ccc(-c2cccc(OC(=O)NCCC3CCCCC3)c2)c(F)c1
REMARK SMILES IDX 6 1 5 2 3 3 4 4 2 6 1 7 78 8 79 9 102 10 80 11 100 12 81 13
REMARK SMILES IDX 101 14 82 15 83 16 99 17 84 18 86 19 85 20 87 21 88 22 89 23
REMARK SMILES IDX 90 24 91 26 92 27 93 28 94 29 98 30 95 31 97 32 96 33 7 34
REMARK SMILES IDX 8 35 9 36 10 37 11 38 12 39 13 40 14 42 15 43 16 44 77 45
REMARK SMILES IDX 17 46 76 47 18 48 19 49 20 50 70 51 21 52 75 53 69 54 71 55
REMARK SMILES IDX 22 56 74 57 68 58 67 59 23 61 55 62 35 63 54 64 36 65 39 66
REMARK SMILES IDX 53 67 72 68 37 69 38 70 52 72 73 73 40 74 24 75 25 76 33 77
REMARK SMILES IDX 26 78 27 79 31 80 34 81 28 82 29 83 32 84 30 85 56 86 57 87
REMARK SMILES IDX 65 88 58 89 59 90 63 91 66 92 60 93 61 94 64 95 62 96 41 97
REMARK SMILES IDX 42 98 50 99 43 100 44 101 48 102 51 103 45 104 46 105 49 106
REMARK SMILES IDX 47 107
REMARK H PARENT 5 5 90 25 12 41 71 60 39 71
REMARK Flexibility Score: inf
ROOT
ATOM      1  C   UNL A   1      38.266  33.049  29.879  1.00  0.00     0.116 C 
ENDROOT
BRANCH   1   2
ATOM      2  N   UNL A   1      37.040  33.225  29.132  1.00  0.00    -0.356 N 
ATOM      3  C   UNL A   1      36.196  32.254  28.673  1.00  0.00     0.227 C 
ATOM      4  O   UNL A   1      35.598  32.505  27.627  1.00  0.00    -0.274 OA
ATOM      5  H   UNL A   1      36.784  34.155  28.931  1.00  0.00     0.163 HD
BRANCH   3   6
ATOM      6  C   UNL A   1      36.062  30.946  29.469  1.00  0.00     0.105 C 
ATOM      7  C   UNL A   1      35.850  31.280  30.954  1.00  0.00     0.023 C 
BRANCH   6   8
ATOM      8  C   UNL A   1      37.205  29.939  29.324  1.00  0.00    -0.033 A 
ATOM      9  C   UNL A   1      37.961  29.774  28.156  1.00  0.00     0.005 A 
ATOM     10  C   UNL A   1      37.530  29.124  30.421  1.00  0.00     0.044 A 
ATOM     11  C   UNL A   1      39.058  28.907  28.115  1.00  0.00     0.012 A 
ATOM     12  C   UNL A   1      38.624  28.265  30.377  1.00  0.00     0.131 A 
ATOM     13  C   UNL A   1      39.420  28.150  29.233  1.00  0.00     0.018 A 
ATOM     14  F   UNL A   1      38.896  27.540  31.473  1.00  0.00    -0.206 F 
BRANCH  13  15
ATOM     15  C   UNL A   1      40.531  27.199  29.159  1.00  0.00    -0.012 A 
ATOM     16  C   UNL A   1      41.757  27.428  29.799  1.00  0.00     0.009 A 
ATOM     17  C   UNL A   1      40.388  26.047  28.374  1.00  0.00     0.056 A 
ATOM     18  C   UNL A   1      42.816  26.528  29.647  1.00  0.00     0.004 A 
ATOM     19  C   UNL A   1      41.449  25.171  28.191  1.00  0.00     0.133 A 
ATOM     20  C   UNL A   1      42.665  25.402  28.836  1.00  0.00     0.047 A 
BRANCH  19  21
ATOM     21  O   UNL A   1      41.390  24.032  27.356  1.00  0.00    -0.410 OA
BRANCH  21  22
ATOM     22  C   UNL A   1      42.436  23.126  27.196  1.00  0.00     0.412 C 
ATOM     23  O   UNL A   1      42.677  22.141  27.886  1.00  0.00    -0.224 OA
ATOM     24  N   UNL A   1      43.235  23.394  26.126  1.00  0.00    -0.321 N 
ATOM     25  H   UNL A   1      43.972  22.761  25.966  1.00  0.00     0.167 HD
BRANCH  24  26
ATOM     26  C   UNL A   1      43.130  24.496  25.198  1.00  0.00     0.119 C 
BRANCH  26  27
ATOM     27  C   UNL A   1      44.278  25.487  25.388  1.00  0.00     0.025 C 
BRANCH  27  28
ATOM     28  C   UNL A   1      43.844  26.969  25.408  1.00  0.00    -0.009 C 
ATOM     29  C   UNL A   1      42.315  27.120  25.374  1.00  0.00     0.003 C 
ATOM     30  C   UNL A   1      44.435  27.668  26.643  1.00  0.00     0.003 C 
ATOM     31  C   UNL A   1      41.878  28.579  25.491  1.00  0.00     0.000 C 
ATOM     32  C   UNL A   1      43.998  29.128  26.731  1.00  0.00     0.000 C 
ATOM     33  C   UNL A   1      42.479  29.252  26.719  1.00  0.00     0.000 C 
ENDBRANCH  27  28
ENDBRANCH  26  27
ENDBRANCH  24  26
ENDBRANCH  21  22
ENDBRANCH  19  21
ENDBRANCH  13  15
ENDBRANCH   6   8
ENDBRANCH   3   6
ENDBRANCH   1   2
BRANCH   1  34
ATOM     34  C   UNL A   1      38.360  34.114  30.977  1.00  0.00     0.021 C 
BRANCH  34  35
ATOM     35  C   UNL A   1      38.622  33.543  32.377  1.00  0.00     0.002 C 
BRANCH  35  36
ATOM     36  C   UNL A   1      39.062  34.578  33.414  1.00  0.00     0.002 C 
BRANCH  36  37
ATOM     37  C   UNL A   1      38.255  34.547  34.713  1.00  0.00     0.021 C 
BRANCH  37  38
ATOM     38  C   UNL A   1      37.140  33.510  34.726  1.00  0.00     0.116 C 
BRANCH  38  39
ATOM     39  N   UNL A   1      37.208  32.657  35.902  1.00  0.00    -0.352 N 
ATOM     40  C   UNL A   1      38.003  31.562  36.129  1.00  0.00     0.251 C 
ATOM     41  H   UNL A   1      36.598  32.897  36.635  1.00  0.00     0.163 HD
ATOM     42  O   UNL A   1      37.784  30.820  37.079  1.00  0.00    -0.269 OA
BRANCH  40  43
ATOM     43  C   UNL A   1      39.120  31.270  35.206  1.00  0.00     0.039 A 
ATOM     44  C   UNL A   1      40.392  31.755  35.511  1.00  0.00     0.014 A 
ATOM     45  C   UNL A   1      38.909  30.514  34.049  1.00  0.00     0.014 A 
ATOM     46  C   UNL A   1      41.469  31.430  34.684  1.00  0.00     0.010 A 
ATOM     47  C   UNL A   1      39.995  30.124  33.272  1.00  0.00     0.010 A 
ATOM     48  C   UNL A   1      41.285  30.581  33.579  1.00  0.00    -0.014 A 
BRANCH  48  49
ATOM     49  C   UNL A   1      42.435  30.159  32.739  1.00  0.00     0.031 A 
ATOM     50  C   UNL A   1      43.134  28.856  33.008  1.00  0.00     0.074 A 
ATOM     51  C   UNL A   1      42.882  30.979  31.768  1.00  0.00     0.049 A 
ATOM     52  N   UNL A   1      44.182  28.341  32.415  1.00  0.00    -0.248 NA
ATOM     53  C   UNL A   1      42.602  28.033  34.105  1.00  0.00     0.031 C 
ATOM     54  C   UNL A   1      42.316  32.289  31.442  1.00  0.00     0.029 A 
ATOM     55  N   UNL A   1      43.918  30.835  30.880  1.00  0.00    -0.354 N 
ATOM     56  C   UNL A   1      44.436  27.143  33.070  1.00  0.00     0.074 A 
ATOM     57  C   UNL A   1      43.473  27.036  34.145  1.00  0.00     0.031 C 
ATOM     58  C   UNL A   1      42.994  32.817  30.409  1.00  0.00     0.029 A 
ATOM     59  C   UNL A   1      44.068  31.904  30.029  1.00  0.00     0.049 A 
ATOM     60  H   UNL A   1      44.499  30.041  30.853  1.00  0.00     0.167 HD
ATOM     61  C   UNL A   1      45.372  26.207  32.785  1.00  0.00     0.037 A 
ATOM     62  C   UNL A   1      44.976  32.128  29.061  1.00  0.00     0.037 A 
ATOM     63  C   UNL A   1      46.319  26.314  31.706  1.00  0.00     0.049 A 
ATOM     64  C   UNL A   1      46.022  31.082  28.783  1.00  0.00     0.074 A 
ATOM     65  C   UNL A   1      47.272  25.395  31.300  1.00  0.00     0.029 A 
ATOM     66  N   UNL A   1      46.439  27.410  30.865  1.00  0.00    -0.354 N 
ATOM     67  N   UNL A   1      46.206  29.919  29.361  1.00  0.00    -0.248 NA
ATOM     68  C   UNL A   1      46.984  31.377  27.712  1.00  0.00     0.031 C 
ATOM     69  C   UNL A   1      48.009  25.961  30.257  1.00  0.00     0.029 A 
ATOM     70  C   UNL A   1      47.471  27.203  29.963  1.00  0.00     0.049 A 
ATOM     71  H   UNL A   1      45.875  28.216  30.903  1.00  0.00     0.167 HD
ATOM     72  C   UNL A   1      47.280  29.332  28.704  1.00  0.00     0.074 A 
ATOM     73  C   UNL A   1      47.694  30.260  27.672  1.00  0.00     0.031 C 
ATOM     74  C   UNL A   1      47.870  28.133  28.936  1.00  0.00     0.037 A 
BRANCH  61  75
ATOM     75  C   UNL A   1      45.422  24.983  33.655  1.00  0.00     0.064 A 
ATOM     76  C   UNL A   1      44.678  23.831  33.352  1.00  0.00     0.173 A 
ATOM     77  C   UNL A   1      46.255  24.944  34.784  1.00  0.00     0.173 A 
ATOM     78  F   UNL A   1      43.857  23.817  32.291  1.00  0.00    -0.203 F 
ATOM     79  C   UNL A   1      44.744  22.700  34.162  1.00  0.00     0.198 A 
ATOM     80  C   UNL A   1      46.346  23.798  35.571  1.00  0.00     0.198 A 
ATOM     81  F   UNL A   1      46.993  26.014  35.117  1.00  0.00    -0.203 F 
ATOM     82  F   UNL A   1      43.984  21.632  33.881  1.00  0.00    -0.200 F 
ATOM     83  C   UNL A   1      45.583  22.681  35.265  1.00  0.00     0.200 A 
ATOM     84  F   UNL A   1      47.170  23.777  36.627  1.00  0.00    -0.200 F 
ATOM     85  F   UNL A   1      45.654  21.588  36.037  1.00  0.00    -0.200 F 
ENDBRANCH  61  75
BRANCH  62  86
ATOM     86  C   UNL A   1      44.931  33.389  28.273  1.00  0.00     0.064 A 
ATOM     87  C   UNL A   1      45.520  34.565  28.759  1.00  0.00     0.173 A 
ATOM     88  C   UNL A   1      44.286  33.451  27.029  1.00  0.00     0.173 A 
ATOM     89  F   UNL A   1      46.132  34.564  29.952  1.00  0.00    -0.203 F 
ATOM     90  C   UNL A   1      45.441  35.760  28.044  1.00  0.00     0.198 A 
ATOM     91  C   UNL A   1      44.238  34.637  26.299  1.00  0.00     0.198 A 
ATOM     92  F   UNL A   1      43.712  32.354  26.514  1.00  0.00    -0.203 F 
ATOM     93  F   UNL A   1      45.964  36.881  28.559  1.00  0.00    -0.200 F 
ATOM     94  C   UNL A   1      44.805  35.793  26.813  1.00  0.00     0.200 A 
ATOM     95  F   UNL A   1      43.638  34.659  25.101  1.00  0.00    -0.200 F 
ATOM     96  F   UNL A   1      44.731  36.940  26.125  1.00  0.00    -0.200 F 
ENDBRANCH  62  86
BRANCH  74  97
ATOM     97  C   UNL A   1      49.001  27.735  28.030  1.00  0.00     0.064 A 
ATOM     98  C   UNL A   1      50.336  28.040  28.335  1.00  0.00     0.173 A 
ATOM     99  C   UNL A   1      48.746  27.006  26.858  1.00  0.00     0.173 A 
ATOM    100  F   UNL A   1      50.633  28.747  29.436  1.00  0.00    -0.203 F 
ATOM    101  C   UNL A   1      51.370  27.657  27.484  1.00  0.00     0.198 A 
ATOM    102  C   UNL A   1      49.786  26.593  26.029  1.00  0.00     0.198 A 
ATOM    103  F   UNL A   1      47.489  26.680  26.522  1.00  0.00    -0.203 F 
ATOM    104  F   UNL A   1      52.631  28.009  27.766  1.00  0.00    -0.200 F 
ATOM    105  C   UNL A   1      51.095  26.927  26.338  1.00  0.00     0.200 A 
ATOM    106  F   UNL A   1      49.519  25.872  24.931  1.00  0.00    -0.200 F 
ATOM    107  F   UNL A   1      52.092  26.552  25.525  1.00  0.00    -0.200 F 
ENDBRANCH  74  97
ENDBRANCH  48  49
ENDBRANCH  40  43
ENDBRANCH  38  39
ENDBRANCH  37  38
ENDBRANCH  36  37
ENDBRANCH  35  36
ENDBRANCH  34  35
ENDBRANCH   1  34
TORSDOF 20
ENDMDL
