MODEL 1
REMARK VINA RESULT:     -13.1      0.000      0.000
REMARK SMILES O=C(NCCCCCCNC(=O)[C@H]1C[C@H]2CCCC[C@@H]2[N@@H+]1C1CCS(=O)(=O)CC1)c1ccc(-c2c3nc(c(-c4c(F)c(F)c(F)c(F)c4F)c4ccc([nH]4)c(-c4c(F)c(F)c(F)c(F)c4F)c4nc(c(-c5c(F)c(F)c(F)c(F)c5F)c5ccc2[nH]5)C=C4)C=C3)cc1
REMARK SMILES IDX 6 1 5 2 4 3 3 4 1 5 2 6 30 8 31 9 92 10 32 11 91 12 33 13
REMARK SMILES IDX 34 14 35 15 85 16 36 17 90 18 84 19 86 20 37 21 89 22 83 23
REMARK SMILES IDX 82 24 38 26 70 27 50 28 69 29 51 30 54 31 68 32 87 33 52 34
REMARK SMILES IDX 53 35 67 37 88 38 55 39 39 40 40 41 48 42 41 43 42 44 46 45
REMARK SMILES IDX 49 46 43 47 44 48 47 49 45 50 71 51 72 52 80 53 73 54 74 55
REMARK SMILES IDX 78 56 81 57 75 58 76 59 79 60 77 61 56 62 57 63 65 64 58 65
REMARK SMILES IDX 59 66 63 67 66 68 60 69 61 70 64 71 62 72 7 73 8 74 9 75
REMARK SMILES IDX 10 76 11 77 12 79 13 80 14 81 21 82 15 83 20 84 16 86 19 87
REMARK SMILES IDX 17 88 18 89 22 90 23 91 29 92 24 93 28 94 25 95 26 96 27 97
REMARK H PARENT 3 7 86 25 54 36 10 78 21 85
REMARK Flexibility Score: inf
ROOT
ATOM      1  C   UNL A   1      31.464  30.675  26.055  1.00  0.00     0.002 C 
ENDROOT
BRANCH   1   2
ATOM      2  C   UNL A   1      31.357  32.126  26.529  1.00  0.00     0.021 C 
BRANCH   2   3
ATOM      3  C   UNL A   1      32.591  32.633  27.265  1.00  0.00     0.116 C 
BRANCH   3   4
ATOM      4  N   UNL A   1      32.459  34.037  27.625  1.00  0.00    -0.352 N 
ATOM      5  O   UNL A   1      32.652  35.838  28.973  1.00  0.00    -0.269 OA
ATOM      6  C   UNL A   1      33.068  34.734  28.637  1.00  0.00     0.251 C 
ATOM      7  H   UNL A   1      31.846  34.562  27.062  1.00  0.00     0.163 HD
BRANCH   6   8
ATOM      8  C   UNL A   1      34.235  34.145  29.321  1.00  0.00     0.039 A 
ATOM      9  C   UNL A   1      34.051  33.294  30.414  1.00  0.00     0.014 A 
ATOM     10  C   UNL A   1      35.520  34.421  28.848  1.00  0.00     0.014 A 
ATOM     11  C   UNL A   1      35.152  32.820  31.112  1.00  0.00     0.010 A 
ATOM     12  C   UNL A   1      36.626  33.867  29.496  1.00  0.00     0.010 A 
ATOM     13  C   UNL A   1      36.450  33.076  30.643  1.00  0.00    -0.014 A 
BRANCH  13  14
ATOM     14  C   UNL A   1      37.604  32.433  31.314  1.00  0.00     0.031 A 
ATOM     15  C   UNL A   1      38.333  31.288  30.680  1.00  0.00     0.074 A 
ATOM     16  C   UNL A   1      37.980  32.897  32.522  1.00  0.00     0.049 A 
ATOM     17  N   UNL A   1      39.336  30.588  31.148  1.00  0.00    -0.248 NA
ATOM     18  C   UNL A   1      37.870  30.862  29.352  1.00  0.00     0.031 C 
ATOM     19  C   UNL A   1      37.328  33.996  33.238  1.00  0.00     0.029 A 
ATOM     20  N   UNL A   1      38.991  32.506  33.360  1.00  0.00    -0.354 N 
ATOM     21  C   UNL A   1      39.613  29.629  30.184  1.00  0.00     0.074 A 
ATOM     22  C   UNL A   1      38.651  29.815  29.118  1.00  0.00     0.031 C 
ATOM     23  C   UNL A   1      37.967  34.205  34.397  1.00  0.00     0.029 A 
ATOM     24  C   UNL A   1      39.025  33.212  34.537  1.00  0.00     0.049 A 
ATOM     25  H   UNL A   1      39.630  31.790  33.141  1.00  0.00     0.167 HD
ATOM     26  C   UNL A   1      40.586  28.685  30.193  1.00  0.00     0.037 A 
ATOM     27  C   UNL A   1      39.796  33.055  35.628  1.00  0.00     0.037 A 
ATOM     28  C   UNL A   1      41.536  28.516  31.264  1.00  0.00     0.049 A 
ATOM     29  C   UNL A   1      40.842  31.978  35.628  1.00  0.00     0.074 A 
ATOM     30  C   UNL A   1      42.591  27.624  31.348  1.00  0.00     0.029 A 
ATOM     31  N   UNL A   1      41.534  29.242  32.447  1.00  0.00    -0.354 N 
ATOM     32  N   UNL A   1      41.132  31.110  34.689  1.00  0.00    -0.248 NA
ATOM     33  C   UNL A   1      41.668  31.860  36.834  1.00  0.00     0.031 C 
ATOM     34  C   UNL A   1      43.182  27.763  32.608  1.00  0.00     0.029 A 
ATOM     35  C   UNL A   1      42.545  28.791  33.283  1.00  0.00     0.049 A 
ATOM     36  H   UNL A   1      40.907  29.970  32.661  1.00  0.00     0.167 HD
ATOM     37  C   UNL A   1      42.185  30.354  35.181  1.00  0.00     0.074 A 
ATOM     38  C   UNL A   1      42.494  30.878  36.496  1.00  0.00     0.031 C 
ATOM     39  C   UNL A   1      42.838  29.320  34.594  1.00  0.00     0.037 A 
BRANCH  26  40
ATOM     40  C   UNL A   1      40.647  27.740  29.025  1.00  0.00     0.064 A 
ATOM     41  C   UNL A   1      41.525  27.940  27.949  1.00  0.00     0.173 A 
ATOM     42  C   UNL A   1      39.828  26.600  28.994  1.00  0.00     0.173 A 
ATOM     43  F   UNL A   1      42.327  29.015  27.922  1.00  0.00    -0.203 F 
ATOM     44  C   UNL A   1      41.549  27.061  26.868  1.00  0.00     0.198 A 
ATOM     45  C   UNL A   1      39.880  25.704  27.930  1.00  0.00     0.198 A 
ATOM     46  F   UNL A   1      38.976  26.350  30.001  1.00  0.00    -0.203 F 
ATOM     47  F   UNL A   1      42.351  27.307  25.823  1.00  0.00    -0.200 F 
ATOM     48  C   UNL A   1      40.731  25.941  26.862  1.00  0.00     0.200 A 
ATOM     49  F   UNL A   1      39.101  24.613  27.935  1.00  0.00    -0.200 F 
ATOM     50  F   UNL A   1      40.757  25.096  25.822  1.00  0.00    -0.200 F 
ENDBRANCH  26  40
BRANCH  27  51
ATOM     51  C   UNL A   1      39.577  33.933  36.805  1.00  0.00     0.064 A 
ATOM     52  C   UNL A   1      38.788  33.518  37.885  1.00  0.00     0.173 A 
ATOM     53  C   UNL A   1      40.192  35.192  36.890  1.00  0.00     0.173 A 
ATOM     54  F   UNL A   1      38.169  32.329  37.844  1.00  0.00    -0.203 F 
ATOM     55  C   UNL A   1      38.615  34.332  39.001  1.00  0.00     0.198 A 
ATOM     56  C   UNL A   1      40.045  35.991  38.020  1.00  0.00     0.198 A 
ATOM     57  F   UNL A   1      40.966  35.632  35.887  1.00  0.00    -0.203 F 
ATOM     58  F   UNL A   1      37.827  33.928  40.007  1.00  0.00    -0.200 F 
ATOM     59  C   UNL A   1      39.250  35.564  39.073  1.00  0.00     0.200 A 
ATOM     60  F   UNL A   1      40.679  37.169  38.094  1.00  0.00    -0.200 F 
ATOM     61  F   UNL A   1      39.094  36.339  40.154  1.00  0.00    -0.200 F 
ENDBRANCH  27  51
BRANCH  39  62
ATOM     62  C   UNL A   1      43.974  28.702  35.358  1.00  0.00     0.064 A 
ATOM     63  C   UNL A   1      45.289  29.177  35.239  1.00  0.00     0.173 A 
ATOM     64  C   UNL A   1      43.733  27.651  36.256  1.00  0.00     0.173 A 
ATOM     65  F   UNL A   1      45.575  30.167  34.380  1.00  0.00    -0.203 F 
ATOM     66  C   UNL A   1      46.323  28.607  35.976  1.00  0.00     0.198 A 
ATOM     67  C   UNL A   1      44.765  27.109  37.017  1.00  0.00     0.198 A 
ATOM     68  F   UNL A   1      42.493  27.163  36.410  1.00  0.00    -0.203 F 
ATOM     69  F   UNL A   1      47.580  29.045  35.811  1.00  0.00    -0.200 F 
ATOM     70  C   UNL A   1      46.060  27.581  36.871  1.00  0.00     0.200 A 
ATOM     71  F   UNL A   1      44.504  26.128  37.892  1.00  0.00    -0.200 F 
ATOM     72  F   UNL A   1      47.054  27.045  37.590  1.00  0.00    -0.200 F 
ENDBRANCH  39  62
ENDBRANCH  13  14
ENDBRANCH   6   8
ENDBRANCH   3   4
ENDBRANCH   2   3
ENDBRANCH   1   2
BRANCH   1  73
ATOM     73  C   UNL A   1      32.325  29.769  26.940  1.00  0.00     0.002 C 
BRANCH  73  74
ATOM     74  C   UNL A   1      31.654  28.455  27.340  1.00  0.00     0.021 C 
BRANCH  74  75
ATOM     75  C   UNL A   1      32.029  27.269  26.444  1.00  0.00     0.116 C 
BRANCH  75  76
ATOM     76  N   UNL A   1      31.707  26.017  27.106  1.00  0.00    -0.351 N 
ATOM     77  C   UNL A   1      31.943  24.720  26.741  1.00  0.00     0.278 C 
ATOM     78  H   UNL A   1      31.237  26.119  27.965  1.00  0.00     0.163 HD
ATOM     79  O   UNL A   1      31.478  23.839  27.470  1.00  0.00    -0.268 OA
BRANCH  77  80
ATOM     80  C   UNL A   1      32.832  24.403  25.515  1.00  0.00     0.275 C 
ATOM     81  C   UNL A   1      34.245  24.041  26.024  1.00  0.00     0.085 C 
ATOM     82  N   UNL A   1      32.322  23.215  24.766  1.00  0.00    -0.320 N 
ATOM     83  C   UNL A   1      34.576  22.774  25.262  1.00  0.00     0.054 C 
ATOM     84  C   UNL A   1      33.211  22.102  25.169  1.00  0.00     0.188 C 
ATOM     85  H   UNL A   1      31.348  23.083  25.040  1.00  0.00     0.349 HD
ATOM     86  C   UNL A   1      35.626  21.856  25.866  1.00  0.00     0.010 C 
ATOM     87  C   UNL A   1      33.272  20.801  24.361  1.00  0.00     0.065 C 
ATOM     88  C   UNL A   1      35.715  20.572  25.034  1.00  0.00     0.001 C 
ATOM     89  C   UNL A   1      34.359  19.872  24.913  1.00  0.00     0.006 C 
BRANCH  82  90
ATOM     90  C   UNL A   1      31.977  23.291  23.336  1.00  0.00     0.186 C 
ATOM     91  C   UNL A   1      30.617  23.955  23.039  1.00  0.00     0.081 C 
ATOM     92  C   UNL A   1      33.031  23.801  22.329  1.00  0.00     0.081 C 
ATOM     93  C   UNL A   1      30.601  25.461  23.104  1.00  0.00     0.143 C 
ATOM     94  C   UNL A   1      33.321  25.287  22.374  1.00  0.00     0.143 C 
ATOM     95  S   UNL A   1      31.852  26.264  22.137  1.00  0.00     0.150 S 
ATOM     96  O   UNL A   1      32.088  27.561  22.743  1.00  0.00    -0.229 OA
ATOM     97  O   UNL A   1      31.467  26.155  20.743  1.00  0.00    -0.229 OA
ENDBRANCH  82  90
ENDBRANCH  77  80
ENDBRANCH  75  76
ENDBRANCH  74  75
ENDBRANCH  73  74
ENDBRANCH   1  73
TORSDOF 14
ENDMDL
MODEL 2
REMARK VINA RESULT:     -13.0      0.235      1.132
REMARK SMILES O=C(NCCCCCCNC(=O)[C@H]1C[C@H]2CCCC[C@@H]2[N@@H+]1C1CCS(=O)(=O)CC1)c1ccc(-c2c3nc(c(-c4c(F)c(F)c(F)c(F)c4F)c4ccc([nH]4)c(-c4c(F)c(F)c(F)c(F)c4F)c4nc(c(-c5c(F)c(F)c(F)c(F)c5F)c5ccc2[nH]5)C=C4)C=C3)cc1
REMARK SMILES IDX 6 1 5 2 4 3 3 4 1 5 2 6 30 8 31 9 92 10 32 11 91 12 33 13
REMARK SMILES IDX 34 14 35 15 85 16 36 17 90 18 84 19 86 20 37 21 89 22 83 23
REMARK SMILES IDX 82 24 38 26 70 27 50 28 69 29 51 30 54 31 68 32 87 33 52 34
REMARK SMILES IDX 53 35 67 37 88 38 55 39 39 40 40 41 48 42 41 43 42 44 46 45
REMARK SMILES IDX 49 46 43 47 44 48 47 49 45 50 71 51 72 52 80 53 73 54 74 55
REMARK SMILES IDX 78 56 81 57 75 58 76 59 79 60 77 61 56 62 57 63 65 64 58 65
REMARK SMILES IDX 59 66 63 67 66 68 60 69 61 70 64 71 62 72 7 73 8 74 9 75
REMARK SMILES IDX 10 76 11 77 12 79 13 80 14 81 21 82 15 83 20 84 16 86 19 87
REMARK SMILES IDX 17 88 18 89 22 90 23 91 29 92 24 93 28 94 25 95 26 96 27 97
REMARK H PARENT 3 7 86 25 54 36 10 78 21 85
REMARK Flexibility Score: inf
ROOT
ATOM      1  C   UNL A   1      31.413  30.792  25.936  1.00  0.00     0.002 C 
ENDROOT
BRANCH   1   2
ATOM      2  C   UNL A   1      31.299  32.210  26.501  1.00  0.00     0.021 C 
BRANCH   2   3
ATOM      3  C   UNL A   1      32.551  32.697  27.220  1.00  0.00     0.116 C 
BRANCH   3   4
ATOM      4  N   UNL A   1      32.427  34.089  27.626  1.00  0.00    -0.352 N 
ATOM      5  O   UNL A   1      32.634  35.845  29.030  1.00  0.00    -0.269 OA
ATOM      6  C   UNL A   1      33.044  34.751  28.656  1.00  0.00     0.251 C 
ATOM      7  H   UNL A   1      31.813  34.634  27.082  1.00  0.00     0.163 HD
BRANCH   6   8
ATOM      8  C   UNL A   1      34.211  34.135  29.316  1.00  0.00     0.039 A 
ATOM      9  C   UNL A   1      34.028  33.251  30.382  1.00  0.00     0.014 A 
ATOM     10  C   UNL A   1      35.495  34.419  28.845  1.00  0.00     0.014 A 
ATOM     11  C   UNL A   1      35.131  32.750  31.059  1.00  0.00     0.010 A 
ATOM     12  C   UNL A   1      36.602  33.840  29.469  1.00  0.00     0.010 A 
ATOM     13  C   UNL A   1      36.427  33.014  30.592  1.00  0.00    -0.014 A 
BRANCH  13  14
ATOM     14  C   UNL A   1      37.582  32.346  31.236  1.00  0.00     0.031 A 
ATOM     15  C   UNL A   1      38.281  31.195  30.578  1.00  0.00     0.074 A 
ATOM     16  C   UNL A   1      37.985  32.790  32.442  1.00  0.00     0.049 A 
ATOM     17  N   UNL A   1      39.280  30.474  31.022  1.00  0.00    -0.248 NA
ATOM     18  C   UNL A   1      37.788  30.791  29.254  1.00  0.00     0.031 C 
ATOM     19  C   UNL A   1      37.364  33.892  33.181  1.00  0.00     0.029 A 
ATOM     20  N   UNL A   1      39.004  32.373  33.259  1.00  0.00    -0.354 N 
ATOM     21  C   UNL A   1      39.524  29.520  30.043  1.00  0.00     0.074 A 
ATOM     22  C   UNL A   1      38.548  29.734  28.995  1.00  0.00     0.031 C 
ATOM     23  C   UNL A   1      38.026  34.078  34.331  1.00  0.00     0.029 A 
ATOM     24  C   UNL A   1      39.069  33.066  34.442  1.00  0.00     0.049 A 
ATOM     25  H   UNL A   1      39.627  31.649  33.021  1.00  0.00     0.167 HD
ATOM     26  C   UNL A   1      40.481  28.561  30.025  1.00  0.00     0.037 A 
ATOM     27  C   UNL A   1      39.856  32.885  35.518  1.00  0.00     0.037 A 
ATOM     28  C   UNL A   1      41.446  28.364  31.078  1.00  0.00     0.049 A 
ATOM     29  C   UNL A   1      40.884  31.790  35.489  1.00  0.00     0.074 A 
ATOM     30  C   UNL A   1      42.487  27.454  31.135  1.00  0.00     0.029 A 
ATOM     31  N   UNL A   1      41.476  29.078  32.269  1.00  0.00    -0.354 N 
ATOM     32  N   UNL A   1      41.144  30.928  34.537  1.00  0.00    -0.248 NA
ATOM     33  C   UNL A   1      41.728  31.646  36.680  1.00  0.00     0.031 C 
ATOM     34  C   UNL A   1      43.102  27.570  32.386  1.00  0.00     0.029 A 
ATOM     35  C   UNL A   1      42.494  28.601  33.083  1.00  0.00     0.049 A 
ATOM     36  H   UNL A   1      40.866  29.814  32.501  1.00  0.00     0.167 HD
ATOM     37  C   UNL A   1      42.192  30.149  35.002  1.00  0.00     0.074 A 
ATOM     38  C   UNL A   1      42.532  30.654  36.318  1.00  0.00     0.031 C 
ATOM     39  C   UNL A   1      42.817  29.111  34.394  1.00  0.00     0.037 A 
BRANCH  26  40
ATOM     40  C   UNL A   1      40.507  27.627  28.847  1.00  0.00     0.064 A 
ATOM     41  C   UNL A   1      41.333  27.852  27.736  1.00  0.00     0.173 A 
ATOM     42  C   UNL A   1      39.706  26.473  28.840  1.00  0.00     0.173 A 
ATOM     43  F   UNL A   1      42.115  28.940  27.683  1.00  0.00    -0.203 F 
ATOM     44  C   UNL A   1      41.324  26.983  26.646  1.00  0.00     0.198 A 
ATOM     45  C   UNL A   1      39.726  25.588  27.766  1.00  0.00     0.198 A 
ATOM     46  F   UNL A   1      38.903  26.200  29.881  1.00  0.00    -0.203 F 
ATOM     47  F   UNL A   1      42.076  27.252  25.569  1.00  0.00    -0.200 F 
ATOM     48  C   UNL A   1      40.526  25.849  26.665  1.00  0.00     0.200 A 
ATOM     49  F   UNL A   1      38.966  24.485  27.795  1.00  0.00    -0.200 F 
ATOM     50  F   UNL A   1      40.520  25.014  25.617  1.00  0.00    -0.200 F 
ENDBRANCH  26  40
BRANCH  27  51
ATOM     51  C   UNL A   1      39.672  33.753  36.708  1.00  0.00     0.064 A 
ATOM     52  C   UNL A   1      40.283  35.009  36.793  1.00  0.00     0.173 A 
ATOM     53  C   UNL A   1      38.841  33.356  37.769  1.00  0.00     0.173 A 
ATOM     54  F   UNL A   1      41.097  35.426  35.812  1.00  0.00    -0.203 F 
ATOM     55  C   UNL A   1      40.079  35.833  37.898  1.00  0.00     0.198 A 
ATOM     56  C   UNL A   1      38.612  34.194  38.856  1.00  0.00     0.198 A 
ATOM     57  F   UNL A   1      38.225  32.166  37.730  1.00  0.00    -0.203 F 
ATOM     58  F   UNL A   1      40.703  37.017  37.972  1.00  0.00    -0.200 F 
ATOM     59  C   UNL A   1      39.237  35.429  38.924  1.00  0.00     0.200 A 
ATOM     60  F   UNL A   1      37.779  33.808  39.833  1.00  0.00    -0.200 F 
ATOM     61  F   UNL A   1      39.029  36.230  39.977  1.00  0.00    -0.200 F 
ENDBRANCH  27  51
BRANCH  39  62
ATOM     62  C   UNL A   1      43.956  28.466  35.132  1.00  0.00     0.064 A 
ATOM     63  C   UNL A   1      45.268  28.951  35.033  1.00  0.00     0.173 A 
ATOM     64  C   UNL A   1      43.719  27.378  35.984  1.00  0.00     0.173 A 
ATOM     65  F   UNL A   1      45.551  29.977  34.217  1.00  0.00    -0.203 F 
ATOM     66  C   UNL A   1      46.305  28.355  35.746  1.00  0.00     0.198 A 
ATOM     67  C   UNL A   1      44.753  26.808  36.722  1.00  0.00     0.198 A 
ATOM     68  F   UNL A   1      42.481  26.878  36.118  1.00  0.00    -0.203 F 
ATOM     69  F   UNL A   1      47.560  28.804  35.601  1.00  0.00    -0.200 F 
ATOM     70  C   UNL A   1      46.046  27.291  36.598  1.00  0.00     0.200 A 
ATOM     71  F   UNL A   1      44.495  25.790  37.556  1.00  0.00    -0.200 F 
ATOM     72  F   UNL A   1      47.042  26.729  37.294  1.00  0.00    -0.200 F 
ENDBRANCH  39  62
ENDBRANCH  13  14
ENDBRANCH   6   8
ENDBRANCH   3   4
ENDBRANCH   2   3
ENDBRANCH   1   2
BRANCH   1  73
ATOM     73  C   UNL A   1      32.400  29.883  26.674  1.00  0.00     0.002 C 
BRANCH  73  74
ATOM     74  C   UNL A   1      31.778  28.611  27.248  1.00  0.00     0.021 C 
BRANCH  74  75
ATOM     75  C   UNL A   1      31.892  27.392  26.325  1.00  0.00     0.116 C 
BRANCH  75  76
ATOM     76  N   UNL A   1      31.719  26.166  27.086  1.00  0.00    -0.351 N 
ATOM     77  C   UNL A   1      32.060  24.873  26.798  1.00  0.00     0.278 C 
ATOM     78  H   UNL A   1      31.280  26.287  27.959  1.00  0.00     0.163 HD
ATOM     79  O   UNL A   1      31.713  24.009  27.607  1.00  0.00    -0.268 OA
BRANCH  77  80
ATOM     80  C   UNL A   1      32.920  24.552  25.552  1.00  0.00     0.275 C 
ATOM     81  C   UNL A   1      34.340  24.177  26.030  1.00  0.00     0.085 C 
ATOM     82  N   UNL A   1      32.383  23.369  24.812  1.00  0.00    -0.320 N 
ATOM     83  C   UNL A   1      34.644  22.908  25.258  1.00  0.00     0.054 C 
ATOM     84  C   UNL A   1      33.271  22.248  25.193  1.00  0.00     0.188 C 
ATOM     85  H   UNL A   1      31.414  23.245  25.106  1.00  0.00     0.349 HD
ATOM     86  C   UNL A   1      35.699  21.980  25.837  1.00  0.00     0.010 C 
ATOM     87  C   UNL A   1      33.304  20.949  24.382  1.00  0.00     0.065 C 
ATOM     88  C   UNL A   1      35.759  20.697  25.002  1.00  0.00     0.001 C 
ATOM     89  C   UNL A   1      34.394  20.009  24.908  1.00  0.00     0.006 C 
BRANCH  82  90
ATOM     90  C   UNL A   1      32.008  23.451  23.390  1.00  0.00     0.186 C 
ATOM     91  C   UNL A   1      30.633  24.097  23.126  1.00  0.00     0.081 C 
ATOM     92  C   UNL A   1      33.034  23.985  22.366  1.00  0.00     0.081 C 
ATOM     93  C   UNL A   1      30.596  25.603  23.203  1.00  0.00     0.143 C 
ATOM     94  C   UNL A   1      33.302  25.475  22.417  1.00  0.00     0.143 C 
ATOM     95  S   UNL A   1      31.815  26.432  22.218  1.00  0.00     0.150 S 
ATOM     96  O   UNL A   1      32.044  27.727  22.829  1.00  0.00    -0.229 OA
ATOM     97  O   UNL A   1      31.403  26.327  20.830  1.00  0.00    -0.229 OA
ENDBRANCH  82  90
ENDBRANCH  77  80
ENDBRANCH  75  76
ENDBRANCH  74  75
ENDBRANCH  73  74
ENDBRANCH   1  73
TORSDOF 14
ENDMDL
MODEL 3
REMARK VINA RESULT:     -12.7      0.709      7.308
REMARK SMILES O=C(NCCCCCCNC(=O)[C@H]1C[C@H]2CCCC[C@@H]2[N@@H+]1C1CCS(=O)(=O)CC1)c1ccc(-c2c3nc(c(-c4c(F)c(F)c(F)c(F)c4F)c4ccc([nH]4)c(-c4c(F)c(F)c(F)c(F)c4F)c4nc(c(-c5c(F)c(F)c(F)c(F)c5F)c5ccc2[nH]5)C=C4)C=C3)cc1
REMARK SMILES IDX 6 1 5 2 4 3 3 4 1 5 2 6 30 8 31 9 92 10 32 11 91 12 33 13
REMARK SMILES IDX 34 14 35 15 85 16 36 17 90 18 84 19 86 20 37 21 89 22 83 23
REMARK SMILES IDX 82 24 38 26 70 27 50 28 69 29 51 30 54 31 68 32 87 33 52 34
REMARK SMILES IDX 53 35 67 37 88 38 55 39 39 40 40 41 48 42 41 43 42 44 46 45
REMARK SMILES IDX 49 46 43 47 44 48 47 49 45 50 71 51 72 52 80 53 73 54 74 55
REMARK SMILES IDX 78 56 81 57 75 58 76 59 79 60 77 61 56 62 57 63 65 64 58 65
REMARK SMILES IDX 59 66 63 67 66 68 60 69 61 70 64 71 62 72 7 73 8 74 9 75
REMARK SMILES IDX 10 76 11 77 12 79 13 80 14 81 21 82 15 83 20 84 16 86 19 87
REMARK SMILES IDX 17 88 18 89 22 90 23 91 29 92 24 93 28 94 25 95 26 96 27 97
REMARK H PARENT 3 7 86 25 54 36 10 78 21 85
REMARK Flexibility Score: inf
ROOT
ATOM      1  C   UNL A   1      31.387  30.460  25.950  1.00  0.00     0.002 C 
ENDROOT
BRANCH   1   2
ATOM      2  C   UNL A   1      31.330  31.914  26.424  1.00  0.00     0.021 C 
BRANCH   2   3
ATOM      3  C   UNL A   1      32.629  32.419  27.041  1.00  0.00     0.116 C 
BRANCH   3   4
ATOM      4  N   UNL A   1      32.522  33.814  27.443  1.00  0.00    -0.352 N 
ATOM      5  O   UNL A   1      32.750  35.570  28.843  1.00  0.00    -0.269 OA
ATOM      6  C   UNL A   1      33.146  34.470  28.473  1.00  0.00     0.251 C 
ATOM      7  H   UNL A   1      31.916  34.366  26.898  1.00  0.00     0.163 HD
BRANCH   6   8
ATOM      8  C   UNL A   1      34.305  33.841  29.135  1.00  0.00     0.039 A 
ATOM      9  C   UNL A   1      34.108  32.849  30.099  1.00  0.00     0.014 A 
ATOM     10  C   UNL A   1      35.597  34.224  28.768  1.00  0.00     0.014 A 
ATOM     11  C   UNL A   1      35.196  32.329  30.786  1.00  0.00     0.010 A 
ATOM     12  C   UNL A   1      36.695  33.632  29.395  1.00  0.00     0.010 A 
ATOM     13  C   UNL A   1      36.501  32.692  30.421  1.00  0.00    -0.014 A 
BRANCH  13  14
ATOM     14  C   UNL A   1      37.650  32.011  31.063  1.00  0.00     0.031 A 
ATOM     15  C   UNL A   1      38.112  32.393  32.436  1.00  0.00     0.074 A 
ATOM     16  C   UNL A   1      38.284  31.043  30.374  1.00  0.00     0.049 A 
ATOM     17  N   UNL A   1      39.122  31.927  33.126  1.00  0.00    -0.248 NA
ATOM     18  C   UNL A   1      37.348  33.445  33.123  1.00  0.00     0.031 C 
ATOM     19  C   UNL A   1      37.928  30.604  29.022  1.00  0.00     0.029 A 
ATOM     20  N   UNL A   1      39.355  30.257  30.709  1.00  0.00    -0.354 N 
ATOM     21  C   UNL A   1      39.129  32.638  34.318  1.00  0.00     0.074 A 
ATOM     22  C   UNL A   1      38.041  33.590  34.245  1.00  0.00     0.031 C 
ATOM     23  C   UNL A   1      38.752  29.615  28.651  1.00  0.00     0.029 A 
ATOM     24  C   UNL A   1      39.735  29.400  29.706  1.00  0.00     0.049 A 
ATOM     25  H   UNL A   1      39.809  30.301  31.581  1.00  0.00     0.167 HD
ATOM     26  C   UNL A   1      39.967  32.499  35.374  1.00  0.00     0.037 A 
ATOM     27  C   UNL A   1      40.781  28.558  29.625  1.00  0.00     0.037 A 
ATOM     28  C   UNL A   1      41.045  31.543  35.429  1.00  0.00     0.049 A 
ATOM     29  C   UNL A   1      41.717  28.450  30.793  1.00  0.00     0.074 A 
ATOM     30  C   UNL A   1      41.919  31.288  36.471  1.00  0.00     0.029 A 
ATOM     31  N   UNL A   1      41.407  30.697  34.389  1.00  0.00    -0.354 N 
ATOM     32  N   UNL A   1      41.684  29.088  31.938  1.00  0.00    -0.248 NA
ATOM     33  C   UNL A   1      42.831  27.505  30.662  1.00  0.00     0.031 C 
ATOM     34  C   UNL A   1      42.852  30.340  36.037  1.00  0.00     0.029 A 
ATOM     35  C   UNL A   1      42.517  29.948  34.751  1.00  0.00     0.049 A 
ATOM     36  H   UNL A   1      40.945  30.638  33.523  1.00  0.00     0.167 HD
ATOM     37  C   UNL A   1      42.759  28.611  32.672  1.00  0.00     0.074 A 
ATOM     38  C   UNL A   1      43.416  27.616  31.847  1.00  0.00     0.031 C 
ATOM     39  C   UNL A   1      43.164  28.964  33.917  1.00  0.00     0.037 A 
BRANCH  26  40
ATOM     40  C   UNL A   1      39.774  33.428  36.541  1.00  0.00     0.064 A 
ATOM     41  C   UNL A   1      38.930  33.110  37.615  1.00  0.00     0.173 A 
ATOM     42  C   UNL A   1      40.465  34.649  36.595  1.00  0.00     0.173 A 
ATOM     43  F   UNL A   1      38.239  31.960  37.615  1.00  0.00    -0.203 F 
ATOM     44  C   UNL A   1      38.751  33.997  38.676  1.00  0.00     0.198 A 
ATOM     45  C   UNL A   1      40.312  35.516  37.673  1.00  0.00     0.198 A 
ATOM     46  F   UNL A   1      41.296  35.002  35.601  1.00  0.00    -0.203 F 
ATOM     47  F   UNL A   1      37.891  33.698  39.660  1.00  0.00    -0.200 F 
ATOM     48  C   UNL A   1      39.446  35.196  38.707  1.00  0.00     0.200 A 
ATOM     49  F   UNL A   1      40.999  36.667  37.708  1.00  0.00    -0.200 F 
ATOM     50  F   UNL A   1      39.275  36.046  39.728  1.00  0.00    -0.200 F 
ENDBRANCH  26  40
BRANCH  27  51
ATOM     51  C   UNL A   1      40.993  27.780  28.378  1.00  0.00     0.064 A 
ATOM     52  C   UNL A   1      41.812  28.263  27.350  1.00  0.00     0.173 A 
ATOM     53  C   UNL A   1      40.411  26.513  28.211  1.00  0.00     0.173 A 
ATOM     54  F   UNL A   1      42.378  29.473  27.458  1.00  0.00    -0.203 F 
ATOM     55  C   UNL A   1      42.034  27.513  26.198  1.00  0.00     0.198 A 
ATOM     56  C   UNL A   1      40.660  25.750  27.073  1.00  0.00     0.198 A 
ATOM     57  F   UNL A   1      39.627  26.001  29.170  1.00  0.00    -0.203 F 
ATOM     58  F   UNL A   1      42.794  28.011  25.213  1.00  0.00    -0.200 F 
ATOM     59  C   UNL A   1      41.466  26.254  26.064  1.00  0.00     0.200 A 
ATOM     60  F   UNL A   1      40.128  24.526  26.959  1.00  0.00    -0.200 F 
ATOM     61  F   UNL A   1      41.694  25.527  24.961  1.00  0.00    -0.200 F 
ENDBRANCH  27  51
BRANCH  39  62
ATOM     62  C   UNL A   1      44.360  28.249  34.479  1.00  0.00     0.064 A 
ATOM     63  C   UNL A   1      45.656  28.774  34.364  1.00  0.00     0.173 A 
ATOM     64  C   UNL A   1      44.197  27.047  35.183  1.00  0.00     0.173 A 
ATOM     65  F   UNL A   1      45.867  29.911  33.685  1.00  0.00    -0.203 F 
ATOM     66  C   UNL A   1      46.747  28.108  34.915  1.00  0.00     0.198 A 
ATOM     67  C   UNL A   1      45.287  26.403  35.763  1.00  0.00     0.198 A 
ATOM     68  F   UNL A   1      42.978  26.504  35.326  1.00  0.00    -0.203 F 
ATOM     69  F   UNL A   1      47.983  28.603  34.752  1.00  0.00    -0.200 F 
ATOM     70  C   UNL A   1      46.562  26.929  35.623  1.00  0.00     0.200 A 
ATOM     71  F   UNL A   1      45.102  25.273  36.459  1.00  0.00    -0.200 F 
ATOM     72  F   UNL A   1      47.611  26.299  36.165  1.00  0.00    -0.200 F 
ENDBRANCH  39  62
ENDBRANCH  13  14
ENDBRANCH   6   8
ENDBRANCH   3   4
ENDBRANCH   2   3
ENDBRANCH   1   2
BRANCH   1  73
ATOM     73  C   UNL A   1      32.516  29.626  26.564  1.00  0.00     0.002 C 
BRANCH  73  74
ATOM     74  C   UNL A   1      32.048  28.359  27.278  1.00  0.00     0.021 C 
BRANCH  74  75
ATOM     75  C   UNL A   1      31.622  27.233  26.331  1.00  0.00     0.116 C 
BRANCH  75  76
ATOM     76  N   UNL A   1      31.472  25.987  27.064  1.00  0.00    -0.351 N 
ATOM     77  C   UNL A   1      31.879  24.715  26.770  1.00  0.00     0.278 C 
ATOM     78  H   UNL A   1      30.994  26.073  27.920  1.00  0.00     0.163 HD
ATOM     79  O   UNL A   1      31.537  23.822  27.550  1.00  0.00    -0.268 OA
BRANCH  77  80
ATOM     80  C   UNL A   1      32.802  24.452  25.555  1.00  0.00     0.275 C 
ATOM     81  C   UNL A   1      34.213  24.114  26.085  1.00  0.00     0.085 C 
ATOM     82  N   UNL A   1      32.338  23.270  24.767  1.00  0.00    -0.320 N 
ATOM     83  C   UNL A   1      34.593  22.875  25.299  1.00  0.00     0.054 C 
ATOM     84  C   UNL A   1      33.248  22.171  25.161  1.00  0.00     0.188 C 
ATOM     85  H   UNL A   1      31.362  23.107  25.016  1.00  0.00     0.349 HD
ATOM     86  C   UNL A   1      35.653  21.969  25.903  1.00  0.00     0.010 C 
ATOM     87  C   UNL A   1      33.359  20.893  24.323  1.00  0.00     0.065 C 
ATOM     88  C   UNL A   1      35.793  20.709  25.042  1.00  0.00     0.001 C 
ATOM     89  C   UNL A   1      34.458  19.978  24.875  1.00  0.00     0.006 C 
BRANCH  82  90
ATOM     90  C   UNL A   1      32.021  23.373  23.332  1.00  0.00     0.186 C 
ATOM     91  C   UNL A   1      30.655  24.019  23.023  1.00  0.00     0.081 C 
ATOM     92  C   UNL A   1      33.086  23.925  22.359  1.00  0.00     0.081 C 
ATOM     93  C   UNL A   1      30.611  25.523  23.121  1.00  0.00     0.143 C 
ATOM     94  C   UNL A   1      33.347  25.414  22.444  1.00  0.00     0.143 C 
ATOM     95  S   UNL A   1      31.866  26.371  22.199  1.00  0.00     0.150 S 
ATOM     96  O   UNL A   1      32.066  27.657  22.839  1.00  0.00    -0.229 OA
ATOM     97  O   UNL A   1      31.511  26.287  20.794  1.00  0.00    -0.229 OA
ENDBRANCH  82  90
ENDBRANCH  77  80
ENDBRANCH  75  76
ENDBRANCH  74  75
ENDBRANCH  73  74
ENDBRANCH   1  73
TORSDOF 14
ENDMDL
