MODEL 1
REMARK VINA RESULT:     -12.5      0.000      0.000
REMARK SMILES Cc1cc2c(c(C)c1Cl)C=C(C(=O)NCCCCCCNC(=O)c1ccc(-c3c4nc(c(-c5c(F)c(F)c(F)c(F)c5F)c5ccc([nH]5)c(-c5c(F)c(F)c(F)c(F)c5F)c5nc(c(-c6c(F)c(F)c(F)c(F)c6F)c6ccc3[nH]6)C=C5)C=C4)cc1)[C@@H](C(F)(F)F)O2
REMARK SMILES IDX 18 1 17 2 16 3 15 4 14 5 12 6 13 7 11 9 1 10 2 11 3 12 8 13
REMARK SMILES IDX 4 14 6 15 9 16 5 17 92 18 7 19 10 20 87 21 88 22 89 23 90 24
REMARK SMILES IDX 91 25 19 26 20 27 21 28 22 29 23 31 24 32 25 33 86 34 26 35
REMARK SMILES IDX 85 36 27 37 28 38 29 39 79 40 30 41 84 42 78 43 80 44 31 45
REMARK SMILES IDX 83 46 77 47 76 48 32 50 64 51 44 52 63 53 45 54 48 55 62 56
REMARK SMILES IDX 81 57 46 58 47 59 61 61 82 62 49 63 33 64 34 65 42 66 35 67
REMARK SMILES IDX 36 68 40 69 43 70 37 71 38 72 41 73 39 74 65 75 66 76 74 77
REMARK SMILES IDX 67 78 68 79 72 80 75 81 69 82 70 83 73 84 71 85 50 86 51 87
REMARK SMILES IDX 59 88 52 89 53 90 57 91 60 92 54 93 55 94 58 95 56 96
REMARK H PARENT 14 8 21 30 80 49 48 60
REMARK Flexibility Score: inf
ROOT
ATOM      1  C   UNL A   1      31.421  30.807  26.206  1.00  0.00     0.002 C 
ENDROOT
BRANCH   1   2
ATOM      2  C   UNL A   1      32.150  29.942  27.244  1.00  0.00     0.002 C 
BRANCH   2   3
ATOM      3  C   UNL A   1      32.621  28.580  26.730  1.00  0.00     0.021 C 
BRANCH   3   4
ATOM      4  C   UNL A   1      34.015  28.614  26.111  1.00  0.00     0.116 C 
BRANCH   4   5
ATOM      5  N   UNL A   1      33.964  28.490  24.667  1.00  0.00    -0.352 N 
ATOM      6  C   UNL A   1      33.700  27.516  23.765  1.00  0.00     0.251 C 
ATOM      7  O   UNL A   1      33.754  27.867  22.582  1.00  0.00    -0.270 OA
ATOM      8  H   UNL A   1      34.180  29.343  24.224  1.00  0.00     0.163 HD
BRANCH   6   9
ATOM      9  C   UNL A   1      33.359  26.101  24.103  1.00  0.00     0.067 C 
ATOM     10  C   UNL A   1      33.093  19.780  25.582  1.00  0.00     0.046 C 
ATOM     11  C   UNL A   1      33.542  21.168  25.214  1.00  0.00    -0.028 A 
ATOM     12  C   UNL A   1      32.558  22.159  25.224  1.00  0.00     0.052 A 
ATOM     13  C   UNL A   1      34.859  21.526  24.865  1.00  0.00     0.047 A 
ATOM     14  C   UNL A   1      32.866  23.469  24.883  1.00  0.00     0.128 A 
ATOM     15  C   UNL A   1      35.189  22.866  24.526  1.00  0.00    -0.021 A 
ATOM     16  Cl  UNL A   1      36.088  20.298  24.862  1.00  0.00    -0.084 Cl
ATOM     17  C   UNL A   1      34.165  23.845  24.539  1.00  0.00     0.022 A 
ATOM     18  O   UNL A   1      31.818  24.336  24.955  1.00  0.00    -0.475 OA
ATOM     19  C   UNL A   1      36.596  23.271  24.150  1.00  0.00     0.047 C 
ATOM     20  C   UNL A   1      34.402  25.262  24.239  1.00  0.00     0.026 C 
ATOM     21  C   UNL A   1      31.958  25.594  24.254  1.00  0.00     0.314 C 
BRANCH  21  22
ATOM     22  C   UNL A   1      31.198  25.512  22.918  1.00  0.00     0.429 C 
ATOM     23  F   UNL A   1      30.558  26.682  22.667  1.00  0.00    -0.167 F 
ATOM     24  F   UNL A   1      32.015  25.295  21.861  1.00  0.00    -0.167 F 
ATOM     25  F   UNL A   1      30.270  24.530  22.908  1.00  0.00    -0.167 F 
ENDBRANCH  21  22
ENDBRANCH   6   9
ENDBRANCH   4   5
ENDBRANCH   3   4
ENDBRANCH   2   3
ENDBRANCH   1   2
BRANCH   1  26
ATOM     26  C   UNL A   1      31.384  32.304  26.520  1.00  0.00     0.021 C 
BRANCH  26  27
ATOM     27  C   UNL A   1      32.633  32.828  27.217  1.00  0.00     0.116 C 
BRANCH  27  28
ATOM     28  N   UNL A   1      32.481  34.216  27.619  1.00  0.00    -0.352 N 
ATOM     29  C   UNL A   1      33.088  34.889  28.646  1.00  0.00     0.251 C 
ATOM     30  H   UNL A   1      31.854  34.748  27.078  1.00  0.00     0.163 HD
ATOM     31  O   UNL A   1      32.681  35.994  28.995  1.00  0.00    -0.269 OA
BRANCH  29  32
ATOM     32  C   UNL A   1      34.232  34.270  29.341  1.00  0.00     0.039 A 
ATOM     33  C   UNL A   1      33.989  33.438  30.436  1.00  0.00     0.014 A 
ATOM     34  C   UNL A   1      35.540  34.516  28.913  1.00  0.00     0.014 A 
ATOM     35  C   UNL A   1      35.060  32.812  31.072  1.00  0.00     0.010 A 
ATOM     36  C   UNL A   1      36.599  33.833  29.500  1.00  0.00     0.010 A 
ATOM     37  C   UNL A   1      36.369  32.985  30.593  1.00  0.00    -0.014 A 
BRANCH  37  38
ATOM     38  C   UNL A   1      37.515  32.309  31.246  1.00  0.00     0.031 A 
ATOM     39  C   UNL A   1      38.244  31.211  30.526  1.00  0.00     0.074 A 
ATOM     40  C   UNL A   1      37.879  32.668  32.493  1.00  0.00     0.049 A 
ATOM     41  N   UNL A   1      39.247  30.476  30.937  1.00  0.00    -0.248 NA
ATOM     42  C   UNL A   1      37.773  30.877  29.172  1.00  0.00     0.031 C 
ATOM     43  C   UNL A   1      37.229  33.703  33.296  1.00  0.00     0.029 A 
ATOM     44  N   UNL A   1      38.888  32.206  33.300  1.00  0.00    -0.354 N 
ATOM     45  C   UNL A   1      39.527  29.605  29.894  1.00  0.00     0.074 A 
ATOM     46  C   UNL A   1      38.548  29.849  28.858  1.00  0.00     0.031 C 
ATOM     47  C   UNL A   1      37.878  33.825  34.465  1.00  0.00     0.029 A 
ATOM     48  C   UNL A   1      38.964  32.849  34.511  1.00  0.00     0.049 A 
ATOM     49  H   UNL A   1      39.499  31.480  33.035  1.00  0.00     0.167 HD
ATOM     50  C   UNL A   1      40.535  28.708  29.795  1.00  0.00     0.037 A 
ATOM     51  C   UNL A   1      39.814  32.670  35.539  1.00  0.00     0.037 A 
ATOM     52  C   UNL A   1      41.517  28.482  30.821  1.00  0.00     0.049 A 
ATOM     53  C   UNL A   1      40.892  31.626  35.423  1.00  0.00     0.074 A 
ATOM     54  C   UNL A   1      42.592  27.611  30.807  1.00  0.00     0.029 A 
ATOM     55  N   UNL A   1      41.544  29.134  32.045  1.00  0.00    -0.354 N 
ATOM     56  N   UNL A   1      41.177  30.840  34.412  1.00  0.00    -0.248 NA
ATOM     57  C   UNL A   1      41.769  31.444  36.588  1.00  0.00     0.031 C 
ATOM     58  C   UNL A   1      43.243  27.702  32.040  1.00  0.00     0.029 A 
ATOM     59  C   UNL A   1      42.607  28.669  32.803  1.00  0.00     0.049 A 
ATOM     60  H   UNL A   1      40.905  29.825  32.332  1.00  0.00     0.167 HD
ATOM     61  C   UNL A   1      42.279  30.093  34.807  1.00  0.00     0.074 A 
ATOM     62  C   UNL A   1      42.623  30.531  36.144  1.00  0.00     0.031 C 
ATOM     63  C   UNL A   1      42.943  29.127  34.126  1.00  0.00     0.037 A 
BRANCH  50  64
ATOM     64  C   UNL A   1      40.648  27.918  28.524  1.00  0.00     0.064 A 
ATOM     65  C   UNL A   1      41.415  28.381  27.445  1.00  0.00     0.173 A 
ATOM     66  C   UNL A   1      40.048  26.655  28.409  1.00  0.00     0.173 A 
ATOM     67  F   UNL A   1      41.998  29.588  27.499  1.00  0.00    -0.203 F 
ATOM     68  C   UNL A   1      41.568  27.614  26.292  1.00  0.00     0.198 A 
ATOM     69  C   UNL A   1      40.229  25.878  27.268  1.00  0.00     0.198 A 
ATOM     70  F   UNL A   1      39.306  26.164  29.413  1.00  0.00    -0.203 F 
ATOM     71  F   UNL A   1      42.277  28.093  25.261  1.00  0.00    -0.200 F 
ATOM     72  C   UNL A   1      40.984  26.360  26.210  1.00  0.00     0.200 A 
ATOM     73  F   UNL A   1      39.676  24.659  27.195  1.00  0.00    -0.200 F 
ATOM     74  F   UNL A   1      41.151  25.614  25.109  1.00  0.00    -0.200 F 
ENDBRANCH  50  64
BRANCH  51  75
ATOM     75  C   UNL A   1      39.705  33.523  36.752  1.00  0.00     0.064 A 
ATOM     76  C   UNL A   1      38.851  33.165  37.805  1.00  0.00     0.173 A 
ATOM     77  C   UNL A   1      40.447  34.706  36.889  1.00  0.00     0.173 A 
ATOM     78  F   UNL A   1      38.105  32.054  37.714  1.00  0.00    -0.203 F 
ATOM     79  C   UNL A   1      38.731  33.965  38.940  1.00  0.00     0.198 A 
ATOM     80  C   UNL A   1      40.348  35.489  38.037  1.00  0.00     0.198 A 
ATOM     81  F   UNL A   1      41.280  35.094  35.913  1.00  0.00    -0.203 F 
ATOM     82  F   UNL A   1      37.875  33.620  39.911  1.00  0.00    -0.200 F 
ATOM     83  C   UNL A   1      39.485  35.122  39.058  1.00  0.00     0.200 A 
ATOM     84  F   UNL A   1      41.091  36.599  38.155  1.00  0.00    -0.200 F 
ATOM     85  F   UNL A   1      39.376  35.886  40.154  1.00  0.00    -0.200 F 
ENDBRANCH  51  75
BRANCH  63  86
ATOM     86  C   UNL A   1      44.125  28.488  34.796  1.00  0.00     0.064 A 
ATOM     87  C   UNL A   1      45.396  29.077  34.753  1.00  0.00     0.173 A 
ATOM     88  C   UNL A   1      43.965  27.321  35.559  1.00  0.00     0.173 A 
ATOM     89  F   UNL A   1      45.603  30.187  34.028  1.00  0.00    -0.203 F 
ATOM     90  C   UNL A   1      46.467  28.513  35.440  1.00  0.00     0.198 A 
ATOM     91  C   UNL A   1      45.031  26.780  36.271  1.00  0.00     0.198 A 
ATOM     92  F   UNL A   1      42.765  26.726  35.640  1.00  0.00    -0.203 F 
ATOM     93  F   UNL A   1      47.683  29.074  35.358  1.00  0.00    -0.200 F 
ATOM     94  C   UNL A   1      46.282  27.373  36.207  1.00  0.00     0.200 A 
ATOM     95  F   UNL A   1      44.844  25.688  37.028  1.00  0.00    -0.200 F 
ATOM     96  F   UNL A   1      47.310  26.845  36.886  1.00  0.00    -0.200 F 
ENDBRANCH  63  86
ENDBRANCH  37  38
ENDBRANCH  29  32
ENDBRANCH  27  28
ENDBRANCH  26  27
ENDBRANCH   1  26
TORSDOF 14
ENDMDL
MODEL 2
REMARK VINA RESULT:     -12.4      0.476      7.225
REMARK SMILES Cc1cc2c(c(C)c1Cl)C=C(C(=O)NCCCCCCNC(=O)c1ccc(-c3c4nc(c(-c5c(F)c(F)c(F)c(F)c5F)c5ccc([nH]5)c(-c5c(F)c(F)c(F)c(F)c5F)c5nc(c(-c6c(F)c(F)c(F)c(F)c6F)c6ccc3[nH]6)C=C5)C=C4)cc1)[C@@H](C(F)(F)F)O2
REMARK SMILES IDX 18 1 17 2 16 3 15 4 14 5 12 6 13 7 11 9 1 10 2 11 3 12 8 13
REMARK SMILES IDX 4 14 6 15 9 16 5 17 92 18 7 19 10 20 87 21 88 22 89 23 90 24
REMARK SMILES IDX 91 25 19 26 20 27 21 28 22 29 23 31 24 32 25 33 86 34 26 35
REMARK SMILES IDX 85 36 27 37 28 38 29 39 79 40 30 41 84 42 78 43 80 44 31 45
REMARK SMILES IDX 83 46 77 47 76 48 32 50 64 51 44 52 63 53 45 54 48 55 62 56
REMARK SMILES IDX 81 57 46 58 47 59 61 61 82 62 49 63 33 64 34 65 42 66 35 67
REMARK SMILES IDX 36 68 40 69 43 70 37 71 38 72 41 73 39 74 65 75 66 76 74 77
REMARK SMILES IDX 67 78 68 79 72 80 75 81 69 82 70 83 73 84 71 85 50 86 51 87
REMARK SMILES IDX 59 88 52 89 53 90 57 91 60 92 54 93 55 94 58 95 56 96
REMARK H PARENT 14 8 21 30 80 49 48 60
REMARK Flexibility Score: inf
ROOT
ATOM      1  C   UNL A   1      32.395  30.718  27.243  1.00  0.00     0.002 C 
ENDROOT
BRANCH   1   2
ATOM      2  C   UNL A   1      33.899  30.619  27.535  1.00  0.00     0.002 C 
BRANCH   2   3
ATOM      3  C   UNL A   1      34.533  29.269  27.196  1.00  0.00     0.021 C 
BRANCH   3   4
ATOM      4  C   UNL A   1      33.553  28.276  26.579  1.00  0.00     0.116 C 
BRANCH   4   5
ATOM      5  N   UNL A   1      33.678  28.226  25.135  1.00  0.00    -0.352 N 
ATOM      6  C   UNL A   1      33.585  27.288  24.164  1.00  0.00     0.251 C 
ATOM      7  O   UNL A   1      33.753  27.703  23.013  1.00  0.00    -0.270 OA
ATOM      8  H   UNL A   1      33.889  29.112  24.761  1.00  0.00     0.163 HD
BRANCH   6   9
ATOM      9  C   UNL A   1      33.299  25.839  24.394  1.00  0.00     0.067 C 
ATOM     10  C   UNL A   1      33.279  19.433  25.477  1.00  0.00     0.046 C 
ATOM     11  C   UNL A   1      33.676  20.861  25.223  1.00  0.00    -0.028 A 
ATOM     12  C   UNL A   1      32.641  21.799  25.222  1.00  0.00     0.052 A 
ATOM     13  C   UNL A   1      34.992  21.306  24.987  1.00  0.00     0.047 A 
ATOM     14  C   UNL A   1      32.899  23.142  24.981  1.00  0.00     0.128 A 
ATOM     15  C   UNL A   1      35.271  22.679  24.752  1.00  0.00    -0.021 A 
ATOM     16  Cl  UNL A   1      36.283  20.144  24.997  1.00  0.00    -0.084 Cl
ATOM     17  C   UNL A   1      34.196  23.603  24.751  1.00  0.00     0.022 A 
ATOM     18  O   UNL A   1      31.804  23.950  25.031  1.00  0.00    -0.475 OA
ATOM     19  C   UNL A   1      36.675  23.177  24.498  1.00  0.00     0.047 C 
ATOM     20  C   UNL A   1      34.375  25.046  24.552  1.00  0.00     0.026 C 
ATOM     21  C   UNL A   1      31.921  25.254  24.417  1.00  0.00     0.314 C 
BRANCH  21  22
ATOM     22  C   UNL A   1      31.256  25.217  23.029  1.00  0.00     0.429 C 
ATOM     23  F   UNL A   1      30.215  24.348  23.028  1.00  0.00    -0.167 F 
ATOM     24  F   UNL A   1      30.747  26.416  22.660  1.00  0.00    -0.167 F 
ATOM     25  F   UNL A   1      32.109  24.833  22.055  1.00  0.00    -0.167 F 
ENDBRANCH  21  22
ENDBRANCH   6   9
ENDBRANCH   4   5
ENDBRANCH   3   4
ENDBRANCH   2   3
ENDBRANCH   1   2
BRANCH   1  26
ATOM     26  C   UNL A   1      31.841  32.143  27.166  1.00  0.00     0.021 C 
BRANCH  26  27
ATOM     27  C   UNL A   1      32.898  33.212  26.924  1.00  0.00     0.116 C 
BRANCH  27  28
ATOM     28  N   UNL A   1      32.585  34.445  27.626  1.00  0.00    -0.352 N 
ATOM     29  C   UNL A   1      33.067  34.903  28.824  1.00  0.00     0.251 C 
ATOM     30  H   UNL A   1      31.937  35.035  27.179  1.00  0.00     0.163 HD
ATOM     31  O   UNL A   1      32.532  35.853  29.390  1.00  0.00    -0.269 OA
BRANCH  29  32
ATOM     32  C   UNL A   1      34.230  34.237  29.439  1.00  0.00     0.039 A 
ATOM     33  C   UNL A   1      34.015  33.284  30.437  1.00  0.00     0.014 A 
ATOM     34  C   UNL A   1      35.529  34.558  29.032  1.00  0.00     0.014 A 
ATOM     35  C   UNL A   1      35.105  32.616  30.994  1.00  0.00     0.010 A 
ATOM     36  C   UNL A   1      36.607  33.838  29.532  1.00  0.00     0.010 A 
ATOM     37  C   UNL A   1      36.405  32.870  30.527  1.00  0.00    -0.014 A 
BRANCH  37  38
ATOM     38  C   UNL A   1      37.571  32.152  31.094  1.00  0.00     0.031 A 
ATOM     39  C   UNL A   1      38.069  32.503  32.468  1.00  0.00     0.074 A 
ATOM     40  C   UNL A   1      38.193  31.206  30.364  1.00  0.00     0.049 A 
ATOM     41  N   UNL A   1      39.091  32.016  33.126  1.00  0.00    -0.248 NA
ATOM     42  C   UNL A   1      37.337  33.555  33.191  1.00  0.00     0.031 C 
ATOM     43  C   UNL A   1      37.812  30.800  29.011  1.00  0.00     0.029 A 
ATOM     44  N   UNL A   1      39.272  30.411  30.658  1.00  0.00    -0.354 N 
ATOM     45  C   UNL A   1      39.116  32.696  34.336  1.00  0.00     0.074 A 
ATOM     46  C   UNL A   1      38.056  33.678  34.297  1.00  0.00     0.031 C 
ATOM     47  C   UNL A   1      38.619  29.806  28.607  1.00  0.00     0.029 A 
ATOM     48  C   UNL A   1      39.599  29.532  29.655  1.00  0.00     0.049 A 
ATOM     49  H   UNL A   1      39.765  30.466  31.509  1.00  0.00     0.167 HD
ATOM     50  C   UNL A   1      39.928  32.490  35.399  1.00  0.00     0.037 A 
ATOM     51  C   UNL A   1      40.579  28.611  29.591  1.00  0.00     0.037 A 
ATOM     52  C   UNL A   1      40.970  31.500  35.439  1.00  0.00     0.049 A 
ATOM     53  C   UNL A   1      41.503  28.443  30.767  1.00  0.00     0.074 A 
ATOM     54  C   UNL A   1      41.831  31.199  36.478  1.00  0.00     0.029 A 
ATOM     55  N   UNL A   1      41.288  30.647  34.393  1.00  0.00    -0.354 N 
ATOM     56  N   UNL A   1      41.487  29.059  31.925  1.00  0.00    -0.248 NA
ATOM     57  C   UNL A   1      42.578  27.452  30.631  1.00  0.00     0.031 C 
ATOM     58  C   UNL A   1      42.703  30.195  36.045  1.00  0.00     0.029 A 
ATOM     59  C   UNL A   1      42.349  29.833  34.755  1.00  0.00     0.049 A 
ATOM     60  H   UNL A   1      40.828  30.622  33.523  1.00  0.00     0.167 HD
ATOM     61  C   UNL A   1      42.529  28.512  32.663  1.00  0.00     0.074 A 
ATOM     62  C   UNL A   1      43.146  27.502  31.828  1.00  0.00     0.031 C 
ATOM     63  C   UNL A   1      42.941  28.823  33.916  1.00  0.00     0.037 A 
BRANCH  50  64
ATOM     64  C   UNL A   1      39.711  33.335  36.620  1.00  0.00     0.064 A 
ATOM     65  C   UNL A   1      40.344  34.579  36.766  1.00  0.00     0.173 A 
ATOM     66  C   UNL A   1      38.807  32.939  37.616  1.00  0.00     0.173 A 
ATOM     67  F   UNL A   1      41.228  34.999  35.849  1.00  0.00    -0.203 F 
ATOM     68  C   UNL A   1      40.089  35.388  37.871  1.00  0.00     0.198 A 
ATOM     69  C   UNL A   1      38.531  33.763  38.703  1.00  0.00     0.198 A 
ATOM     70  F   UNL A   1      38.172  31.760  37.523  1.00  0.00    -0.203 F 
ATOM     71  F   UNL A   1      40.732  36.555  38.006  1.00  0.00    -0.200 F 
ATOM     72  C   UNL A   1      39.175  34.984  38.832  1.00  0.00     0.200 A 
ATOM     73  F   UNL A   1      37.637  33.378  39.624  1.00  0.00    -0.200 F 
ATOM     74  F   UNL A   1      38.915  35.773  39.883  1.00  0.00    -0.200 F 
ENDBRANCH  50  64
BRANCH  51  75
ATOM     75  C   UNL A   1      40.714  27.751  28.385  1.00  0.00     0.064 A 
ATOM     76  C   UNL A   1      41.504  28.157  27.300  1.00  0.00     0.173 A 
ATOM     77  C   UNL A   1      40.063  26.512  28.289  1.00  0.00     0.173 A 
ATOM     78  F   UNL A   1      42.131  29.342  27.335  1.00  0.00    -0.203 F 
ATOM     79  C   UNL A   1      41.627  27.364  26.161  1.00  0.00     0.198 A 
ATOM     80  C   UNL A   1      40.210  25.707  27.161  1.00  0.00     0.198 A 
ATOM     81  F   UNL A   1      39.295  26.075  29.298  1.00  0.00    -0.203 F 
ATOM     82  F   UNL A   1      42.355  27.797  25.123  1.00  0.00    -0.200 F 
ATOM     83  C   UNL A   1      40.985  26.137  26.094  1.00  0.00     0.200 A 
ATOM     84  F   UNL A   1      39.601  24.514  27.107  1.00  0.00    -0.200 F 
ATOM     85  F   UNL A   1      41.109  25.372  25.002  1.00  0.00    -0.200 F 
ENDBRANCH  51  75
BRANCH  63  86
ATOM     86  C   UNL A   1      44.098  28.051  34.481  1.00  0.00     0.064 A 
ATOM     87  C   UNL A   1      45.409  28.546  34.417  1.00  0.00     0.173 A 
ATOM     88  C   UNL A   1      43.882  26.847  35.169  1.00  0.00     0.173 A 
ATOM     89  F   UNL A   1      45.669  29.688  33.762  1.00  0.00    -0.203 F 
ATOM     90  C   UNL A   1      46.462  27.856  35.010  1.00  0.00     0.198 A 
ATOM     91  C   UNL A   1      44.933  26.178  35.788  1.00  0.00     0.198 A 
ATOM     92  F   UNL A   1      42.645  26.337  35.267  1.00  0.00    -0.203 F 
ATOM     93  F   UNL A   1      47.712  28.330  34.908  1.00  0.00    -0.200 F 
ATOM     94  C   UNL A   1      46.222  26.680  35.704  1.00  0.00     0.200 A 
ATOM     95  F   UNL A   1      44.696  25.051  36.476  1.00  0.00    -0.200 F 
ATOM     96  F   UNL A   1      47.235  26.030  36.293  1.00  0.00    -0.200 F 
ENDBRANCH  63  86
ENDBRANCH  37  38
ENDBRANCH  29  32
ENDBRANCH  27  28
ENDBRANCH  26  27
ENDBRANCH   1  26
TORSDOF 14
ENDMDL
MODEL 3
REMARK VINA RESULT:     -12.4      6.120     10.458
REMARK SMILES Cc1cc2c(c(C)c1Cl)C=C(C(=O)NCCCCCCNC(=O)c1ccc(-c3c4nc(c(-c5c(F)c(F)c(F)c(F)c5F)c5ccc([nH]5)c(-c5c(F)c(F)c(F)c(F)c5F)c5nc(c(-c6c(F)c(F)c(F)c(F)c6F)c6ccc3[nH]6)C=C5)C=C4)cc1)[C@@H](C(F)(F)F)O2
REMARK SMILES IDX 18 1 17 2 16 3 15 4 14 5 12 6 13 7 11 9 1 10 2 11 3 12 8 13
REMARK SMILES IDX 4 14 6 15 9 16 5 17 92 18 7 19 10 20 87 21 88 22 89 23 90 24
REMARK SMILES IDX 91 25 19 26 20 27 21 28 22 29 23 31 24 32 25 33 86 34 26 35
REMARK SMILES IDX 85 36 27 37 28 38 29 39 79 40 30 41 84 42 78 43 80 44 31 45
REMARK SMILES IDX 83 46 77 47 76 48 32 50 64 51 44 52 63 53 45 54 48 55 62 56
REMARK SMILES IDX 81 57 46 58 47 59 61 61 82 62 49 63 33 64 34 65 42 66 35 67
REMARK SMILES IDX 36 68 40 69 43 70 37 71 38 72 41 73 39 74 65 75 66 76 74 77
REMARK SMILES IDX 67 78 68 79 72 80 75 81 69 82 70 83 73 84 71 85 50 86 51 87
REMARK SMILES IDX 59 88 52 89 53 90 57 91 60 92 54 93 55 94 58 95 56 96
REMARK H PARENT 14 8 21 30 80 49 48 60
REMARK Flexibility Score: inf
ROOT
ATOM      1  C   UNL A   1      40.967  21.039  26.589  1.00  0.00     0.002 C 
ENDROOT
BRANCH   1   2
ATOM      2  C   UNL A   1      39.642  21.630  26.090  1.00  0.00     0.002 C 
BRANCH   2   3
ATOM      3  C   UNL A   1      39.353  23.055  26.566  1.00  0.00     0.021 C 
BRANCH   3   4
ATOM      4  C   UNL A   1      37.974  23.563  26.158  1.00  0.00     0.116 C 
BRANCH   4   5
ATOM      5  N   UNL A   1      37.715  23.336  24.749  1.00  0.00    -0.352 N 
ATOM      6  C   UNL A   1      36.632  23.253  23.941  1.00  0.00     0.251 C 
ATOM      7  O   UNL A   1      36.881  23.058  22.747  1.00  0.00    -0.270 OA
ATOM      8  H   UNL A   1      38.551  23.207  24.245  1.00  0.00     0.163 HD
BRANCH   6   9
ATOM      9  C   UNL A   1      35.213  23.381  24.390  1.00  0.00     0.067 C 
ATOM     10  C   UNL A   1      29.311  25.130  26.469  1.00  0.00     0.046 C 
ATOM     11  C   UNL A   1      30.760  25.105  26.064  1.00  0.00    -0.028 A 
ATOM     12  C   UNL A   1      31.221  23.915  25.495  1.00  0.00     0.052 A 
ATOM     13  C   UNL A   1      31.663  26.175  26.220  1.00  0.00     0.047 A 
ATOM     14  C   UNL A   1      32.547  23.784  25.103  1.00  0.00     0.128 A 
ATOM     15  C   UNL A   1      33.018  26.056  25.812  1.00  0.00    -0.021 A 
ATOM     16  Cl  UNL A   1      31.090  27.659  26.918  1.00  0.00    -0.084 Cl
ATOM     17  C   UNL A   1      33.455  24.834  25.244  1.00  0.00     0.022 A 
ATOM     18  O   UNL A   1      32.857  22.581  24.544  1.00  0.00    -0.475 OA
ATOM     19  C   UNL A   1      34.002  27.193  25.969  1.00  0.00     0.047 C 
ATOM     20  C   UNL A   1      34.822  24.615  24.758  1.00  0.00     0.026 C 
ATOM     21  C   UNL A   1      34.259  22.230  24.478  1.00  0.00     0.314 C 
BRANCH  21  22
ATOM     22  C   UNL A   1      34.588  21.258  25.625  1.00  0.00     0.429 C 
ATOM     23  F   UNL A   1      33.497  20.515  25.941  1.00  0.00    -0.167 F 
ATOM     24  F   UNL A   1      35.564  20.377  25.304  1.00  0.00    -0.167 F 
ATOM     25  F   UNL A   1      34.985  21.896  26.748  1.00  0.00    -0.167 F 
ENDBRANCH  21  22
ENDBRANCH   6   9
ENDBRANCH   4   5
ENDBRANCH   3   4
ENDBRANCH   2   3
ENDBRANCH   1   2
BRANCH   1  26
ATOM     26  C   UNL A   1      41.252  19.606  26.133  1.00  0.00     0.021 C 
BRANCH  26  27
ATOM     27  C   UNL A   1      42.634  19.092  26.513  1.00  0.00     0.116 C 
BRANCH  27  28
ATOM     28  N   UNL A   1      43.428  18.769  25.339  1.00  0.00    -0.352 N 
ATOM     29  C   UNL A   1      44.148  19.605  24.527  1.00  0.00     0.251 C 
ATOM     30  H   UNL A   1      43.452  17.817  25.092  1.00  0.00     0.163 HD
ATOM     31  O   UNL A   1      44.576  19.209  23.445  1.00  0.00    -0.269 OA
BRANCH  29  32
ATOM     32  C   UNL A   1      44.398  20.993  24.956  1.00  0.00     0.039 A 
ATOM     33  C   UNL A   1      43.785  22.037  24.261  1.00  0.00     0.014 A 
ATOM     34  C   UNL A   1      45.240  21.260  26.041  1.00  0.00     0.014 A 
ATOM     35  C   UNL A   1      43.980  23.351  24.686  1.00  0.00     0.010 A 
ATOM     36  C   UNL A   1      45.371  22.562  26.509  1.00  0.00     0.010 A 
ATOM     37  C   UNL A   1      44.752  23.620  25.828  1.00  0.00    -0.014 A 
BRANCH  37  38
ATOM     38  C   UNL A   1      44.949  25.010  26.305  1.00  0.00     0.031 A 
ATOM     39  C   UNL A   1      46.305  25.650  26.202  1.00  0.00     0.074 A 
ATOM     40  C   UNL A   1      43.917  25.681  26.850  1.00  0.00     0.049 A 
ATOM     41  N   UNL A   1      46.688  26.839  26.590  1.00  0.00    -0.248 NA
ATOM     42  C   UNL A   1      47.377  24.841  25.602  1.00  0.00     0.031 C 
ATOM     43  C   UNL A   1      42.564  25.151  27.024  1.00  0.00     0.029 A 
ATOM     44  N   UNL A   1      43.842  26.955  27.354  1.00  0.00    -0.354 N 
ATOM     45  C   UNL A   1      48.038  26.920  26.276  1.00  0.00     0.074 A 
ATOM     46  C   UNL A   1      48.427  25.639  25.730  1.00  0.00     0.031 C 
ATOM     47  C   UNL A   1      41.784  26.104  27.558  1.00  0.00     0.029 A 
ATOM     48  C   UNL A   1      42.590  27.298  27.803  1.00  0.00     0.049 A 
ATOM     49  H   UNL A   1      44.614  27.565  27.392  1.00  0.00     0.167 HD
ATOM     50  C   UNL A   1      48.867  27.982  26.397  1.00  0.00     0.037 A 
ATOM     51  C   UNL A   1      42.146  28.446  28.348  1.00  0.00     0.037 A 
ATOM     52  C   UNL A   1      48.471  29.260  26.923  1.00  0.00     0.049 A 
ATOM     53  C   UNL A   1      43.106  29.592  28.522  1.00  0.00     0.074 A 
ATOM     54  C   UNL A   1      49.231  30.406  27.065  1.00  0.00     0.029 A 
ATOM     55  N   UNL A   1      47.200  29.560  27.392  1.00  0.00    -0.354 N 
ATOM     56  N   UNL A   1      44.368  29.673  28.177  1.00  0.00    -0.248 NA
ATOM     57  C   UNL A   1      42.579  30.808  29.157  1.00  0.00     0.031 C 
ATOM     58  C   UNL A   1      48.435  31.387  27.663  1.00  0.00     0.029 A 
ATOM     59  C   UNL A   1      47.162  30.869  27.844  1.00  0.00     0.049 A 
ATOM     60  H   UNL A   1      46.439  28.937  27.401  1.00  0.00     0.167 HD
ATOM     61  C   UNL A   1      44.779  30.953  28.527  1.00  0.00     0.074 A 
ATOM     62  C   UNL A   1      43.626  31.620  29.096  1.00  0.00     0.031 C 
ATOM     63  C   UNL A   1      46.002  31.522  28.395  1.00  0.00     0.037 A 
BRANCH  50  64
ATOM     64  C   UNL A   1      50.284  27.821  25.929  1.00  0.00     0.064 A 
ATOM     65  C   UNL A   1      51.328  27.583  26.837  1.00  0.00     0.173 A 
ATOM     66  C   UNL A   1      50.594  27.829  24.561  1.00  0.00     0.173 A 
ATOM     67  F   UNL A   1      51.087  27.579  28.156  1.00  0.00    -0.203 F 
ATOM     68  C   UNL A   1      52.630  27.370  26.392  1.00  0.00     0.198 A 
ATOM     69  C   UNL A   1      51.891  27.585  24.119  1.00  0.00     0.198 A 
ATOM     70  F   UNL A   1      49.633  28.049  23.651  1.00  0.00    -0.203 F 
ATOM     71  F   UNL A   1      53.616  27.179  27.279  1.00  0.00    -0.200 F 
ATOM     72  C   UNL A   1      52.908  27.361  25.034  1.00  0.00     0.200 A 
ATOM     73  F   UNL A   1      52.157  27.562  22.805  1.00  0.00    -0.200 F 
ATOM     74  F   UNL A   1      54.158  27.134  24.607  1.00  0.00    -0.200 F 
ENDBRANCH  50  64
BRANCH  51  75
ATOM     75  C   UNL A   1      40.717  28.581  28.736  1.00  0.00     0.064 A 
ATOM     76  C   UNL A   1      39.764  29.038  27.813  1.00  0.00     0.173 A 
ATOM     77  C   UNL A   1      40.270  28.258  30.026  1.00  0.00     0.173 A 
ATOM     78  F   UNL A   1      40.143  29.378  26.573  1.00  0.00    -0.203 F 
ATOM     79  C   UNL A   1      38.425  29.180  28.170  1.00  0.00     0.198 A 
ATOM     80  C   UNL A   1      38.926  28.373  30.373  1.00  0.00     0.198 A 
ATOM     81  F   UNL A   1      41.139  27.815  30.947  1.00  0.00    -0.203 F 
ATOM     82  F   UNL A   1      37.545  29.659  27.280  1.00  0.00    -0.200 F 
ATOM     83  C   UNL A   1      38.005  28.842  29.447  1.00  0.00     0.200 A 
ATOM     84  F   UNL A   1      38.521  28.029  31.604  1.00  0.00    -0.200 F 
ATOM     85  F   UNL A   1      36.716  28.972  29.788  1.00  0.00    -0.200 F 
ENDBRANCH  51  75
BRANCH  63  86
ATOM     86  C   UNL A   1      46.163  32.944  28.847  1.00  0.00     0.064 A 
ATOM     87  C   UNL A   1      46.601  33.254  30.142  1.00  0.00     0.173 A 
ATOM     88  C   UNL A   1      45.959  34.003  27.950  1.00  0.00     0.173 A 
ATOM     89  F   UNL A   1      46.800  32.278  31.041  1.00  0.00    -0.203 F 
ATOM     90  C   UNL A   1      46.817  34.575  30.525  1.00  0.00     0.198 A 
ATOM     91  C   UNL A   1      46.207  35.319  28.327  1.00  0.00     0.198 A 
ATOM     92  F   UNL A   1      45.550  33.757  26.696  1.00  0.00    -0.203 F 
ATOM     93  F   UNL A   1      47.203  34.852  31.780  1.00  0.00    -0.200 F 
ATOM     94  C   UNL A   1      46.631  35.604  29.616  1.00  0.00     0.200 A 
ATOM     95  F   UNL A   1      46.046  36.311  27.439  1.00  0.00    -0.200 F 
ATOM     96  F   UNL A   1      46.861  36.873  29.981  1.00  0.00    -0.200 F 
ENDBRANCH  63  86
ENDBRANCH  37  38
ENDBRANCH  29  32
ENDBRANCH  27  28
ENDBRANCH  26  27
ENDBRANCH   1  26
TORSDOF 14
ENDMDL
