MODEL 1
REMARK VINA RESULT:     -13.4      0.000      0.000
REMARK SMILES CCOc1ccccc1[C@H]1CC(C(=O)NCCCCCCNC(=O)c2ccc(-c3c4nc(c(-c5c(F)c(F)c(F)c(F)c5F)c5ccc([nH]5)c(-c5c(F)c(F)c(F)c(F)c5F)c5nc(c(-c6c(F)c(F)c(F)c(F)c6F)c6ccc3[nH]6)C=C5)C=C4)cc2)=Nc2c(C(=O)Nc3ccccc3)cnn21
REMARK SMILES IDX 18 1 17 2 16 3 15 4 13 5 14 6 12 8 10 9 11 10 102 11 89 12
REMARK SMILES IDX 101 13 88 14 90 15 100 16 9 17 4 18 5 19 6 20 8 21 7 22 3 23
REMARK SMILES IDX 2 24 1 25 91 26 92 27 93 28 94 30 95 31 99 32 96 33 98 34
REMARK SMILES IDX 97 35 19 36 20 37 21 38 22 39 23 40 24 42 25 43 26 44 87 45
REMARK SMILES IDX 27 46 86 47 28 48 29 49 30 50 80 51 31 52 85 53 79 54 81 55
REMARK SMILES IDX 32 56 84 57 78 58 77 59 33 61 65 62 45 63 64 64 46 65 49 66
REMARK SMILES IDX 63 67 82 68 47 69 48 70 62 72 83 73 50 74 34 75 35 76 43 77
REMARK SMILES IDX 36 78 37 79 41 80 44 81 38 82 39 83 42 84 40 85 66 86 67 87
REMARK SMILES IDX 75 88 68 89 69 90 73 91 76 92 70 93 71 94 74 95 72 96 51 97
REMARK SMILES IDX 52 98 60 99 53 100 54 101 58 102 61 103 55 104 56 105 59 106
REMARK SMILES IDX 57 107
REMARK H PARENT 15 7 93 29 22 41 81 60 49 71
REMARK Flexibility Score: inf
ROOT
ATOM      1  C   UNL A   1      39.787  20.484  25.786  1.00  0.00     0.002 C 
ENDROOT
BRANCH   1   2
ATOM      2  C   UNL A   1      38.643  19.676  25.190  1.00  0.00     0.021 C 
BRANCH   2   3
ATOM      3  C   UNL A   1      37.509  20.552  24.703  1.00  0.00     0.116 C 
BRANCH   3   4
ATOM      4  N   UNL A   1      37.719  21.955  24.964  1.00  0.00    -0.351 N 
ATOM      5  C   UNL A   1      36.874  22.856  25.561  1.00  0.00     0.265 C 
ATOM      6  O   UNL A   1      37.339  23.694  26.325  1.00  0.00    -0.268 OA
ATOM      7  H   UNL A   1      38.587  22.315  24.673  1.00  0.00     0.163 HD
BRANCH   5   8
ATOM      8  C   UNL A   1      35.390  22.897  25.177  1.00  0.00     0.110 C 
ATOM      9  C   UNL A   1      33.072  21.529  25.229  1.00  0.00     0.150 C 
ATOM     10  C   UNL A   1      34.588  21.629  25.353  1.00  0.00     0.094 C 
ATOM     11  N   UNL A   1      32.534  22.821  24.924  1.00  0.00    -0.239 N 
ATOM     12  C   UNL A   1      33.706  24.075  24.250  1.00  0.00     0.164 A 
ATOM     13  N   UNL A   1      30.772  23.320  24.555  1.00  0.00    -0.178 NA
ATOM     14  N   UNL A   1      34.991  23.999  24.630  1.00  0.00    -0.227 NA
ATOM     15  C   UNL A   1      32.737  25.285  23.389  1.00  0.00     0.104 A 
ATOM     16  C   UNL A   1      30.866  24.807  23.672  1.00  0.00     0.151 A 
BRANCH   9  17
ATOM     17  C   UNL A   1      32.721  20.515  24.165  1.00  0.00     0.019 A 
ATOM     18  C   UNL A   1      32.722  19.148  24.424  1.00  0.00     0.124 A 
ATOM     19  C   UNL A   1      32.457  18.248  23.385  1.00  0.00     0.047 A 
ATOM     20  C   UNL A   1      32.143  18.699  22.099  1.00  0.00     0.004 A 
ATOM     21  C   UNL A   1      32.402  20.962  22.858  1.00  0.00     0.010 A 
ATOM     22  C   UNL A   1      32.105  20.061  21.836  1.00  0.00     0.001 A 
BRANCH  18  23
ATOM     23  O   UNL A   1      33.101  18.584  25.609  1.00  0.00    -0.494 OA
BRANCH  23  24
ATOM     24  C   UNL A   1      33.611  17.091  25.690  1.00  0.00     0.226 C 
ATOM     25  C   UNL A   1      32.363  15.183  25.686  1.00  0.00     0.049 C 
ENDBRANCH  23  24
ENDBRANCH  18  23
ENDBRANCH   9  17
BRANCH  15  26
ATOM     26  C   UNL A   1      33.169  26.507  22.718  1.00  0.00     0.261 C 
ATOM     27  O   UNL A   1      33.544  26.460  21.548  1.00  0.00    -0.269 OA
ATOM     28  N   UNL A   1      33.067  27.733  23.342  1.00  0.00    -0.322 N 
ATOM     29  H   UNL A   1      33.102  28.514  22.744  1.00  0.00     0.170 HD
BRANCH  28  30
ATOM     30  C   UNL A   1      32.920  28.030  24.705  1.00  0.00     0.041 A 
ATOM     31  C   UNL A   1      34.044  28.478  25.402  1.00  0.00     0.026 A 
ATOM     32  C   UNL A   1      31.688  27.935  25.362  1.00  0.00     0.026 A 
ATOM     33  C   UNL A   1      33.907  28.957  26.707  1.00  0.00     0.002 A 
ATOM     34  C   UNL A   1      31.559  28.395  26.677  1.00  0.00     0.002 A 
ATOM     35  C   UNL A   1      32.663  28.930  27.338  1.00  0.00     0.000 A 
ENDBRANCH  28  30
ENDBRANCH  15  26
ENDBRANCH   5   8
ENDBRANCH   3   4
ENDBRANCH   2   3
ENDBRANCH   1   2
BRANCH   1  36
ATOM     36  C   UNL A   1      40.817  19.646  26.566  1.00  0.00     0.002 C 
BRANCH  36  37
ATOM     37  C   UNL A   1      42.079  19.220  25.792  1.00  0.00     0.021 C 
BRANCH  37  38
ATOM     38  C   UNL A   1      43.327  19.286  26.637  1.00  0.00     0.116 C 
BRANCH  38  39
ATOM     39  N   UNL A   1      44.530  19.284  25.816  1.00  0.00    -0.352 N 
ATOM     40  C   UNL A   1      44.961  20.286  24.971  1.00  0.00     0.251 C 
ATOM     41  H   UNL A   1      45.098  18.480  25.870  1.00  0.00     0.163 HD
ATOM     42  O   UNL A   1      45.713  20.059  24.033  1.00  0.00    -0.269 OA
BRANCH  40  43
ATOM     43  C   UNL A   1      44.553  21.659  25.303  1.00  0.00     0.039 A 
ATOM     44  C   UNL A   1      43.581  22.400  24.632  1.00  0.00     0.014 A 
ATOM     45  C   UNL A   1      45.250  22.249  26.341  1.00  0.00     0.014 A 
ATOM     46  C   UNL A   1      43.381  23.730  25.040  1.00  0.00     0.010 A 
ATOM     47  C   UNL A   1      44.639  23.259  27.003  1.00  0.00     0.010 A 
ATOM     48  C   UNL A   1      44.021  24.190  26.207  1.00  0.00    -0.014 A 
BRANCH  48  49
ATOM     49  C   UNL A   1      43.740  25.432  26.927  1.00  0.00     0.031 A 
ATOM     50  C   UNL A   1      44.751  26.457  26.530  1.00  0.00     0.074 A 
ATOM     51  C   UNL A   1      42.603  25.631  27.660  1.00  0.00     0.049 A 
ATOM     52  N   UNL A   1      45.832  26.721  27.188  1.00  0.00    -0.248 NA
ATOM     53  C   UNL A   1      44.788  27.006  25.156  1.00  0.00     0.031 C 
ATOM     54  C   UNL A   1      41.472  24.714  27.915  1.00  0.00     0.029 A 
ATOM     55  N   UNL A   1      42.209  26.739  28.382  1.00  0.00    -0.354 N 
ATOM     56  C   UNL A   1      46.477  27.726  26.474  1.00  0.00     0.074 A 
ATOM     57  C   UNL A   1      45.966  27.640  25.141  1.00  0.00     0.031 C 
ATOM     58  C   UNL A   1      40.446  25.365  28.529  1.00  0.00     0.029 A 
ATOM     59  C   UNL A   1      40.868  26.713  28.859  1.00  0.00     0.049 A 
ATOM     60  H   UNL A   1      42.814  27.498  28.555  1.00  0.00     0.167 HD
ATOM     61  C   UNL A   1      47.043  28.759  27.164  1.00  0.00     0.037 A 
ATOM     62  C   UNL A   1      40.231  27.693  29.581  1.00  0.00     0.037 A 
ATOM     63  C   UNL A   1      47.115  28.396  28.562  1.00  0.00     0.049 A 
ATOM     64  C   UNL A   1      41.314  28.505  30.179  1.00  0.00     0.074 A 
ATOM     65  C   UNL A   1      47.829  27.492  29.319  1.00  0.00     0.029 A 
ATOM     66  N   UNL A   1      45.943  28.645  29.229  1.00  0.00    -0.354 N 
ATOM     67  N   UNL A   1      42.125  28.031  31.082  1.00  0.00    -0.248 NA
ATOM     68  C   UNL A   1      41.809  29.611  29.380  1.00  0.00     0.031 C 
ATOM     69  C   UNL A   1      46.926  27.032  30.327  1.00  0.00     0.029 A 
ATOM     70  C   UNL A   1      45.748  27.773  30.258  1.00  0.00     0.049 A 
ATOM     71  H   UNL A   1      45.318  29.368  28.993  1.00  0.00     0.167 HD
ATOM     72  C   UNL A   1      43.376  28.448  30.659  1.00  0.00     0.074 A 
ATOM     73  C   UNL A   1      43.110  29.488  29.654  1.00  0.00     0.031 C 
ATOM     74  C   UNL A   1      44.471  27.670  30.917  1.00  0.00     0.037 A 
BRANCH  61  75
ATOM     75  C   UNL A   1      46.978  30.226  26.759  1.00  0.00     0.064 A 
ATOM     76  C   UNL A   1      48.154  31.000  26.884  1.00  0.00     0.173 A 
ATOM     77  C   UNL A   1      45.793  30.969  26.570  1.00  0.00     0.173 A 
ATOM     78  F   UNL A   1      49.343  30.408  27.074  1.00  0.00    -0.203 F 
ATOM     79  C   UNL A   1      48.129  32.399  26.904  1.00  0.00     0.198 A 
ATOM     80  C   UNL A   1      45.778  32.366  26.548  1.00  0.00     0.198 A 
ATOM     81  F   UNL A   1      44.587  30.399  26.497  1.00  0.00    -0.203 F 
ATOM     82  F   UNL A   1      49.256  33.082  27.144  1.00  0.00    -0.200 F 
ATOM     83  C   UNL A   1      46.939  33.081  26.744  1.00  0.00     0.200 A 
ATOM     84  F   UNL A   1      44.608  33.009  26.412  1.00  0.00    -0.200 F 
ATOM     85  F   UNL A   1      46.902  34.418  26.817  1.00  0.00    -0.200 F 
ENDBRANCH  61  75
BRANCH  62  86
ATOM     86  C   UNL A   1      38.838  28.252  29.545  1.00  0.00     0.064 A 
ATOM     87  C   UNL A   1      38.091  28.537  30.716  1.00  0.00     0.173 A 
ATOM     88  C   UNL A   1      38.369  28.861  28.371  1.00  0.00     0.173 A 
ATOM     89  F   UNL A   1      38.491  28.064  31.906  1.00  0.00    -0.203 F 
ATOM     90  C   UNL A   1      36.963  29.381  30.703  1.00  0.00     0.198 A 
ATOM     91  C   UNL A   1      37.255  29.715  28.361  1.00  0.00     0.198 A 
ATOM     92  F   UNL A   1      39.058  28.730  27.229  1.00  0.00    -0.203 F 
ATOM     93  F   UNL A   1      36.312  29.665  31.842  1.00  0.00    -0.200 F 
ATOM     94  C   UNL A   1      36.556  29.981  29.525  1.00  0.00     0.200 A 
ATOM     95  F   UNL A   1      36.909  30.337  27.225  1.00  0.00    -0.200 F 
ATOM     96  F   UNL A   1      35.529  30.844  29.516  1.00  0.00    -0.200 F 
ENDBRANCH  62  86
BRANCH  74  97
ATOM     97  C   UNL A   1      44.318  26.572  31.934  1.00  0.00     0.064 A 
ATOM     98  C   UNL A   1      44.139  25.207  31.649  1.00  0.00     0.173 A 
ATOM     99  C   UNL A   1      44.491  26.931  33.275  1.00  0.00     0.173 A 
ATOM    100  F   UNL A   1      44.058  24.770  30.386  1.00  0.00    -0.203 F 
ATOM    101  C   UNL A   1      44.095  24.256  32.672  1.00  0.00     0.198 A 
ATOM    102  C   UNL A   1      44.482  25.982  34.287  1.00  0.00     0.198 A 
ATOM    103  F   UNL A   1      44.724  28.214  33.593  1.00  0.00    -0.203 F 
ATOM    104  F   UNL A   1      43.918  22.957  32.382  1.00  0.00    -0.200 F 
ATOM    105  C   UNL A   1      44.270  24.646  33.990  1.00  0.00     0.200 A 
ATOM    106  F   UNL A   1      44.712  26.363  35.550  1.00  0.00    -0.200 F 
ATOM    107  F   UNL A   1      44.259  23.735  34.973  1.00  0.00    -0.200 F 
ENDBRANCH  74  97
ENDBRANCH  48  49
ENDBRANCH  40  43
ENDBRANCH  38  39
ENDBRANCH  37  38
ENDBRANCH  36  37
ENDBRANCH   1  36
TORSDOF 18
ENDMDL
MODEL 2
REMARK VINA RESULT:     -13.0      4.211     10.285
REMARK SMILES CCOc1ccccc1[C@H]1CC(C(=O)NCCCCCCNC(=O)c2ccc(-c3c4nc(c(-c5c(F)c(F)c(F)c(F)c5F)c5ccc([nH]5)c(-c5c(F)c(F)c(F)c(F)c5F)c5nc(c(-c6c(F)c(F)c(F)c(F)c6F)c6ccc3[nH]6)C=C5)C=C4)cc2)=Nc2c(C(=O)Nc3ccccc3)cnn21
REMARK SMILES IDX 18 1 17 2 16 3 15 4 13 5 14 6 12 8 10 9 11 10 102 11 89 12
REMARK SMILES IDX 101 13 88 14 90 15 100 16 9 17 4 18 5 19 6 20 8 21 7 22 3 23
REMARK SMILES IDX 2 24 1 25 91 26 92 27 93 28 94 30 95 31 99 32 96 33 98 34
REMARK SMILES IDX 97 35 19 36 20 37 21 38 22 39 23 40 24 42 25 43 26 44 87 45
REMARK SMILES IDX 27 46 86 47 28 48 29 49 30 50 80 51 31 52 85 53 79 54 81 55
REMARK SMILES IDX 32 56 84 57 78 58 77 59 33 61 65 62 45 63 64 64 46 65 49 66
REMARK SMILES IDX 63 67 82 68 47 69 48 70 62 72 83 73 50 74 34 75 35 76 43 77
REMARK SMILES IDX 36 78 37 79 41 80 44 81 38 82 39 83 42 84 40 85 66 86 67 87
REMARK SMILES IDX 75 88 68 89 69 90 73 91 76 92 70 93 71 94 74 95 72 96 51 97
REMARK SMILES IDX 52 98 60 99 53 100 54 101 58 102 61 103 55 104 56 105 59 106
REMARK SMILES IDX 57 107
REMARK H PARENT 15 7 93 29 22 41 81 60 49 71
REMARK Flexibility Score: inf
ROOT
ATOM      1  C   UNL A   1      32.896  32.887  27.910  1.00  0.00     0.002 C 
ENDROOT
BRANCH   1   2
ATOM      2  C   UNL A   1      31.791  32.666  26.887  1.00  0.00     0.021 C 
BRANCH   2   3
ATOM      3  C   UNL A   1      31.654  31.211  26.489  1.00  0.00     0.116 C 
BRANCH   3   4
ATOM      4  N   UNL A   1      32.509  30.331  27.247  1.00  0.00    -0.351 N 
ATOM      5  C   UNL A   1      33.238  29.252  26.811  1.00  0.00     0.265 C 
ATOM      6  O   UNL A   1      34.357  29.063  27.272  1.00  0.00    -0.268 OA
ATOM      7  H   UNL A   1      32.579  30.530  28.208  1.00  0.00     0.163 HD
BRANCH   5   8
ATOM      8  C   UNL A   1      32.608  28.226  25.860  1.00  0.00     0.110 C 
ATOM      9  C   UNL A   1      31.292  27.912  23.533  1.00  0.00     0.150 C 
ATOM     10  C   UNL A   1      31.810  28.756  24.692  1.00  0.00     0.094 C 
ATOM     11  N   UNL A   1      31.683  26.547  23.727  1.00  0.00    -0.239 N 
ATOM     12  C   UNL A   1      32.175  26.055  25.434  1.00  0.00     0.164 A 
ATOM     13  N   UNL A   1      31.266  25.034  22.714  1.00  0.00    -0.178 NA
ATOM     14  N   UNL A   1      32.733  26.990  26.219  1.00  0.00    -0.227 NA
ATOM     15  C   UNL A   1      31.983  24.297  25.546  1.00  0.00     0.104 A 
ATOM     16  C   UNL A   1      31.474  23.675  23.768  1.00  0.00     0.151 A 
BRANCH   9  17
ATOM     17  C   UNL A   1      29.791  28.053  23.441  1.00  0.00     0.019 A 
ATOM     18  C   UNL A   1      29.191  29.187  22.902  1.00  0.00     0.124 A 
ATOM     19  C   UNL A   1      27.795  29.296  22.903  1.00  0.00     0.047 A 
ATOM     20  C   UNL A   1      26.989  28.266  23.395  1.00  0.00     0.004 A 
ATOM     21  C   UNL A   1      28.964  27.013  23.937  1.00  0.00     0.010 A 
ATOM     22  C   UNL A   1      27.574  27.115  23.904  1.00  0.00     0.001 A 
BRANCH  18  23
ATOM     23  O   UNL A   1      29.869  30.294  22.477  1.00  0.00    -0.494 OA
BRANCH  23  24
ATOM     24  C   UNL A   1      29.112  31.611  22.041  1.00  0.00     0.226 C 
ATOM     25  C   UNL A   1      29.024  33.604  23.144  1.00  0.00     0.049 C 
ENDBRANCH  23  24
ENDBRANCH  18  23
ENDBRANCH   9  17
BRANCH  15  26
ATOM     26  C   UNL A   1      32.282  23.404  26.663  1.00  0.00     0.261 C 
ATOM     27  O   UNL A   1      31.468  23.276  27.575  1.00  0.00    -0.269 OA
ATOM     28  N   UNL A   1      33.418  22.620  26.660  1.00  0.00    -0.322 N 
ATOM     29  H   UNL A   1      33.404  21.858  27.282  1.00  0.00     0.170 HD
BRANCH  28  30
ATOM     30  C   UNL A   1      34.589  22.751  25.900  1.00  0.00     0.041 A 
ATOM     31  C   UNL A   1      35.489  23.759  26.254  1.00  0.00     0.026 A 
ATOM     32  C   UNL A   1      34.896  21.886  24.844  1.00  0.00     0.026 A 
ATOM     33  C   UNL A   1      36.746  23.813  25.646  1.00  0.00     0.002 A 
ATOM     34  C   UNL A   1      36.147  21.957  24.223  1.00  0.00     0.002 A 
ATOM     35  C   UNL A   1      37.080  22.903  24.643  1.00  0.00     0.000 A 
ENDBRANCH  28  30
ENDBRANCH  15  26
ENDBRANCH   5   8
ENDBRANCH   3   4
ENDBRANCH   2   3
ENDBRANCH   1   2
BRANCH   1  36
ATOM     36  C   UNL A   1      33.377  34.346  28.018  1.00  0.00     0.002 C 
BRANCH  36  37
ATOM     37  C   UNL A   1      34.009  34.760  29.362  1.00  0.00     0.021 C 
BRANCH  37  38
ATOM     38  C   UNL A   1      32.991  34.880  30.468  1.00  0.00     0.116 C 
BRANCH  38  39
ATOM     39  N   UNL A   1      33.399  35.860  31.466  1.00  0.00    -0.352 N 
ATOM     40  C   UNL A   1      34.159  35.629  32.594  1.00  0.00     0.251 C 
ATOM     41  H   UNL A   1      33.100  36.787  31.320  1.00  0.00     0.163 HD
ATOM     42  O   UNL A   1      34.110  36.368  33.567  1.00  0.00    -0.269 OA
BRANCH  40  43
ATOM     43  C   UNL A   1      35.107  34.506  32.541  1.00  0.00     0.039 A 
ATOM     44  C   UNL A   1      34.767  33.155  32.607  1.00  0.00     0.014 A 
ATOM     45  C   UNL A   1      36.441  34.860  32.471  1.00  0.00     0.014 A 
ATOM     46  C   UNL A   1      35.817  32.221  32.623  1.00  0.00     0.010 A 
ATOM     47  C   UNL A   1      37.296  33.954  31.942  1.00  0.00     0.010 A 
ATOM     48  C   UNL A   1      37.132  32.666  32.385  1.00  0.00    -0.014 A 
BRANCH  48  49
ATOM     49  C   UNL A   1      38.301  31.833  32.106  1.00  0.00     0.031 A 
ATOM     50  C   UNL A   1      38.982  31.513  33.396  1.00  0.00     0.074 A 
ATOM     51  C   UNL A   1      38.555  31.289  30.877  1.00  0.00     0.049 A 
ATOM     52  N   UNL A   1      39.988  32.164  33.881  1.00  0.00    -0.248 NA
ATOM     53  C   UNL A   1      38.337  30.649  34.410  1.00  0.00     0.031 C 
ATOM     54  C   UNL A   1      37.796  31.411  29.616  1.00  0.00     0.029 A 
ATOM     55  N   UNL A   1      39.606  30.490  30.474  1.00  0.00    -0.354 N 
ATOM     56  C   UNL A   1      40.302  31.539  35.083  1.00  0.00     0.074 A 
ATOM     57  C   UNL A   1      39.115  30.847  35.480  1.00  0.00     0.031 C 
ATOM     58  C   UNL A   1      38.275  30.552  28.673  1.00  0.00     0.029 A 
ATOM     59  C   UNL A   1      39.470  29.907  29.182  1.00  0.00     0.049 A 
ATOM     60  H   UNL A   1      40.397  30.333  31.041  1.00  0.00     0.167 HD
ATOM     61  C   UNL A   1      41.617  31.334  35.391  1.00  0.00     0.037 A 
ATOM     62  C   UNL A   1      40.360  29.066  28.560  1.00  0.00     0.037 A 
ATOM     63  C   UNL A   1      42.429  32.130  34.497  1.00  0.00     0.049 A 
ATOM     64  C   UNL A   1      41.654  29.289  29.243  1.00  0.00     0.074 A 
ATOM     65  C   UNL A   1      42.675  33.474  34.309  1.00  0.00     0.029 A 
ATOM     66  N   UNL A   1      42.654  31.506  33.297  1.00  0.00    -0.354 N 
ATOM     67  N   UNL A   1      42.298  30.420  29.165  1.00  0.00    -0.248 NA
ATOM     68  C   UNL A   1      41.916  28.474  30.415  1.00  0.00     0.031 C 
ATOM     69  C   UNL A   1      42.812  33.648  32.897  1.00  0.00     0.029 A 
ATOM     70  C   UNL A   1      42.801  32.399  32.279  1.00  0.00     0.049 A 
ATOM     71  H   UNL A   1      42.703  30.529  33.185  1.00  0.00     0.167 HD
ATOM     72  C   UNL A   1      42.677  30.679  30.470  1.00  0.00     0.074 A 
ATOM     73  C   UNL A   1      42.489  29.406  31.182  1.00  0.00     0.031 C 
ATOM     74  C   UNL A   1      42.773  31.973  30.902  1.00  0.00     0.037 A 
BRANCH  61  75
ATOM     75  C   UNL A   1      42.186  30.067  36.015  1.00  0.00     0.064 A 
ATOM     76  C   UNL A   1      43.241  30.203  36.946  1.00  0.00     0.173 A 
ATOM     77  C   UNL A   1      41.987  28.757  35.529  1.00  0.00     0.173 A 
ATOM     78  F   UNL A   1      43.534  31.401  37.474  1.00  0.00    -0.203 F 
ATOM     79  C   UNL A   1      44.076  29.135  37.291  1.00  0.00     0.198 A 
ATOM     80  C   UNL A   1      42.795  27.683  35.910  1.00  0.00     0.198 A 
ATOM     81  F   UNL A   1      41.075  28.463  34.597  1.00  0.00    -0.203 F 
ATOM     82  F   UNL A   1      45.133  29.345  38.086  1.00  0.00    -0.200 F 
ATOM     83  C   UNL A   1      43.856  27.877  36.766  1.00  0.00     0.200 A 
ATOM     84  F   UNL A   1      42.578  26.474  35.371  1.00  0.00    -0.200 F 
ATOM     85  F   UNL A   1      44.684  26.863  37.051  1.00  0.00    -0.200 F 
ENDBRANCH  61  75
BRANCH  62  86
ATOM     86  C   UNL A   1      40.190  27.840  27.710  1.00  0.00     0.064 A 
ATOM     87  C   UNL A   1      40.999  27.569  26.577  1.00  0.00     0.173 A 
ATOM     88  C   UNL A   1      39.479  26.741  28.217  1.00  0.00     0.173 A 
ATOM     89  F   UNL A   1      41.776  28.529  26.055  1.00  0.00    -0.203 F 
ATOM     90  C   UNL A   1      41.091  26.283  26.009  1.00  0.00     0.198 A 
ATOM     91  C   UNL A   1      39.583  25.457  27.660  1.00  0.00     0.198 A 
ATOM     92  F   UNL A   1      38.758  26.871  29.339  1.00  0.00    -0.203 F 
ATOM     93  F   UNL A   1      41.907  26.057  24.967  1.00  0.00    -0.200 F 
ATOM     94  C   UNL A   1      40.392  25.225  26.561  1.00  0.00     0.200 A 
ATOM     95  F   UNL A   1      38.949  24.430  28.243  1.00  0.00    -0.200 F 
ATOM     96  F   UNL A   1      40.532  23.983  26.073  1.00  0.00    -0.200 F 
ENDBRANCH  62  86
BRANCH  74  97
ATOM     97  C   UNL A   1      42.790  33.054  29.857  1.00  0.00     0.064 A 
ATOM     98  C   UNL A   1      41.732  33.934  29.566  1.00  0.00     0.173 A 
ATOM     99  C   UNL A   1      44.008  33.275  29.205  1.00  0.00     0.173 A 
ATOM    100  F   UNL A   1      40.564  33.847  30.214  1.00  0.00    -0.203 F 
ATOM    101  C   UNL A   1      41.885  34.962  28.632  1.00  0.00     0.198 A 
ATOM    102  C   UNL A   1      44.168  34.319  28.304  1.00  0.00     0.198 A 
ATOM    103  F   UNL A   1      45.065  32.500  29.493  1.00  0.00    -0.203 F 
ATOM    104  F   UNL A   1      40.862  35.789  28.363  1.00  0.00    -0.200 F 
ATOM    105  C   UNL A   1      43.105  35.154  28.004  1.00  0.00     0.200 A 
ATOM    106  F   UNL A   1      45.368  34.531  27.748  1.00  0.00    -0.200 F 
ATOM    107  F   UNL A   1      43.266  36.157  27.130  1.00  0.00    -0.200 F 
ENDBRANCH  74  97
ENDBRANCH  48  49
ENDBRANCH  40  43
ENDBRANCH  38  39
ENDBRANCH  37  38
ENDBRANCH  36  37
ENDBRANCH   1  36
TORSDOF 18
ENDMDL
MODEL 3
REMARK VINA RESULT:     -12.7      3.468      9.103
REMARK SMILES CCOc1ccccc1[C@H]1CC(C(=O)NCCCCCCNC(=O)c2ccc(-c3c4nc(c(-c5c(F)c(F)c(F)c(F)c5F)c5ccc([nH]5)c(-c5c(F)c(F)c(F)c(F)c5F)c5nc(c(-c6c(F)c(F)c(F)c(F)c6F)c6ccc3[nH]6)C=C5)C=C4)cc2)=Nc2c(C(=O)Nc3ccccc3)cnn21
REMARK SMILES IDX 18 1 17 2 16 3 15 4 13 5 14 6 12 8 10 9 11 10 102 11 89 12
REMARK SMILES IDX 101 13 88 14 90 15 100 16 9 17 4 18 5 19 6 20 8 21 7 22 3 23
REMARK SMILES IDX 2 24 1 25 91 26 92 27 93 28 94 30 95 31 99 32 96 33 98 34
REMARK SMILES IDX 97 35 19 36 20 37 21 38 22 39 23 40 24 42 25 43 26 44 87 45
REMARK SMILES IDX 27 46 86 47 28 48 29 49 30 50 80 51 31 52 85 53 79 54 81 55
REMARK SMILES IDX 32 56 84 57 78 58 77 59 33 61 65 62 45 63 64 64 46 65 49 66
REMARK SMILES IDX 63 67 82 68 47 69 48 70 62 72 83 73 50 74 34 75 35 76 43 77
REMARK SMILES IDX 36 78 37 79 41 80 44 81 38 82 39 83 42 84 40 85 66 86 67 87
REMARK SMILES IDX 75 88 68 89 69 90 73 91 76 92 70 93 71 94 74 95 72 96 51 97
REMARK SMILES IDX 52 98 60 99 53 100 54 101 58 102 61 103 55 104 56 105 59 106
REMARK SMILES IDX 57 107
REMARK H PARENT 15 7 93 29 22 41 81 60 49 71
REMARK Flexibility Score: inf
ROOT
ATOM      1  C   UNL A   1      36.083  30.281  29.132  1.00  0.00     0.002 C 
ENDROOT
BRANCH   1   2
ATOM      2  C   UNL A   1      36.507  29.382  27.979  1.00  0.00     0.021 C 
BRANCH   2   3
ATOM      3  C   UNL A   1      35.333  28.929  27.137  1.00  0.00     0.116 C 
BRANCH   3   4
ATOM      4  N   UNL A   1      34.371  29.974  26.891  1.00  0.00    -0.351 N 
ATOM      5  C   UNL A   1      33.021  29.868  26.667  1.00  0.00     0.265 C 
ATOM      6  O   UNL A   1      32.266  30.698  27.161  1.00  0.00    -0.268 OA
ATOM      7  H   UNL A   1      34.731  30.890  26.883  1.00  0.00     0.163 HD
BRANCH   5   8
ATOM      8  C   UNL A   1      32.478  28.803  25.706  1.00  0.00     0.110 C 
ATOM      9  C   UNL A   1      31.227  28.402  23.356  1.00  0.00     0.150 C 
ATOM     10  C   UNL A   1      31.667  29.278  24.524  1.00  0.00     0.094 C 
ATOM     11  N   UNL A   1      31.706  27.067  23.557  1.00  0.00    -0.239 N 
ATOM     12  C   UNL A   1      32.202  26.608  25.272  1.00  0.00     0.164 A 
ATOM     13  N   UNL A   1      31.411  25.530  22.537  1.00  0.00    -0.178 NA
ATOM     14  N   UNL A   1      32.681  27.578  26.067  1.00  0.00    -0.227 NA
ATOM     15  C   UNL A   1      32.129  24.840  25.381  1.00  0.00     0.104 A 
ATOM     16  C   UNL A   1      31.693  24.188  23.594  1.00  0.00     0.151 A 
BRANCH   9  17
ATOM     17  C   UNL A   1      29.722  28.441  23.239  1.00  0.00     0.019 A 
ATOM     18  C   UNL A   1      29.061  29.485  22.599  1.00  0.00     0.124 A 
ATOM     19  C   UNL A   1      27.661  29.507  22.577  1.00  0.00     0.047 A 
ATOM     20  C   UNL A   1      26.913  28.474  23.148  1.00  0.00     0.004 A 
ATOM     21  C   UNL A   1      28.953  27.397  23.814  1.00  0.00     0.010 A 
ATOM     22  C   UNL A   1      27.560  27.409  23.759  1.00  0.00     0.001 A 
BRANCH  18  23
ATOM     23  O   UNL A   1      29.675  30.593  22.087  1.00  0.00    -0.494 OA
BRANCH  23  24
ATOM     24  C   UNL A   1      28.952  31.997  22.049  1.00  0.00     0.226 C 
ATOM     25  C   UNL A   1      29.349  33.813  23.368  1.00  0.00     0.049 C 
ENDBRANCH  23  24
ENDBRANCH  18  23
ENDBRANCH   9  17
BRANCH  15  26
ATOM     26  C   UNL A   1      32.468  23.968  26.502  1.00  0.00     0.261 C 
ATOM     27  O   UNL A   1      31.723  23.914  27.479  1.00  0.00    -0.269 OA
ATOM     28  N   UNL A   1      33.558  23.125  26.439  1.00  0.00    -0.322 N 
ATOM     29  H   UNL A   1      33.555  22.384  27.088  1.00  0.00     0.170 HD
BRANCH  28  30
ATOM     30  C   UNL A   1      34.671  23.168  25.587  1.00  0.00     0.041 A 
ATOM     31  C   UNL A   1      35.762  23.950  25.974  1.00  0.00     0.026 A 
ATOM     32  C   UNL A   1      34.735  22.426  24.402  1.00  0.00     0.026 A 
ATOM     33  C   UNL A   1      36.956  23.882  25.253  1.00  0.00     0.002 A 
ATOM     34  C   UNL A   1      35.926  22.376  23.671  1.00  0.00     0.002 A 
ATOM     35  C   UNL A   1      37.043  23.084  24.111  1.00  0.00     0.000 A 
ENDBRANCH  28  30
ENDBRANCH  15  26
ENDBRANCH   5   8
ENDBRANCH   3   4
ENDBRANCH   2   3
ENDBRANCH   1   2
BRANCH   1  36
ATOM     36  C   UNL A   1      36.619  29.843  30.507  1.00  0.00     0.002 C 
BRANCH  36  37
ATOM     37  C   UNL A   1      36.469  30.860  31.655  1.00  0.00     0.021 C 
BRANCH  37  38
ATOM     38  C   UNL A   1      37.736  31.639  31.908  1.00  0.00     0.116 C 
BRANCH  38  39
ATOM     39  N   UNL A   1      38.017  32.569  30.822  1.00  0.00    -0.352 N 
ATOM     40  C   UNL A   1      39.240  32.807  30.228  1.00  0.00     0.251 C 
ATOM     41  H   UNL A   1      37.252  33.083  30.474  1.00  0.00     0.163 HD
ATOM     42  O   UNL A   1      39.479  33.855  29.644  1.00  0.00    -0.269 OA
BRANCH  40  43
ATOM     43  C   UNL A   1      40.214  31.705  30.243  1.00  0.00     0.039 A 
ATOM     44  C   UNL A   1      41.503  31.772  30.768  1.00  0.00     0.014 A 
ATOM     45  C   UNL A   1      39.797  30.539  29.629  1.00  0.00     0.014 A 
ATOM     46  C   UNL A   1      42.324  30.641  30.620  1.00  0.00     0.010 A 
ATOM     47  C   UNL A   1      40.395  29.388  30.016  1.00  0.00     0.010 A 
ATOM     48  C   UNL A   1      41.761  29.447  30.128  1.00  0.00    -0.014 A 
BRANCH  48  49
ATOM     49  C   UNL A   1      42.372  28.119  30.147  1.00  0.00     0.031 A 
ATOM     50  C   UNL A   1      42.735  27.776  31.555  1.00  0.00     0.074 A 
ATOM     51  C   UNL A   1      42.384  27.285  29.062  1.00  0.00     0.049 A 
ATOM     52  N   UNL A   1      43.904  27.946  32.078  1.00  0.00    -0.248 NA
ATOM     53  C   UNL A   1      41.693  27.551  32.582  1.00  0.00     0.031 C 
ATOM     54  C   UNL A   1      41.854  27.501  27.701  1.00  0.00     0.029 A 
ATOM     55  N   UNL A   1      42.917  26.018  28.938  1.00  0.00    -0.354 N 
ATOM     56  C   UNL A   1      43.802  27.503  33.392  1.00  0.00     0.074 A 
ATOM     57  C   UNL A   1      42.409  27.561  33.712  1.00  0.00     0.031 C 
ATOM     58  C   UNL A   1      41.889  26.350  26.975  1.00  0.00     0.029 A 
ATOM     59  C   UNL A   1      42.575  25.327  27.741  1.00  0.00     0.049 A 
ATOM     60  H   UNL A   1      43.493  25.618  29.630  1.00  0.00     0.167 HD
ATOM     61  C   UNL A   1      44.821  26.759  33.913  1.00  0.00     0.037 A 
ATOM     62  C   UNL A   1      42.959  24.056  27.386  1.00  0.00     0.037 A 
ATOM     63  C   UNL A   1      45.968  26.870  33.038  1.00  0.00     0.049 A 
ATOM     64  C   UNL A   1      44.154  23.763  28.207  1.00  0.00     0.074 A 
ATOM     65  C   UNL A   1      46.860  27.861  32.691  1.00  0.00     0.029 A 
ATOM     66  N   UNL A   1      45.914  25.988  31.989  1.00  0.00    -0.354 N 
ATOM     67  N   UNL A   1      45.279  24.404  28.056  1.00  0.00    -0.248 NA
ATOM     68  C   UNL A   1      43.914  23.175  29.512  1.00  0.00     0.031 C 
ATOM     69  C   UNL A   1      47.139  27.662  31.302  1.00  0.00     0.029 A 
ATOM     70  C   UNL A   1      46.539  26.477  30.881  1.00  0.00     0.049 A 
ATOM     71  H   UNL A   1      45.475  25.108  32.032  1.00  0.00     0.167 HD
ATOM     72  C   UNL A   1      45.668  24.704  29.350  1.00  0.00     0.074 A 
ATOM     73  C   UNL A   1      44.834  23.850  30.207  1.00  0.00     0.031 C 
ATOM     74  C   UNL A   1      46.374  25.850  29.594  1.00  0.00     0.037 A 
BRANCH  61  75
ATOM     75  C   UNL A   1      44.650  25.528  34.794  1.00  0.00     0.064 A 
ATOM     76  C   UNL A   1      45.280  25.526  36.059  1.00  0.00     0.173 A 
ATOM     77  C   UNL A   1      44.193  24.267  34.354  1.00  0.00     0.173 A 
ATOM     78  F   UNL A   1      45.764  26.662  36.582  1.00  0.00    -0.203 F 
ATOM     79  C   UNL A   1      45.507  24.348  36.779  1.00  0.00     0.198 A 
ATOM     80  C   UNL A   1      44.383  23.098  35.096  1.00  0.00     0.198 A 
ATOM     81  F   UNL A   1      43.632  24.079  33.155  1.00  0.00    -0.203 F 
ATOM     82  F   UNL A   1      46.213  24.387  37.916  1.00  0.00    -0.200 F 
ATOM     83  C   UNL A   1      45.065  23.133  36.292  1.00  0.00     0.200 A 
ATOM     84  F   UNL A   1      43.965  21.926  34.595  1.00  0.00    -0.200 F 
ATOM     85  F   UNL A   1      45.327  21.997  36.951  1.00  0.00    -0.200 F 
ENDBRANCH  61  75
BRANCH  62  86
ATOM     86  C   UNL A   1      42.245  22.921  26.711  1.00  0.00     0.064 A 
ATOM     87  C   UNL A   1      42.906  21.744  26.275  1.00  0.00     0.173 A 
ATOM     88  C   UNL A   1      40.849  22.819  26.821  1.00  0.00     0.173 A 
ATOM     89  F   UNL A   1      44.244  21.708  26.202  1.00  0.00    -0.203 F 
ATOM     90  C   UNL A   1      42.210  20.554  25.986  1.00  0.00     0.198 A 
ATOM     91  C   UNL A   1      40.158  21.629  26.548  1.00  0.00     0.198 A 
ATOM     92  F   UNL A   1      40.141  23.846  27.312  1.00  0.00    -0.203 F 
ATOM     93  F   UNL A   1      42.877  19.446  25.624  1.00  0.00    -0.200 F 
ATOM     94  C   UNL A   1      40.836  20.495  26.137  1.00  0.00     0.200 A 
ATOM     95  F   UNL A   1      38.836  21.569  26.758  1.00  0.00    -0.200 F 
ATOM     96  F   UNL A   1      40.174  19.346  25.936  1.00  0.00    -0.200 F 
ENDBRANCH  62  86
BRANCH  74  97
ATOM     97  C   UNL A   1      46.982  26.556  28.413  1.00  0.00     0.064 A 
ATOM     98  C   UNL A   1      46.393  27.609  27.691  1.00  0.00     0.173 A 
ATOM     99  C   UNL A   1      48.298  26.211  28.087  1.00  0.00     0.173 A 
ATOM    100  F   UNL A   1      45.171  28.061  28.002  1.00  0.00    -0.203 F 
ATOM    101  C   UNL A   1      47.083  28.254  26.662  1.00  0.00     0.198 A 
ATOM    102  C   UNL A   1      48.995  26.876  27.088  1.00  0.00     0.198 A 
ATOM    103  F   UNL A   1      48.925  25.253  28.787  1.00  0.00    -0.203 F 
ATOM    104  F   UNL A   1      46.503  29.253  25.979  1.00  0.00    -0.200 F 
ATOM    105  C   UNL A   1      48.387  27.887  26.364  1.00  0.00     0.200 A 
ATOM    106  F   UNL A   1      50.273  26.553  26.850  1.00  0.00    -0.200 F 
ATOM    107  F   UNL A   1      49.064  28.522  25.399  1.00  0.00    -0.200 F 
ENDBRANCH  74  97
ENDBRANCH  48  49
ENDBRANCH  40  43
ENDBRANCH  38  39
ENDBRANCH  37  38
ENDBRANCH  36  37
ENDBRANCH   1  36
TORSDOF 18
ENDMDL
