MODEL 1
REMARK VINA RESULT:     -12.5      0.000      0.000
REMARK SMILES CCOc1ccc(-c2ccc(N3CCC[C@H](C(=O)NCCCCCCNC(=O)c4ccc(-c5c6nc(c(-c7c(F)c(F)c(F)c(F)c7F)c7ccc([nH]7)c(-c7c(F)c(F)c(F)c(F)c7F)c7nc(c(-c8c(F)c(F)c(F)c(F)c8F)c8ccc5[nH]8)C=C7)C=C6)cc4)C3)nn2)cc1
REMARK SMILES IDX 21 1 20 2 19 3 17 4 18 5 16 7 12 8 13 9 92 10 14 11 15 12
REMARK SMILES IDX 11 13 8 14 9 15 94 16 10 17 93 18 7 19 4 20 5 21 96 22 6 23
REMARK SMILES IDX 95 24 3 25 2 26 1 27 22 28 23 29 24 30 25 31 26 32 27 33
REMARK SMILES IDX 28 35 29 36 30 37 91 38 31 39 90 40 32 41 33 42 34 43 84 44
REMARK SMILES IDX 35 45 89 46 83 47 85 48 36 49 88 50 82 51 81 52 37 54 69 55
REMARK SMILES IDX 49 56 68 57 50 58 53 59 67 60 86 61 51 62 52 63 66 65 87 66
REMARK SMILES IDX 54 67 38 68 39 69 47 70 40 71 41 72 45 73 48 74 42 75 43 76
REMARK SMILES IDX 46 77 44 78 70 79 71 80 79 81 72 82 73 83 77 84 80 85 74 86
REMARK SMILES IDX 75 87 78 88 76 89 55 90 56 91 64 92 57 93 58 94 62 95 65 96
REMARK SMILES IDX 59 97 60 98 63 99 61 100
REMARK H PARENT 19 6 26 34 85 53 53 64
REMARK Flexibility Score: inf
ROOT
ATOM      1  C   UNL A   1      34.835  24.980  25.510  1.00  0.00     0.021 C 
ENDROOT
BRANCH   1   2
ATOM      2  C   UNL A   1      33.793  26.036  25.146  1.00  0.00     0.116 C 
BRANCH   2   3
ATOM      3  N   UNL A   1      33.205  26.694  26.288  1.00  0.00    -0.356 N 
ATOM      4  C   UNL A   1      31.918  27.060  26.519  1.00  0.00     0.224 C 
ATOM      5  O   UNL A   1      31.624  27.308  27.695  1.00  0.00    -0.275 OA
ATOM      6  H   UNL A   1      33.835  26.911  27.014  1.00  0.00     0.163 HD
BRANCH   4   7
ATOM      7  C   UNL A   1      30.838  27.195  25.438  1.00  0.00     0.098 C 
ATOM      8  N   UNL A   1      30.724  25.289  23.860  1.00  0.00    -0.354 N 
ATOM      9  C   UNL A   1      30.912  26.103  22.667  1.00  0.00     0.118 C 
ATOM     10  C   UNL A   1      30.148  25.889  25.054  1.00  0.00     0.131 C 
ATOM     11  C   UNL A   1      31.621  27.423  22.972  1.00  0.00     0.022 C 
ATOM     12  C   UNL A   1      31.172  28.112  24.259  1.00  0.00     0.017 C 
BRANCH   8  13
ATOM     13  C   UNL A   1      31.088  23.956  23.865  1.00  0.00     0.151 A 
ATOM     14  C   UNL A   1      32.162  21.413  23.902  1.00  0.00     0.093 A 
ATOM     15  C   UNL A   1      31.574  21.912  25.050  1.00  0.00     0.035 A 
ATOM     16  N   UNL A   1      32.155  22.129  22.763  1.00  0.00    -0.148 NA
ATOM     17  C   UNL A   1      31.044  23.200  25.028  1.00  0.00     0.051 A 
ATOM     18  N   UNL A   1      31.586  23.391  22.744  1.00  0.00    -0.132 NA
BRANCH  14  19
ATOM     19  C   UNL A   1      32.781  20.091  23.858  1.00  0.00     0.002 A 
ATOM     20  C   UNL A   1      33.877  17.506  23.828  1.00  0.00     0.119 A 
ATOM     21  C   UNL A   1      34.424  18.478  24.661  1.00  0.00     0.047 A 
ATOM     22  C   UNL A   1      32.774  17.802  23.034  1.00  0.00     0.047 A 
ATOM     23  C   UNL A   1      33.884  19.770  24.669  1.00  0.00     0.014 A 
ATOM     24  C   UNL A   1      32.239  19.090  23.037  1.00  0.00     0.014 A 
BRANCH  20  25
ATOM     25  O   UNL A   1      34.361  16.229  23.898  1.00  0.00    -0.494 OA
BRANCH  25  26
ATOM     26  C   UNL A   1      34.209  15.647  25.200  1.00  0.00     0.226 C 
ATOM     27  C   UNL A   1      32.800  15.118  25.419  1.00  0.00     0.049 C 
ENDBRANCH  25  26
ENDBRANCH  20  25
ENDBRANCH  14  19
ENDBRANCH   8  13
ENDBRANCH   4   7
ENDBRANCH   2   3
ENDBRANCH   1   2
BRANCH   1  28
ATOM     28  C   UNL A   1      34.725  23.683  24.706  1.00  0.00     0.002 C 
BRANCH  28  29
ATOM     29  C   UNL A   1      35.921  23.353  23.802  1.00  0.00     0.002 C 
BRANCH  29  30
ATOM     30  C   UNL A   1      36.780  22.158  24.227  1.00  0.00     0.021 C 
BRANCH  30  31
ATOM     31  C   UNL A   1      37.155  22.099  25.704  1.00  0.00     0.116 C 
BRANCH  31  32
ATOM     32  N   UNL A   1      38.143  21.073  25.989  1.00  0.00    -0.352 N 
ATOM     33  C   UNL A   1      39.451  21.171  26.384  1.00  0.00     0.251 C 
ATOM     34  H   UNL A   1      37.818  20.151  25.878  1.00  0.00     0.163 HD
ATOM     35  O   UNL A   1      40.147  20.160  26.406  1.00  0.00    -0.269 OA
BRANCH  33  36
ATOM     36  C   UNL A   1      40.045  22.468  26.782  1.00  0.00     0.039 A 
ATOM     37  C   UNL A   1      39.670  23.609  26.066  1.00  0.00     0.014 A 
ATOM     38  C   UNL A   1      41.017  22.566  27.782  1.00  0.00     0.014 A 
ATOM     39  C   UNL A   1      40.246  24.845  26.366  1.00  0.00     0.010 A 
ATOM     40  C   UNL A   1      41.544  23.812  28.127  1.00  0.00     0.010 A 
ATOM     41  C   UNL A   1      41.178  24.959  27.408  1.00  0.00    -0.014 A 
BRANCH  41  42
ATOM     42  C   UNL A   1      41.780  26.277  27.733  1.00  0.00     0.031 A 
ATOM     43  C   UNL A   1      43.154  26.634  27.238  1.00  0.00     0.074 A 
ATOM     44  C   UNL A   1      41.091  27.147  28.496  1.00  0.00     0.049 A 
ATOM     45  N   UNL A   1      43.823  27.750  27.389  1.00  0.00    -0.248 NA
ATOM     46  C   UNL A   1      43.884  25.594  26.499  1.00  0.00     0.031 C 
ATOM     47  C   UNL A   1      39.780  26.887  29.093  1.00  0.00     0.029 A 
ATOM     48  N   UNL A   1      41.397  28.421  28.901  1.00  0.00    -0.354 N 
ATOM     49  C   UNL A   1      45.054  27.539  26.779  1.00  0.00     0.074 A 
ATOM     50  C   UNL A   1      45.058  26.174  26.299  1.00  0.00     0.031 C 
ATOM     51  C   UNL A   1      39.381  27.979  29.765  1.00  0.00     0.029 A 
ATOM     52  C   UNL A   1      40.415  29.005  29.662  1.00  0.00     0.049 A 
ATOM     53  H   UNL A   1      42.240  28.874  28.669  1.00  0.00     0.167 HD
ATOM     54  C   UNL A   1      46.076  28.413  26.615  1.00  0.00     0.037 A 
ATOM     55  C   UNL A   1      40.350  30.236  30.205  1.00  0.00     0.037 A 
ATOM     56  C   UNL A   1      46.054  29.779  27.068  1.00  0.00     0.049 A 
ATOM     57  C   UNL A   1      41.472  31.205  29.960  1.00  0.00     0.074 A 
ATOM     58  C   UNL A   1      47.008  30.766  26.886  1.00  0.00     0.029 A 
ATOM     59  N   UNL A   1      45.022  30.351  27.797  1.00  0.00    -0.354 N 
ATOM     60  N   UNL A   1      42.592  31.025  29.301  1.00  0.00    -0.248 NA
ATOM     61  C   UNL A   1      41.314  32.556  30.516  1.00  0.00     0.031 C 
ATOM     62  C   UNL A   1      46.569  31.924  27.539  1.00  0.00     0.029 A 
ATOM     63  C   UNL A   1      45.322  31.672  28.088  1.00  0.00     0.049 A 
ATOM     64  H   UNL A   1      44.197  29.886  28.069  1.00  0.00     0.167 HD
ATOM     65  C   UNL A   1      43.258  32.242  29.342  1.00  0.00     0.074 A 
ATOM     66  C   UNL A   1      42.409  33.158  30.075  1.00  0.00     0.031 C 
ATOM     67  C   UNL A   1      44.465  32.571  28.818  1.00  0.00     0.037 A 
BRANCH  54  68
ATOM     68  C   UNL A   1      47.308  27.915  25.913  1.00  0.00     0.064 A 
ATOM     69  C   UNL A   1      47.376  27.835  24.513  1.00  0.00     0.173 A 
ATOM     70  C   UNL A   1      48.443  27.543  26.647  1.00  0.00     0.173 A 
ATOM     71  F   UNL A   1      46.314  28.170  23.765  1.00  0.00    -0.203 F 
ATOM     72  C   UNL A   1      48.525  27.371  23.877  1.00  0.00     0.198 A 
ATOM     73  C   UNL A   1      49.601  27.107  26.005  1.00  0.00     0.198 A 
ATOM     74  F   UNL A   1      48.435  27.606  27.986  1.00  0.00    -0.203 F 
ATOM     75  F   UNL A   1      48.549  27.255  22.542  1.00  0.00    -0.200 F 
ATOM     76  C   UNL A   1      49.637  27.014  24.622  1.00  0.00     0.200 A 
ATOM     77  F   UNL A   1      50.680  26.773  26.727  1.00  0.00    -0.200 F 
ATOM     78  F   UNL A   1      50.744  26.571  24.008  1.00  0.00    -0.200 F 
ENDBRANCH  54  68
BRANCH  55  79
ATOM     79  C   UNL A   1      39.151  30.630  30.988  1.00  0.00     0.064 A 
ATOM     80  C   UNL A   1      39.110  30.456  32.378  1.00  0.00     0.173 A 
ATOM     81  C   UNL A   1      38.035  31.208  30.368  1.00  0.00     0.173 A 
ATOM     82  F   UNL A   1      40.147  29.891  33.012  1.00  0.00    -0.203 F 
ATOM     83  C   UNL A   1      37.991  30.829  33.117  1.00  0.00     0.198 A 
ATOM     84  C   UNL A   1      36.925  31.606  31.112  1.00  0.00     0.198 A 
ATOM     85  F   UNL A   1      38.029  31.403  29.041  1.00  0.00    -0.203 F 
ATOM     86  F   UNL A   1      37.961  30.618  34.440  1.00  0.00    -0.200 F 
ATOM     87  C   UNL A   1      36.901  31.411  32.483  1.00  0.00     0.200 A 
ATOM     88  F   UNL A   1      35.881  32.181  30.499  1.00  0.00    -0.200 F 
ATOM     89  F   UNL A   1      35.828  31.779  33.196  1.00  0.00    -0.200 F 
ENDBRANCH  55  79
BRANCH  67  90
ATOM     90  C   UNL A   1      44.924  33.988  28.997  1.00  0.00     0.064 A 
ATOM     91  C   UNL A   1      45.707  34.374  30.095  1.00  0.00     0.173 A 
ATOM     92  C   UNL A   1      44.598  34.965  28.045  1.00  0.00     0.173 A 
ATOM     93  F   UNL A   1      46.035  33.479  31.040  1.00  0.00    -0.203 F 
ATOM     94  C   UNL A   1      46.122  35.695  30.249  1.00  0.00     0.198 A 
ATOM     95  C   UNL A   1      45.038  36.278  28.187  1.00  0.00     0.198 A 
ATOM     96  F   UNL A   1      43.857  34.645  26.974  1.00  0.00    -0.203 F 
ATOM     97  F   UNL A   1      46.826  36.051  31.332  1.00  0.00    -0.200 F 
ATOM     98  C   UNL A   1      45.792  36.643  29.293  1.00  0.00     0.200 A 
ATOM     99  F   UNL A   1      44.728  37.192  27.257  1.00  0.00    -0.200 F 
ATOM    100  F   UNL A   1      46.193  37.914  29.441  1.00  0.00    -0.200 F 
ENDBRANCH  67  90
ENDBRANCH  41  42
ENDBRANCH  33  36
ENDBRANCH  31  32
ENDBRANCH  30  31
ENDBRANCH  29  30
ENDBRANCH  28  29
ENDBRANCH   1  28
TORSDOF 17
ENDMDL
MODEL 2
REMARK VINA RESULT:     -12.4      4.167     10.040
REMARK SMILES CCOc1ccc(-c2ccc(N3CCC[C@H](C(=O)NCCCCCCNC(=O)c4ccc(-c5c6nc(c(-c7c(F)c(F)c(F)c(F)c7F)c7ccc([nH]7)c(-c7c(F)c(F)c(F)c(F)c7F)c7nc(c(-c8c(F)c(F)c(F)c(F)c8F)c8ccc5[nH]8)C=C7)C=C6)cc4)C3)nn2)cc1
REMARK SMILES IDX 21 1 20 2 19 3 17 4 18 5 16 7 12 8 13 9 92 10 14 11 15 12
REMARK SMILES IDX 11 13 8 14 9 15 94 16 10 17 93 18 7 19 4 20 5 21 96 22 6 23
REMARK SMILES IDX 95 24 3 25 2 26 1 27 22 28 23 29 24 30 25 31 26 32 27 33
REMARK SMILES IDX 28 35 29 36 30 37 91 38 31 39 90 40 32 41 33 42 34 43 84 44
REMARK SMILES IDX 35 45 89 46 83 47 85 48 36 49 88 50 82 51 81 52 37 54 69 55
REMARK SMILES IDX 49 56 68 57 50 58 53 59 67 60 86 61 51 62 52 63 66 65 87 66
REMARK SMILES IDX 54 67 38 68 39 69 47 70 40 71 41 72 45 73 48 74 42 75 43 76
REMARK SMILES IDX 46 77 44 78 70 79 71 80 79 81 72 82 73 83 77 84 80 85 74 86
REMARK SMILES IDX 75 87 78 88 76 89 55 90 56 91 64 92 57 93 58 94 62 95 65 96
REMARK SMILES IDX 59 97 60 98 63 99 61 100
REMARK H PARENT 19 6 26 34 85 53 53 64
REMARK Flexibility Score: inf
ROOT
ATOM      1  C   UNL A   1      34.036  25.730  25.328  1.00  0.00     0.021 C 
ENDROOT
BRANCH   1   2
ATOM      2  C   UNL A   1      35.036  24.637  25.700  1.00  0.00     0.116 C 
BRANCH   2   3
ATOM      3  N   UNL A   1      34.473  23.583  26.511  1.00  0.00    -0.356 N 
ATOM      4  C   UNL A   1      34.374  22.251  26.267  1.00  0.00     0.224 C 
ATOM      5  O   UNL A   1      34.149  21.533  27.249  1.00  0.00    -0.275 OA
ATOM      6  H   UNL A   1      34.103  23.876  27.375  1.00  0.00     0.163 HD
BRANCH   4   7
ATOM      7  C   UNL A   1      34.507  21.601  24.883  1.00  0.00     0.098 C 
ATOM      8  N   UNL A   1      32.852  22.389  23.218  1.00  0.00    -0.354 N 
ATOM      9  C   UNL A   1      32.326  21.063  22.926  1.00  0.00     0.118 C 
ATOM     10  C   UNL A   1      34.215  22.530  23.708  1.00  0.00     0.131 C 
ATOM     11  C   UNL A   1      32.564  20.080  24.074  1.00  0.00     0.022 C 
ATOM     12  C   UNL A   1      33.933  20.190  24.742  1.00  0.00     0.017 C 
BRANCH   8  13
ATOM     13  C   UNL A   1      32.067  23.511  23.033  1.00  0.00     0.151 A 
ATOM     14  C   UNL A   1      30.622  25.864  22.993  1.00  0.00     0.093 A 
ATOM     15  C   UNL A   1      31.783  25.774  22.247  1.00  0.00     0.035 A 
ATOM     16  N   UNL A   1      30.166  24.800  23.680  1.00  0.00    -0.148 NA
ATOM     17  C   UNL A   1      32.513  24.589  22.280  1.00  0.00     0.051 A 
ATOM     18  N   UNL A   1      30.880  23.613  23.669  1.00  0.00    -0.132 NA
BRANCH  14  19
ATOM     19  C   UNL A   1      29.827  27.087  23.048  1.00  0.00     0.002 A 
ATOM     20  C   UNL A   1      28.229  29.396  23.066  1.00  0.00     0.119 A 
ATOM     21  C   UNL A   1      29.539  29.466  22.596  1.00  0.00     0.047 A 
ATOM     22  C   UNL A   1      27.703  28.184  23.499  1.00  0.00     0.047 A 
ATOM     23  C   UNL A   1      30.338  28.317  22.597  1.00  0.00     0.014 A 
ATOM     24  C   UNL A   1      28.501  27.040  23.505  1.00  0.00     0.014 A 
BRANCH  20  25
ATOM     25  O   UNL A   1      27.438  30.507  22.978  1.00  0.00    -0.494 OA
BRANCH  25  26
ATOM     26  C   UNL A   1      28.151  31.722  23.244  1.00  0.00     0.226 C 
ATOM     27  C   UNL A   1      28.261  32.594  22.002  1.00  0.00     0.049 C 
ENDBRANCH  25  26
ENDBRANCH  20  25
ENDBRANCH  14  19
ENDBRANCH   8  13
ENDBRANCH   4   7
ENDBRANCH   2   3
ENDBRANCH   1   2
BRANCH   1  28
ATOM     28  C   UNL A   1      32.762  25.735  26.176  1.00  0.00     0.002 C 
BRANCH  28  29
ATOM     29  C   UNL A   1      31.875  26.980  26.044  1.00  0.00     0.002 C 
BRANCH  29  30
ATOM     30  C   UNL A   1      32.355  28.234  26.780  1.00  0.00     0.021 C 
BRANCH  30  31
ATOM     31  C   UNL A   1      33.142  29.238  25.943  1.00  0.00     0.116 C 
BRANCH  31  32
ATOM     32  N   UNL A   1      32.844  30.615  26.297  1.00  0.00    -0.352 N 
ATOM     33  C   UNL A   1      33.447  31.465  27.185  1.00  0.00     0.251 C 
ATOM     34  H   UNL A   1      32.077  31.003  25.817  1.00  0.00     0.163 HD
ATOM     35  O   UNL A   1      32.915  32.541  27.440  1.00  0.00    -0.269 OA
BRANCH  33  36
ATOM     36  C   UNL A   1      34.724  31.113  27.848  1.00  0.00     0.039 A 
ATOM     37  C   UNL A   1      34.821  29.861  28.464  1.00  0.00     0.014 A 
ATOM     38  C   UNL A   1      35.786  32.018  27.945  1.00  0.00     0.014 A 
ATOM     39  C   UNL A   1      35.984  29.507  29.151  1.00  0.00     0.010 A 
ATOM     40  C   UNL A   1      36.973  31.639  28.575  1.00  0.00     0.010 A 
ATOM     41  C   UNL A   1      37.075  30.388  29.200  1.00  0.00    -0.014 A 
BRANCH  41  42
ATOM     42  C   UNL A   1      38.315  30.003  29.922  1.00  0.00     0.031 A 
ATOM     43  C   UNL A   1      38.575  30.500  31.316  1.00  0.00     0.074 A 
ATOM     44  C   UNL A   1      39.220  29.219  29.305  1.00  0.00     0.049 A 
ATOM     45  N   UNL A   1      39.580  30.239  32.114  1.00  0.00    -0.248 NA
ATOM     46  C   UNL A   1      37.590  31.435  31.882  1.00  0.00     0.031 C 
ATOM     47  C   UNL A   1      39.114  28.732  27.929  1.00  0.00     0.029 A 
ATOM     48  N   UNL A   1      40.406  28.696  29.755  1.00  0.00    -0.354 N 
ATOM     49  C   UNL A   1      39.357  30.986  33.264  1.00  0.00     0.074 A 
ATOM     50  C   UNL A   1      38.147  31.749  33.042  1.00  0.00     0.031 C 
ATOM     51  C   UNL A   1      40.176  27.959  27.656  1.00  0.00     0.029 A 
ATOM     52  C   UNL A   1      41.045  27.912  28.827  1.00  0.00     0.049 A 
ATOM     53  H   UNL A   1      40.765  28.868  30.655  1.00  0.00     0.167 HD
ATOM     54  C   UNL A   1      40.082  31.014  34.407  1.00  0.00     0.037 A 
ATOM     55  C   UNL A   1      42.197  27.221  28.918  1.00  0.00     0.037 A 
ATOM     56  C   UNL A   1      41.268  30.230  34.633  1.00  0.00     0.049 A 
ATOM     57  C   UNL A   1      42.954  27.223  30.217  1.00  0.00     0.074 A 
ATOM     58  C   UNL A   1      42.033  30.130  35.783  1.00  0.00     0.029 A 
ATOM     59  N   UNL A   1      41.863  29.410  33.686  1.00  0.00    -0.354 N 
ATOM     60  N   UNL A   1      42.683  27.860  31.331  1.00  0.00    -0.248 NA
ATOM     61  C   UNL A   1      44.165  26.394  30.278  1.00  0.00     0.031 C 
ATOM     62  C   UNL A   1      43.113  29.280  35.518  1.00  0.00     0.029 A 
ATOM     63  C   UNL A   1      42.994  28.813  34.219  1.00  0.00     0.049 A 
ATOM     64  H   UNL A   1      41.530  29.271  32.770  1.00  0.00     0.167 HD
ATOM     65  C   UNL A   1      43.673  27.491  32.231  1.00  0.00     0.074 A 
ATOM     66  C   UNL A   1      44.540  26.560  31.539  1.00  0.00     0.031 C 
ATOM     67  C   UNL A   1      43.847  27.887  33.516  1.00  0.00     0.037 A 
BRANCH  54  68
ATOM     68  C   UNL A   1      39.611  31.925  35.505  1.00  0.00     0.064 A 
ATOM     69  C   UNL A   1      38.656  31.510  36.447  1.00  0.00     0.173 A 
ATOM     70  C   UNL A   1      40.142  33.216  35.636  1.00  0.00     0.173 A 
ATOM     71  F   UNL A   1      38.109  30.288  36.361  1.00  0.00    -0.203 F 
ATOM     72  C   UNL A   1      38.228  32.366  37.459  1.00  0.00     0.198 A 
ATOM     73  C   UNL A   1      39.734  34.059  36.668  1.00  0.00     0.198 A 
ATOM     74  F   UNL A   1      41.062  33.661  34.768  1.00  0.00    -0.203 F 
ATOM     75  F   UNL A   1      37.278  31.966  38.316  1.00  0.00    -0.200 F 
ATOM     76  C   UNL A   1      38.771  33.636  37.572  1.00  0.00     0.200 A 
ATOM     77  F   UNL A   1      40.269  35.283  36.783  1.00  0.00    -0.200 F 
ATOM     78  F   UNL A   1      38.362  34.458  38.549  1.00  0.00    -0.200 F 
ENDBRANCH  54  68
BRANCH  55  79
ATOM     79  C   UNL A   1      42.671  26.429  27.754  1.00  0.00     0.064 A 
ATOM     80  C   UNL A   1      42.198  25.129  27.526  1.00  0.00     0.173 A 
ATOM     81  C   UNL A   1      43.587  26.962  26.836  1.00  0.00     0.173 A 
ATOM     82  F   UNL A   1      41.335  24.572  28.387  1.00  0.00    -0.203 F 
ATOM     83  C   UNL A   1      42.635  24.386  26.433  1.00  0.00     0.198 A 
ATOM     84  C   UNL A   1      44.004  26.227  25.728  1.00  0.00     0.198 A 
ATOM     85  F   UNL A   1      44.062  28.204  27.006  1.00  0.00    -0.203 F 
ATOM     86  F   UNL A   1      42.197  23.132  26.259  1.00  0.00    -0.200 F 
ATOM     87  C   UNL A   1      43.533  24.938  25.531  1.00  0.00     0.200 A 
ATOM     88  F   UNL A   1      44.859  26.769  24.850  1.00  0.00    -0.200 F 
ATOM     89  F   UNL A   1      43.947  24.226  24.474  1.00  0.00    -0.200 F 
ENDBRANCH  55  79
BRANCH  67  90
ATOM     90  C   UNL A   1      45.004  27.294  34.264  1.00  0.00     0.064 A 
ATOM     91  C   UNL A   1      46.260  27.917  34.289  1.00  0.00     0.173 A 
ATOM     92  C   UNL A   1      44.846  26.101  34.985  1.00  0.00     0.173 A 
ATOM     93  F   UNL A   1      46.466  29.052  33.604  1.00  0.00    -0.203 F 
ATOM     94  C   UNL A   1      47.326  27.350  34.984  1.00  0.00     0.198 A 
ATOM     95  C   UNL A   1      45.906  25.552  35.702  1.00  0.00     0.198 A 
ATOM     96  F   UNL A   1      43.662  25.470  34.998  1.00  0.00    -0.203 F 
ATOM     97  F   UNL A   1      48.531  27.936  34.952  1.00  0.00    -0.200 F 
ATOM     98  C   UNL A   1      47.146  26.173  35.694  1.00  0.00     0.200 A 
ATOM     99  F   UNL A   1      45.727  24.420  36.397  1.00  0.00    -0.200 F 
ATOM    100  F   UNL A   1      48.171  25.629  36.364  1.00  0.00    -0.200 F 
ENDBRANCH  67  90
ENDBRANCH  41  42
ENDBRANCH  33  36
ENDBRANCH  31  32
ENDBRANCH  30  31
ENDBRANCH  29  30
ENDBRANCH  28  29
ENDBRANCH   1  28
TORSDOF 17
ENDMDL
MODEL 3
REMARK VINA RESULT:     -12.3      0.736      1.802
REMARK SMILES CCOc1ccc(-c2ccc(N3CCC[C@H](C(=O)NCCCCCCNC(=O)c4ccc(-c5c6nc(c(-c7c(F)c(F)c(F)c(F)c7F)c7ccc([nH]7)c(-c7c(F)c(F)c(F)c(F)c7F)c7nc(c(-c8c(F)c(F)c(F)c(F)c8F)c8ccc5[nH]8)C=C7)C=C6)cc4)C3)nn2)cc1
REMARK SMILES IDX 21 1 20 2 19 3 17 4 18 5 16 7 12 8 13 9 92 10 14 11 15 12
REMARK SMILES IDX 11 13 8 14 9 15 94 16 10 17 93 18 7 19 4 20 5 21 96 22 6 23
REMARK SMILES IDX 95 24 3 25 2 26 1 27 22 28 23 29 24 30 25 31 26 32 27 33
REMARK SMILES IDX 28 35 29 36 30 37 91 38 31 39 90 40 32 41 33 42 34 43 84 44
REMARK SMILES IDX 35 45 89 46 83 47 85 48 36 49 88 50 82 51 81 52 37 54 69 55
REMARK SMILES IDX 49 56 68 57 50 58 53 59 67 60 86 61 51 62 52 63 66 65 87 66
REMARK SMILES IDX 54 67 38 68 39 69 47 70 40 71 41 72 45 73 48 74 42 75 43 76
REMARK SMILES IDX 46 77 44 78 70 79 71 80 79 81 72 82 73 83 77 84 80 85 74 86
REMARK SMILES IDX 75 87 78 88 76 89 55 90 56 91 64 92 57 93 58 94 62 95 65 96
REMARK SMILES IDX 59 97 60 98 63 99 61 100
REMARK H PARENT 19 6 26 34 85 53 53 64
REMARK Flexibility Score: inf
ROOT
ATOM      1  C   UNL A   1      34.766  25.145  24.533  1.00  0.00     0.021 C 
ENDROOT
BRANCH   1   2
ATOM      2  C   UNL A   1      33.835  26.342  24.355  1.00  0.00     0.116 C 
BRANCH   2   3
ATOM      3  N   UNL A   1      33.724  27.175  25.529  1.00  0.00    -0.356 N 
ATOM      4  C   UNL A   1      32.633  27.510  26.263  1.00  0.00     0.224 C 
ATOM      5  O   UNL A   1      32.854  27.964  27.393  1.00  0.00    -0.275 OA
ATOM      6  H   UNL A   1      34.573  27.559  25.848  1.00  0.00     0.163 HD
BRANCH   4   7
ATOM      7  C   UNL A   1      31.181  27.378  25.784  1.00  0.00     0.098 C 
ATOM      8  N   UNL A   1      30.695  25.289  24.547  1.00  0.00    -0.354 N 
ATOM      9  C   UNL A   1      30.203  25.961  23.353  1.00  0.00     0.118 C 
ATOM     10  C   UNL A   1      30.615  25.962  25.835  1.00  0.00     0.131 C 
ATOM     11  C   UNL A   1      30.750  27.384  23.223  1.00  0.00     0.022 C 
ATOM     12  C   UNL A   1      30.808  28.172  24.530  1.00  0.00     0.017 C 
BRANCH   8  13
ATOM     13  C   UNL A   1      31.235  24.019  24.466  1.00  0.00     0.151 A 
ATOM     14  C   UNL A   1      31.966  21.364  24.271  1.00  0.00     0.093 A 
ATOM     15  C   UNL A   1      32.116  22.186  23.169  1.00  0.00     0.035 A 
ATOM     16  N   UNL A   1      31.531  21.863  25.443  1.00  0.00    -0.148 NA
ATOM     17  C   UNL A   1      31.735  23.522  23.270  1.00  0.00     0.051 A 
ATOM     18  N   UNL A   1      31.197  23.203  25.541  1.00  0.00    -0.132 NA
BRANCH  14  19
ATOM     19  C   UNL A   1      32.298  19.943  24.231  1.00  0.00     0.002 A 
ATOM     20  C   UNL A   1      33.049  17.237  24.180  1.00  0.00     0.119 A 
ATOM     21  C   UNL A   1      32.721  17.886  22.992  1.00  0.00     0.047 A 
ATOM     22  C   UNL A   1      33.034  17.931  25.385  1.00  0.00     0.047 A 
ATOM     23  C   UNL A   1      32.337  19.231  23.019  1.00  0.00     0.014 A 
ATOM     24  C   UNL A   1      32.646  19.271  25.413  1.00  0.00     0.014 A 
BRANCH  20  25
ATOM     25  O   UNL A   1      33.505  15.950  24.124  1.00  0.00    -0.494 OA
BRANCH  25  26
ATOM     26  C   UNL A   1      34.123  15.524  25.346  1.00  0.00     0.226 C 
ATOM     27  C   UNL A   1      35.626  15.757  25.326  1.00  0.00     0.049 C 
ENDBRANCH  25  26
ENDBRANCH  20  25
ENDBRANCH  14  19
ENDBRANCH   8  13
ENDBRANCH   4   7
ENDBRANCH   2   3
ENDBRANCH   1   2
BRANCH   1  28
ATOM     28  C   UNL A   1      34.581  24.392  25.853  1.00  0.00     0.002 C 
BRANCH  28  29
ATOM     29  C   UNL A   1      35.088  22.944  25.874  1.00  0.00     0.002 C 
BRANCH  29  30
ATOM     30  C   UNL A   1      35.713  22.427  24.576  1.00  0.00     0.021 C 
BRANCH  30  31
ATOM     31  C   UNL A   1      37.237  22.450  24.515  1.00  0.00     0.116 C 
BRANCH  31  32
ATOM     32  N   UNL A   1      37.842  21.356  25.255  1.00  0.00    -0.352 N 
ATOM     33  C   UNL A   1      38.921  21.330  26.098  1.00  0.00     0.251 C 
ATOM     34  H   UNL A   1      37.402  20.485  25.127  1.00  0.00     0.163 HD
ATOM     35  O   UNL A   1      39.354  20.249  26.484  1.00  0.00    -0.269 OA
BRANCH  33  36
ATOM     36  C   UNL A   1      39.580  22.577  26.551  1.00  0.00     0.039 A 
ATOM     37  C   UNL A   1      39.035  23.796  26.135  1.00  0.00     0.014 A 
ATOM     38  C   UNL A   1      40.760  22.565  27.301  1.00  0.00     0.014 A 
ATOM     39  C   UNL A   1      39.653  24.997  26.488  1.00  0.00     0.010 A 
ATOM     40  C   UNL A   1      41.341  23.767  27.710  1.00  0.00     0.010 A 
ATOM     41  C   UNL A   1      40.804  24.993  27.291  1.00  0.00    -0.014 A 
BRANCH  41  42
ATOM     42  C   UNL A   1      41.453  26.272  27.675  1.00  0.00     0.031 A 
ATOM     43  C   UNL A   1      42.857  26.581  27.236  1.00  0.00     0.074 A 
ATOM     44  C   UNL A   1      40.777  27.150  28.442  1.00  0.00     0.049 A 
ATOM     45  N   UNL A   1      43.570  27.660  27.443  1.00  0.00    -0.248 NA
ATOM     46  C   UNL A   1      43.565  25.530  26.489  1.00  0.00     0.031 C 
ATOM     47  C   UNL A   1      39.437  26.933  28.987  1.00  0.00     0.029 A 
ATOM     48  N   UNL A   1      41.126  28.396  28.895  1.00  0.00    -0.354 N 
ATOM     49  C   UNL A   1      44.810  27.412  26.868  1.00  0.00     0.074 A 
ATOM     50  C   UNL A   1      44.770  26.062  26.346  1.00  0.00     0.031 C 
ATOM     51  C   UNL A   1      39.065  28.021  29.679  1.00  0.00     0.029 A 
ATOM     52  C   UNL A   1      40.145  29.002  29.641  1.00  0.00     0.049 A 
ATOM     53  H   UNL A   1      41.996  28.817  28.705  1.00  0.00     0.167 HD
ATOM     54  C   UNL A   1      45.875  28.242  26.764  1.00  0.00     0.037 A 
ATOM     55  C   UNL A   1      40.117  30.218  30.219  1.00  0.00     0.037 A 
ATOM     56  C   UNL A   1      45.899  29.594  27.258  1.00  0.00     0.049 A 
ATOM     57  C   UNL A   1      41.289  31.142  30.041  1.00  0.00     0.074 A 
ATOM     58  C   UNL A   1      46.901  30.542  27.137  1.00  0.00     0.029 A 
ATOM     59  N   UNL A   1      44.868  30.191  27.970  1.00  0.00    -0.354 N 
ATOM     60  N   UNL A   1      42.421  30.931  29.413  1.00  0.00    -0.248 NA
ATOM     61  C   UNL A   1      41.172  32.481  30.633  1.00  0.00     0.031 C 
ATOM     62  C   UNL A   1      46.492  31.698  27.811  1.00  0.00     0.029 A 
ATOM     63  C   UNL A   1      45.217  31.488  28.311  1.00  0.00     0.049 A 
ATOM     64  H   UNL A   1      44.015  29.756  28.200  1.00  0.00     0.167 HD
ATOM     65  C   UNL A   1      43.139  32.114  29.513  1.00  0.00     0.074 A 
ATOM     66  C   UNL A   1      42.307  33.046  30.246  1.00  0.00     0.031 C 
ATOM     67  C   UNL A   1      44.376  32.403  29.040  1.00  0.00     0.037 A 
BRANCH  54  68
ATOM     68  C   UNL A   1      47.106  27.710  26.087  1.00  0.00     0.064 A 
ATOM     69  C   UNL A   1      48.161  27.140  26.818  1.00  0.00     0.173 A 
ATOM     70  C   UNL A   1      47.220  27.742  24.690  1.00  0.00     0.173 A 
ATOM     71  F   UNL A   1      48.106  27.093  28.158  1.00  0.00    -0.203 F 
ATOM     72  C   UNL A   1      49.296  26.651  26.176  1.00  0.00     0.198 A 
ATOM     73  C   UNL A   1      48.345  27.225  24.050  1.00  0.00     0.198 A 
ATOM     74  F   UNL A   1      46.240  28.270  23.942  1.00  0.00    -0.203 F 
ATOM     75  F   UNL A   1      50.312  26.158  26.899  1.00  0.00    -0.200 F 
ATOM     76  C   UNL A   1      49.385  26.688  24.794  1.00  0.00     0.200 A 
ATOM     77  F   UNL A   1      48.424  27.251  22.712  1.00  0.00    -0.200 F 
ATOM     78  F   UNL A   1      50.476  26.214  24.177  1.00  0.00    -0.200 F 
ENDBRANCH  54  68
BRANCH  55  79
ATOM     79  C   UNL A   1      38.911  30.643  30.975  1.00  0.00     0.064 A 
ATOM     80  C   UNL A   1      37.794  31.171  30.312  1.00  0.00     0.173 A 
ATOM     81  C   UNL A   1      38.842  30.510  32.368  1.00  0.00     0.173 A 
ATOM     82  F   UNL A   1      37.822  31.333  28.981  1.00  0.00    -0.203 F 
ATOM     83  C   UNL A   1      36.660  31.565  31.016  1.00  0.00     0.198 A 
ATOM     84  C   UNL A   1      37.696  30.881  33.069  1.00  0.00     0.198 A 
ATOM     85  F   UNL A   1      39.881  30.002  33.047  1.00  0.00    -0.203 F 
ATOM     86  F   UNL A   1      35.620  32.102  30.363  1.00  0.00    -0.200 F 
ATOM     87  C   UNL A   1      36.609  31.413  32.394  1.00  0.00     0.200 A 
ATOM     88  F   UNL A   1      37.644  30.718  34.399  1.00  0.00    -0.200 F 
ATOM     89  F   UNL A   1      35.514  31.784  33.071  1.00  0.00    -0.200 F 
ENDBRANCH  55  79
BRANCH  67  90
ATOM     90  C   UNL A   1      44.892  33.792  29.277  1.00  0.00     0.064 A 
ATOM     91  C   UNL A   1      45.658  34.108  30.408  1.00  0.00     0.173 A 
ATOM     92  C   UNL A   1      44.637  34.812  28.348  1.00  0.00     0.173 A 
ATOM     93  F   UNL A   1      45.918  33.171  31.333  1.00  0.00    -0.203 F 
ATOM     94  C   UNL A   1      46.125  35.404  30.616  1.00  0.00     0.198 A 
ATOM     95  C   UNL A   1      45.130  36.099  28.545  1.00  0.00     0.198 A 
ATOM     96  F   UNL A   1      43.914  34.558  27.247  1.00  0.00    -0.203 F 
ATOM     97  F   UNL A   1      46.813  35.695  31.729  1.00  0.00    -0.200 F 
ATOM     98  C   UNL A   1      45.866  36.395  29.682  1.00  0.00     0.200 A 
ATOM     99  F   UNL A   1      44.887  37.053  27.636  1.00  0.00    -0.200 F 
ATOM    100  F   UNL A   1      46.318  37.641  29.882  1.00  0.00    -0.200 F 
ENDBRANCH  67  90
ENDBRANCH  41  42
ENDBRANCH  33  36
ENDBRANCH  31  32
ENDBRANCH  30  31
ENDBRANCH  29  30
ENDBRANCH  28  29
ENDBRANCH   1  28
TORSDOF 17
ENDMDL
