MODEL 1
REMARK VINA RESULT:     -12.8      0.000      0.000
REMARK SMILES Cc1cc2c(c(C)c1Cl)C=C(C(=O)NCCCCCCNC(=O)c1ccc(-c3c4nc(c(-c5c(F)c(F)c(F)c(F)c5F)c5ccc([nH]5)c(-c5c(F)c(F)c(F)c(F)c5F)c5nc(c(-c6c(F)c(F)c(F)c(F)c6F)c6ccc3[nH]6)C=C5)C=C4)cc1)[C@H](C(F)(F)F)O2
REMARK SMILES IDX 18 1 17 2 16 3 15 4 14 5 12 6 13 7 11 9 1 10 2 11 3 12 8 13
REMARK SMILES IDX 4 14 6 15 9 16 5 17 92 18 7 19 10 20 87 21 88 22 89 23 90 24
REMARK SMILES IDX 91 25 19 26 20 27 21 28 22 29 23 31 24 32 25 33 86 34 26 35
REMARK SMILES IDX 85 36 27 37 28 38 29 39 79 40 30 41 84 42 78 43 80 44 31 45
REMARK SMILES IDX 83 46 77 47 76 48 32 50 64 51 44 52 63 53 45 54 48 55 62 56
REMARK SMILES IDX 81 57 46 58 47 59 61 61 82 62 49 63 33 64 34 65 42 66 35 67
REMARK SMILES IDX 36 68 40 69 43 70 37 71 38 72 41 73 39 74 65 75 66 76 74 77
REMARK SMILES IDX 67 78 68 79 72 80 75 81 69 82 70 83 73 84 71 85 50 86 51 87
REMARK SMILES IDX 59 88 52 89 53 90 57 91 60 92 54 93 55 94 58 95 56 96
REMARK H PARENT 14 8 21 30 80 49 48 60
REMARK Flexibility Score: inf
ROOT
ATOM      1  C   UNL A   1      31.490  30.959  26.096  1.00  0.00     0.002 C 
ENDROOT
BRANCH   1   2
ATOM      2  C   UNL A   1      31.892  29.752  26.951  1.00  0.00     0.002 C 
BRANCH   2   3
ATOM      3  C   UNL A   1      33.391  29.619  27.221  1.00  0.00     0.021 C 
BRANCH   3   4
ATOM      4  C   UNL A   1      34.088  28.557  26.373  1.00  0.00     0.116 C 
BRANCH   4   5
ATOM      5  N   UNL A   1      33.996  28.872  24.962  1.00  0.00    -0.352 N 
ATOM      6  C   UNL A   1      33.656  28.234  23.822  1.00  0.00     0.251 C 
ATOM      7  O   UNL A   1      33.752  28.922  22.800  1.00  0.00    -0.270 OA
ATOM      8  H   UNL A   1      34.248  29.808  24.787  1.00  0.00     0.163 HD
BRANCH   6   9
ATOM      9  C   UNL A   1      33.184  26.821  23.717  1.00  0.00     0.067 C 
ATOM     10  C   UNL A   1      32.421  20.359  23.653  1.00  0.00     0.046 C 
ATOM     11  C   UNL A   1      32.912  21.771  23.807  1.00  0.00    -0.028 A 
ATOM     12  C   UNL A   1      32.129  22.800  23.281  1.00  0.00     0.052 A 
ATOM     13  C   UNL A   1      34.145  22.096  24.410  1.00  0.00     0.047 A 
ATOM     14  C   UNL A   1      32.539  24.122  23.392  1.00  0.00     0.128 A 
ATOM     15  C   UNL A   1      34.578  23.441  24.520  1.00  0.00    -0.021 A 
ATOM     16  Cl  UNL A   1      35.136  20.798  25.004  1.00  0.00    -0.084 Cl
ATOM     17  C   UNL A   1      33.749  24.464  24.001  1.00  0.00     0.022 A 
ATOM     18  O   UNL A   1      31.709  25.038  22.820  1.00  0.00    -0.475 OA
ATOM     19  C   UNL A   1      35.894  23.810  25.165  1.00  0.00     0.047 C 
ATOM     20  C   UNL A   1      34.106  25.887  24.028  1.00  0.00     0.026 C 
ATOM     21  C   UNL A   1      31.796  26.389  23.339  1.00  0.00     0.314 C 
BRANCH  21  22
ATOM     22  C   UNL A   1      30.779  26.563  24.476  1.00  0.00     0.429 C 
ATOM     23  F   UNL A   1      29.638  25.868  24.269  1.00  0.00    -0.167 F 
ATOM     24  F   UNL A   1      31.277  26.167  25.668  1.00  0.00    -0.167 F 
ATOM     25  F   UNL A   1      30.438  27.868  24.623  1.00  0.00    -0.167 F 
ENDBRANCH  21  22
ENDBRANCH   6   9
ENDBRANCH   4   5
ENDBRANCH   3   4
ENDBRANCH   2   3
ENDBRANCH   1   2
BRANCH   1  26
ATOM     26  C   UNL A   1      31.369  32.283  26.854  1.00  0.00     0.021 C 
BRANCH  26  27
ATOM     27  C   UNL A   1      32.695  32.994  27.095  1.00  0.00     0.116 C 
BRANCH  27  28
ATOM     28  N   UNL A   1      32.500  34.324  27.651  1.00  0.00    -0.352 N 
ATOM     29  C   UNL A   1      33.083  34.896  28.753  1.00  0.00     0.251 C 
ATOM     30  H   UNL A   1      31.859  34.894  27.169  1.00  0.00     0.163 HD
ATOM     31  O   UNL A   1      32.640  35.937  29.222  1.00  0.00    -0.269 OA
BRANCH  29  32
ATOM     32  C   UNL A   1      34.245  34.238  29.379  1.00  0.00     0.039 A 
ATOM     33  C   UNL A   1      34.028  33.305  30.394  1.00  0.00     0.014 A 
ATOM     34  C   UNL A   1      35.544  34.547  28.965  1.00  0.00     0.014 A 
ATOM     35  C   UNL A   1      35.116  32.645  30.963  1.00  0.00     0.010 A 
ATOM     36  C   UNL A   1      36.621  33.832  29.475  1.00  0.00     0.010 A 
ATOM     37  C   UNL A   1      36.418  32.885  30.489  1.00  0.00    -0.014 A 
BRANCH  37  38
ATOM     38  C   UNL A   1      37.581  32.172  31.070  1.00  0.00     0.031 A 
ATOM     39  C   UNL A   1      38.067  32.531  32.446  1.00  0.00     0.074 A 
ATOM     40  C   UNL A   1      38.211  31.224  30.351  1.00  0.00     0.049 A 
ATOM     41  N   UNL A   1      39.075  32.039  33.121  1.00  0.00    -0.248 NA
ATOM     42  C   UNL A   1      37.339  33.599  33.151  1.00  0.00     0.031 C 
ATOM     43  C   UNL A   1      37.848  30.816  28.994  1.00  0.00     0.029 A 
ATOM     44  N   UNL A   1      39.286  30.429  30.661  1.00  0.00    -0.354 N 
ATOM     45  C   UNL A   1      39.097  32.732  34.323  1.00  0.00     0.074 A 
ATOM     46  C   UNL A   1      38.050  33.727  34.262  1.00  0.00     0.031 C 
ATOM     47  C   UNL A   1      38.659  29.820  28.602  1.00  0.00     0.029 A 
ATOM     48  C   UNL A   1      39.625  29.547  29.664  1.00  0.00     0.049 A 
ATOM     49  H   UNL A   1      39.769  30.486  31.517  1.00  0.00     0.167 HD
ATOM     50  C   UNL A   1      39.897  32.532  35.396  1.00  0.00     0.037 A 
ATOM     51  C   UNL A   1      40.603  28.623  29.614  1.00  0.00     0.037 A 
ATOM     52  C   UNL A   1      40.925  31.528  35.458  1.00  0.00     0.049 A 
ATOM     53  C   UNL A   1      41.507  28.450  30.805  1.00  0.00     0.074 A 
ATOM     54  C   UNL A   1      41.763  31.219  36.513  1.00  0.00     0.029 A 
ATOM     55  N   UNL A   1      41.254  30.669  34.419  1.00  0.00    -0.354 N 
ATOM     56  N   UNL A   1      41.481  29.071  31.960  1.00  0.00    -0.248 NA
ATOM     57  C   UNL A   1      42.575  27.447  30.689  1.00  0.00     0.031 C 
ATOM     58  C   UNL A   1      42.636  30.211  36.096  1.00  0.00     0.029 A 
ATOM     59  C   UNL A   1      42.303  29.849  34.801  1.00  0.00     0.049 A 
ATOM     60  H   UNL A   1      40.807  30.645  33.542  1.00  0.00     0.167 HD
ATOM     61  C   UNL A   1      42.508  28.520  32.715  1.00  0.00     0.074 A 
ATOM     62  C   UNL A   1      43.127  27.501  31.893  1.00  0.00     0.031 C 
ATOM     63  C   UNL A   1      42.904  28.834  33.972  1.00  0.00     0.037 A 
BRANCH  50  64
ATOM     64  C   UNL A   1      39.681  33.401  36.601  1.00  0.00     0.064 A 
ATOM     65  C   UNL A   1      40.310  34.649  36.725  1.00  0.00     0.173 A 
ATOM     66  C   UNL A   1      38.786  33.014  37.611  1.00  0.00     0.173 A 
ATOM     67  F   UNL A   1      41.184  35.061  35.794  1.00  0.00    -0.203 F 
ATOM     68  C   UNL A   1      40.065  35.469  37.823  1.00  0.00     0.198 A 
ATOM     69  C   UNL A   1      38.520  33.851  38.691  1.00  0.00     0.198 A 
ATOM     70  F   UNL A   1      38.155  31.833  37.539  1.00  0.00    -0.203 F 
ATOM     71  F   UNL A   1      40.709  36.639  37.939  1.00  0.00    -0.200 F 
ATOM     72  C   UNL A   1      39.164  35.075  38.799  1.00  0.00     0.200 A 
ATOM     73  F   UNL A   1      37.637  33.475  39.625  1.00  0.00    -0.200 F 
ATOM     74  F   UNL A   1      38.915  35.874  39.846  1.00  0.00    -0.200 F 
ENDBRANCH  50  64
BRANCH  51  75
ATOM     75  C   UNL A   1      40.749  27.766  28.408  1.00  0.00     0.064 A 
ATOM     76  C   UNL A   1      40.067  26.545  28.309  1.00  0.00     0.173 A 
ATOM     77  C   UNL A   1      41.551  28.154  27.325  1.00  0.00     0.173 A 
ATOM     78  F   UNL A   1      39.302  26.121  29.326  1.00  0.00    -0.203 F 
ATOM     79  C   UNL A   1      40.189  25.741  27.177  1.00  0.00     0.198 A 
ATOM     80  C   UNL A   1      41.650  27.363  26.181  1.00  0.00     0.198 A 
ATOM     81  F   UNL A   1      42.222  29.314  27.367  1.00  0.00    -0.203 F 
ATOM     82  F   UNL A   1      39.554  24.563  27.123  1.00  0.00    -0.200 F 
ATOM     83  C   UNL A   1      40.974  26.155  26.110  1.00  0.00     0.200 A 
ATOM     84  F   UNL A   1      42.395  27.775  25.147  1.00  0.00    -0.200 F 
ATOM     85  F   UNL A   1      41.080  25.387  25.017  1.00  0.00    -0.200 F 
ENDBRANCH  51  75
BRANCH  63  86
ATOM     86  C   UNL A   1      44.053  28.064  34.556  1.00  0.00     0.064 A 
ATOM     87  C   UNL A   1      43.854  26.840  35.212  1.00  0.00     0.173 A 
ATOM     88  C   UNL A   1      45.371  28.509  34.379  1.00  0.00     0.173 A 
ATOM     89  F   UNL A   1      42.611  26.377  35.415  1.00  0.00    -0.203 F 
ATOM     90  C   UNL A   1      44.934  26.095  35.678  1.00  0.00     0.198 A 
ATOM     91  C   UNL A   1      46.450  27.746  34.818  1.00  0.00     0.198 A 
ATOM     92  F   UNL A   1      45.616  29.669  33.751  1.00  0.00    -0.203 F 
ATOM     93  F   UNL A   1      44.719  24.943  36.330  1.00  0.00    -0.200 F 
ATOM     94  C   UNL A   1      46.230  26.542  35.470  1.00  0.00     0.200 A 
ATOM     95  F   UNL A   1      47.702  28.169  34.598  1.00  0.00    -0.200 F 
ATOM     96  F   UNL A   1      47.269  25.811  35.898  1.00  0.00    -0.200 F 
ENDBRANCH  63  86
ENDBRANCH  37  38
ENDBRANCH  29  32
ENDBRANCH  27  28
ENDBRANCH  26  27
ENDBRANCH   1  26
TORSDOF 14
ENDMDL
MODEL 2
REMARK VINA RESULT:     -12.8      0.745      7.314
REMARK SMILES Cc1cc2c(c(C)c1Cl)C=C(C(=O)NCCCCCCNC(=O)c1ccc(-c3c4nc(c(-c5c(F)c(F)c(F)c(F)c5F)c5ccc([nH]5)c(-c5c(F)c(F)c(F)c(F)c5F)c5nc(c(-c6c(F)c(F)c(F)c(F)c6F)c6ccc3[nH]6)C=C5)C=C4)cc1)[C@H](C(F)(F)F)O2
REMARK SMILES IDX 18 1 17 2 16 3 15 4 14 5 12 6 13 7 11 9 1 10 2 11 3 12 8 13
REMARK SMILES IDX 4 14 6 15 9 16 5 17 92 18 7 19 10 20 87 21 88 22 89 23 90 24
REMARK SMILES IDX 91 25 19 26 20 27 21 28 22 29 23 31 24 32 25 33 86 34 26 35
REMARK SMILES IDX 85 36 27 37 28 38 29 39 79 40 30 41 84 42 78 43 80 44 31 45
REMARK SMILES IDX 83 46 77 47 76 48 32 50 64 51 44 52 63 53 45 54 48 55 62 56
REMARK SMILES IDX 81 57 46 58 47 59 61 61 82 62 49 63 33 64 34 65 42 66 35 67
REMARK SMILES IDX 36 68 40 69 43 70 37 71 38 72 41 73 39 74 65 75 66 76 74 77
REMARK SMILES IDX 67 78 68 79 72 80 75 81 69 82 70 83 73 84 71 85 50 86 51 87
REMARK SMILES IDX 59 88 52 89 53 90 57 91 60 92 54 93 55 94 58 95 56 96
REMARK H PARENT 14 8 21 30 80 49 48 60
REMARK Flexibility Score: inf
ROOT
ATOM      1  C   UNL A   1      31.438  30.829  26.191  1.00  0.00     0.002 C 
ENDROOT
BRANCH   1   2
ATOM      2  C   UNL A   1      32.151  29.977  27.246  1.00  0.00     0.002 C 
BRANCH   2   3
ATOM      3  C   UNL A   1      32.650  28.618  26.753  1.00  0.00     0.021 C 
BRANCH   3   4
ATOM      4  C   UNL A   1      34.029  28.656  26.100  1.00  0.00     0.116 C 
BRANCH   4   5
ATOM      5  N   UNL A   1      33.928  28.945  24.684  1.00  0.00    -0.352 N 
ATOM      6  C   UNL A   1      33.591  28.283  23.557  1.00  0.00     0.251 C 
ATOM      7  O   UNL A   1      33.675  28.953  22.522  1.00  0.00    -0.270 OA
ATOM      8  H   UNL A   1      34.170  29.880  24.491  1.00  0.00     0.163 HD
BRANCH   6   9
ATOM      9  C   UNL A   1      33.134  26.863  23.478  1.00  0.00     0.067 C 
ATOM     10  C   UNL A   1      32.423  20.396  23.594  1.00  0.00     0.046 C 
ATOM     11  C   UNL A   1      32.897  21.817  23.722  1.00  0.00    -0.028 A 
ATOM     12  C   UNL A   1      32.128  22.821  23.132  1.00  0.00     0.052 A 
ATOM     13  C   UNL A   1      34.102  22.171  24.364  1.00  0.00     0.047 A 
ATOM     14  C   UNL A   1      32.523  24.149  23.216  1.00  0.00     0.128 A 
ATOM     15  C   UNL A   1      34.520  23.524  24.448  1.00  0.00    -0.021 A 
ATOM     16  Cl  UNL A   1      35.078  20.902  25.040  1.00  0.00    -0.084 Cl
ATOM     17  C   UNL A   1      33.705  24.522  23.862  1.00  0.00     0.022 A 
ATOM     18  O   UNL A   1      31.710  25.039  22.581  1.00  0.00    -0.475 OA
ATOM     19  C   UNL A   1      35.805  23.924  25.133  1.00  0.00     0.047 C 
ATOM     20  C   UNL A   1      34.050  25.948  23.857  1.00  0.00     0.026 C 
ATOM     21  C   UNL A   1      31.767  26.407  23.059  1.00  0.00     0.314 C 
BRANCH  21  22
ATOM     22  C   UNL A   1      30.702  26.608  24.148  1.00  0.00     0.429 C 
ATOM     23  F   UNL A   1      29.550  25.955  23.881  1.00  0.00    -0.167 F 
ATOM     24  F   UNL A   1      31.129  26.188  25.359  1.00  0.00    -0.167 F 
ATOM     25  F   UNL A   1      30.399  27.923  24.289  1.00  0.00    -0.167 F 
ENDBRANCH  21  22
ENDBRANCH   6   9
ENDBRANCH   4   5
ENDBRANCH   3   4
ENDBRANCH   2   3
ENDBRANCH   1   2
BRANCH   1  26
ATOM     26  C   UNL A   1      31.374  32.327  26.497  1.00  0.00     0.021 C 
BRANCH  26  27
ATOM     27  C   UNL A   1      32.582  32.868  27.251  1.00  0.00     0.116 C 
BRANCH  27  28
ATOM     28  N   UNL A   1      32.403  34.261  27.629  1.00  0.00    -0.352 N 
ATOM     29  C   UNL A   1      32.968  34.956  28.666  1.00  0.00     0.251 C 
ATOM     30  H   UNL A   1      31.787  34.777  27.061  1.00  0.00     0.163 HD
ATOM     31  O   UNL A   1      32.536  36.057  28.988  1.00  0.00    -0.269 OA
BRANCH  29  32
ATOM     32  C   UNL A   1      34.099  34.361  29.404  1.00  0.00     0.039 A 
ATOM     33  C   UNL A   1      33.845  33.676  30.593  1.00  0.00     0.014 A 
ATOM     34  C   UNL A   1      35.405  34.487  28.922  1.00  0.00     0.014 A 
ATOM     35  C   UNL A   1      34.900  33.072  31.275  1.00  0.00     0.010 A 
ATOM     36  C   UNL A   1      36.444  33.817  29.559  1.00  0.00     0.010 A 
ATOM     37  C   UNL A   1      36.203  33.117  30.749  1.00  0.00    -0.014 A 
BRANCH  37  38
ATOM     38  C   UNL A   1      37.330  32.459  31.454  1.00  0.00     0.031 A 
ATOM     39  C   UNL A   1      38.052  31.313  30.803  1.00  0.00     0.074 A 
ATOM     40  C   UNL A   1      37.683  32.877  32.684  1.00  0.00     0.049 A 
ATOM     41  N   UNL A   1      39.047  30.597  31.261  1.00  0.00    -0.248 NA
ATOM     42  C   UNL A   1      37.582  30.902  29.470  1.00  0.00     0.031 C 
ATOM     43  C   UNL A   1      37.033  33.957  33.427  1.00  0.00     0.029 A 
ATOM     44  N   UNL A   1      38.677  32.445  33.526  1.00  0.00    -0.354 N 
ATOM     45  C   UNL A   1      39.320  29.660  30.275  1.00  0.00     0.074 A 
ATOM     46  C   UNL A   1      38.345  29.848  29.224  1.00  0.00     0.031 C 
ATOM     47  C   UNL A   1      37.669  34.131  34.596  1.00  0.00     0.029 A 
ATOM     48  C   UNL A   1      38.745  33.150  34.704  1.00  0.00     0.049 A 
ATOM     49  H   UNL A   1      39.284  31.702  33.307  1.00  0.00     0.167 HD
ATOM     50  C   UNL A   1      40.319  28.746  30.234  1.00  0.00     0.037 A 
ATOM     51  C   UNL A   1      39.583  33.017  35.751  1.00  0.00     0.037 A 
ATOM     52  C   UNL A   1      41.297  28.576  31.274  1.00  0.00     0.049 A 
ATOM     53  C   UNL A   1      40.658  31.965  35.698  1.00  0.00     0.074 A 
ATOM     54  C   UNL A   1      42.371  27.707  31.311  1.00  0.00     0.029 A 
ATOM     55  N   UNL A   1      41.319  29.293  32.463  1.00  0.00    -0.354 N 
ATOM     56  N   UNL A   1      40.944  31.123  34.734  1.00  0.00    -0.248 NA
ATOM     57  C   UNL A   1      41.528  31.845  36.876  1.00  0.00     0.031 C 
ATOM     58  C   UNL A   1      43.011  27.857  32.543  1.00  0.00     0.029 A 
ATOM     59  C   UNL A   1      42.374  28.863  33.251  1.00  0.00     0.049 A 
ATOM     60  H   UNL A   1      40.682  30.002  32.708  1.00  0.00     0.167 HD
ATOM     61  C   UNL A   1      42.038  30.391  35.177  1.00  0.00     0.074 A 
ATOM     62  C   UNL A   1      42.376  30.902  36.490  1.00  0.00     0.031 C 
ATOM     63  C   UNL A   1      42.699  29.386  34.554  1.00  0.00     0.037 A 
BRANCH  50  64
ATOM     64  C   UNL A   1      40.418  27.873  29.017  1.00  0.00     0.064 A 
ATOM     65  C   UNL A   1      39.672  26.690  28.902  1.00  0.00     0.173 A 
ATOM     66  C   UNL A   1      41.216  28.255  27.927  1.00  0.00     0.173 A 
ATOM     67  F   UNL A   1      38.904  26.275  29.920  1.00  0.00    -0.203 F 
ATOM     68  C   UNL A   1      39.735  25.913  27.749  1.00  0.00     0.198 A 
ATOM     69  C   UNL A   1      41.251  27.491  26.763  1.00  0.00     0.198 A 
ATOM     70  F   UNL A   1      41.945  29.379  27.982  1.00  0.00    -0.203 F 
ATOM     71  F   UNL A   1      39.044  24.766  27.679  1.00  0.00    -0.200 F 
ATOM     72  C   UNL A   1      40.515  26.318  26.677  1.00  0.00     0.200 A 
ATOM     73  F   UNL A   1      41.993  27.893  25.723  1.00  0.00    -0.200 F 
ATOM     74  F   UNL A   1      40.559  25.578  25.560  1.00  0.00    -0.200 F 
ENDBRANCH  50  64
BRANCH  51  75
ATOM     75  C   UNL A   1      39.460  33.933  36.915  1.00  0.00     0.064 A 
ATOM     76  C   UNL A   1      38.726  33.557  38.049  1.00  0.00     0.173 A 
ATOM     77  C   UNL A   1      40.084  35.189  36.930  1.00  0.00     0.173 A 
ATOM     78  F   UNL A   1      38.095  32.374  38.075  1.00  0.00    -0.203 F 
ATOM     79  C   UNL A   1      38.614  34.405  39.149  1.00  0.00     0.198 A 
ATOM     80  C   UNL A   1      39.996  36.025  38.042  1.00  0.00     0.198 A 
ATOM     81  F   UNL A   1      40.800  35.596  35.872  1.00  0.00    -0.203 F 
ATOM     82  F   UNL A   1      37.878  34.035  40.206  1.00  0.00    -0.200 F 
ATOM     83  C   UNL A   1      39.257  35.634  39.148  1.00  0.00     0.200 A 
ATOM     84  F   UNL A   1      40.631  37.203  38.044  1.00  0.00    -0.200 F 
ATOM     85  F   UNL A   1      39.159  36.444  40.212  1.00  0.00    -0.200 F 
ENDBRANCH  51  75
BRANCH  63  86
ATOM     86  C   UNL A   1      43.868  28.770  35.268  1.00  0.00     0.064 A 
ATOM     87  C   UNL A   1      45.171  29.255  35.091  1.00  0.00     0.173 A 
ATOM     88  C   UNL A   1      43.669  27.744  36.205  1.00  0.00     0.173 A 
ATOM     89  F   UNL A   1      45.414  30.228  34.198  1.00  0.00    -0.203 F 
ATOM     90  C   UNL A   1      46.236  28.730  35.819  1.00  0.00     0.198 A 
ATOM     91  C   UNL A   1      44.730  27.243  36.954  1.00  0.00     0.198 A 
ATOM     92  F   UNL A   1      42.441  27.251  36.418  1.00  0.00    -0.203 F 
ATOM     93  F   UNL A   1      47.478  29.188  35.610  1.00  0.00    -0.200 F 
ATOM     94  C   UNL A   1      46.012  27.734  36.758  1.00  0.00     0.200 A 
ATOM     95  F   UNL A   1      44.510  26.296  37.875  1.00  0.00    -0.200 F 
ATOM     96  F   UNL A   1      47.035  27.246  37.475  1.00  0.00    -0.200 F 
ENDBRANCH  63  86
ENDBRANCH  37  38
ENDBRANCH  29  32
ENDBRANCH  27  28
ENDBRANCH  26  27
ENDBRANCH   1  26
TORSDOF 14
ENDMDL
MODEL 3
REMARK VINA RESULT:     -12.7      0.295      1.145
REMARK SMILES Cc1cc2c(c(C)c1Cl)C=C(C(=O)NCCCCCCNC(=O)c1ccc(-c3c4nc(c(-c5c(F)c(F)c(F)c(F)c5F)c5ccc([nH]5)c(-c5c(F)c(F)c(F)c(F)c5F)c5nc(c(-c6c(F)c(F)c(F)c(F)c6F)c6ccc3[nH]6)C=C5)C=C4)cc1)[C@H](C(F)(F)F)O2
REMARK SMILES IDX 18 1 17 2 16 3 15 4 14 5 12 6 13 7 11 9 1 10 2 11 3 12 8 13
REMARK SMILES IDX 4 14 6 15 9 16 5 17 92 18 7 19 10 20 87 21 88 22 89 23 90 24
REMARK SMILES IDX 91 25 19 26 20 27 21 28 22 29 23 31 24 32 25 33 86 34 26 35
REMARK SMILES IDX 85 36 27 37 28 38 29 39 79 40 30 41 84 42 78 43 80 44 31 45
REMARK SMILES IDX 83 46 77 47 76 48 32 50 64 51 44 52 63 53 45 54 48 55 62 56
REMARK SMILES IDX 81 57 46 58 47 59 61 61 82 62 49 63 33 64 34 65 42 66 35 67
REMARK SMILES IDX 36 68 40 69 43 70 37 71 38 72 41 73 39 74 65 75 66 76 74 77
REMARK SMILES IDX 67 78 68 79 72 80 75 81 69 82 70 83 73 84 71 85 50 86 51 87
REMARK SMILES IDX 59 88 52 89 53 90 57 91 60 92 54 93 55 94 58 95 56 96
REMARK H PARENT 14 8 21 30 80 49 48 60
REMARK Flexibility Score: inf
ROOT
ATOM      1  C   UNL A   1      31.417  30.808  26.095  1.00  0.00     0.002 C 
ENDROOT
BRANCH   1   2
ATOM      2  C   UNL A   1      31.953  29.856  27.170  1.00  0.00     0.002 C 
BRANCH   2   3
ATOM      3  C   UNL A   1      32.530  28.541  26.643  1.00  0.00     0.021 C 
BRANCH   3   4
ATOM      4  C   UNL A   1      33.942  28.661  26.074  1.00  0.00     0.116 C 
BRANCH   4   5
ATOM      5  N   UNL A   1      33.909  28.931  24.651  1.00  0.00    -0.352 N 
ATOM      6  C   UNL A   1      33.624  28.255  23.518  1.00  0.00     0.251 C 
ATOM      7  O   UNL A   1      33.760  28.910  22.479  1.00  0.00    -0.270 OA
ATOM      8  H   UNL A   1      34.163  29.862  24.458  1.00  0.00     0.163 HD
BRANCH   6   9
ATOM      9  C   UNL A   1      33.167  26.835  23.437  1.00  0.00     0.067 C 
ATOM     10  C   UNL A   1      32.429  20.372  23.601  1.00  0.00     0.046 C 
ATOM     11  C   UNL A   1      32.901  21.793  23.733  1.00  0.00    -0.028 A 
ATOM     12  C   UNL A   1      32.163  22.792  23.096  1.00  0.00     0.052 A 
ATOM     13  C   UNL A   1      34.077  22.152  24.425  1.00  0.00     0.047 A 
ATOM     14  C   UNL A   1      32.559  24.120  23.181  1.00  0.00     0.128 A 
ATOM     15  C   UNL A   1      34.495  23.505  24.510  1.00  0.00    -0.021 A 
ATOM     16  Cl  UNL A   1      35.017  20.890  25.160  1.00  0.00    -0.084 Cl
ATOM     17  C   UNL A   1      33.711  24.498  23.875  1.00  0.00     0.022 A 
ATOM     18  O   UNL A   1      31.779  25.004  22.498  1.00  0.00    -0.475 OA
ATOM     19  C   UNL A   1      35.749  23.910  25.248  1.00  0.00     0.047 C 
ATOM     20  C   UNL A   1      34.061  25.923  23.868  1.00  0.00     0.026 C 
ATOM     21  C   UNL A   1      31.818  26.377  22.961  1.00  0.00     0.314 C 
BRANCH  21  22
ATOM     22  C   UNL A   1      30.705  26.596  23.997  1.00  0.00     0.429 C 
ATOM     23  F   UNL A   1      29.548  25.986  23.659  1.00  0.00    -0.167 F 
ATOM     24  F   UNL A   1      31.055  26.140  25.220  1.00  0.00    -0.167 F 
ATOM     25  F   UNL A   1      30.439  27.917  24.148  1.00  0.00    -0.167 F 
ENDBRANCH  21  22
ENDBRANCH   6   9
ENDBRANCH   4   5
ENDBRANCH   3   4
ENDBRANCH   2   3
ENDBRANCH   1   2
BRANCH   1  26
ATOM     26  C   UNL A   1      31.357  32.281  26.500  1.00  0.00     0.021 C 
BRANCH  26  27
ATOM     27  C   UNL A   1      32.630  32.810  27.151  1.00  0.00     0.116 C 
BRANCH  27  28
ATOM     28  N   UNL A   1      32.469  34.177  27.618  1.00  0.00    -0.352 N 
ATOM     29  C   UNL A   1      33.098  34.816  28.656  1.00  0.00     0.251 C 
ATOM     30  H   UNL A   1      31.817  34.720  27.121  1.00  0.00     0.163 HD
ATOM     31  O   UNL A   1      32.683  35.893  29.067  1.00  0.00    -0.269 OA
BRANCH  29  32
ATOM     32  C   UNL A   1      34.276  34.188  29.285  1.00  0.00     0.039 A 
ATOM     33  C   UNL A   1      34.080  33.233  30.283  1.00  0.00     0.014 A 
ATOM     34  C   UNL A   1      35.567  34.548  28.889  1.00  0.00     0.014 A 
ATOM     35  C   UNL A   1      35.184  32.601  30.853  1.00  0.00     0.010 A 
ATOM     36  C   UNL A   1      36.662  33.861  29.400  1.00  0.00     0.010 A 
ATOM     37  C   UNL A   1      36.482  32.893  30.398  1.00  0.00    -0.014 A 
BRANCH  37  38
ATOM     38  C   UNL A   1      37.663  32.211  30.980  1.00  0.00     0.031 A 
ATOM     39  C   UNL A   1      38.147  32.593  32.350  1.00  0.00     0.074 A 
ATOM     40  C   UNL A   1      38.309  31.269  30.267  1.00  0.00     0.049 A 
ATOM     41  N   UNL A   1      39.168  32.130  33.025  1.00  0.00    -0.248 NA
ATOM     42  C   UNL A   1      37.399  33.652  33.048  1.00  0.00     0.031 C 
ATOM     43  C   UNL A   1      37.949  30.841  28.915  1.00  0.00     0.029 A 
ATOM     44  N   UNL A   1      39.403  30.501  30.580  1.00  0.00    -0.354 N 
ATOM     45  C   UNL A   1      39.180  32.835  34.220  1.00  0.00     0.074 A 
ATOM     46  C   UNL A   1      38.111  33.806  34.154  1.00  0.00     0.031 C 
ATOM     47  C   UNL A   1      38.780  29.859  28.530  1.00  0.00     0.029 A 
ATOM     48  C   UNL A   1      39.756  29.617  29.590  1.00  0.00     0.049 A 
ATOM     49  H   UNL A   1      39.888  30.577  31.433  1.00  0.00     0.167 HD
ATOM     50  C   UNL A   1      39.989  32.662  35.292  1.00  0.00     0.037 A 
ATOM     51  C   UNL A   1      40.754  28.713  29.544  1.00  0.00     0.037 A 
ATOM     52  C   UNL A   1      41.038  31.681  35.359  1.00  0.00     0.049 A 
ATOM     53  C   UNL A   1      41.666  28.572  30.733  1.00  0.00     0.074 A 
ATOM     54  C   UNL A   1      41.887  31.401  36.413  1.00  0.00     0.029 A 
ATOM     55  N   UNL A   1      41.381  30.819  34.326  1.00  0.00    -0.354 N 
ATOM     56  N   UNL A   1      41.632  29.203  31.882  1.00  0.00    -0.248 NA
ATOM     57  C   UNL A   1      42.755  27.590  30.622  1.00  0.00     0.031 C 
ATOM     58  C   UNL A   1      42.780  30.408  36.002  1.00  0.00     0.029 A 
ATOM     59  C   UNL A   1      42.449  30.026  34.712  1.00  0.00     0.049 A 
ATOM     60  H   UNL A   1      40.931  30.777  33.452  1.00  0.00     0.167 HD
ATOM     61  C   UNL A   1      42.674  28.682  32.637  1.00  0.00     0.074 A 
ATOM     62  C   UNL A   1      43.312  27.668  31.822  1.00  0.00     0.031 C 
ATOM     63  C   UNL A   1      43.068  29.017  33.890  1.00  0.00     0.037 A 
BRANCH  50  64
ATOM     64  C   UNL A   1      39.759  33.538  36.489  1.00  0.00     0.064 A 
ATOM     65  C   UNL A   1      40.389  34.786  36.615  1.00  0.00     0.173 A 
ATOM     66  C   UNL A   1      38.850  33.159  37.489  1.00  0.00     0.173 A 
ATOM     67  F   UNL A   1      41.276  35.190  35.693  1.00  0.00    -0.203 F 
ATOM     68  C   UNL A   1      40.133  35.612  37.706  1.00  0.00     0.198 A 
ATOM     69  C   UNL A   1      38.572  34.002  38.562  1.00  0.00     0.198 A 
ATOM     70  F   UNL A   1      38.217  31.979  37.415  1.00  0.00    -0.203 F 
ATOM     71  F   UNL A   1      40.778  36.781  37.824  1.00  0.00    -0.200 F 
ATOM     72  C   UNL A   1      39.217  35.225  38.672  1.00  0.00     0.200 A 
ATOM     73  F   UNL A   1      37.675  33.633  39.486  1.00  0.00    -0.200 F 
ATOM     74  F   UNL A   1      38.957  36.030  39.711  1.00  0.00    -0.200 F 
ENDBRANCH  50  64
BRANCH  51  75
ATOM     75  C   UNL A   1      40.913  27.848  28.346  1.00  0.00     0.064 A 
ATOM     76  C   UNL A   1      41.697  28.263  27.261  1.00  0.00     0.173 A 
ATOM     77  C   UNL A   1      40.305  26.587  28.266  1.00  0.00     0.173 A 
ATOM     78  F   UNL A   1      42.284  29.469  27.281  1.00  0.00    -0.203 F 
ATOM     79  C   UNL A   1      41.860  27.454  26.138  1.00  0.00     0.198 A 
ATOM     80  C   UNL A   1      40.491  25.766  27.155  1.00  0.00     0.198 A 
ATOM     81  F   UNL A   1      39.547  26.141  29.278  1.00  0.00    -0.203 F 
ATOM     82  F   UNL A   1      42.586  27.889  25.100  1.00  0.00    -0.200 F 
ATOM     83  C   UNL A   1      41.264  26.202  26.090  1.00  0.00     0.200 A 
ATOM     84  F   UNL A   1      39.928  24.552  27.120  1.00  0.00    -0.200 F 
ATOM     85  F   UNL A   1      41.432  25.419  25.015  1.00  0.00    -0.200 F 
ENDBRANCH  51  75
BRANCH  63  86
ATOM     86  C   UNL A   1      44.236  28.277  34.476  1.00  0.00     0.064 A 
ATOM     87  C   UNL A   1      44.066  27.060  35.152  1.00  0.00     0.173 A 
ATOM     88  C   UNL A   1      45.545  28.744  34.282  1.00  0.00     0.173 A 
ATOM     89  F   UNL A   1      42.833  26.578  35.373  1.00  0.00    -0.203 F 
ATOM     90  C   UNL A   1      45.163  26.342  35.621  1.00  0.00     0.198 A 
ATOM     91  C   UNL A   1      46.641  28.008  34.723  1.00  0.00     0.198 A 
ATOM     92  F   UNL A   1      45.762  29.898  33.633  1.00  0.00    -0.203 F 
ATOM     93  F   UNL A   1      44.975  25.197  36.292  1.00  0.00    -0.200 F 
ATOM     94  C   UNL A   1      46.449  26.810  35.395  1.00  0.00     0.200 A 
ATOM     95  F   UNL A   1      47.883  28.450  34.486  1.00  0.00    -0.200 F 
ATOM     96  F   UNL A   1      47.504  26.105  35.826  1.00  0.00    -0.200 F 
ENDBRANCH  63  86
ENDBRANCH  37  38
ENDBRANCH  29  32
ENDBRANCH  27  28
ENDBRANCH  26  27
ENDBRANCH   1  26
TORSDOF 14
ENDMDL
