MODEL 1
REMARK VINA RESULT:     -12.0      0.000      0.000
REMARK SMILES Cc1ccc(C[N@H+]2CCC[C@@H](C(=O)NCCCCCCNC(=O)c3ccc(-c4c5nc(c(-c6c(F)c(F)c(F)c(F)c6F)c6ccc([nH]6)c(-c6c(F)c(F)c(F)c(F)c6F)c6nc(c(-c7c(F)c(F)c(F)c(F)c7F)c7ccc4[nH]7)C=C6)C=C5)cc3)C2)o1
REMARK SMILES IDX 17 1 16 2 15 3 14 4 12 5 13 6 11 8 7 9 8 10 87 11 9 13 10 14
REMARK SMILES IDX 6 15 5 16 1 17 2 18 3 19 88 20 4 21 18 22 19 23 20 24 21 25
REMARK SMILES IDX 22 26 23 28 24 29 25 30 86 31 26 32 85 33 27 34 28 35 29 36
REMARK SMILES IDX 79 37 30 38 84 39 78 40 80 41 31 42 83 43 77 44 76 45 32 47
REMARK SMILES IDX 64 48 44 49 63 50 45 51 48 52 62 53 81 54 46 55 47 56 61 58
REMARK SMILES IDX 82 59 49 60 33 61 34 62 42 63 35 64 36 65 40 66 43 67 37 68
REMARK SMILES IDX 38 69 41 70 39 71 65 72 66 73 74 74 67 75 68 76 72 77 75 78
REMARK SMILES IDX 69 79 70 80 73 81 71 82 50 83 51 84 59 85 52 86 53 87 57 88
REMARK SMILES IDX 60 89 54 90 55 91 58 92 56 93
REMARK H PARENT 14 7 7 12 21 27 80 46 48 57
REMARK Flexibility Score: inf
ROOT
ATOM      1  C   UNL A   1      32.251  29.779  27.151  1.00  0.00     0.002 C 
ENDROOT
BRANCH   1   2
ATOM      2  C   UNL A   1      32.418  28.311  26.744  1.00  0.00     0.021 C 
BRANCH   2   3
ATOM      3  C   UNL A   1      33.744  28.003  26.056  1.00  0.00     0.116 C 
BRANCH   3   4
ATOM      4  N   UNL A   1      33.514  27.448  24.738  1.00  0.00    -0.356 N 
ATOM      5  C   UNL A   1      33.611  26.165  24.301  1.00  0.00     0.228 C 
ATOM      6  O   UNL A   1      33.545  25.964  23.088  1.00  0.00    -0.275 OA
ATOM      7  H   UNL A   1      33.246  28.102  24.053  1.00  0.00     0.163 HD
BRANCH   5   8
ATOM      8  C   UNL A   1      33.766  25.039  25.304  1.00  0.00     0.133 C 
ATOM      9  N   UNL A   1      32.844  22.816  25.867  1.00  0.00    -0.328 N 
ATOM     10  C   UNL A   1      34.183  22.211  25.825  1.00  0.00     0.262 C 
ATOM     11  C   UNL A   1      32.752  23.956  24.938  1.00  0.00     0.276 C 
ATOM     12  H   UNL A   1      32.707  23.165  26.815  1.00  0.00     0.348 HD
ATOM     13  C   UNL A   1      35.268  23.238  26.171  1.00  0.00     0.062 C 
ATOM     14  C   UNL A   1      35.186  24.474  25.277  1.00  0.00     0.025 C 
BRANCH   9  15
ATOM     15  C   UNL A   1      31.764  21.834  25.626  1.00  0.00     0.338 C 
BRANCH  15  16
ATOM     16  C   UNL A   1      32.157  20.619  24.852  1.00  0.00     0.158 A 
ATOM     17  C   UNL A   1      32.540  17.098  25.227  1.00  0.00     0.087 C 
ATOM     18  C   UNL A   1      32.510  18.462  24.665  1.00  0.00     0.101 A 
ATOM     19  C   UNL A   1      32.602  18.980  23.392  1.00  0.00     0.046 A 
ATOM     20  O   UNL A   1      32.309  19.463  25.559  1.00  0.00    -0.460 OA
ATOM     21  C   UNL A   1      32.381  20.375  23.513  1.00  0.00     0.052 A 
ENDBRANCH  15  16
ENDBRANCH   9  15
ENDBRANCH   5   8
ENDBRANCH   3   4
ENDBRANCH   2   3
ENDBRANCH   1   2
BRANCH   1  22
ATOM     22  C   UNL A   1      31.601  30.675  26.091  1.00  0.00     0.002 C 
BRANCH  22  23
ATOM     23  C   UNL A   1      31.415  32.133  26.509  1.00  0.00     0.021 C 
BRANCH  23  24
ATOM     24  C   UNL A   1      32.597  32.731  27.259  1.00  0.00     0.116 C 
BRANCH  24  25
ATOM     25  N   UNL A   1      32.376  34.124  27.612  1.00  0.00    -0.352 N 
ATOM     26  C   UNL A   1      32.968  34.872  28.597  1.00  0.00     0.251 C 
ATOM     27  H   UNL A   1      31.706  34.597  27.067  1.00  0.00     0.163 HD
ATOM     28  O   UNL A   1      32.530  35.983  28.883  1.00  0.00    -0.269 OA
BRANCH  26  29
ATOM     29  C   UNL A   1      34.127  34.326  29.333  1.00  0.00     0.039 A 
ATOM     30  C   UNL A   1      33.903  33.622  30.518  1.00  0.00     0.014 A 
ATOM     31  C   UNL A   1      35.429  34.505  28.856  1.00  0.00     0.014 A 
ATOM     32  C   UNL A   1      34.981  33.050  31.196  1.00  0.00     0.010 A 
ATOM     33  C   UNL A   1      36.491  33.867  29.488  1.00  0.00     0.010 A 
ATOM     34  C   UNL A   1      36.279  33.140  30.669  1.00  0.00    -0.014 A 
BRANCH  34  35
ATOM     35  C   UNL A   1      37.427  32.485  31.345  1.00  0.00     0.031 A 
ATOM     36  C   UNL A   1      38.141  31.340  30.682  1.00  0.00     0.074 A 
ATOM     37  C   UNL A   1      37.793  32.886  32.578  1.00  0.00     0.049 A 
ATOM     38  N   UNL A   1      39.131  30.609  31.131  1.00  0.00    -0.248 NA
ATOM     39  C   UNL A   1      37.661  30.944  29.349  1.00  0.00     0.031 C 
ATOM     40  C   UNL A   1      37.148  33.952  33.345  1.00  0.00     0.029 A 
ATOM     41  N   UNL A   1      38.791  32.437  33.407  1.00  0.00    -0.354 N 
ATOM     42  C   UNL A   1      39.382  29.666  30.144  1.00  0.00     0.074 A 
ATOM     43  C   UNL A   1      38.402  29.875  29.100  1.00  0.00     0.031 C 
ATOM     44  C   UNL A   1      37.783  34.095  34.519  1.00  0.00     0.029 A 
ATOM     45  C   UNL A   1      38.852  33.105  34.606  1.00  0.00     0.049 A 
ATOM     46  H   UNL A   1      39.405  31.707  33.165  1.00  0.00     0.167 HD
ATOM     47  C   UNL A   1      40.357  28.727  30.099  1.00  0.00     0.037 A 
ATOM     48  C   UNL A   1      39.673  32.932  35.659  1.00  0.00     0.037 A 
ATOM     49  C   UNL A   1      41.342  28.535  31.132  1.00  0.00     0.049 A 
ATOM     50  C   UNL A   1      40.739  31.872  35.591  1.00  0.00     0.074 A 
ATOM     51  C   UNL A   1      42.408  27.653  31.155  1.00  0.00     0.029 A 
ATOM     52  N   UNL A   1      41.378  29.237  32.328  1.00  0.00    -0.354 N 
ATOM     53  N   UNL A   1      41.015  31.035  34.621  1.00  0.00    -0.248 NA
ATOM     54  C   UNL A   1      41.614  31.736  36.764  1.00  0.00     0.031 C 
ATOM     55  C   UNL A   1      43.053  27.780  32.389  1.00  0.00     0.029 A 
ATOM     56  C   UNL A   1      42.430  28.786  33.110  1.00  0.00     0.049 A 
ATOM     57  H   UNL A   1      40.749  29.950  32.585  1.00  0.00     0.167 HD
ATOM     58  C   UNL A   1      42.110  30.297  35.051  1.00  0.00     0.074 A 
ATOM     59  C   UNL A   1      42.457  30.796  36.366  1.00  0.00     0.031 C 
ATOM     60  C   UNL A   1      42.768  29.298  34.414  1.00  0.00     0.037 A 
BRANCH  47  61
ATOM     61  C   UNL A   1      40.407  27.832  28.893  1.00  0.00     0.064 A 
ATOM     62  C   UNL A   1      39.680  26.633  28.834  1.00  0.00     0.173 A 
ATOM     63  C   UNL A   1      41.165  28.193  27.769  1.00  0.00     0.173 A 
ATOM     64  F   UNL A   1      38.947  26.235  29.885  1.00  0.00    -0.203 F 
ATOM     65  C   UNL A   1      39.739  25.811  27.710  1.00  0.00     0.198 A 
ATOM     66  C   UNL A   1      41.194  27.386  26.633  1.00  0.00     0.198 A 
ATOM     67  F   UNL A   1      41.873  29.331  27.767  1.00  0.00    -0.203 F 
ATOM     68  F   UNL A   1      39.081  24.643  27.701  1.00  0.00    -0.200 F 
ATOM     69  C   UNL A   1      40.490  26.193  26.609  1.00  0.00     0.200 A 
ATOM     70  F   UNL A   1      41.907  27.763  25.564  1.00  0.00    -0.200 F 
ATOM     71  F   UNL A   1      40.540  25.405  25.526  1.00  0.00    -0.200 F 
ENDBRANCH  47  61
BRANCH  48  72
ATOM     72  C   UNL A   1      39.537  33.801  36.858  1.00  0.00     0.064 A 
ATOM     73  C   UNL A   1      38.771  33.391  37.959  1.00  0.00     0.173 A 
ATOM     74  C   UNL A   1      40.162  35.053  36.928  1.00  0.00     0.173 A 
ATOM     75  F   UNL A   1      38.139  32.210  37.933  1.00  0.00    -0.203 F 
ATOM     76  C   UNL A   1      38.618  34.212  39.075  1.00  0.00     0.198 A 
ATOM     77  C   UNL A   1      40.033  35.860  38.056  1.00  0.00     0.198 A 
ATOM     78  F   UNL A   1      40.910  35.490  35.904  1.00  0.00    -0.203 F 
ATOM     79  F   UNL A   1      37.841  33.818  40.093  1.00  0.00    -0.200 F 
ATOM     80  C   UNL A   1      39.254  35.443  39.125  1.00  0.00     0.200 A 
ATOM     81  F   UNL A   1      40.662  37.042  38.108  1.00  0.00    -0.200 F 
ATOM     82  F   UNL A   1      39.110  36.231  40.200  1.00  0.00    -0.200 F 
ENDBRANCH  48  72
BRANCH  60  83
ATOM     83  C   UNL A   1      43.956  28.698  35.112  1.00  0.00     0.064 A 
ATOM     84  C   UNL A   1      45.246  29.226  34.961  1.00  0.00     0.173 A 
ATOM     85  C   UNL A   1      43.791  27.605  35.976  1.00  0.00     0.173 A 
ATOM     86  F   UNL A   1      45.461  30.262  34.135  1.00  0.00    -0.203 F 
ATOM     87  C   UNL A   1      46.332  28.666  35.629  1.00  0.00     0.198 A 
ATOM     88  C   UNL A   1      44.872  27.070  36.670  1.00  0.00     0.198 A 
ATOM     89  F   UNL A   1      42.577  27.066  36.163  1.00  0.00    -0.203 F 
ATOM     90  F   UNL A   1      47.563  29.155  35.431  1.00  0.00    -0.200 F 
ATOM     91  C   UNL A   1      46.143  27.595  36.490  1.00  0.00     0.200 A 
ATOM     92  F   UNL A   1      44.685  26.045  37.513  1.00  0.00    -0.200 F 
ATOM     93  F   UNL A   1      47.187  27.064  37.141  1.00  0.00    -0.200 F 
ENDBRANCH  60  83
ENDBRANCH  34  35
ENDBRANCH  26  29
ENDBRANCH  24  25
ENDBRANCH  23  24
ENDBRANCH  22  23
ENDBRANCH   1  22
TORSDOF 15
ENDMDL
MODEL 2
REMARK VINA RESULT:     -12.0      2.044      4.045
REMARK SMILES Cc1ccc(C[N@H+]2CCC[C@@H](C(=O)NCCCCCCNC(=O)c3ccc(-c4c5nc(c(-c6c(F)c(F)c(F)c(F)c6F)c6ccc([nH]6)c(-c6c(F)c(F)c(F)c(F)c6F)c6nc(c(-c7c(F)c(F)c(F)c(F)c7F)c7ccc4[nH]7)C=C6)C=C5)cc3)C2)o1
REMARK SMILES IDX 17 1 16 2 15 3 14 4 12 5 13 6 11 8 7 9 8 10 87 11 9 13 10 14
REMARK SMILES IDX 6 15 5 16 1 17 2 18 3 19 88 20 4 21 18 22 19 23 20 24 21 25
REMARK SMILES IDX 22 26 23 28 24 29 25 30 86 31 26 32 85 33 27 34 28 35 29 36
REMARK SMILES IDX 79 37 30 38 84 39 78 40 80 41 31 42 83 43 77 44 76 45 32 47
REMARK SMILES IDX 64 48 44 49 63 50 45 51 48 52 62 53 81 54 46 55 47 56 61 58
REMARK SMILES IDX 82 59 49 60 33 61 34 62 42 63 35 64 36 65 40 66 43 67 37 68
REMARK SMILES IDX 38 69 41 70 39 71 65 72 66 73 74 74 67 75 68 76 72 77 75 78
REMARK SMILES IDX 69 79 70 80 73 81 71 82 50 83 51 84 59 85 52 86 53 87 57 88
REMARK SMILES IDX 60 89 54 90 55 91 58 92 56 93
REMARK H PARENT 14 7 7 12 21 27 80 46 48 57
REMARK Flexibility Score: inf
ROOT
ATOM      1  C   UNL A   1      32.675  30.086  26.942  1.00  0.00     0.002 C 
ENDROOT
BRANCH   1   2
ATOM      2  C   UNL A   1      33.598  29.226  26.072  1.00  0.00     0.021 C 
BRANCH   2   3
ATOM      3  C   UNL A   1      33.922  27.860  26.670  1.00  0.00     0.116 C 
BRANCH   3   4
ATOM      4  N   UNL A   1      34.082  26.873  25.623  1.00  0.00    -0.356 N 
ATOM      5  C   UNL A   1      33.148  26.257  24.852  1.00  0.00     0.228 C 
ATOM      6  O   UNL A   1      33.512  25.313  24.150  1.00  0.00    -0.275 OA
ATOM      7  H   UNL A   1      35.012  26.608  25.441  1.00  0.00     0.163 HD
BRANCH   5   8
ATOM      8  C   UNL A   1      31.717  26.759  24.859  1.00  0.00     0.133 C 
ATOM      9  N   UNL A   1      30.092  27.973  23.447  1.00  0.00    -0.328 N 
ATOM     10  C   UNL A   1      29.116  26.880  23.571  1.00  0.00     0.262 C 
ATOM     11  C   UNL A   1      31.470  27.458  23.523  1.00  0.00     0.276 C 
ATOM     12  H   UNL A   1      29.938  28.595  24.240  1.00  0.00     0.348 HD
ATOM     13  C   UNL A   1      29.301  26.115  24.887  1.00  0.00     0.062 C 
ATOM     14  C   UNL A   1      30.732  25.606  25.050  1.00  0.00     0.025 C 
BRANCH   9  15
ATOM     15  C   UNL A   1      29.885  28.790  22.231  1.00  0.00     0.338 C 
BRANCH  15  16
ATOM     16  C   UNL A   1      29.266  30.130  22.452  1.00  0.00     0.158 A 
ATOM     17  C   UNL A   1      27.760  32.816  20.660  1.00  0.00     0.087 C 
ATOM     18  C   UNL A   1      28.296  31.966  21.741  1.00  0.00     0.101 A 
ATOM     19  C   UNL A   1      28.226  32.000  23.116  1.00  0.00     0.046 A 
ATOM     20  O   UNL A   1      28.986  30.868  21.339  1.00  0.00    -0.460 OA
ATOM     21  C   UNL A   1      28.859  30.817  23.576  1.00  0.00     0.052 A 
ENDBRANCH  15  16
ENDBRANCH   9  15
ENDBRANCH   5   8
ENDBRANCH   3   4
ENDBRANCH   2   3
ENDBRANCH   1   2
BRANCH   1  22
ATOM     22  C   UNL A   1      31.570  30.824  26.179  1.00  0.00     0.002 C 
BRANCH  22  23
ATOM     23  C   UNL A   1      31.420  32.303  26.537  1.00  0.00     0.021 C 
BRANCH  23  24
ATOM     24  C   UNL A   1      32.592  32.886  27.316  1.00  0.00     0.116 C 
BRANCH  24  25
ATOM     25  N   UNL A   1      32.376  34.279  27.671  1.00  0.00    -0.352 N 
ATOM     26  C   UNL A   1      32.976  35.024  28.653  1.00  0.00     0.251 C 
ATOM     27  H   UNL A   1      31.703  34.753  27.132  1.00  0.00     0.163 HD
ATOM     28  O   UNL A   1      32.542  36.136  28.944  1.00  0.00    -0.269 OA
BRANCH  26  29
ATOM     29  C   UNL A   1      34.139  34.475  29.381  1.00  0.00     0.039 A 
ATOM     30  C   UNL A   1      33.928  33.823  30.598  1.00  0.00     0.014 A 
ATOM     31  C   UNL A   1      35.432  34.600  28.863  1.00  0.00     0.014 A 
ATOM     32  C   UNL A   1      35.008  33.249  31.269  1.00  0.00     0.010 A 
ATOM     33  C   UNL A   1      36.493  33.957  29.493  1.00  0.00     0.010 A 
ATOM     34  C   UNL A   1      36.294  33.283  30.706  1.00  0.00    -0.014 A 
BRANCH  34  35
ATOM     35  C   UNL A   1      37.442  32.623  31.378  1.00  0.00     0.031 A 
ATOM     36  C   UNL A   1      38.156  31.483  30.707  1.00  0.00     0.074 A 
ATOM     37  C   UNL A   1      37.806  33.015  32.615  1.00  0.00     0.049 A 
ATOM     38  N   UNL A   1      39.146  30.748  31.151  1.00  0.00    -0.248 NA
ATOM     39  C   UNL A   1      37.676  31.096  29.371  1.00  0.00     0.031 C 
ATOM     40  C   UNL A   1      37.161  34.075  33.389  1.00  0.00     0.029 A 
ATOM     41  N   UNL A   1      38.804  32.560  33.441  1.00  0.00    -0.354 N 
ATOM     42  C   UNL A   1      39.397  29.812  30.157  1.00  0.00     0.074 A 
ATOM     43  C   UNL A   1      38.417  30.029  29.114  1.00  0.00     0.031 C 
ATOM     44  C   UNL A   1      37.796  34.209  34.564  1.00  0.00     0.029 A 
ATOM     45  C   UNL A   1      38.864  33.219  34.644  1.00  0.00     0.049 A 
ATOM     46  H   UNL A   1      39.418  31.832  33.193  1.00  0.00     0.167 HD
ATOM     47  C   UNL A   1      40.372  28.874  30.106  1.00  0.00     0.037 A 
ATOM     48  C   UNL A   1      39.686  33.039  35.696  1.00  0.00     0.037 A 
ATOM     49  C   UNL A   1      41.356  28.675  31.138  1.00  0.00     0.049 A 
ATOM     50  C   UNL A   1      40.751  31.979  35.622  1.00  0.00     0.074 A 
ATOM     51  C   UNL A   1      42.422  27.793  31.156  1.00  0.00     0.029 A 
ATOM     52  N   UNL A   1      41.392  29.368  32.339  1.00  0.00    -0.354 N 
ATOM     53  N   UNL A   1      41.028  31.149  34.645  1.00  0.00    -0.248 NA
ATOM     54  C   UNL A   1      41.625  31.835  36.794  1.00  0.00     0.031 C 
ATOM     55  C   UNL A   1      43.067  27.911  32.391  1.00  0.00     0.029 A 
ATOM     56  C   UNL A   1      42.444  28.911  33.118  1.00  0.00     0.049 A 
ATOM     57  H   UNL A   1      40.763  30.079  32.601  1.00  0.00     0.167 HD
ATOM     58  C   UNL A   1      42.123  30.408  35.070  1.00  0.00     0.074 A 
ATOM     59  C   UNL A   1      42.469  30.897  36.389  1.00  0.00     0.031 C 
ATOM     60  C   UNL A   1      42.781  29.413  34.426  1.00  0.00     0.037 A 
BRANCH  47  61
ATOM     61  C   UNL A   1      40.422  27.988  28.893  1.00  0.00     0.064 A 
ATOM     62  C   UNL A   1      41.170  28.335  27.757  1.00  0.00     0.173 A 
ATOM     63  C   UNL A   1      39.739  26.763  28.878  1.00  0.00     0.173 A 
ATOM     64  F   UNL A   1      41.833  29.500  27.715  1.00  0.00    -0.203 F 
ATOM     65  C   UNL A   1      41.203  27.505  26.638  1.00  0.00     0.198 A 
ATOM     66  C   UNL A   1      39.802  25.919  27.771  1.00  0.00     0.198 A 
ATOM     67  F   UNL A   1      39.015  26.378  29.939  1.00  0.00    -0.203 F 
ATOM     68  F   UNL A   1      41.877  27.885  25.544  1.00  0.00    -0.200 F 
ATOM     69  C   UNL A   1      40.525  26.296  26.650  1.00  0.00     0.200 A 
ATOM     70  F   UNL A   1      39.160  24.744  27.788  1.00  0.00    -0.200 F 
ATOM     71  F   UNL A   1      40.563  25.496  25.575  1.00  0.00    -0.200 F 
ENDBRANCH  47  61
BRANCH  48  72
ATOM     72  C   UNL A   1      39.548  33.898  36.902  1.00  0.00     0.064 A 
ATOM     73  C   UNL A   1      38.800  33.472  38.008  1.00  0.00     0.173 A 
ATOM     74  C   UNL A   1      40.156  35.159  36.973  1.00  0.00     0.173 A 
ATOM     75  F   UNL A   1      38.184  32.281  37.981  1.00  0.00    -0.203 F 
ATOM     76  C   UNL A   1      38.646  34.284  39.129  1.00  0.00     0.198 A 
ATOM     77  C   UNL A   1      40.027  35.958  38.107  1.00  0.00     0.198 A 
ATOM     78  F   UNL A   1      40.888  35.612  35.944  1.00  0.00    -0.203 F 
ATOM     79  F   UNL A   1      37.885  33.873  40.153  1.00  0.00    -0.200 F 
ATOM     80  C   UNL A   1      39.265  35.524  39.181  1.00  0.00     0.200 A 
ATOM     81  F   UNL A   1      40.639  37.149  38.159  1.00  0.00    -0.200 F 
ATOM     82  F   UNL A   1      39.120  36.303  40.261  1.00  0.00    -0.200 F 
ENDBRANCH  48  72
BRANCH  60  83
ATOM     83  C   UNL A   1      43.969  28.809  35.120  1.00  0.00     0.064 A 
ATOM     84  C   UNL A   1      45.256  29.349  34.989  1.00  0.00     0.173 A 
ATOM     85  C   UNL A   1      43.806  27.697  35.962  1.00  0.00     0.173 A 
ATOM     86  F   UNL A   1      45.468  30.402  34.185  1.00  0.00    -0.203 F 
ATOM     87  C   UNL A   1      46.341  28.784  35.654  1.00  0.00     0.198 A 
ATOM     88  C   UNL A   1      44.887  27.157  36.652  1.00  0.00     0.198 A 
ATOM     89  F   UNL A   1      42.595  27.146  36.129  1.00  0.00    -0.203 F 
ATOM     90  F   UNL A   1      47.570  29.286  35.474  1.00  0.00    -0.200 F 
ATOM     91  C   UNL A   1      46.154  27.694  36.492  1.00  0.00     0.200 A 
ATOM     92  F   UNL A   1      44.702  26.114  37.474  1.00  0.00    -0.200 F 
ATOM     93  F   UNL A   1      47.198  27.158  37.139  1.00  0.00    -0.200 F 
ENDBRANCH  60  83
ENDBRANCH  34  35
ENDBRANCH  26  29
ENDBRANCH  24  25
ENDBRANCH  23  24
ENDBRANCH  22  23
ENDBRANCH   1  22
TORSDOF 15
ENDMDL
MODEL 3
REMARK VINA RESULT:     -11.8      5.615     10.973
REMARK SMILES Cc1ccc(C[N@H+]2CCC[C@@H](C(=O)NCCCCCCNC(=O)c3ccc(-c4c5nc(c(-c6c(F)c(F)c(F)c(F)c6F)c6ccc([nH]6)c(-c6c(F)c(F)c(F)c(F)c6F)c6nc(c(-c7c(F)c(F)c(F)c(F)c7F)c7ccc4[nH]7)C=C6)C=C5)cc3)C2)o1
REMARK SMILES IDX 17 1 16 2 15 3 14 4 12 5 13 6 11 8 7 9 8 10 87 11 9 13 10 14
REMARK SMILES IDX 6 15 5 16 1 17 2 18 3 19 88 20 4 21 18 22 19 23 20 24 21 25
REMARK SMILES IDX 22 26 23 28 24 29 25 30 86 31 26 32 85 33 27 34 28 35 29 36
REMARK SMILES IDX 79 37 30 38 84 39 78 40 80 41 31 42 83 43 77 44 76 45 32 47
REMARK SMILES IDX 64 48 44 49 63 50 45 51 48 52 62 53 81 54 46 55 47 56 61 58
REMARK SMILES IDX 82 59 49 60 33 61 34 62 42 63 35 64 36 65 40 66 43 67 37 68
REMARK SMILES IDX 38 69 41 70 39 71 65 72 66 73 74 74 67 75 68 76 72 77 75 78
REMARK SMILES IDX 69 79 70 80 73 81 71 82 50 83 51 84 59 85 52 86 53 87 57 88
REMARK SMILES IDX 60 89 54 90 55 91 58 92 56 93
REMARK H PARENT 14 7 7 12 21 27 80 46 48 57
REMARK Flexibility Score: inf
ROOT
ATOM      1  C   UNL A   1      37.248  21.214  24.611  1.00  0.00     0.002 C 
ENDROOT
BRANCH   1   2
ATOM      2  C   UNL A   1      37.001  22.218  25.742  1.00  0.00     0.021 C 
BRANCH   2   3
ATOM      3  C   UNL A   1      36.956  23.673  25.283  1.00  0.00     0.116 C 
BRANCH   3   4
ATOM      4  N   UNL A   1      35.739  24.311  25.738  1.00  0.00    -0.356 N 
ATOM      5  C   UNL A   1      34.482  24.260  25.225  1.00  0.00     0.228 C 
ATOM      6  O   UNL A   1      33.642  25.038  25.680  1.00  0.00    -0.275 OA
ATOM      7  H   UNL A   1      35.838  24.868  26.543  1.00  0.00     0.163 HD
BRANCH   5   8
ATOM      8  C   UNL A   1      34.149  23.247  24.148  1.00  0.00     0.133 C 
ATOM      9  N   UNL A   1      33.095  21.033  23.840  1.00  0.00    -0.328 N 
ATOM     10  C   UNL A   1      32.174  21.573  22.830  1.00  0.00     0.262 C 
ATOM     11  C   UNL A   1      33.458  22.065  24.826  1.00  0.00     0.276 C 
ATOM     12  H   UNL A   1      33.941  20.750  23.346  1.00  0.00     0.348 HD
ATOM     13  C   UNL A   1      32.788  22.776  22.104  1.00  0.00     0.062 C 
ATOM     14  C   UNL A   1      33.240  23.858  23.082  1.00  0.00     0.025 C 
BRANCH   9  15
ATOM     15  C   UNL A   1      32.572  19.815  24.499  1.00  0.00     0.338 C 
BRANCH  15  16
ATOM     16  C   UNL A   1      33.207  18.531  24.079  1.00  0.00     0.158 A 
ATOM     17  C   UNL A   1      35.181  15.863  25.374  1.00  0.00     0.087 C 
ATOM     18  C   UNL A   1      34.393  16.728  24.473  1.00  0.00     0.101 A 
ATOM     19  C   UNL A   1      33.868  16.576  23.209  1.00  0.00     0.046 A 
ATOM     20  O   UNL A   1      34.051  17.942  24.975  1.00  0.00    -0.460 OA
ATOM     21  C   UNL A   1      33.107  17.744  22.951  1.00  0.00     0.052 A 
ENDBRANCH  15  16
ENDBRANCH   9  15
ENDBRANCH   5   8
ENDBRANCH   3   4
ENDBRANCH   2   3
ENDBRANCH   1   2
BRANCH   1  22
ATOM     22  C   UNL A   1      36.934  19.756  24.961  1.00  0.00     0.002 C 
BRANCH  22  23
ATOM     23  C   UNL A   1      38.154  18.898  25.295  1.00  0.00     0.021 C 
BRANCH  23  24
ATOM     24  C   UNL A   1      39.380  19.687  25.734  1.00  0.00     0.116 C 
BRANCH  24  25
ATOM     25  N   UNL A   1      40.533  18.831  25.958  1.00  0.00    -0.352 N 
ATOM     26  C   UNL A   1      41.839  19.180  26.189  1.00  0.00     0.251 C 
ATOM     27  H   UNL A   1      40.351  17.863  25.941  1.00  0.00     0.163 HD
ATOM     28  O   UNL A   1      42.724  18.328  26.170  1.00  0.00    -0.269 OA
BRANCH  26  29
ATOM     29  C   UNL A   1      42.184  20.595  26.438  1.00  0.00     0.039 A 
ATOM     30  C   UNL A   1      42.288  21.041  27.758  1.00  0.00     0.014 A 
ATOM     31  C   UNL A   1      42.408  21.476  25.377  1.00  0.00     0.014 A 
ATOM     32  C   UNL A   1      42.670  22.360  28.012  1.00  0.00     0.010 A 
ATOM     33  C   UNL A   1      42.867  22.764  25.633  1.00  0.00     0.010 A 
ATOM     34  C   UNL A   1      42.994  23.222  26.952  1.00  0.00    -0.014 A 
BRANCH  34  35
ATOM     35  C   UNL A   1      43.461  24.608  27.208  1.00  0.00     0.031 A 
ATOM     36  C   UNL A   1      42.510  25.637  27.753  1.00  0.00     0.074 A 
ATOM     37  C   UNL A   1      44.727  24.954  26.900  1.00  0.00     0.049 A 
ATOM     38  N   UNL A   1      42.715  26.908  27.997  1.00  0.00    -0.248 NA
ATOM     39  C   UNL A   1      41.138  25.187  28.034  1.00  0.00     0.031 C 
ATOM     40  C   UNL A   1      45.729  24.058  26.321  1.00  0.00     0.029 A 
ATOM     41  N   UNL A   1      45.383  26.153  27.022  1.00  0.00    -0.354 N 
ATOM     42  C   UNL A   1      41.500  27.406  28.448  1.00  0.00     0.074 A 
ATOM     43  C   UNL A   1      40.547  26.319  28.386  1.00  0.00     0.031 C 
ATOM     44  C   UNL A   1      46.880  24.731  26.165  1.00  0.00     0.029 A 
ATOM     45  C   UNL A   1      46.687  26.112  26.593  1.00  0.00     0.049 A 
ATOM     46  H   UNL A   1      44.960  26.964  27.384  1.00  0.00     0.167 HD
ATOM     47  C   UNL A   1      41.211  28.650  28.899  1.00  0.00     0.037 A 
ATOM     48  C   UNL A   1      47.619  27.083  26.543  1.00  0.00     0.037 A 
ATOM     49  C   UNL A   1      42.168  29.723  28.978  1.00  0.00     0.049 A 
ATOM     50  C   UNL A   1      47.269  28.462  27.035  1.00  0.00     0.074 A 
ATOM     51  C   UNL A   1      41.991  31.002  29.475  1.00  0.00     0.029 A 
ATOM     52  N   UNL A   1      43.482  29.643  28.541  1.00  0.00    -0.354 N 
ATOM     53  N   UNL A   1      46.138  28.902  27.530  1.00  0.00    -0.248 NA
ATOM     54  C   UNL A   1      48.328  29.478  26.969  1.00  0.00     0.031 C 
ATOM     55  C   UNL A   1      43.181  31.713  29.287  1.00  0.00     0.029 A 
ATOM     56  C   UNL A   1      44.120  30.859  28.731  1.00  0.00     0.049 A 
ATOM     57  H   UNL A   1      43.901  28.840  28.154  1.00  0.00     0.167 HD
ATOM     58  C   UNL A   1      46.357  30.233  27.862  1.00  0.00     0.074 A 
ATOM     59  C   UNL A   1      47.735  30.524  27.524  1.00  0.00     0.031 C 
ATOM     60  C   UNL A   1      45.495  31.131  28.397  1.00  0.00     0.037 A 
BRANCH  47  61
ATOM     61  C   UNL A   1      39.801  28.919  29.342  1.00  0.00     0.064 A 
ATOM     62  C   UNL A   1      38.830  29.409  28.454  1.00  0.00     0.173 A 
ATOM     63  C   UNL A   1      39.406  28.655  30.662  1.00  0.00     0.173 A 
ATOM     64  F   UNL A   1      39.156  29.688  27.183  1.00  0.00    -0.203 F 
ATOM     65  C   UNL A   1      37.527  29.658  28.880  1.00  0.00     0.198 A 
ATOM     66  C   UNL A   1      38.093  28.872  31.076  1.00  0.00     0.198 A 
ATOM     67  F   UNL A   1      40.290  28.180  31.551  1.00  0.00    -0.203 F 
ATOM     68  F   UNL A   1      36.633  30.179  28.028  1.00  0.00    -0.200 F 
ATOM     69  C   UNL A   1      37.159  29.382  30.188  1.00  0.00     0.200 A 
ATOM     70  F   UNL A   1      37.734  28.591  32.335  1.00  0.00    -0.200 F 
ATOM     71  F   UNL A   1      35.903  29.615  30.594  1.00  0.00    -0.200 F 
ENDBRANCH  47  61
BRANCH  48  72
ATOM     72  C   UNL A   1      48.981  26.780  26.031  1.00  0.00     0.064 A 
ATOM     73  C   UNL A   1      49.973  26.269  26.881  1.00  0.00     0.173 A 
ATOM     74  C   UNL A   1      49.322  26.996  24.689  1.00  0.00     0.173 A 
ATOM     75  F   UNL A   1      49.702  26.062  28.178  1.00  0.00    -0.203 F 
ATOM     76  C   UNL A   1      51.259  26.008  26.412  1.00  0.00     0.198 A 
ATOM     77  C   UNL A   1      50.599  26.705  24.213  1.00  0.00     0.198 A 
ATOM     78  F   UNL A   1      48.409  27.478  23.832  1.00  0.00    -0.203 F 
ATOM     79  F   UNL A   1      52.201  25.566  27.257  1.00  0.00    -0.200 F 
ATOM     80  C   UNL A   1      51.569  26.220  25.078  1.00  0.00     0.200 A 
ATOM     81  F   UNL A   1      50.891  26.897  22.920  1.00  0.00    -0.200 F 
ATOM     82  F   UNL A   1      52.805  25.965  24.627  1.00  0.00    -0.200 F 
ENDBRANCH  48  72
BRANCH  60  83
ATOM     83  C   UNL A   1      46.024  32.507  28.689  1.00  0.00     0.064 A 
ATOM     84  C   UNL A   1      45.957  33.540  27.744  1.00  0.00     0.173 A 
ATOM     85  C   UNL A   1      46.567  32.804  29.948  1.00  0.00     0.173 A 
ATOM     86  F   UNL A   1      45.461  33.306  26.520  1.00  0.00    -0.203 F 
ATOM     87  C   UNL A   1      46.439  34.814  28.039  1.00  0.00     0.198 A 
ATOM     88  C   UNL A   1      47.015  34.086  30.253  1.00  0.00     0.198 A 
ATOM     89  F   UNL A   1      46.648  31.853  30.892  1.00  0.00    -0.203 F 
ATOM     90  F   UNL A   1      46.410  35.772  27.104  1.00  0.00    -0.200 F 
ATOM     91  C   UNL A   1      46.958  35.087  29.296  1.00  0.00     0.200 A 
ATOM     92  F   UNL A   1      47.503  34.352  31.473  1.00  0.00    -0.200 F 
ATOM     93  F   UNL A   1      47.412  36.315  29.583  1.00  0.00    -0.200 F 
ENDBRANCH  60  83
ENDBRANCH  34  35
ENDBRANCH  26  29
ENDBRANCH  24  25
ENDBRANCH  23  24
ENDBRANCH  22  23
ENDBRANCH   1  22
TORSDOF 15
ENDMDL
