MODEL 1
REMARK VINA RESULT:     -12.7      0.000      0.000
REMARK SMILES O=C(NCCCCCCNC(=O)c1ccccc1/N=C/c1coc2ccccc2c1=O)c1ccc(-c2c3nc(c(-c4c(F)c(F)c(F)c(F)c4F)c4ccc([nH]4)c(-c4c(F)c(F)c(F)c(F)c4F)c4nc(c(-c5c(F)c(F)c(F)c(F)c5F)c5ccc2[nH]5)C=C4)C=C3)cc1
REMARK SMILES IDX 6 1 5 2 4 3 3 4 1 5 2 6 32 8 33 9 94 10 34 11 93 12 35 13
REMARK SMILES IDX 36 14 37 15 87 16 38 17 92 18 86 19 88 20 39 21 91 22 85 23
REMARK SMILES IDX 84 24 40 26 72 27 52 28 71 29 53 30 56 31 70 32 89 33 54 34
REMARK SMILES IDX 55 35 69 37 90 38 57 39 41 40 42 41 50 42 43 43 44 44 48 45
REMARK SMILES IDX 51 46 45 47 46 48 49 49 47 50 73 51 74 52 82 53 75 54 76 55
REMARK SMILES IDX 80 56 83 57 77 58 78 59 81 60 79 61 58 62 59 63 67 64 60 65
REMARK SMILES IDX 61 66 65 67 68 68 62 69 63 70 66 71 64 72 7 73 8 74 9 75
REMARK SMILES IDX 10 76 11 77 12 79 13 80 14 81 18 82 15 83 17 84 16 85 19 86
REMARK SMILES IDX 20 87 21 88 22 89 30 90 23 91 29 92 31 93 24 94 28 95 25 96
REMARK SMILES IDX 27 97 26 98
REMARK H PARENT 3 7 88 25 56 36 10 78
REMARK Flexibility Score: inf
ROOT
ATOM      1  C   UNL A   1      31.363  30.784  25.821  1.00  0.00     0.002 C 
ENDROOT
BRANCH   1   2
ATOM      2  C   UNL A   1      31.265  32.161  26.480  1.00  0.00     0.021 C 
BRANCH   2   3
ATOM      3  C   UNL A   1      32.534  32.682  27.151  1.00  0.00     0.116 C 
BRANCH   3   4
ATOM      4  N   UNL A   1      32.417  34.060  27.596  1.00  0.00    -0.352 N 
ATOM      5  O   UNL A   1      32.731  35.886  28.862  1.00  0.00    -0.269 OA
ATOM      6  C   UNL A   1      33.083  34.743  28.581  1.00  0.00     0.251 C 
ATOM      7  H   UNL A   1      31.747  34.593  27.108  1.00  0.00     0.163 HD
BRANCH   6   8
ATOM      8  C   UNL A   1      34.210  34.132  29.327  1.00  0.00     0.039 A 
ATOM      9  C   UNL A   1      34.013  33.224  30.370  1.00  0.00     0.014 A 
ATOM     10  C   UNL A   1      35.513  34.420  28.897  1.00  0.00     0.014 A 
ATOM     11  C   UNL A   1      35.112  32.669  31.033  1.00  0.00     0.010 A 
ATOM     12  C   UNL A   1      36.611  33.834  29.533  1.00  0.00     0.010 A 
ATOM     13  C   UNL A   1      36.418  32.968  30.617  1.00  0.00    -0.014 A 
BRANCH  13  14
ATOM     14  C   UNL A   1      37.582  32.339  31.290  1.00  0.00     0.031 A 
ATOM     15  C   UNL A   1      38.362  31.250  30.613  1.00  0.00     0.074 A 
ATOM     16  C   UNL A   1      37.926  32.740  32.528  1.00  0.00     0.049 A 
ATOM     17  N   UNL A   1      39.382  30.563  31.065  1.00  0.00    -0.248 NA
ATOM     18  C   UNL A   1      37.940  30.878  29.255  1.00  0.00     0.031 C 
ATOM     19  C   UNL A   1      37.236  33.770  33.303  1.00  0.00     0.029 A 
ATOM     20  N   UNL A   1      38.944  32.324  33.349  1.00  0.00    -0.354 N 
ATOM     21  C   UNL A   1      39.705  29.662  30.061  1.00  0.00     0.074 A 
ATOM     22  C   UNL A   1      38.776  29.887  28.973  1.00  0.00     0.031 C 
ATOM     23  C   UNL A   1      37.861  33.921  34.482  1.00  0.00     0.029 A 
ATOM     24  C   UNL A   1      38.978  32.982  34.552  1.00  0.00     0.049 A 
ATOM     25  H   UNL A   1      39.588  31.623  33.099  1.00  0.00     0.167 HD
ATOM     26  C   UNL A   1      40.689  28.731  30.048  1.00  0.00     0.037 A 
ATOM     27  C   UNL A   1      39.810  32.838  35.600  1.00  0.00     0.037 A 
ATOM     28  C   UNL A   1      41.638  28.520  31.107  1.00  0.00     0.049 A 
ATOM     29  C   UNL A   1      40.909  31.819  35.548  1.00  0.00     0.074 A 
ATOM     30  C   UNL A   1      42.698  27.630  31.154  1.00  0.00     0.029 A 
ATOM     31  N   UNL A   1      41.643  29.212  32.308  1.00  0.00    -0.354 N 
ATOM     32  N   UNL A   1      41.215  30.987  34.585  1.00  0.00    -0.248 NA
ATOM     33  C   UNL A   1      41.774  31.716  36.733  1.00  0.00     0.031 C 
ATOM     34  C   UNL A   1      43.339  27.775  32.390  1.00  0.00     0.029 A 
ATOM     35  C   UNL A   1      42.683  28.763  33.106  1.00  0.00     0.049 A 
ATOM     36  H   UNL A   1      41.003  29.917  32.557  1.00  0.00     0.167 HD
ATOM     37  C   UNL A   1      42.301  30.259  35.045  1.00  0.00     0.074 A 
ATOM     38  C   UNL A   1      42.613  30.755  36.369  1.00  0.00     0.031 C 
ATOM     39  C   UNL A   1      42.975  29.263  34.423  1.00  0.00     0.037 A 
BRANCH  26  40
ATOM     40  C   UNL A   1      40.785  27.857  28.839  1.00  0.00     0.064 A 
ATOM     41  C   UNL A   1      39.985  26.716  28.701  1.00  0.00     0.173 A 
ATOM     42  C   UNL A   1      41.654  28.190  27.790  1.00  0.00     0.173 A 
ATOM     43  F   UNL A   1      39.147  26.356  29.685  1.00  0.00    -0.203 F 
ATOM     44  C   UNL A   1      40.058  25.930  27.554  1.00  0.00     0.198 A 
ATOM     45  C   UNL A   1      41.718  27.407  26.642  1.00  0.00     0.198 A 
ATOM     46  F   UNL A   1      42.438  29.275  27.882  1.00  0.00    -0.203 F 
ATOM     47  F   UNL A   1      39.297  24.831  27.447  1.00  0.00    -0.200 F 
ATOM     48  C   UNL A   1      40.920  26.278  26.525  1.00  0.00     0.200 A 
ATOM     49  F   UNL A   1      42.552  27.743  25.647  1.00  0.00    -0.200 F 
ATOM     50  F   UNL A   1      40.987  25.520  25.421  1.00  0.00    -0.200 F 
ENDBRANCH  26  40
BRANCH  27  51
ATOM     51  C   UNL A   1      39.627  33.697  36.792  1.00  0.00     0.064 A 
ATOM     52  C   UNL A   1      40.213  34.967  36.853  1.00  0.00     0.173 A 
ATOM     53  C   UNL A   1      38.839  33.277  37.871  1.00  0.00     0.173 A 
ATOM     54  F   UNL A   1      40.989  35.397  35.847  1.00  0.00    -0.203 F 
ATOM     55  C   UNL A   1      40.015  35.791  37.958  1.00  0.00     0.198 A 
ATOM     56  C   UNL A   1      38.635  34.107  38.971  1.00  0.00     0.198 A 
ATOM     57  F   UNL A   1      38.265  32.066  37.851  1.00  0.00    -0.203 F 
ATOM     58  F   UNL A   1      40.595  36.999  38.003  1.00  0.00    -0.200 F 
ATOM     59  C   UNL A   1      39.222  35.363  39.013  1.00  0.00     0.200 A 
ATOM     60  F   UNL A   1      37.866  33.692  39.986  1.00  0.00    -0.200 F 
ATOM     61  F   UNL A   1      39.028  36.159  40.073  1.00  0.00    -0.200 F 
ENDBRANCH  27  51
BRANCH  39  62
ATOM     62  C   UNL A   1      44.110  28.641  35.170  1.00  0.00     0.064 A 
ATOM     63  C   UNL A   1      43.898  27.548  36.021  1.00  0.00     0.173 A 
ATOM     64  C   UNL A   1      45.418  29.117  35.012  1.00  0.00     0.173 A 
ATOM     65  F   UNL A   1      42.658  27.071  36.212  1.00  0.00    -0.203 F 
ATOM     66  C   UNL A   1      44.962  26.953  36.695  1.00  0.00     0.198 A 
ATOM     67  C   UNL A   1      46.480  28.515  35.681  1.00  0.00     0.198 A 
ATOM     68  F   UNL A   1      45.664  30.163  34.210  1.00  0.00    -0.203 F 
ATOM     69  F   UNL A   1      44.738  25.920  37.519  1.00  0.00    -0.200 F 
ATOM     70  C   UNL A   1      46.251  27.435  36.522  1.00  0.00     0.200 A 
ATOM     71  F   UNL A   1      47.725  28.983  35.516  1.00  0.00    -0.200 F 
ATOM     72  F   UNL A   1      47.273  26.864  37.173  1.00  0.00    -0.200 F 
ENDBRANCH  39  62
ENDBRANCH  13  14
ENDBRANCH   6   8
ENDBRANCH   3   4
ENDBRANCH   2   3
ENDBRANCH   1   2
BRANCH   1  73
ATOM     73  C   UNL A   1      32.261  29.767  26.527  1.00  0.00     0.002 C 
BRANCH  73  74
ATOM     74  C   UNL A   1      33.445  29.225  25.716  1.00  0.00     0.021 C 
BRANCH  74  75
ATOM     75  C   UNL A   1      33.445  27.719  25.447  1.00  0.00     0.116 C 
BRANCH  75  76
ATOM     76  N   UNL A   1      33.839  27.383  24.090  1.00  0.00    -0.352 N 
ATOM     77  C   UNL A   1      33.092  27.408  22.941  1.00  0.00     0.253 C 
ATOM     78  H   UNL A   1      34.774  27.097  23.980  1.00  0.00     0.163 HD
ATOM     79  O   UNL A   1      33.614  27.137  21.863  1.00  0.00    -0.269 OA
BRANCH  77  80
ATOM     80  C   UNL A   1      31.652  27.720  22.969  1.00  0.00     0.065 A 
ATOM     81  C   UNL A   1      31.256  28.942  22.401  1.00  0.00     0.016 A 
ATOM     82  C   UNL A   1      30.706  26.896  23.586  1.00  0.00     0.076 A 
ATOM     83  C   UNL A   1      29.912  29.324  22.409  1.00  0.00     0.001 A 
ATOM     84  C   UNL A   1      29.360  27.295  23.581  1.00  0.00     0.029 A 
ATOM     85  C   UNL A   1      28.962  28.498  23.000  1.00  0.00     0.002 A 
BRANCH  82  86
ATOM     86  N   UNL A   1      30.947  25.629  24.117  1.00  0.00    -0.255 NA
ATOM     87  C   UNL A   1      30.795  24.557  23.407  1.00  0.00     0.127 C 
BRANCH  87  88
ATOM     88  C   UNL A   1      31.351  23.321  23.991  1.00  0.00     0.076 A 
ATOM     89  C   UNL A   1      31.896  22.524  23.055  1.00  0.00     0.209 A 
ATOM     90  C   UNL A   1      32.084  23.384  25.278  1.00  0.00     0.201 A 
ATOM     91  O   UNL A   1      33.119  21.886  23.210  1.00  0.00    -0.463 OA
ATOM     92  C   UNL A   1      33.540  23.313  25.108  1.00  0.00     0.065 A 
ATOM     93  O   UNL A   1      31.544  23.573  26.356  1.00  0.00    -0.288 OA
ATOM     94  C   UNL A   1      34.004  22.577  24.017  1.00  0.00     0.137 A 
ATOM     95  C   UNL A   1      34.397  24.089  25.884  1.00  0.00     0.016 A 
ATOM     96  C   UNL A   1      35.352  22.611  23.684  1.00  0.00     0.048 A 
ATOM     97  C   UNL A   1      35.744  24.149  25.530  1.00  0.00     0.001 A 
ATOM     98  C   UNL A   1      36.218  23.417  24.434  1.00  0.00     0.004 A 
ENDBRANCH  87  88
ENDBRANCH  82  86
ENDBRANCH  77  80
ENDBRANCH  75  76
ENDBRANCH  74  75
ENDBRANCH  73  74
ENDBRANCH   1  73
TORSDOF 15
ENDMDL
MODEL 2
REMARK VINA RESULT:     -12.7      0.295      1.576
REMARK SMILES O=C(NCCCCCCNC(=O)c1ccccc1/N=C/c1coc2ccccc2c1=O)c1ccc(-c2c3nc(c(-c4c(F)c(F)c(F)c(F)c4F)c4ccc([nH]4)c(-c4c(F)c(F)c(F)c(F)c4F)c4nc(c(-c5c(F)c(F)c(F)c(F)c5F)c5ccc2[nH]5)C=C4)C=C3)cc1
REMARK SMILES IDX 6 1 5 2 4 3 3 4 1 5 2 6 32 8 33 9 94 10 34 11 93 12 35 13
REMARK SMILES IDX 36 14 37 15 87 16 38 17 92 18 86 19 88 20 39 21 91 22 85 23
REMARK SMILES IDX 84 24 40 26 72 27 52 28 71 29 53 30 56 31 70 32 89 33 54 34
REMARK SMILES IDX 55 35 69 37 90 38 57 39 41 40 42 41 50 42 43 43 44 44 48 45
REMARK SMILES IDX 51 46 45 47 46 48 49 49 47 50 73 51 74 52 82 53 75 54 76 55
REMARK SMILES IDX 80 56 83 57 77 58 78 59 81 60 79 61 58 62 59 63 67 64 60 65
REMARK SMILES IDX 61 66 65 67 68 68 62 69 63 70 66 71 64 72 7 73 8 74 9 75
REMARK SMILES IDX 10 76 11 77 12 79 13 80 14 81 18 82 15 83 17 84 16 85 19 86
REMARK SMILES IDX 20 87 21 88 22 89 30 90 23 91 29 92 31 93 24 94 28 95 25 96
REMARK SMILES IDX 27 97 26 98
REMARK H PARENT 3 7 88 25 56 36 10 78
REMARK Flexibility Score: inf
ROOT
ATOM      1  C   UNL A   1      31.331  30.758  25.591  1.00  0.00     0.002 C 
ENDROOT
BRANCH   1   2
ATOM      2  C   UNL A   1      31.190  32.017  26.449  1.00  0.00     0.021 C 
BRANCH   2   3
ATOM      3  C   UNL A   1      32.477  32.566  27.060  1.00  0.00     0.116 C 
BRANCH   3   4
ATOM      4  N   UNL A   1      32.355  33.945  27.501  1.00  0.00    -0.352 N 
ATOM      5  O   UNL A   1      32.676  35.781  28.750  1.00  0.00    -0.269 OA
ATOM      6  C   UNL A   1      33.035  34.642  28.466  1.00  0.00     0.251 C 
ATOM      7  H   UNL A   1      31.666  34.467  27.027  1.00  0.00     0.163 HD
BRANCH   6   8
ATOM      8  C   UNL A   1      34.188  34.049  29.187  1.00  0.00     0.039 A 
ATOM      9  C   UNL A   1      34.032  33.068  30.170  1.00  0.00     0.014 A 
ATOM     10  C   UNL A   1      35.477  34.434  28.793  1.00  0.00     0.014 A 
ATOM     11  C   UNL A   1      35.154  32.534  30.812  1.00  0.00     0.010 A 
ATOM     12  C   UNL A   1      36.599  33.872  29.405  1.00  0.00     0.010 A 
ATOM     13  C   UNL A   1      36.445  32.930  30.432  1.00  0.00    -0.014 A 
BRANCH  13  14
ATOM     14  C   UNL A   1      37.636  32.326  31.080  1.00  0.00     0.031 A 
ATOM     15  C   UNL A   1      38.436  31.268  30.377  1.00  0.00     0.074 A 
ATOM     16  C   UNL A   1      37.987  32.721  32.318  1.00  0.00     0.049 A 
ATOM     17  N   UNL A   1      39.481  30.604  30.805  1.00  0.00    -0.248 NA
ATOM     18  C   UNL A   1      38.005  30.902  29.021  1.00  0.00     0.031 C 
ATOM     19  C   UNL A   1      37.280  33.721  33.116  1.00  0.00     0.029 A 
ATOM     20  N   UNL A   1      39.028  32.323  33.118  1.00  0.00    -0.354 N 
ATOM     21  C   UNL A   1      39.815  29.725  29.785  1.00  0.00     0.074 A 
ATOM     22  C   UNL A   1      38.864  29.938  28.714  1.00  0.00     0.031 C 
ATOM     23  C   UNL A   1      37.918  33.875  34.288  1.00  0.00     0.029 A 
ATOM     24  C   UNL A   1      39.061  32.967  34.330  1.00  0.00     0.049 A 
ATOM     25  H   UNL A   1      39.687  31.644  32.850  1.00  0.00     0.167 HD
ATOM     26  C   UNL A   1      40.824  28.823  29.746  1.00  0.00     0.037 A 
ATOM     27  C   UNL A   1      39.912  32.834  35.363  1.00  0.00     0.037 A 
ATOM     28  C   UNL A   1      41.794  28.625  30.789  1.00  0.00     0.049 A 
ATOM     29  C   UNL A   1      41.038  31.847  35.282  1.00  0.00     0.074 A 
ATOM     30  C   UNL A   1      42.879  27.765  30.809  1.00  0.00     0.029 A 
ATOM     31  N   UNL A   1      41.798  29.302  31.998  1.00  0.00    -0.354 N 
ATOM     32  N   UNL A   1      41.353  31.036  34.304  1.00  0.00    -0.248 NA
ATOM     33  C   UNL A   1      41.923  31.753  36.453  1.00  0.00     0.031 C 
ATOM     34  C   UNL A   1      43.533  27.913  32.038  1.00  0.00     0.029 A 
ATOM     35  C   UNL A   1      42.861  28.873  32.776  1.00  0.00     0.049 A 
ATOM     36  H   UNL A   1      41.142  29.985  32.266  1.00  0.00     0.167 HD
ATOM     37  C   UNL A   1      42.466  30.332  34.739  1.00  0.00     0.074 A 
ATOM     38  C   UNL A   1      42.783  30.821  36.065  1.00  0.00     0.031 C 
ATOM     39  C   UNL A   1      43.158  29.364  34.095  1.00  0.00     0.037 A 
BRANCH  26  40
ATOM     40  C   UNL A   1      40.927  27.968  28.524  1.00  0.00     0.064 A 
ATOM     41  C   UNL A   1      41.749  28.332  27.451  1.00  0.00     0.173 A 
ATOM     42  C   UNL A   1      40.231  26.753  28.447  1.00  0.00     0.173 A 
ATOM     43  F   UNL A   1      42.425  29.490  27.479  1.00  0.00    -0.203 F 
ATOM     44  C   UNL A   1      41.865  27.509  26.333  1.00  0.00     0.198 A 
ATOM     45  C   UNL A   1      40.355  25.930  27.333  1.00  0.00     0.198 A 
ATOM     46  F   UNL A   1      39.433  26.368  29.454  1.00  0.00    -0.203 F 
ATOM     47  F   UNL A   1      42.643  27.881  25.306  1.00  0.00    -0.200 F 
ATOM     48  C   UNL A   1      41.172  26.309  26.276  1.00  0.00     0.200 A 
ATOM     49  F   UNL A   1      39.686  24.770  27.278  1.00  0.00    -0.200 F 
ATOM     50  F   UNL A   1      41.286  25.518  25.200  1.00  0.00    -0.200 F 
ENDBRANCH  26  40
BRANCH  27  51
ATOM     51  C   UNL A   1      39.723  33.672  36.569  1.00  0.00     0.064 A 
ATOM     52  C   UNL A   1      40.344  34.922  36.674  1.00  0.00     0.173 A 
ATOM     53  C   UNL A   1      38.893  33.253  37.617  1.00  0.00     0.173 A 
ATOM     54  F   UNL A   1      41.160  35.349  35.699  1.00  0.00    -0.203 F 
ATOM     55  C   UNL A   1      40.141  35.727  37.791  1.00  0.00     0.198 A 
ATOM     56  C   UNL A   1      38.684  34.065  38.729  1.00  0.00     0.198 A 
ATOM     57  F   UNL A   1      38.284  32.061  37.555  1.00  0.00    -0.203 F 
ATOM     58  F   UNL A   1      40.756  36.916  37.879  1.00  0.00    -0.200 F 
ATOM     59  C   UNL A   1      39.308  35.301  38.815  1.00  0.00     0.200 A 
ATOM     60  F   UNL A   1      37.876  33.651  39.715  1.00  0.00    -0.200 F 
ATOM     61  F   UNL A   1      39.109  36.080  39.887  1.00  0.00    -0.200 F 
ENDBRANCH  27  51
BRANCH  39  62
ATOM     62  C   UNL A   1      44.321  28.765  34.817  1.00  0.00     0.064 A 
ATOM     63  C   UNL A   1      45.600  29.329  34.715  1.00  0.00     0.173 A 
ATOM     64  C   UNL A   1      44.152  27.644  35.641  1.00  0.00     0.173 A 
ATOM     65  F   UNL A   1      45.807  30.394  33.926  1.00  0.00    -0.203 F 
ATOM     66  C   UNL A   1      46.676  28.784  35.411  1.00  0.00     0.198 A 
ATOM     67  C   UNL A   1      45.229  27.107  36.341  1.00  0.00     0.198 A 
ATOM     68  F   UNL A   1      42.946  27.071  35.763  1.00  0.00    -0.203 F 
ATOM     69  F   UNL A   1      47.896  29.326  35.287  1.00  0.00    -0.200 F 
ATOM     70  C   UNL A   1      46.489  27.677  36.225  1.00  0.00     0.200 A 
ATOM     71  F   UNL A   1      45.049  26.035  37.125  1.00  0.00    -0.200 F 
ATOM     72  F   UNL A   1      47.525  27.153  36.893  1.00  0.00    -0.200 F 
ENDBRANCH  39  62
ENDBRANCH  13  14
ENDBRANCH   6   8
ENDBRANCH   3   4
ENDBRANCH   2   3
ENDBRANCH   1   2
BRANCH   1  73
ATOM     73  C   UNL A   1      31.986  29.555  26.272  1.00  0.00     0.002 C 
BRANCH  73  74
ATOM     74  C   UNL A   1      33.365  29.142  25.744  1.00  0.00     0.021 C 
BRANCH  74  75
ATOM     75  C   UNL A   1      33.541  27.661  25.401  1.00  0.00     0.116 C 
BRANCH  75  76
ATOM     76  N   UNL A   1      33.933  27.437  24.021  1.00  0.00    -0.352 N 
ATOM     77  C   UNL A   1      33.169  27.498  22.884  1.00  0.00     0.253 C 
ATOM     78  H   UNL A   1      34.880  27.212  23.881  1.00  0.00     0.163 HD
ATOM     79  O   UNL A   1      33.689  27.329  21.785  1.00  0.00    -0.269 OA
BRANCH  77  80
ATOM     80  C   UNL A   1      31.715  27.728  22.948  1.00  0.00     0.065 A 
ATOM     81  C   UNL A   1      31.237  28.934  22.409  1.00  0.00     0.016 A 
ATOM     82  C   UNL A   1      30.831  26.843  23.574  1.00  0.00     0.076 A 
ATOM     83  C   UNL A   1      29.875  29.239  22.452  1.00  0.00     0.001 A 
ATOM     84  C   UNL A   1      29.465  27.166  23.604  1.00  0.00     0.029 A 
ATOM     85  C   UNL A   1      28.987  28.352  23.051  1.00  0.00     0.002 A 
BRANCH  82  86
ATOM     86  N   UNL A   1      31.155  25.584  24.079  1.00  0.00    -0.255 NA
ATOM     87  C   UNL A   1      30.642  24.504  23.584  1.00  0.00     0.127 C 
BRANCH  87  88
ATOM     88  C   UNL A   1      31.278  23.242  24.013  1.00  0.00     0.076 A 
ATOM     89  C   UNL A   1      31.865  22.601  22.987  1.00  0.00     0.209 A 
ATOM     90  C   UNL A   1      32.013  23.192  25.299  1.00  0.00     0.201 A 
ATOM     91  O   UNL A   1      33.127  22.027  23.065  1.00  0.00    -0.463 OA
ATOM     92  C   UNL A   1      33.469  23.233  25.123  1.00  0.00     0.065 A 
ATOM     93  O   UNL A   1      31.470  23.214  26.392  1.00  0.00    -0.288 OA
ATOM     94  C   UNL A   1      33.972  22.667  23.951  1.00  0.00     0.137 A 
ATOM     95  C   UNL A   1      34.282  23.961  25.990  1.00  0.00     0.016 A 
ATOM     96  C   UNL A   1      35.313  22.826  23.627  1.00  0.00     0.048 A 
ATOM     97  C   UNL A   1      35.621  24.147  25.648  1.00  0.00     0.001 A 
ATOM     98  C   UNL A   1      36.132  23.586  24.471  1.00  0.00     0.004 A 
ENDBRANCH  87  88
ENDBRANCH  82  86
ENDBRANCH  77  80
ENDBRANCH  75  76
ENDBRANCH  74  75
ENDBRANCH  73  74
ENDBRANCH   1  73
TORSDOF 15
ENDMDL
MODEL 3
REMARK VINA RESULT:     -12.7      0.476      1.691
REMARK SMILES O=C(NCCCCCCNC(=O)c1ccccc1/N=C/c1coc2ccccc2c1=O)c1ccc(-c2c3nc(c(-c4c(F)c(F)c(F)c(F)c4F)c4ccc([nH]4)c(-c4c(F)c(F)c(F)c(F)c4F)c4nc(c(-c5c(F)c(F)c(F)c(F)c5F)c5ccc2[nH]5)C=C4)C=C3)cc1
REMARK SMILES IDX 6 1 5 2 4 3 3 4 1 5 2 6 32 8 33 9 94 10 34 11 93 12 35 13
REMARK SMILES IDX 36 14 37 15 87 16 38 17 92 18 86 19 88 20 39 21 91 22 85 23
REMARK SMILES IDX 84 24 40 26 72 27 52 28 71 29 53 30 56 31 70 32 89 33 54 34
REMARK SMILES IDX 55 35 69 37 90 38 57 39 41 40 42 41 50 42 43 43 44 44 48 45
REMARK SMILES IDX 51 46 45 47 46 48 49 49 47 50 73 51 74 52 82 53 75 54 76 55
REMARK SMILES IDX 80 56 83 57 77 58 78 59 81 60 79 61 58 62 59 63 67 64 60 65
REMARK SMILES IDX 61 66 65 67 68 68 62 69 63 70 66 71 64 72 7 73 8 74 9 75
REMARK SMILES IDX 10 76 11 77 12 79 13 80 14 81 18 82 15 83 17 84 16 85 19 86
REMARK SMILES IDX 20 87 21 88 22 89 30 90 23 91 29 92 31 93 24 94 28 95 25 96
REMARK SMILES IDX 27 97 26 98
REMARK H PARENT 3 7 88 25 56 36 10 78
REMARK Flexibility Score: inf
ROOT
ATOM      1  C   UNL A   1      31.044  30.727  25.598  1.00  0.00     0.002 C 
ENDROOT
BRANCH   1   2
ATOM      2  C   UNL A   1      31.060  32.152  26.154  1.00  0.00     0.021 C 
BRANCH   2   3
ATOM      3  C   UNL A   1      32.302  32.556  26.945  1.00  0.00     0.116 C 
BRANCH   3   4
ATOM      4  N   UNL A   1      32.243  33.920  27.440  1.00  0.00    -0.352 N 
ATOM      5  O   UNL A   1      32.697  35.705  28.722  1.00  0.00    -0.269 OA
ATOM      6  C   UNL A   1      33.009  34.569  28.374  1.00  0.00     0.251 C 
ATOM      7  H   UNL A   1      31.534  34.472  27.036  1.00  0.00     0.163 HD
BRANCH   6   8
ATOM      8  C   UNL A   1      34.198  33.929  28.987  1.00  0.00     0.039 A 
ATOM      9  C   UNL A   1      35.494  34.409  28.787  1.00  0.00     0.014 A 
ATOM     10  C   UNL A   1      33.986  32.858  29.866  1.00  0.00     0.014 A 
ATOM     11  C   UNL A   1      36.580  33.774  29.397  1.00  0.00     0.010 A 
ATOM     12  C   UNL A   1      35.066  32.248  30.509  1.00  0.00     0.010 A 
ATOM     13  C   UNL A   1      36.374  32.691  30.265  1.00  0.00    -0.014 A 
BRANCH  13  14
ATOM     14  C   UNL A   1      37.523  32.050  30.951  1.00  0.00     0.031 A 
ATOM     15  C   UNL A   1      38.352  31.014  30.250  1.00  0.00     0.074 A 
ATOM     16  C   UNL A   1      37.809  32.391  32.221  1.00  0.00     0.049 A 
ATOM     17  N   UNL A   1      39.367  30.323  30.707  1.00  0.00    -0.248 NA
ATOM     18  C   UNL A   1      37.992  30.706  28.858  1.00  0.00     0.031 C 
ATOM     19  C   UNL A   1      37.067  33.366  33.020  1.00  0.00     0.029 A 
ATOM     20  N   UNL A   1      38.802  31.952  33.060  1.00  0.00    -0.354 N 
ATOM     21  C   UNL A   1      39.749  29.482  29.671  1.00  0.00     0.074 A 
ATOM     22  C   UNL A   1      38.859  29.747  28.560  1.00  0.00     0.031 C 
ATOM     23  C   UNL A   1      37.642  33.466  34.230  1.00  0.00     0.029 A 
ATOM     24  C   UNL A   1      38.774  32.546  34.296  1.00  0.00     0.049 A 
ATOM     25  H   UNL A   1      39.470  31.277  32.800  1.00  0.00     0.167 HD
ATOM     26  C   UNL A   1      40.752  28.573  29.650  1.00  0.00     0.037 A 
ATOM     27  C   UNL A   1      39.567  32.363  35.368  1.00  0.00     0.037 A 
ATOM     28  C   UNL A   1      41.663  28.324  30.734  1.00  0.00     0.049 A 
ATOM     29  C   UNL A   1      40.688  31.369  35.308  1.00  0.00     0.074 A 
ATOM     30  C   UNL A   1      42.739  27.453  30.778  1.00  0.00     0.029 A 
ATOM     31  N   UNL A   1      41.606  28.951  31.969  1.00  0.00    -0.354 N 
ATOM     32  N   UNL A   1      41.050  30.595  34.316  1.00  0.00    -0.248 NA
ATOM     33  C   UNL A   1      41.507  31.220  36.520  1.00  0.00     0.031 C 
ATOM     34  C   UNL A   1      43.326  27.545  32.045  1.00  0.00     0.029 A 
ATOM     35  C   UNL A   1      42.622  28.481  32.785  1.00  0.00     0.049 A 
ATOM     36  H   UNL A   1      40.941  29.629  32.228  1.00  0.00     0.167 HD
ATOM     37  C   UNL A   1      42.132  29.864  34.781  1.00  0.00     0.074 A 
ATOM     38  C   UNL A   1      42.380  30.296  36.141  1.00  0.00     0.031 C 
ATOM     39  C   UNL A   1      42.851  28.916  34.136  1.00  0.00     0.037 A 
BRANCH  26  40
ATOM     40  C   UNL A   1      40.915  27.766  28.402  1.00  0.00     0.064 A 
ATOM     41  C   UNL A   1      41.764  28.187  27.371  1.00  0.00     0.173 A 
ATOM     42  C   UNL A   1      40.249  26.541  28.256  1.00  0.00     0.173 A 
ATOM     43  F   UNL A   1      42.413  29.357  27.464  1.00  0.00    -0.203 F 
ATOM     44  C   UNL A   1      41.935  27.410  26.228  1.00  0.00     0.198 A 
ATOM     45  C   UNL A   1      40.429  25.763  27.117  1.00  0.00     0.198 A 
ATOM     46  F   UNL A   1      39.426  26.101  29.220  1.00  0.00    -0.203 F 
ATOM     47  F   UNL A   1      42.739  27.837  25.243  1.00  0.00    -0.200 F 
ATOM     48  C   UNL A   1      41.271  26.198  26.104  1.00  0.00     0.200 A 
ATOM     49  F   UNL A   1      39.788  24.592  26.997  1.00  0.00    -0.200 F 
ATOM     50  F   UNL A   1      41.440  25.451  25.003  1.00  0.00    -0.200 F 
ENDBRANCH  26  40
BRANCH  27  51
ATOM     51  C   UNL A   1      39.319  33.154  36.594  1.00  0.00     0.064 A 
ATOM     52  C   UNL A   1      38.442  32.687  37.580  1.00  0.00     0.173 A 
ATOM     53  C   UNL A   1      39.980  34.369  36.817  1.00  0.00     0.173 A 
ATOM     54  F   UNL A   1      37.777  31.536  37.395  1.00  0.00    -0.203 F 
ATOM     55  C   UNL A   1      38.233  33.411  38.750  1.00  0.00     0.198 A 
ATOM     56  C   UNL A   1      39.777  35.087  37.992  1.00  0.00     0.198 A 
ATOM     57  F   UNL A   1      40.825  34.851  35.895  1.00  0.00    -0.203 F 
ATOM     58  F   UNL A   1      37.378  32.953  39.676  1.00  0.00    -0.200 F 
ATOM     59  C   UNL A   1      38.904  34.607  38.959  1.00  0.00     0.200 A 
ATOM     60  F   UNL A   1      40.429  36.240  38.192  1.00  0.00    -0.200 F 
ATOM     61  F   UNL A   1      38.706  35.300  40.088  1.00  0.00    -0.200 F 
ENDBRANCH  27  51
BRANCH  39  62
ATOM     62  C   UNL A   1      43.968  28.277  34.896  1.00  0.00     0.064 A 
ATOM     63  C   UNL A   1      43.764  27.091  35.614  1.00  0.00     0.173 A 
ATOM     64  C   UNL A   1      45.255  28.832  34.880  1.00  0.00     0.173 A 
ATOM     65  F   UNL A   1      42.544  26.534  35.667  1.00  0.00    -0.203 F 
ATOM     66  C   UNL A   1      44.814  26.484  36.299  1.00  0.00     0.198 A 
ATOM     67  C   UNL A   1      46.303  28.218  35.559  1.00  0.00     0.198 A 
ATOM     68  F   UNL A   1      45.491  29.968  34.208  1.00  0.00    -0.203 F 
ATOM     69  F   UNL A   1      44.596  25.359  36.995  1.00  0.00    -0.200 F 
ATOM     70  C   UNL A   1      46.081  27.045  36.268  1.00  0.00     0.200 A 
ATOM     71  F   UNL A   1      47.527  28.762  35.532  1.00  0.00    -0.200 F 
ATOM     72  F   UNL A   1      47.090  26.461  36.929  1.00  0.00    -0.200 F 
ENDBRANCH  39  62
ENDBRANCH  13  14
ENDBRANCH   6   8
ENDBRANCH   3   4
ENDBRANCH   2   3
ENDBRANCH   1   2
BRANCH   1  73
ATOM     73  C   UNL A   1      32.013  29.742  26.255  1.00  0.00     0.002 C 
BRANCH  73  74
ATOM     74  C   UNL A   1      33.271  29.388  25.452  1.00  0.00     0.021 C 
BRANCH  74  75
ATOM     75  C   UNL A   1      33.610  27.899  25.352  1.00  0.00     0.116 C 
BRANCH  75  76
ATOM     76  N   UNL A   1      33.958  27.483  24.005  1.00  0.00    -0.352 N 
ATOM     77  C   UNL A   1      33.169  27.434  22.885  1.00  0.00     0.253 C 
ATOM     78  H   UNL A   1      34.891  27.198  23.878  1.00  0.00     0.163 HD
ATOM     79  O   UNL A   1      33.654  27.101  21.807  1.00  0.00    -0.269 OA
BRANCH  77  80
ATOM     80  C   UNL A   1      31.729  27.738  22.946  1.00  0.00     0.065 A 
ATOM     81  C   UNL A   1      31.310  28.948  22.368  1.00  0.00     0.016 A 
ATOM     82  C   UNL A   1      30.805  26.919  23.604  1.00  0.00     0.076 A 
ATOM     83  C   UNL A   1      29.965  29.322  22.405  1.00  0.00     0.001 A 
ATOM     84  C   UNL A   1      29.457  27.311  23.628  1.00  0.00     0.029 A 
ATOM     85  C   UNL A   1      29.036  28.501  23.037  1.00  0.00     0.002 A 
BRANCH  82  86
ATOM     86  N   UNL A   1      31.069  25.664  24.149  1.00  0.00    -0.255 NA
ATOM     87  C   UNL A   1      30.639  24.579  23.590  1.00  0.00     0.127 C 
BRANCH  87  88
ATOM     88  C   UNL A   1      31.222  23.323  24.102  1.00  0.00     0.076 A 
ATOM     89  C   UNL A   1      31.799  22.601  23.125  1.00  0.00     0.209 A 
ATOM     90  C   UNL A   1      31.937  23.323  25.401  1.00  0.00     0.201 A 
ATOM     91  O   UNL A   1      33.037  21.987  23.258  1.00  0.00    -0.463 OA
ATOM     92  C   UNL A   1      33.396  23.302  25.246  1.00  0.00     0.065 A 
ATOM     93  O   UNL A   1      31.379  23.430  26.482  1.00  0.00    -0.288 OA
ATOM     94  C   UNL A   1      33.894  22.649  24.118  1.00  0.00     0.137 A 
ATOM     95  C   UNL A   1      34.223  24.050  26.081  1.00  0.00     0.016 A 
ATOM     96  C   UNL A   1      35.244  22.740  23.806  1.00  0.00     0.048 A 
ATOM     97  C   UNL A   1      35.572  24.167  25.751  1.00  0.00     0.001 A 
ATOM     98  C   UNL A   1      36.078  23.519  24.617  1.00  0.00     0.004 A 
ENDBRANCH  87  88
ENDBRANCH  82  86
ENDBRANCH  77  80
ENDBRANCH  75  76
ENDBRANCH  74  75
ENDBRANCH  73  74
ENDBRANCH   1  73
TORSDOF 15
ENDMDL
