MODEL 1
REMARK VINA RESULT:     -13.6      0.000      0.000
REMARK SMILES O=C(NCCCCCCNC(=O)c1ccc(-c2c3nc(c(-c4c(F)c(F)c(F)c(F)c4F)c4ccc([nH]4)c(-c4c(F)c(F)c(F)c(F)c4F)c4nc(c(-c5c(F)c(F)c(F)c(F)c5F)c5ccc2[nH]5)C=C4)C=C3)cc1)C1=N[C@@H]2NC=NN2[C@@H]([C@H]2C=NN=C2c2ccc(F)cc2)C1
REMARK SMILES IDX 6 1 5 2 4 3 3 4 1 5 2 6 76 8 77 9 96 10 78 11 83 12 79 13
REMARK SMILES IDX 82 14 80 15 81 17 84 18 85 19 88 20 86 21 87 22 89 23 90 24
REMARK SMILES IDX 95 25 91 26 94 27 92 28 93 29 7 30 8 31 9 32 10 33 11 34
REMARK SMILES IDX 12 36 13 37 14 38 75 39 15 40 74 41 16 42 17 43 18 44 68 45
REMARK SMILES IDX 19 46 73 47 67 48 69 49 20 50 72 51 66 52 65 53 21 55 53 56
REMARK SMILES IDX 33 57 52 58 34 59 37 60 51 61 70 62 35 63 36 64 50 66 71 67
REMARK SMILES IDX 38 68 22 69 23 70 31 71 24 72 25 73 29 74 32 75 26 76 27 77
REMARK SMILES IDX 30 78 28 79 54 80 55 81 63 82 56 83 57 84 61 85 64 86 58 87
REMARK SMILES IDX 59 88 62 89 60 90 39 91 40 92 48 93 41 94 42 95 46 96 49 97
REMARK SMILES IDX 43 98 44 99 47 100 45 101
REMARK H PARENT 3 7 79 16 10 35 69 54 37 65
REMARK Flexibility Score: inf
ROOT
ATOM      1  C   UNL A   1      32.692  29.890  26.873  1.00  0.00     0.002 C 
ENDROOT
BRANCH   1   2
ATOM      2  C   UNL A   1      32.366  28.404  27.027  1.00  0.00     0.021 C 
BRANCH   2   3
ATOM      3  C   UNL A   1      31.942  27.629  25.781  1.00  0.00     0.116 C 
BRANCH   3   4
ATOM      4  N   UNL A   1      30.638  27.008  25.847  1.00  0.00    -0.351 N 
ATOM      5  O   UNL A   1      29.083  25.466  26.335  1.00  0.00    -0.268 OA
ATOM      6  C   UNL A   1      30.271  25.712  26.144  1.00  0.00     0.265 C 
ATOM      7  H   UNL A   1      29.886  27.611  25.646  1.00  0.00     0.163 HD
BRANCH   6   8
ATOM      8  C   UNL A   1      31.269  24.536  26.145  1.00  0.00     0.106 C 
ATOM      9  N   UNL A   1      31.395  23.905  27.262  1.00  0.00    -0.237 NA
ATOM     10  C   UNL A   1      32.058  24.215  24.907  1.00  0.00     0.090 C 
ATOM     11  C   UNL A   1      32.102  22.653  27.303  1.00  0.00     0.319 C 
ATOM     12  C   UNL A   1      33.048  23.071  25.133  1.00  0.00     0.127 C 
ATOM     13  N   UNL A   1      33.253  22.522  28.150  1.00  0.00    -0.335 N 
ATOM     14  N   UNL A   1      32.519  22.018  26.030  1.00  0.00    -0.249 NA
ATOM     15  C   UNL A   1      33.965  21.515  27.569  1.00  0.00     0.217 C 
ATOM     16  H   UNL A   1      33.476  23.038  28.958  1.00  0.00     0.165 HD
ATOM     17  N   UNL A   1      33.562  21.122  26.387  1.00  0.00    -0.164 NA
BRANCH  12  18
ATOM     18  C   UNL A   1      33.564  22.396  23.847  1.00  0.00     0.109 C 
ATOM     19  C   UNL A   1      32.880  22.863  22.609  1.00  0.00     0.120 C 
ATOM     20  C   UNL A   1      34.947  22.826  23.478  1.00  0.00     0.081 C 
ATOM     21  N   UNL A   1      33.676  23.453  21.778  1.00  0.00    -0.162 NA
ATOM     22  N   UNL A   1      34.992  23.443  22.335  1.00  0.00    -0.155 NA
BRANCH  20  23
ATOM     23  C   UNL A   1      36.090  22.644  24.388  1.00  0.00    -0.001 A 
ATOM     24  C   UNL A   1      36.659  23.730  25.067  1.00  0.00     0.013 A 
ATOM     25  C   UNL A   1      36.670  21.374  24.470  1.00  0.00     0.013 A 
ATOM     26  C   UNL A   1      37.836  23.548  25.794  1.00  0.00     0.040 A 
ATOM     27  C   UNL A   1      37.848  21.200  25.196  1.00  0.00     0.040 A 
ATOM     28  C   UNL A   1      38.424  22.288  25.843  1.00  0.00     0.123 A 
ATOM     29  F   UNL A   1      39.570  22.123  26.514  1.00  0.00    -0.207 F 
ENDBRANCH  20  23
ENDBRANCH  12  18
ENDBRANCH   6   8
ENDBRANCH   3   4
ENDBRANCH   2   3
ENDBRANCH   1   2
BRANCH   1  30
ATOM     30  C   UNL A   1      31.671  30.753  26.131  1.00  0.00     0.002 C 
BRANCH  30  31
ATOM     31  C   UNL A   1      31.443  32.165  26.675  1.00  0.00     0.021 C 
BRANCH  31  32
ATOM     32  C   UNL A   1      32.656  32.852  27.297  1.00  0.00     0.116 C 
BRANCH  32  33
ATOM     33  N   UNL A   1      32.405  34.234  27.672  1.00  0.00    -0.352 N 
ATOM     34  C   UNL A   1      33.017  35.008  28.625  1.00  0.00     0.251 C 
ATOM     35  H   UNL A   1      31.688  34.681  27.167  1.00  0.00     0.163 HD
ATOM     36  O   UNL A   1      32.573  36.128  28.883  1.00  0.00    -0.269 OA
BRANCH  34  37
ATOM     37  C   UNL A   1      34.188  34.501  29.374  1.00  0.00     0.039 A 
ATOM     38  C   UNL A   1      33.991  33.968  30.651  1.00  0.00     0.014 A 
ATOM     39  C   UNL A   1      35.477  34.555  28.836  1.00  0.00     0.014 A 
ATOM     40  C   UNL A   1      35.070  33.428  31.355  1.00  0.00     0.010 A 
ATOM     41  C   UNL A   1      36.538  33.947  29.506  1.00  0.00     0.010 A 
ATOM     42  C   UNL A   1      36.347  33.375  30.772  1.00  0.00    -0.014 A 
BRANCH  42  43
ATOM     43  C   UNL A   1      37.485  32.718  31.469  1.00  0.00     0.031 A 
ATOM     44  C   UNL A   1      38.170  31.527  30.856  1.00  0.00     0.074 A 
ATOM     45  C   UNL A   1      37.868  33.160  32.684  1.00  0.00     0.049 A 
ATOM     46  N   UNL A   1      39.132  30.782  31.342  1.00  0.00    -0.248 NA
ATOM     47  C   UNL A   1      37.696  31.102  29.530  1.00  0.00     0.031 C 
ATOM     48  C   UNL A   1      37.257  34.276  33.407  1.00  0.00     0.029 A 
ATOM     49  N   UNL A   1      38.853  32.716  33.532  1.00  0.00    -0.354 N 
ATOM     50  C   UNL A   1      39.373  29.804  30.386  1.00  0.00     0.074 A 
ATOM     51  C   UNL A   1      38.417  30.010  29.320  1.00  0.00     0.031 C 
ATOM     52  C   UNL A   1      37.889  34.441  34.579  1.00  0.00     0.029 A 
ATOM     53  C   UNL A   1      38.920  33.416  34.713  1.00  0.00     0.049 A 
ATOM     54  H   UNL A   1      39.454  31.967  33.314  1.00  0.00     0.167 HD
ATOM     55  C   UNL A   1      40.322  28.837  30.385  1.00  0.00     0.037 A 
ATOM     56  C   UNL A   1      39.711  33.241  35.789  1.00  0.00     0.037 A 
ATOM     57  C   UNL A   1      41.279  28.638  31.444  1.00  0.00     0.049 A 
ATOM     58  C   UNL A   1      40.738  32.140  35.775  1.00  0.00     0.074 A 
ATOM     59  C   UNL A   1      42.304  27.711  31.517  1.00  0.00     0.029 A 
ATOM     60  N   UNL A   1      41.323  29.376  32.618  1.00  0.00    -0.354 N 
ATOM     61  N   UNL A   1      41.000  31.263  34.837  1.00  0.00    -0.248 NA
ATOM     62  C   UNL A   1      41.588  32.009  36.967  1.00  0.00     0.031 C 
ATOM     63  C   UNL A   1      42.934  27.851  32.758  1.00  0.00     0.029 A 
ATOM     64  C   UNL A   1      42.345  28.909  33.431  1.00  0.00     0.049 A 
ATOM     65  H   UNL A   1      40.720  30.121  32.841  1.00  0.00     0.167 HD
ATOM     66  C   UNL A   1      42.060  30.501  35.310  1.00  0.00     0.074 A 
ATOM     67  C   UNL A   1      42.406  31.031  36.611  1.00  0.00     0.031 C 
ATOM     68  C   UNL A   1      42.688  29.453  34.720  1.00  0.00     0.037 A 
BRANCH  55  69
ATOM     69  C   UNL A   1      40.383  27.920  29.196  1.00  0.00     0.064 A 
ATOM     70  C   UNL A   1      41.178  28.218  28.079  1.00  0.00     0.173 A 
ATOM     71  C   UNL A   1      39.678  26.707  29.193  1.00  0.00     0.173 A 
ATOM     72  F   UNL A   1      41.866  29.368  28.026  1.00  0.00    -0.203 F 
ATOM     73  C   UNL A   1      41.244  27.350  26.993  1.00  0.00     0.198 A 
ATOM     74  C   UNL A   1      39.773  25.825  28.119  1.00  0.00     0.198 A 
ATOM     75  F   UNL A   1      38.908  26.367  30.237  1.00  0.00    -0.203 F 
ATOM     76  F   UNL A   1      41.974  27.679  25.917  1.00  0.00    -0.200 F 
ATOM     77  C   UNL A   1      40.549  26.150  27.017  1.00  0.00     0.200 A 
ATOM     78  F   UNL A   1      39.115  24.658  28.151  1.00  0.00    -0.200 F 
ATOM     79  F   UNL A   1      40.625  25.309  25.976  1.00  0.00    -0.200 F 
ENDBRANCH  55  69
BRANCH  56  80
ATOM     80  C   UNL A   1      39.568  34.131  36.974  1.00  0.00     0.064 A 
ATOM     81  C   UNL A   1      40.204  35.379  37.023  1.00  0.00     0.173 A 
ATOM     82  C   UNL A   1      38.813  33.742  38.090  1.00  0.00     0.173 A 
ATOM     83  F   UNL A   1      40.954  35.790  35.990  1.00  0.00    -0.203 F 
ATOM     84  C   UNL A   1      40.116  36.189  38.154  1.00  0.00     0.198 A 
ATOM     85  C   UNL A   1      38.697  34.567  39.207  1.00  0.00     0.198 A 
ATOM     86  F   UNL A   1      38.179  32.559  38.094  1.00  0.00    -0.203 F 
ATOM     87  F   UNL A   1      40.784  37.351  38.197  1.00  0.00    -0.200 F 
ATOM     88  C   UNL A   1      39.358  35.785  39.243  1.00  0.00     0.200 A 
ATOM     89  F   UNL A   1      37.949  34.180  40.249  1.00  0.00    -0.200 F 
ATOM     90  F   UNL A   1      39.275  36.564  40.329  1.00  0.00    -0.200 F 
ENDBRANCH  56  80
BRANCH  68  91
ATOM     91  C   UNL A   1      43.847  28.839  35.455  1.00  0.00     0.064 A 
ATOM     92  C   UNL A   1      45.164  29.277  35.258  1.00  0.00     0.173 A 
ATOM     93  C   UNL A   1      43.628  27.823  36.398  1.00  0.00     0.173 A 
ATOM     94  F   UNL A   1      45.431  30.236  34.358  1.00  0.00    -0.203 F 
ATOM     95  C   UNL A   1      46.223  28.700  35.956  1.00  0.00     0.198 A 
ATOM     96  C   UNL A   1      44.683  27.273  37.119  1.00  0.00     0.198 A 
ATOM     97  F   UNL A   1      42.385  27.372  36.631  1.00  0.00    -0.203 F 
ATOM     98  F   UNL A   1      47.479  29.096  35.712  1.00  0.00    -0.200 F 
ATOM     99  C   UNL A   1      45.980  27.705  36.891  1.00  0.00     0.200 A 
ATOM    100  F   UNL A   1      44.444  26.323  38.035  1.00  0.00    -0.200 F 
ATOM    101  F   UNL A   1      46.999  27.156  37.568  1.00  0.00    -0.200 F 
ENDBRANCH  68  91
ENDBRANCH  42  43
ENDBRANCH  34  37
ENDBRANCH  32  33
ENDBRANCH  31  32
ENDBRANCH  30  31
ENDBRANCH   1  30
TORSDOF 15
ENDMDL
MODEL 2
REMARK VINA RESULT:     -13.5      3.340      8.351
REMARK SMILES O=C(NCCCCCCNC(=O)c1ccc(-c2c3nc(c(-c4c(F)c(F)c(F)c(F)c4F)c4ccc([nH]4)c(-c4c(F)c(F)c(F)c(F)c4F)c4nc(c(-c5c(F)c(F)c(F)c(F)c5F)c5ccc2[nH]5)C=C4)C=C3)cc1)C1=N[C@@H]2NC=NN2[C@@H]([C@H]2C=NN=C2c2ccc(F)cc2)C1
REMARK SMILES IDX 6 1 5 2 4 3 3 4 1 5 2 6 76 8 77 9 96 10 78 11 83 12 79 13
REMARK SMILES IDX 82 14 80 15 81 17 84 18 85 19 88 20 86 21 87 22 89 23 90 24
REMARK SMILES IDX 95 25 91 26 94 27 92 28 93 29 7 30 8 31 9 32 10 33 11 34
REMARK SMILES IDX 12 36 13 37 14 38 75 39 15 40 74 41 16 42 17 43 18 44 68 45
REMARK SMILES IDX 19 46 73 47 67 48 69 49 20 50 72 51 66 52 65 53 21 55 53 56
REMARK SMILES IDX 33 57 52 58 34 59 37 60 51 61 70 62 35 63 36 64 50 66 71 67
REMARK SMILES IDX 38 68 22 69 23 70 31 71 24 72 25 73 29 74 32 75 26 76 27 77
REMARK SMILES IDX 30 78 28 79 54 80 55 81 63 82 56 83 57 84 61 85 64 86 58 87
REMARK SMILES IDX 59 88 62 89 60 90 39 91 40 92 48 93 41 94 42 95 46 96 49 97
REMARK SMILES IDX 43 98 44 99 47 100 45 101
REMARK H PARENT 3 7 79 16 10 35 69 54 37 65
REMARK Flexibility Score: inf
ROOT
ATOM      1  C   UNL A   1      31.958  28.490  24.539  1.00  0.00     0.002 C 
ENDROOT
BRANCH   1   2
ATOM      2  C   UNL A   1      30.723  27.950  23.818  1.00  0.00     0.021 C 
BRANCH   2   3
ATOM      3  C   UNL A   1      30.437  26.452  23.906  1.00  0.00     0.116 C 
BRANCH   3   4
ATOM      4  N   UNL A   1      29.562  26.047  24.984  1.00  0.00    -0.351 N 
ATOM      5  O   UNL A   1      28.944  25.143  26.942  1.00  0.00    -0.268 OA
ATOM      6  C   UNL A   1      29.769  25.176  26.032  1.00  0.00     0.265 C 
ATOM      7  H   UNL A   1      28.670  26.463  24.966  1.00  0.00     0.163 HD
BRANCH   6   8
ATOM      8  C   UNL A   1      30.932  24.164  26.067  1.00  0.00     0.106 C 
ATOM      9  N   UNL A   1      31.148  23.593  27.202  1.00  0.00    -0.237 NA
ATOM     10  C   UNL A   1      31.763  23.927  24.838  1.00  0.00     0.090 C 
ATOM     11  C   UNL A   1      32.036  22.463  27.280  1.00  0.00     0.319 C 
ATOM     12  C   UNL A   1      32.915  22.953  25.096  1.00  0.00     0.127 C 
ATOM     13  N   UNL A   1      33.192  22.533  28.128  1.00  0.00    -0.335 N 
ATOM     14  N   UNL A   1      32.547  21.860  26.026  1.00  0.00    -0.249 NA
ATOM     15  C   UNL A   1      34.048  21.628  27.577  1.00  0.00     0.217 C 
ATOM     16  H   UNL A   1      33.332  23.101  28.919  1.00  0.00     0.165 HD
ATOM     17  N   UNL A   1      33.712  21.142  26.408  1.00  0.00    -0.164 NA
BRANCH  12  18
ATOM     18  C   UNL A   1      33.529  22.325  23.830  1.00  0.00     0.109 C 
ATOM     19  C   UNL A   1      32.848  22.729  22.569  1.00  0.00     0.120 C 
ATOM     20  C   UNL A   1      34.880  22.874  23.505  1.00  0.00     0.081 C 
ATOM     21  N   UNL A   1      33.616  23.386  21.762  1.00  0.00    -0.162 NA
ATOM     22  N   UNL A   1      34.909  23.492  22.362  1.00  0.00    -0.155 NA
BRANCH  20  23
ATOM     23  C   UNL A   1      36.004  22.793  24.453  1.00  0.00    -0.001 A 
ATOM     24  C   UNL A   1      36.361  23.887  25.252  1.00  0.00     0.013 A 
ATOM     25  C   UNL A   1      36.783  21.632  24.452  1.00  0.00     0.013 A 
ATOM     26  C   UNL A   1      37.525  23.830  26.019  1.00  0.00     0.040 A 
ATOM     27  C   UNL A   1      37.947  21.582  25.219  1.00  0.00     0.040 A 
ATOM     28  C   UNL A   1      38.312  22.682  25.987  1.00  0.00     0.123 A 
ATOM     29  F   UNL A   1      39.445  22.642  26.699  1.00  0.00    -0.207 F 
ENDBRANCH  20  23
ENDBRANCH  12  18
ENDBRANCH   6   8
ENDBRANCH   3   4
ENDBRANCH   2   3
ENDBRANCH   1   2
BRANCH   1  30
ATOM     30  C   UNL A   1      33.026  27.474  24.946  1.00  0.00     0.002 C 
BRANCH  30  31
ATOM     31  C   UNL A   1      34.041  27.930  25.996  1.00  0.00     0.021 C 
BRANCH  31  32
ATOM     32  C   UNL A   1      33.468  28.381  27.337  1.00  0.00     0.116 C 
BRANCH  32  33
ATOM     33  N   UNL A   1      33.458  29.825  27.502  1.00  0.00    -0.352 N 
ATOM     34  C   UNL A   1      34.437  30.659  27.981  1.00  0.00     0.251 C 
ATOM     35  H   UNL A   1      32.624  30.272  27.230  1.00  0.00     0.163 HD
ATOM     36  O   UNL A   1      34.190  31.852  28.165  1.00  0.00    -0.269 OA
BRANCH  34  37
ATOM     37  C   UNL A   1      35.781  30.136  28.312  1.00  0.00     0.039 A 
ATOM     38  C   UNL A   1      36.788  30.210  27.347  1.00  0.00     0.014 A 
ATOM     39  C   UNL A   1      36.054  29.565  29.558  1.00  0.00     0.014 A 
ATOM     40  C   UNL A   1      38.082  29.779  27.653  1.00  0.00     0.010 A 
ATOM     41  C   UNL A   1      37.361  29.207  29.889  1.00  0.00     0.010 A 
ATOM     42  C   UNL A   1      38.390  29.311  28.941  1.00  0.00    -0.014 A 
BRANCH  42  43
ATOM     43  C   UNL A   1      39.782  28.938  29.312  1.00  0.00     0.031 A 
ATOM     44  C   UNL A   1      40.632  29.876  30.125  1.00  0.00     0.074 A 
ATOM     45  C   UNL A   1      40.301  27.776  28.868  1.00  0.00     0.049 A 
ATOM     46  N   UNL A   1      41.885  29.756  30.488  1.00  0.00    -0.248 NA
ATOM     47  C   UNL A   1      39.997  31.126  30.570  1.00  0.00     0.031 C 
ATOM     48  C   UNL A   1      39.597  26.800  28.036  1.00  0.00     0.029 A 
ATOM     49  N   UNL A   1      41.546  27.223  29.044  1.00  0.00    -0.354 N 
ATOM     50  C   UNL A   1      42.186  30.911  31.197  1.00  0.00     0.074 A 
ATOM     51  C   UNL A   1      41.007  31.748  31.162  1.00  0.00     0.031 C 
ATOM     52  C   UNL A   1      40.412  25.763  27.787  1.00  0.00     0.029 A 
ATOM     53  C   UNL A   1      41.710  26.018  28.403  1.00  0.00     0.049 A 
ATOM     54  H   UNL A   1      42.255  27.649  29.579  1.00  0.00     0.167 HD
ATOM     55  C   UNL A   1      43.333  31.234  31.842  1.00  0.00     0.037 A 
ATOM     56  C   UNL A   1      42.790  25.219  28.308  1.00  0.00     0.037 A 
ATOM     57  C   UNL A   1      44.505  30.397  31.882  1.00  0.00     0.049 A 
ATOM     58  C   UNL A   1      44.062  25.615  29.009  1.00  0.00     0.074 A 
ATOM     59  C   UNL A   1      45.702  30.619  32.540  1.00  0.00     0.029 A 
ATOM     60  N   UNL A   1      44.627  29.177  31.231  1.00  0.00    -0.354 N 
ATOM     61  N   UNL A   1      44.313  26.679  29.732  1.00  0.00    -0.248 NA
ATOM     62  C   UNL A   1      45.201  24.693  28.889  1.00  0.00     0.031 C 
ATOM     63  C   UNL A   1      46.568  29.561  32.244  1.00  0.00     0.029 A 
ATOM     64  C   UNL A   1      45.889  28.647  31.455  1.00  0.00     0.049 A 
ATOM     65  H   UNL A   1      43.923  28.752  30.691  1.00  0.00     0.167 HD
ATOM     66  C   UNL A   1      45.621  26.540  30.176  1.00  0.00     0.074 A 
ATOM     67  C   UNL A   1      46.106  25.280  29.658  1.00  0.00     0.031 C 
ATOM     68  C   UNL A   1      46.356  27.384  30.943  1.00  0.00     0.037 A 
BRANCH  55  69
ATOM     69  C   UNL A   1      43.379  32.550  32.567  1.00  0.00     0.064 A 
ATOM     70  C   UNL A   1      43.792  33.727  31.925  1.00  0.00     0.173 A 
ATOM     71  C   UNL A   1      42.961  32.645  33.902  1.00  0.00     0.173 A 
ATOM     72  F   UNL A   1      44.211  33.692  30.651  1.00  0.00    -0.203 F 
ATOM     73  C   UNL A   1      43.808  34.945  32.599  1.00  0.00     0.198 A 
ATOM     74  C   UNL A   1      42.946  33.871  34.564  1.00  0.00     0.198 A 
ATOM     75  F   UNL A   1      42.549  31.553  34.563  1.00  0.00    -0.203 F 
ATOM     76  F   UNL A   1      44.251  36.048  31.978  1.00  0.00    -0.200 F 
ATOM     77  C   UNL A   1      43.377  35.018  33.915  1.00  0.00     0.200 A 
ATOM     78  F   UNL A   1      42.513  33.943  35.830  1.00  0.00    -0.200 F 
ATOM     79  F   UNL A   1      43.381  36.193  34.559  1.00  0.00    -0.200 F 
ENDBRANCH  55  69
BRANCH  56  80
ATOM     80  C   UNL A   1      42.718  23.957  27.520  1.00  0.00     0.064 A 
ATOM     81  C   UNL A   1      42.391  22.739  28.131  1.00  0.00     0.173 A 
ATOM     82  C   UNL A   1      42.998  23.941  26.146  1.00  0.00     0.173 A 
ATOM     83  F   UNL A   1      42.134  22.697  29.447  1.00  0.00    -0.203 F 
ATOM     84  C   UNL A   1      42.377  21.550  27.406  1.00  0.00     0.198 A 
ATOM     85  C   UNL A   1      42.951  22.756  25.414  1.00  0.00     0.198 A 
ATOM     86  F   UNL A   1      43.312  25.079  25.510  1.00  0.00    -0.203 F 
ATOM     87  F   UNL A   1      42.120  20.390  28.028  1.00  0.00    -0.200 F 
ATOM     88  C   UNL A   1      42.652  21.559  26.047  1.00  0.00     0.200 A 
ATOM     89  F   UNL A   1      43.199  22.773  24.097  1.00  0.00    -0.200 F 
ATOM     90  F   UNL A   1      42.639  20.415  25.350  1.00  0.00    -0.200 F 
ENDBRANCH  56  80
BRANCH  68  91
ATOM     91  C   UNL A   1      47.748  26.951  31.309  1.00  0.00     0.064 A 
ATOM     92  C   UNL A   1      47.999  26.115  32.408  1.00  0.00     0.173 A 
ATOM     93  C   UNL A   1      48.841  27.347  30.524  1.00  0.00     0.173 A 
ATOM     94  F   UNL A   1      46.991  25.719  33.200  1.00  0.00    -0.203 F 
ATOM     95  C   UNL A   1      49.296  25.719  32.725  1.00  0.00     0.198 A 
ATOM     96  C   UNL A   1      50.132  26.920  30.823  1.00  0.00     0.198 A 
ATOM     97  F   UNL A   1      48.657  28.139  29.457  1.00  0.00    -0.203 F 
ATOM     98  F   UNL A   1      49.518  24.966  33.811  1.00  0.00    -0.200 F 
ATOM     99  C   UNL A   1      50.359  26.114  31.927  1.00  0.00     0.200 A 
ATOM    100  F   UNL A   1      51.156  27.289  30.040  1.00  0.00    -0.200 F 
ATOM    101  F   UNL A   1      51.606  25.724  32.228  1.00  0.00    -0.200 F 
ENDBRANCH  68  91
ENDBRANCH  42  43
ENDBRANCH  34  37
ENDBRANCH  32  33
ENDBRANCH  31  32
ENDBRANCH  30  31
ENDBRANCH   1  30
TORSDOF 15
ENDMDL
MODEL 3
REMARK VINA RESULT:     -13.4      3.926      7.990
REMARK SMILES O=C(NCCCCCCNC(=O)c1ccc(-c2c3nc(c(-c4c(F)c(F)c(F)c(F)c4F)c4ccc([nH]4)c(-c4c(F)c(F)c(F)c(F)c4F)c4nc(c(-c5c(F)c(F)c(F)c(F)c5F)c5ccc2[nH]5)C=C4)C=C3)cc1)C1=N[C@@H]2NC=NN2[C@@H]([C@H]2C=NN=C2c2ccc(F)cc2)C1
REMARK SMILES IDX 6 1 5 2 4 3 3 4 1 5 2 6 76 8 77 9 96 10 78 11 83 12 79 13
REMARK SMILES IDX 82 14 80 15 81 17 84 18 85 19 88 20 86 21 87 22 89 23 90 24
REMARK SMILES IDX 95 25 91 26 94 27 92 28 93 29 7 30 8 31 9 32 10 33 11 34
REMARK SMILES IDX 12 36 13 37 14 38 75 39 15 40 74 41 16 42 17 43 18 44 68 45
REMARK SMILES IDX 19 46 73 47 67 48 69 49 20 50 72 51 66 52 65 53 21 55 53 56
REMARK SMILES IDX 33 57 52 58 34 59 37 60 51 61 70 62 35 63 36 64 50 66 71 67
REMARK SMILES IDX 38 68 22 69 23 70 31 71 24 72 25 73 29 74 32 75 26 76 27 77
REMARK SMILES IDX 30 78 28 79 54 80 55 81 63 82 56 83 57 84 61 85 64 86 58 87
REMARK SMILES IDX 59 88 62 89 60 90 39 91 40 92 48 93 41 94 42 95 46 96 49 97
REMARK SMILES IDX 43 98 44 99 47 100 45 101
REMARK H PARENT 3 7 79 16 10 35 69 54 37 65
REMARK Flexibility Score: inf
ROOT
ATOM      1  C   UNL A   1      34.071  21.536  26.062  1.00  0.00     0.002 C 
ENDROOT
BRANCH   1   2
ATOM      2  C   UNL A   1      33.850  21.375  24.558  1.00  0.00     0.021 C 
BRANCH   2   3
ATOM      3  C   UNL A   1      32.804  22.263  23.887  1.00  0.00     0.116 C 
BRANCH   3   4
ATOM      4  N   UNL A   1      32.963  22.446  22.461  1.00  0.00    -0.351 N 
ATOM      5  O   UNL A   1      33.481  23.470  20.533  1.00  0.00    -0.268 OA
ATOM      6  C   UNL A   1      33.175  23.587  21.717  1.00  0.00     0.265 C 
ATOM      7  H   UNL A   1      32.913  21.616  21.933  1.00  0.00     0.163 HD
BRANCH   6   8
ATOM      8  C   UNL A   1      32.942  25.007  22.273  1.00  0.00     0.106 C 
ATOM      9  N   UNL A   1      33.587  25.954  21.684  1.00  0.00    -0.237 NA
ATOM     10  C   UNL A   1      32.045  25.215  23.460  1.00  0.00     0.090 C 
ATOM     11  C   UNL A   1      33.255  27.327  21.958  1.00  0.00     0.319 C 
ATOM     12  C   UNL A   1      32.009  26.677  23.908  1.00  0.00     0.127 C 
ATOM     13  N   UNL A   1      34.262  28.205  22.482  1.00  0.00    -0.335 N 
ATOM     14  N   UNL A   1      32.055  27.630  22.775  1.00  0.00    -0.249 NA
ATOM     15  C   UNL A   1      33.545  29.171  23.121  1.00  0.00     0.217 C 
ATOM     16  H   UNL A   1      35.240  28.126  22.400  1.00  0.00     0.165 HD
ATOM     17  N   UNL A   1      32.262  28.948  23.262  1.00  0.00    -0.164 NA
BRANCH  12  18
ATOM     18  C   UNL A   1      30.813  27.051  24.805  1.00  0.00     0.109 C 
ATOM     19  C   UNL A   1      29.851  25.934  25.018  1.00  0.00     0.120 C 
ATOM     20  C   UNL A   1      31.197  27.251  26.235  1.00  0.00     0.081 C 
ATOM     21  N   UNL A   1      29.760  25.568  26.255  1.00  0.00    -0.162 NA
ATOM     22  N   UNL A   1      30.627  26.397  27.032  1.00  0.00    -0.155 NA
BRANCH  20  23
ATOM     23  C   UNL A   1      32.197  28.252  26.642  1.00  0.00    -0.001 A 
ATOM     24  C   UNL A   1      31.839  29.588  26.868  1.00  0.00     0.013 A 
ATOM     25  C   UNL A   1      33.540  27.862  26.684  1.00  0.00     0.013 A 
ATOM     26  C   UNL A   1      32.833  30.540  27.096  1.00  0.00     0.040 A 
ATOM     27  C   UNL A   1      34.529  28.819  26.909  1.00  0.00     0.040 A 
ATOM     28  C   UNL A   1      34.168  30.148  27.104  1.00  0.00     0.123 A 
ATOM     29  F   UNL A   1      35.122  31.068  27.290  1.00  0.00    -0.207 F 
ENDBRANCH  20  23
ENDBRANCH  12  18
ENDBRANCH   6   8
ENDBRANCH   3   4
ENDBRANCH   2   3
ENDBRANCH   1   2
BRANCH   1  30
ATOM     30  C   UNL A   1      35.372  22.205  26.507  1.00  0.00     0.002 C 
BRANCH  30  31
ATOM     31  C   UNL A   1      35.665  23.589  25.924  1.00  0.00     0.021 C 
BRANCH  31  32
ATOM     32  C   UNL A   1      36.934  23.711  25.084  1.00  0.00     0.116 C 
BRANCH  32  33
ATOM     33  N   UNL A   1      37.957  22.743  25.443  1.00  0.00    -0.352 N 
ATOM     34  C   UNL A   1      39.114  22.916  26.160  1.00  0.00     0.251 C 
ATOM     35  H   UNL A   1      37.796  21.826  25.124  1.00  0.00     0.163 HD
ATOM     36  O   UNL A   1      39.923  21.992  26.252  1.00  0.00    -0.269 OA
BRANCH  34  37
ATOM     37  C   UNL A   1      39.420  24.215  26.801  1.00  0.00     0.039 A 
ATOM     38  C   UNL A   1      38.977  24.442  28.107  1.00  0.00     0.014 A 
ATOM     39  C   UNL A   1      40.128  25.213  26.125  1.00  0.00     0.014 A 
ATOM     40  C   UNL A   1      39.303  25.635  28.757  1.00  0.00     0.010 A 
ATOM     41  C   UNL A   1      40.518  26.369  26.800  1.00  0.00     0.010 A 
ATOM     42  C   UNL A   1      40.112  26.593  28.124  1.00  0.00    -0.014 A 
BRANCH  42  43
ATOM     43  C   UNL A   1      40.547  27.825  28.836  1.00  0.00     0.031 A 
ATOM     44  C   UNL A   1      41.945  27.938  29.380  1.00  0.00     0.074 A 
ATOM     45  C   UNL A   1      39.664  28.823  29.041  1.00  0.00     0.049 A 
ATOM     46  N   UNL A   1      42.485  28.900  30.085  1.00  0.00    -0.248 NA
ATOM     47  C   UNL A   1      42.849  26.808  29.118  1.00  0.00     0.031 C 
ATOM     48  C   UNL A   1      38.268  28.818  28.604  1.00  0.00     0.029 A 
ATOM     49  N   UNL A   1      39.806  30.030  29.682  1.00  0.00    -0.354 N 
ATOM     50  C   UNL A   1      43.785  28.492  30.351  1.00  0.00     0.074 A 
ATOM     51  C   UNL A   1      43.935  27.168  29.787  1.00  0.00     0.031 C 
ATOM     52  C   UNL A   1      37.686  29.970  28.973  1.00  0.00     0.029 A 
ATOM     53  C   UNL A   1      38.653  30.777  29.712  1.00  0.00     0.049 A 
ATOM     54  H   UNL A   1      40.654  30.330  30.083  1.00  0.00     0.167 HD
ATOM     55  C   UNL A   1      44.773  29.168  30.985  1.00  0.00     0.037 A 
ATOM     56  C   UNL A   1      38.398  31.969  30.285  1.00  0.00     0.037 A 
ATOM     57  C   UNL A   1      44.625  30.490  31.540  1.00  0.00     0.049 A 
ATOM     58  C   UNL A   1      39.506  32.687  31.010  1.00  0.00     0.074 A 
ATOM     59  C   UNL A   1      45.576  31.274  32.167  1.00  0.00     0.029 A 
ATOM     60  N   UNL A   1      43.444  31.219  31.538  1.00  0.00    -0.354 N 
ATOM     61  N   UNL A   1      40.749  32.318  31.197  1.00  0.00    -0.248 NA
ATOM     62  C   UNL A   1      39.175  33.994  31.596  1.00  0.00     0.031 C 
ATOM     63  C   UNL A   1      44.960  32.455  32.593  1.00  0.00     0.029 A 
ATOM     64  C   UNL A   1      43.640  32.436  32.173  1.00  0.00     0.049 A 
ATOM     65  H   UNL A   1      42.594  30.918  31.143  1.00  0.00     0.167 HD
ATOM     66  C   UNL A   1      41.355  33.356  31.893  1.00  0.00     0.074 A 
ATOM     67  C   UNL A   1      40.348  34.379  32.077  1.00  0.00     0.031 C 
ATOM     68  C   UNL A   1      42.632  33.452  32.340  1.00  0.00     0.037 A 
BRANCH  55  69
ATOM     69  C   UNL A   1      46.111  28.496  31.110  1.00  0.00     0.064 A 
ATOM     70  C   UNL A   1      47.115  28.676  30.147  1.00  0.00     0.173 A 
ATOM     71  C   UNL A   1      46.411  27.703  32.227  1.00  0.00     0.173 A 
ATOM     72  F   UNL A   1      46.879  29.418  29.054  1.00  0.00    -0.203 F 
ATOM     73  C   UNL A   1      48.360  28.067  30.284  1.00  0.00     0.198 A 
ATOM     74  C   UNL A   1      47.668  27.123  32.378  1.00  0.00     0.198 A 
ATOM     75  F   UNL A   1      45.492  27.503  33.183  1.00  0.00    -0.203 F 
ATOM     76  F   UNL A   1      49.287  28.216  29.326  1.00  0.00    -0.200 F 
ATOM     77  C   UNL A   1      48.639  27.298  31.403  1.00  0.00     0.200 A 
ATOM     78  F   UNL A   1      47.943  26.394  33.469  1.00  0.00    -0.200 F 
ATOM     79  F   UNL A   1      49.841  26.723  31.540  1.00  0.00    -0.200 F 
ENDBRANCH  55  69
BRANCH  56  80
ATOM     80  C   UNL A   1      37.036  32.565  30.196  1.00  0.00     0.064 A 
ATOM     81  C   UNL A   1      36.662  33.352  29.098  1.00  0.00     0.173 A 
ATOM     82  C   UNL A   1      36.092  32.379  31.216  1.00  0.00     0.173 A 
ATOM     83  F   UNL A   1      37.534  33.577  28.105  1.00  0.00    -0.203 F 
ATOM     84  C   UNL A   1      35.407  33.956  29.040  1.00  0.00     0.198 A 
ATOM     85  C   UNL A   1      34.825  32.955  31.140  1.00  0.00     0.198 A 
ATOM     86  F   UNL A   1      36.397  31.630  32.286  1.00  0.00    -0.203 F 
ATOM     87  F   UNL A   1      35.097  34.754  28.008  1.00  0.00    -0.200 F 
ATOM     88  C   UNL A   1      34.488  33.753  30.057  1.00  0.00     0.200 A 
ATOM     89  F   UNL A   1      33.935  32.740  32.118  1.00  0.00    -0.200 F 
ATOM     90  F   UNL A   1      33.282  34.334  30.001  1.00  0.00    -0.200 F 
ENDBRANCH  56  80
BRANCH  68  91
ATOM     91  C   UNL A   1      43.028  34.726  33.033  1.00  0.00     0.064 A 
ATOM     92  C   UNL A   1      43.481  35.846  32.321  1.00  0.00     0.173 A 
ATOM     93  C   UNL A   1      42.915  34.838  34.427  1.00  0.00     0.173 A 
ATOM     94  F   UNL A   1      43.621  35.788  30.988  1.00  0.00    -0.203 F 
ATOM     95  C   UNL A   1      43.835  37.020  32.982  1.00  0.00     0.198 A 
ATOM     96  C   UNL A   1      43.235  36.024  35.081  1.00  0.00     0.198 A 
ATOM     97  F   UNL A   1      42.479  33.799  35.157  1.00  0.00    -0.203 F 
ATOM     98  F   UNL A   1      44.318  38.059  32.286  1.00  0.00    -0.200 F 
ATOM     99  C   UNL A   1      43.704  37.110  34.359  1.00  0.00     0.200 A 
ATOM    100  F   UNL A   1      43.091  36.114  36.411  1.00  0.00    -0.200 F 
ATOM    101  F   UNL A   1      44.037  38.244  34.993  1.00  0.00    -0.200 F 
ENDBRANCH  68  91
ENDBRANCH  42  43
ENDBRANCH  34  37
ENDBRANCH  32  33
ENDBRANCH  31  32
ENDBRANCH  30  31
ENDBRANCH   1  30
TORSDOF 15
ENDMDL
