MODEL 1
REMARK VINA RESULT:     -11.6      0.000      0.000
REMARK SMILES CCOc1ncnc(N[C@@H]2C=C[C@H](C(=O)NCCCCCCNC(=O)c3ccc(-c4c5nc(c(-c6c(F)c(F)c(F)c(F)c6F)c6ccc([nH]6)c(-c6c(F)c(F)c(F)c(F)c6F)c6nc(c(-c7c(F)c(F)c(F)c(F)c7F)c7ccc4[nH]7)C=C6)C=C5)cc3)C2)c1C
REMARK SMILES IDX 18 1 17 2 16 3 14 4 15 5 13 7 10 8 11 9 89 10 12 11 9 12
REMARK SMILES IDX 8 14 4 15 5 16 90 17 6 18 91 19 7 20 3 21 2 22 1 23 19 24
REMARK SMILES IDX 20 25 21 26 22 27 23 28 24 29 25 31 26 32 27 33 88 34 28 35
REMARK SMILES IDX 87 36 29 37 30 38 31 39 81 40 32 41 86 42 80 43 82 44 33 45
REMARK SMILES IDX 85 46 79 47 78 48 34 50 66 51 46 52 65 53 47 54 50 55 64 56
REMARK SMILES IDX 83 57 48 58 49 59 63 61 84 62 51 63 35 64 36 65 44 66 37 67
REMARK SMILES IDX 38 68 42 69 45 70 39 71 40 72 43 73 41 74 67 75 68 76 76 77
REMARK SMILES IDX 69 78 70 79 74 80 77 81 71 82 72 83 75 84 73 85 52 86 53 87
REMARK SMILES IDX 61 88 54 89 55 90 59 91 62 92 56 93 57 94 60 95 58 96
REMARK H PARENT 16 6 9 13 23 30 82 49 50 60
REMARK Flexibility Score: inf
ROOT
ATOM      1  C   UNL A   1      33.766  29.298  26.118  1.00  0.00     0.021 C 
ENDROOT
BRANCH   1   2
ATOM      2  C   UNL A   1      33.401  29.364  24.632  1.00  0.00     0.116 C 
BRANCH   2   3
ATOM      3  N   UNL A   1      33.374  28.025  24.090  1.00  0.00    -0.356 N 
ATOM      4  C   UNL A   1      32.729  26.957  24.656  1.00  0.00     0.227 C 
ATOM      5  O   UNL A   1      33.315  25.876  24.653  1.00  0.00    -0.274 OA
ATOM      6  H   UNL A   1      33.858  27.867  23.246  1.00  0.00     0.163 HD
BRANCH   4   7
ATOM      7  C   UNL A   1      31.362  27.208  25.301  1.00  0.00     0.103 C 
ATOM      8  C   UNL A   1      29.856  25.319  25.771  1.00  0.00     0.104 C 
ATOM      9  C   UNL A   1      29.458  26.037  24.531  1.00  0.00    -0.006 C 
ATOM     10  C   UNL A   1      30.992  26.160  26.363  1.00  0.00     0.046 C 
ATOM     11  C   UNL A   1      30.259  27.079  24.283  1.00  0.00    -0.016 C 
BRANCH   8  12
ATOM     12  N   UNL A   1      30.201  23.933  25.550  1.00  0.00    -0.363 N 
ATOM     13  H   UNL A   1      29.533  23.382  25.081  1.00  0.00     0.162 HD
BRANCH  12  14
ATOM     14  C   UNL A   1      31.370  23.298  25.927  1.00  0.00     0.136 A 
ATOM     15  C   UNL A   1      33.354  22.156  25.415  1.00  0.00     0.221 A 
ATOM     16  N   UNL A   1      33.700  22.042  26.703  1.00  0.00    -0.201 NA
ATOM     17  C   UNL A   1      32.183  22.734  24.952  1.00  0.00     0.054 A 
ATOM     18  C   UNL A   1      32.811  22.558  27.552  1.00  0.00     0.228 A 
ATOM     19  C   UNL A   1      31.843  22.783  23.497  1.00  0.00     0.054 C 
ATOM     20  N   UNL A   1      31.688  23.214  27.226  1.00  0.00    -0.219 NA
BRANCH  15  21
ATOM     21  O   UNL A   1      34.214  21.575  24.513  1.00  0.00    -0.478 OA
BRANCH  21  22
ATOM     22  C   UNL A   1      35.526  22.131  24.633  1.00  0.00     0.228 C 
ATOM     23  C   UNL A   1      35.763  23.071  23.463  1.00  0.00     0.049 C 
ENDBRANCH  21  22
ENDBRANCH  15  21
ENDBRANCH  12  14
ENDBRANCH   8  12
ENDBRANCH   4   7
ENDBRANCH   2   3
ENDBRANCH   1   2
BRANCH   1  24
ATOM     24  C   UNL A   1      32.783  30.052  27.028  1.00  0.00     0.002 C 
BRANCH  24  25
ATOM     25  C   UNL A   1      31.638  30.752  26.289  1.00  0.00     0.002 C 
BRANCH  25  26
ATOM     26  C   UNL A   1      31.432  32.214  26.685  1.00  0.00     0.021 C 
BRANCH  26  27
ATOM     27  C   UNL A   1      32.671  32.878  27.269  1.00  0.00     0.116 C 
BRANCH  27  28
ATOM     28  N   UNL A   1      32.430  34.270  27.618  1.00  0.00    -0.352 N 
ATOM     29  C   UNL A   1      33.001  35.018  28.614  1.00  0.00     0.251 C 
ATOM     30  H   UNL A   1      31.765  34.737  27.063  1.00  0.00     0.163 HD
ATOM     31  O   UNL A   1      32.540  36.118  28.910  1.00  0.00    -0.269 OA
BRANCH  29  32
ATOM     32  C   UNL A   1      34.166  34.486  29.348  1.00  0.00     0.039 A 
ATOM     33  C   UNL A   1      33.962  33.843  30.571  1.00  0.00     0.014 A 
ATOM     34  C   UNL A   1      35.457  34.613  28.825  1.00  0.00     0.014 A 
ATOM     35  C   UNL A   1      35.048  33.279  31.243  1.00  0.00     0.010 A 
ATOM     36  C   UNL A   1      36.523  33.980  29.454  1.00  0.00     0.010 A 
ATOM     37  C   UNL A   1      36.331  33.313  30.674  1.00  0.00    -0.014 A 
BRANCH  37  38
ATOM     38  C   UNL A   1      37.489  32.669  31.343  1.00  0.00     0.031 A 
ATOM     39  C   UNL A   1      38.209  31.532  30.673  1.00  0.00     0.074 A 
ATOM     40  C   UNL A   1      37.852  33.065  32.579  1.00  0.00     0.049 A 
ATOM     41  N   UNL A   1      39.192  30.792  31.124  1.00  0.00    -0.248 NA
ATOM     42  C   UNL A   1      37.745  31.156  29.329  1.00  0.00     0.031 C 
ATOM     43  C   UNL A   1      37.205  34.128  33.349  1.00  0.00     0.029 A 
ATOM     44  N   UNL A   1      38.847  32.612  33.408  1.00  0.00    -0.354 N 
ATOM     45  C   UNL A   1      39.453  29.863  30.126  1.00  0.00     0.074 A 
ATOM     46  C   UNL A   1      38.487  30.089  29.074  1.00  0.00     0.031 C 
ATOM     47  C   UNL A   1      37.835  34.261  34.528  1.00  0.00     0.029 A 
ATOM     48  C   UNL A   1      38.898  33.265  34.615  1.00  0.00     0.049 A 
ATOM     49  H   UNL A   1      39.467  31.887  33.161  1.00  0.00     0.167 HD
ATOM     50  C   UNL A   1      40.425  28.921  30.082  1.00  0.00     0.037 A 
ATOM     51  C   UNL A   1      39.704  33.074  35.677  1.00  0.00     0.037 A 
ATOM     52  C   UNL A   1      41.394  28.712  31.124  1.00  0.00     0.049 A 
ATOM     53  C   UNL A   1      40.762  32.005  35.612  1.00  0.00     0.074 A 
ATOM     54  C   UNL A   1      42.453  27.821  31.152  1.00  0.00     0.029 A 
ATOM     55  N   UNL A   1      41.420  29.399  32.330  1.00  0.00    -0.354 N 
ATOM     56  N   UNL A   1      41.043  31.176  34.636  1.00  0.00    -0.248 NA
ATOM     57  C   UNL A   1      41.619  31.849  36.795  1.00  0.00     0.031 C 
ATOM     58  C   UNL A   1      43.082  27.927  32.397  1.00  0.00     0.029 A 
ATOM     59  C   UNL A   1      42.459  28.932  33.119  1.00  0.00     0.049 A 
ATOM     60  H   UNL A   1      40.793  30.114  32.585  1.00  0.00     0.167 HD
ATOM     61  C   UNL A   1      42.127  30.425  35.072  1.00  0.00     0.074 A 
ATOM     62  C   UNL A   1      42.462  30.907  36.395  1.00  0.00     0.031 C 
ATOM     63  C   UNL A   1      42.787  29.428  34.431  1.00  0.00     0.037 A 
BRANCH  50  64
ATOM     64  C   UNL A   1      40.486  28.041  28.864  1.00  0.00     0.064 A 
ATOM     65  C   UNL A   1      41.258  28.384  27.744  1.00  0.00     0.173 A 
ATOM     66  C   UNL A   1      39.792  26.823  28.832  1.00  0.00     0.173 A 
ATOM     67  F   UNL A   1      41.933  29.543  27.717  1.00  0.00    -0.203 F 
ATOM     68  C   UNL A   1      41.304  27.557  26.624  1.00  0.00     0.198 A 
ATOM     69  C   UNL A   1      39.869  25.981  27.725  1.00  0.00     0.198 A 
ATOM     70  F   UNL A   1      39.044  26.441  29.879  1.00  0.00    -0.203 F 
ATOM     71  F   UNL A   1      42.002  27.933  25.543  1.00  0.00    -0.200 F 
ATOM     72  C   UNL A   1      40.616  26.353  26.618  1.00  0.00     0.200 A 
ATOM     73  F   UNL A   1      39.217  24.810  27.729  1.00  0.00    -0.200 F 
ATOM     74  F   UNL A   1      40.669  25.554  25.544  1.00  0.00    -0.200 F 
ENDBRANCH  50  64
BRANCH  51  75
ATOM     75  C   UNL A   1      39.555  33.926  36.888  1.00  0.00     0.064 A 
ATOM     76  C   UNL A   1      40.178  35.180  36.969  1.00  0.00     0.173 A 
ATOM     77  C   UNL A   1      38.800  33.501  37.992  1.00  0.00     0.173 A 
ATOM     78  F   UNL A   1      40.928  35.621  35.948  1.00  0.00    -0.203 F 
ATOM     79  C   UNL A   1      40.073  35.964  38.115  1.00  0.00     0.198 A 
ATOM     80  C   UNL A   1      38.669  34.301  39.125  1.00  0.00     0.198 A 
ATOM     81  F   UNL A   1      38.179  32.313  37.964  1.00  0.00    -0.203 F 
ATOM     82  F   UNL A   1      40.723  37.134  38.186  1.00  0.00    -0.200 F 
ATOM     83  C   UNL A   1      39.314  35.527  39.191  1.00  0.00     0.200 A 
ATOM     84  F   UNL A   1      37.921  33.882  40.154  1.00  0.00    -0.200 F 
ATOM     85  F   UNL A   1      39.210  36.282  40.292  1.00  0.00    -0.200 F 
ENDBRANCH  51  75
BRANCH  63  86
ATOM     86  C   UNL A   1      43.969  28.820  35.132  1.00  0.00     0.064 A 
ATOM     87  C   UNL A   1      43.836  27.713  35.984  1.00  0.00     0.173 A 
ATOM     88  C   UNL A   1      45.259  29.328  34.913  1.00  0.00     0.173 A 
ATOM     89  F   UNL A   1      42.624  27.199  36.240  1.00  0.00    -0.203 F 
ATOM     90  C   UNL A   1      44.947  27.156  36.612  1.00  0.00     0.198 A 
ATOM     91  C   UNL A   1      46.372  28.746  35.514  1.00  0.00     0.198 A 
ATOM     92  F   UNL A   1      45.443  30.380  34.101  1.00  0.00    -0.203 F 
ATOM     93  F   UNL A   1      44.790  26.133  37.464  1.00  0.00    -0.200 F 
ATOM     94  C   UNL A   1      46.214  27.666  36.370  1.00  0.00     0.200 A 
ATOM     95  F   UNL A   1      47.596  29.230  35.265  1.00  0.00    -0.200 F 
ATOM     96  F   UNL A   1      47.284  27.122  36.967  1.00  0.00    -0.200 F 
ENDBRANCH  63  86
ENDBRANCH  37  38
ENDBRANCH  29  32
ENDBRANCH  27  28
ENDBRANCH  26  27
ENDBRANCH  25  26
ENDBRANCH  24  25
ENDBRANCH   1  24
TORSDOF 17
ENDMDL
MODEL 2
REMARK VINA RESULT:     -11.6      1.672      7.637
REMARK SMILES CCOc1ncnc(N[C@@H]2C=C[C@H](C(=O)NCCCCCCNC(=O)c3ccc(-c4c5nc(c(-c6c(F)c(F)c(F)c(F)c6F)c6ccc([nH]6)c(-c6c(F)c(F)c(F)c(F)c6F)c6nc(c(-c7c(F)c(F)c(F)c(F)c7F)c7ccc4[nH]7)C=C6)C=C5)cc3)C2)c1C
REMARK SMILES IDX 18 1 17 2 16 3 14 4 15 5 13 7 10 8 11 9 89 10 12 11 9 12
REMARK SMILES IDX 8 14 4 15 5 16 90 17 6 18 91 19 7 20 3 21 2 22 1 23 19 24
REMARK SMILES IDX 20 25 21 26 22 27 23 28 24 29 25 31 26 32 27 33 88 34 28 35
REMARK SMILES IDX 87 36 29 37 30 38 31 39 81 40 32 41 86 42 80 43 82 44 33 45
REMARK SMILES IDX 85 46 79 47 78 48 34 50 66 51 46 52 65 53 47 54 50 55 64 56
REMARK SMILES IDX 83 57 48 58 49 59 63 61 84 62 51 63 35 64 36 65 44 66 37 67
REMARK SMILES IDX 38 68 42 69 45 70 39 71 40 72 43 73 41 74 67 75 68 76 76 77
REMARK SMILES IDX 69 78 70 79 74 80 77 81 71 82 72 83 75 84 73 85 52 86 53 87
REMARK SMILES IDX 61 88 54 89 55 90 59 91 62 92 56 93 57 94 60 95 58 96
REMARK H PARENT 16 6 9 13 23 30 82 49 50 60
REMARK Flexibility Score: inf
ROOT
ATOM      1  C   UNL A   1      35.530  32.331  28.009  1.00  0.00     0.021 C 
ENDROOT
BRANCH   1   2
ATOM      2  C   UNL A   1      34.304  31.440  27.784  1.00  0.00     0.116 C 
BRANCH   2   3
ATOM      3  N   UNL A   1      34.663  30.353  26.901  1.00  0.00    -0.356 N 
ATOM      4  C   UNL A   1      33.994  29.161  26.806  1.00  0.00     0.227 C 
ATOM      5  O   UNL A   1      34.670  28.138  26.715  1.00  0.00    -0.274 OA
ATOM      6  H   UNL A   1      35.450  30.478  26.323  1.00  0.00     0.163 HD
BRANCH   4   7
ATOM      7  C   UNL A   1      32.464  29.192  26.882  1.00  0.00     0.103 C 
ATOM      8  C   UNL A   1      31.144  27.352  25.917  1.00  0.00     0.104 C 
ATOM      9  C   UNL A   1      31.173  28.533  25.014  1.00  0.00    -0.006 C 
ATOM     10  C   UNL A   1      31.845  27.820  27.197  1.00  0.00     0.046 C 
ATOM     11  C   UNL A   1      31.869  29.545  25.543  1.00  0.00    -0.016 C 
BRANCH   8  12
ATOM     12  N   UNL A   1      31.720  26.163  25.331  1.00  0.00    -0.363 N 
ATOM     13  H   UNL A   1      31.875  26.182  24.358  1.00  0.00     0.162 HD
BRANCH  12  14
ATOM     14  C   UNL A   1      32.075  25.000  25.991  1.00  0.00     0.136 A 
ATOM     15  C   UNL A   1      33.658  23.383  26.611  1.00  0.00     0.221 A 
ATOM     16  N   UNL A   1      32.763  22.684  27.320  1.00  0.00    -0.201 NA
ATOM     17  C   UNL A   1      33.378  24.528  25.884  1.00  0.00     0.054 A 
ATOM     18  C   UNL A   1      31.531  23.192  27.294  1.00  0.00     0.228 A 
ATOM     19  C   UNL A   1      34.421  25.231  25.077  1.00  0.00     0.054 C 
ATOM     20  N   UNL A   1      31.155  24.334  26.700  1.00  0.00    -0.219 NA
BRANCH  15  21
ATOM     21  O   UNL A   1      34.924  22.851  26.559  1.00  0.00    -0.478 OA
BRANCH  21  22
ATOM     22  C   UNL A   1      34.876  21.462  26.229  1.00  0.00     0.228 C 
ATOM     23  C   UNL A   1      34.817  21.324  24.716  1.00  0.00     0.049 C 
ENDBRANCH  21  22
ENDBRANCH  15  21
ENDBRANCH  12  14
ENDBRANCH   8  12
ENDBRANCH   4   7
ENDBRANCH   2   3
ENDBRANCH   1   2
BRANCH   1  24
ATOM     24  C   UNL A   1      35.261  33.524  28.938  1.00  0.00     0.002 C 
BRANCH  24  25
ATOM     25  C   UNL A   1      35.047  34.860  28.218  1.00  0.00     0.002 C 
BRANCH  25  26
ATOM     26  C   UNL A   1      33.942  35.730  28.816  1.00  0.00     0.021 C 
BRANCH  26  27
ATOM     27  C   UNL A   1      32.927  34.958  29.648  1.00  0.00     0.116 C 
BRANCH  27  28
ATOM     28  N   UNL A   1      32.371  35.770  30.719  1.00  0.00    -0.352 N 
ATOM     29  C   UNL A   1      32.705  35.785  32.048  1.00  0.00     0.251 C 
ATOM     30  H   UNL A   1      31.657  36.393  30.452  1.00  0.00     0.163 HD
ATOM     31  O   UNL A   1      32.000  36.379  32.861  1.00  0.00    -0.269 OA
BRANCH  29  32
ATOM     32  C   UNL A   1      33.909  35.064  32.505  1.00  0.00     0.039 A 
ATOM     33  C   UNL A   1      33.773  33.770  33.012  1.00  0.00     0.014 A 
ATOM     34  C   UNL A   1      35.171  35.661  32.425  1.00  0.00     0.014 A 
ATOM     35  C   UNL A   1      34.911  33.053  33.387  1.00  0.00     0.010 A 
ATOM     36  C   UNL A   1      36.308  34.917  32.720  1.00  0.00     0.010 A 
ATOM     37  C   UNL A   1      36.190  33.608  33.212  1.00  0.00    -0.014 A 
BRANCH  37  38
ATOM     38  C   UNL A   1      37.415  32.841  33.549  1.00  0.00     0.031 A 
ATOM     39  C   UNL A   1      38.164  33.138  34.818  1.00  0.00     0.074 A 
ATOM     40  C   UNL A   1      37.889  31.922  32.684  1.00  0.00     0.049 A 
ATOM     41  N   UNL A   1      39.291  32.632  35.255  1.00  0.00    -0.248 NA
ATOM     42  C   UNL A   1      37.585  34.161  35.703  1.00  0.00     0.031 C 
ATOM     43  C   UNL A   1      37.275  31.574  31.402  1.00  0.00     0.029 A 
ATOM     44  N   UNL A   1      39.001  31.121  32.749  1.00  0.00    -0.354 N 
ATOM     45  C   UNL A   1      39.557  33.282  36.453  1.00  0.00     0.074 A 
ATOM     46  C   UNL A   1      38.510  34.261  36.645  1.00  0.00     0.031 C 
ATOM     47  C   UNL A   1      38.005  30.614  30.812  1.00  0.00     0.029 A 
ATOM     48  C   UNL A   1      39.160  30.311  31.651  1.00  0.00     0.049 A 
ATOM     49  H   UNL A   1      39.625  31.125  33.510  1.00  0.00     0.167 HD
ATOM     50  C   UNL A   1      40.571  33.065  37.324  1.00  0.00     0.037 A 
ATOM     51  C   UNL A   1      40.135  29.432  31.349  1.00  0.00     0.037 A 
ATOM     52  C   UNL A   1      41.600  32.077  37.135  1.00  0.00     0.049 A 
ATOM     53  C   UNL A   1      41.263  29.226  32.325  1.00  0.00     0.074 A 
ATOM     54  C   UNL A   1      42.640  31.741  37.985  1.00  0.00     0.029 A 
ATOM     55  N   UNL A   1      41.725  31.268  36.014  1.00  0.00    -0.354 N 
ATOM     56  N   UNL A   1      41.470  29.797  33.487  1.00  0.00    -0.248 NA
ATOM     57  C   UNL A   1      42.293  28.247  31.949  1.00  0.00     0.031 C 
ATOM     58  C   UNL A   1      43.427  30.774  37.352  1.00  0.00     0.029 A 
ATOM     59  C   UNL A   1      42.840  30.455  36.138  1.00  0.00     0.049 A 
ATOM     60  H   UNL A   1      41.110  31.272  35.245  1.00  0.00     0.167 HD
ATOM     61  C   UNL A   1      42.628  29.225  33.994  1.00  0.00     0.074 A 
ATOM     62  C   UNL A   1      43.073  28.252  33.020  1.00  0.00     0.031 C 
ATOM     63  C   UNL A   1      43.265  29.482  35.164  1.00  0.00     0.037 A 
BRANCH  50  64
ATOM     64  C   UNL A   1      40.617  33.915  38.562  1.00  0.00     0.064 A 
ATOM     65  C   UNL A   1      39.937  33.551  39.734  1.00  0.00     0.173 A 
ATOM     66  C   UNL A   1      41.380  35.092  38.589  1.00  0.00     0.173 A 
ATOM     67  F   UNL A   1      39.183  32.441  39.762  1.00  0.00    -0.203 F 
ATOM     68  C   UNL A   1      39.991  34.350  40.874  1.00  0.00     0.198 A 
ATOM     69  C   UNL A   1      41.461  35.870  39.741  1.00  0.00     0.198 A 
ATOM     70  F   UNL A   1      42.058  35.484  37.499  1.00  0.00    -0.203 F 
ATOM     71  F   UNL A   1      39.287  34.011  41.963  1.00  0.00    -0.200 F 
ATOM     72  C   UNL A   1      40.759  35.504  40.879  1.00  0.00     0.200 A 
ATOM     73  F   UNL A   1      42.218  36.976  39.749  1.00  0.00    -0.200 F 
ATOM     74  F   UNL A   1      40.818  36.268  41.979  1.00  0.00    -0.200 F 
ENDBRANCH  50  64
BRANCH  51  75
ATOM     75  C   UNL A   1      40.080  28.666  30.075  1.00  0.00     0.064 A 
ATOM     76  C   UNL A   1      39.457  27.411  30.015  1.00  0.00     0.173 A 
ATOM     77  C   UNL A   1      40.658  29.164  28.898  1.00  0.00     0.173 A 
ATOM     78  F   UNL A   1      38.908  26.883  31.119  1.00  0.00    -0.203 F 
ATOM     79  C   UNL A   1      39.436  26.673  28.833  1.00  0.00     0.198 A 
ATOM     80  C   UNL A   1      40.607  28.440  27.709  1.00  0.00     0.198 A 
ATOM     81  F   UNL A   1      41.261  30.362  28.899  1.00  0.00    -0.203 F 
ATOM     82  F   UNL A   1      38.881  25.454  28.817  1.00  0.00    -0.200 F 
ATOM     83  C   UNL A   1      40.006  27.190  27.679  1.00  0.00     0.200 A 
ATOM     84  F   UNL A   1      41.144  28.951  26.593  1.00  0.00    -0.200 F 
ATOM     85  F   UNL A   1      39.983  26.483  26.542  1.00  0.00    -0.200 F 
ENDBRANCH  51  75
BRANCH  63  86
ATOM     86  C   UNL A   1      44.487  28.667  35.480  1.00  0.00     0.064 A 
ATOM     87  C   UNL A   1      44.406  27.446  36.167  1.00  0.00     0.173 A 
ATOM     88  C   UNL A   1      45.753  29.095  35.050  1.00  0.00     0.173 A 
ATOM     89  F   UNL A   1      43.223  26.999  36.613  1.00  0.00    -0.203 F 
ATOM     90  C   UNL A   1      45.550  26.700  36.436  1.00  0.00     0.198 A 
ATOM     91  C   UNL A   1      46.890  28.328  35.289  1.00  0.00     0.198 A 
ATOM     92  F   UNL A   1      45.886  30.250  34.382  1.00  0.00    -0.203 F 
ATOM     93  F   UNL A   1      45.456  25.563  37.141  1.00  0.00    -0.200 F 
ATOM     94  C   UNL A   1      46.789  27.136  35.989  1.00  0.00     0.200 A 
ATOM     95  F   UNL A   1      48.083  28.744  34.841  1.00  0.00    -0.200 F 
ATOM     96  F   UNL A   1      47.888  26.410  36.240  1.00  0.00    -0.200 F 
ENDBRANCH  63  86
ENDBRANCH  37  38
ENDBRANCH  29  32
ENDBRANCH  27  28
ENDBRANCH  26  27
ENDBRANCH  25  26
ENDBRANCH  24  25
ENDBRANCH   1  24
TORSDOF 17
ENDMDL
MODEL 3
REMARK VINA RESULT:     -11.5      6.326     11.149
REMARK SMILES CCOc1ncnc(N[C@@H]2C=C[C@H](C(=O)NCCCCCCNC(=O)c3ccc(-c4c5nc(c(-c6c(F)c(F)c(F)c(F)c6F)c6ccc([nH]6)c(-c6c(F)c(F)c(F)c(F)c6F)c6nc(c(-c7c(F)c(F)c(F)c(F)c7F)c7ccc4[nH]7)C=C6)C=C5)cc3)C2)c1C
REMARK SMILES IDX 18 1 17 2 16 3 14 4 15 5 13 7 10 8 11 9 89 10 12 11 9 12
REMARK SMILES IDX 8 14 4 15 5 16 90 17 6 18 91 19 7 20 3 21 2 22 1 23 19 24
REMARK SMILES IDX 20 25 21 26 22 27 23 28 24 29 25 31 26 32 27 33 88 34 28 35
REMARK SMILES IDX 87 36 29 37 30 38 31 39 81 40 32 41 86 42 80 43 82 44 33 45
REMARK SMILES IDX 85 46 79 47 78 48 34 50 66 51 46 52 65 53 47 54 50 55 64 56
REMARK SMILES IDX 83 57 48 58 49 59 63 61 84 62 51 63 35 64 36 65 44 66 37 67
REMARK SMILES IDX 38 68 42 69 45 70 39 71 40 72 43 73 41 74 67 75 68 76 76 77
REMARK SMILES IDX 69 78 70 79 74 80 77 81 71 82 72 83 75 84 73 85 52 86 53 87
REMARK SMILES IDX 61 88 54 89 55 90 59 91 62 92 56 93 57 94 60 95 58 96
REMARK H PARENT 16 6 9 13 23 30 82 49 50 60
REMARK Flexibility Score: inf
ROOT
ATOM      1  C   UNL A   1      41.258  21.946  26.219  1.00  0.00     0.021 C 
ENDROOT
BRANCH   1   2
ATOM      2  C   UNL A   1      39.876  21.305  26.058  1.00  0.00     0.116 C 
BRANCH   2   3
ATOM      3  N   UNL A   1      38.871  22.210  26.569  1.00  0.00    -0.356 N 
ATOM      4  C   UNL A   1      37.957  22.885  25.804  1.00  0.00     0.227 C 
ATOM      5  O   UNL A   1      37.733  24.059  26.096  1.00  0.00    -0.274 OA
ATOM      6  H   UNL A   1      38.841  22.351  27.543  1.00  0.00     0.163 HD
BRANCH   4   7
ATOM      7  C   UNL A   1      37.334  22.147  24.615  1.00  0.00     0.103 C 
ATOM      8  C   UNL A   1      35.093  22.773  23.813  1.00  0.00     0.104 C 
ATOM      9  C   UNL A   1      35.046  21.550  24.658  1.00  0.00    -0.006 C 
ATOM     10  C   UNL A   1      36.585  23.079  23.649  1.00  0.00     0.046 C 
ATOM     11  C   UNL A   1      36.265  21.192  25.079  1.00  0.00    -0.016 C 
BRANCH   8  12
ATOM     12  N   UNL A   1      34.319  23.872  24.344  1.00  0.00    -0.363 N 
ATOM     13  H   UNL A   1      34.139  23.857  25.312  1.00  0.00     0.162 HD
BRANCH  12  14
ATOM     14  C   UNL A   1      33.805  24.943  23.636  1.00  0.00     0.136 A 
ATOM     15  C   UNL A   1      32.980  27.137  23.527  1.00  0.00     0.221 A 
ATOM     16  N   UNL A   1      32.787  27.069  22.204  1.00  0.00    -0.201 NA
ATOM     17  C   UNL A   1      33.446  26.099  24.318  1.00  0.00     0.054 A 
ATOM     18  C   UNL A   1      33.100  25.889  21.668  1.00  0.00     0.228 A 
ATOM     19  C   UNL A   1      33.593  26.235  25.799  1.00  0.00     0.054 C 
ATOM     20  N   UNL A   1      33.636  24.841  22.311  1.00  0.00    -0.219 NA
BRANCH  15  21
ATOM     21  O   UNL A   1      32.604  28.316  24.125  1.00  0.00    -0.478 OA
BRANCH  21  22
ATOM     22  C   UNL A   1      31.191  28.348  24.336  1.00  0.00     0.228 C 
ATOM     23  C   UNL A   1      30.572  29.309  23.334  1.00  0.00     0.049 C 
ENDBRANCH  21  22
ENDBRANCH  15  21
ENDBRANCH  12  14
ENDBRANCH   8  12
ENDBRANCH   4   7
ENDBRANCH   2   3
ENDBRANCH   1   2
BRANCH   1  24
ATOM     24  C   UNL A   1      42.105  21.311  27.333  1.00  0.00     0.002 C 
BRANCH  24  25
ATOM     25  C   UNL A   1      41.844  19.818  27.562  1.00  0.00     0.002 C 
BRANCH  25  26
ATOM     26  C   UNL A   1      42.769  18.888  26.776  1.00  0.00     0.021 C 
BRANCH  26  27
ATOM     27  C   UNL A   1      42.745  19.118  25.271  1.00  0.00     0.116 C 
BRANCH  27  28
ATOM     28  N   UNL A   1      44.010  18.764  24.646  1.00  0.00    -0.352 N 
ATOM     29  C   UNL A   1      45.058  19.578  24.305  1.00  0.00     0.251 C 
ATOM     30  H   UNL A   1      44.128  17.809  24.440  1.00  0.00     0.163 HD
ATOM     31  O   UNL A   1      45.970  19.157  23.597  1.00  0.00    -0.269 OA
BRANCH  29  32
ATOM     32  C   UNL A   1      45.078  20.977  24.778  1.00  0.00     0.039 A 
ATOM     33  C   UNL A   1      45.529  21.249  26.071  1.00  0.00     0.014 A 
ATOM     34  C   UNL A   1      44.661  22.018  23.942  1.00  0.00     0.014 A 
ATOM     35  C   UNL A   1      45.613  22.573  26.507  1.00  0.00     0.010 A 
ATOM     36  C   UNL A   1      44.824  23.337  24.348  1.00  0.00     0.010 A 
ATOM     37  C   UNL A   1      45.294  23.629  25.637  1.00  0.00    -0.014 A 
BRANCH  37  38
ATOM     38  C   UNL A   1      45.433  25.045  26.061  1.00  0.00     0.031 A 
ATOM     39  C   UNL A   1      46.773  25.722  25.998  1.00  0.00     0.074 A 
ATOM     40  C   UNL A   1      44.366  25.701  26.560  1.00  0.00     0.049 A 
ATOM     41  N   UNL A   1      47.115  26.925  26.389  1.00  0.00    -0.248 NA
ATOM     42  C   UNL A   1      47.887  24.933  25.448  1.00  0.00     0.031 C 
ATOM     43  C   UNL A   1      43.023  25.139  26.710  1.00  0.00     0.029 A 
ATOM     44  N   UNL A   1      44.248  26.980  27.043  1.00  0.00    -0.354 N 
ATOM     45  C   UNL A   1      48.477  27.029  26.144  1.00  0.00     0.074 A 
ATOM     46  C   UNL A   1      48.913  25.750  25.628  1.00  0.00     0.031 C 
ATOM     47  C   UNL A   1      42.211  26.076  27.226  1.00  0.00     0.029 A 
ATOM     48  C   UNL A   1      42.984  27.286  27.484  1.00  0.00     0.049 A 
ATOM     49  H   UNL A   1      44.997  27.618  27.069  1.00  0.00     0.167 HD
ATOM     50  C   UNL A   1      49.286  28.102  26.311  1.00  0.00     0.037 A 
ATOM     51  C   UNL A   1      42.506  28.414  28.046  1.00  0.00     0.037 A 
ATOM     52  C   UNL A   1      48.842  29.378  26.808  1.00  0.00     0.049 A 
ATOM     53  C   UNL A   1      43.431  29.585  28.242  1.00  0.00     0.074 A 
ATOM     54  C   UNL A   1      49.571  30.544  26.963  1.00  0.00     0.029 A 
ATOM     55  N   UNL A   1      47.552  29.654  27.238  1.00  0.00    -0.354 N 
ATOM     56  N   UNL A   1      44.703  29.696  27.944  1.00  0.00    -0.248 NA
ATOM     57  C   UNL A   1      42.852  30.791  28.849  1.00  0.00     0.031 C 
ATOM     58  C   UNL A   1      48.738  31.507  27.542  1.00  0.00     0.029 A 
ATOM     59  C   UNL A   1      47.471  30.963  27.685  1.00  0.00     0.049 A 
ATOM     60  H   UNL A   1      46.804  29.013  27.226  1.00  0.00     0.167 HD
ATOM     61  C   UNL A   1      45.067  30.989  28.293  1.00  0.00     0.074 A 
ATOM     62  C   UNL A   1      43.878  31.630  28.813  1.00  0.00     0.031 C 
ATOM     63  C   UNL A   1      46.278  31.592  28.190  1.00  0.00     0.037 A 
BRANCH  50  64
ATOM     64  C   UNL A   1      50.738  27.941  25.956  1.00  0.00     0.064 A 
ATOM     65  C   UNL A   1      51.194  28.078  24.636  1.00  0.00     0.173 A 
ATOM     66  C   UNL A   1      51.689  27.682  26.953  1.00  0.00     0.173 A 
ATOM     67  F   UNL A   1      50.325  28.315  23.641  1.00  0.00    -0.203 F 
ATOM     68  C   UNL A   1      52.543  27.926  24.323  1.00  0.00     0.198 A 
ATOM     69  C   UNL A   1      53.042  27.567  26.642  1.00  0.00     0.198 A 
ATOM     70  F   UNL A   1      51.310  27.550  28.233  1.00  0.00    -0.203 F 
ATOM     71  F   UNL A   1      52.947  28.004  23.048  1.00  0.00    -0.200 F 
ATOM     72  C   UNL A   1      53.467  27.679  25.327  1.00  0.00     0.200 A 
ATOM     73  F   UNL A   1      53.935  27.344  27.616  1.00  0.00    -0.200 F 
ATOM     74  F   UNL A   1      54.765  27.542  25.027  1.00  0.00    -0.200 F 
ENDBRANCH  50  64
BRANCH  51  75
ATOM     75  C   UNL A   1      41.075  28.497  28.446  1.00  0.00     0.064 A 
ATOM     76  C   UNL A   1      40.106  28.994  27.562  1.00  0.00     0.173 A 
ATOM     77  C   UNL A   1      40.649  28.096  29.721  1.00  0.00     0.173 A 
ATOM     78  F   UNL A   1      40.467  29.409  26.339  1.00  0.00    -0.203 F 
ATOM     79  C   UNL A   1      38.772  29.109  27.946  1.00  0.00     0.198 A 
ATOM     80  C   UNL A   1      39.309  28.182  30.093  1.00  0.00     0.198 A 
ATOM     81  F   UNL A   1      41.534  27.609  30.603  1.00  0.00    -0.203 F 
ATOM     82  F   UNL A   1      37.877  29.637  27.100  1.00  0.00    -0.200 F 
ATOM     83  C   UNL A   1      38.373  28.698  29.209  1.00  0.00     0.200 A 
ATOM     84  F   UNL A   1      38.925  27.767  31.308  1.00  0.00    -0.200 F 
ATOM     85  F   UNL A   1      37.090  28.806  29.578  1.00  0.00    -0.200 F 
ENDBRANCH  51  75
BRANCH  63  86
ATOM     86  C   UNL A   1      46.370  33.033  28.605  1.00  0.00     0.064 A 
ATOM     87  C   UNL A   1      46.714  33.407  29.913  1.00  0.00     0.173 A 
ATOM     88  C   UNL A   1      46.151  34.054  27.667  1.00  0.00     0.173 A 
ATOM     89  F   UNL A   1      46.918  32.471  30.852  1.00  0.00    -0.203 F 
ATOM     90  C   UNL A   1      46.808  34.749  30.272  1.00  0.00     0.198 A 
ATOM     91  C   UNL A   1      46.282  35.394  28.020  1.00  0.00     0.198 A 
ATOM     92  F   UNL A   1      45.828  33.752  26.401  1.00  0.00    -0.203 F 
ATOM     93  F   UNL A   1      47.085  35.084  31.539  1.00  0.00    -0.200 F 
ATOM     94  C   UNL A   1      46.601  35.741  29.324  1.00  0.00     0.200 A 
ATOM     95  F   UNL A   1      46.098  36.350  27.098  1.00  0.00    -0.200 F 
ATOM     96  F   UNL A   1      46.702  37.032  29.669  1.00  0.00    -0.200 F 
ENDBRANCH  63  86
ENDBRANCH  37  38
ENDBRANCH  29  32
ENDBRANCH  27  28
ENDBRANCH  26  27
ENDBRANCH  25  26
ENDBRANCH  24  25
ENDBRANCH   1  24
TORSDOF 17
ENDMDL
