MODEL 1
REMARK VINA RESULT:     -11.2      0.000      0.000
REMARK SMILES CCCC(=O)Nc1cccc(C(=O)N[C@@H](C(=O)NCCCCCCNC(=O)c2ccc(-c3c4nc(c(-c5c(F)c(F)c(F)c(F)c5F)c5ccc([nH]5)c(-c5c(F)c(F)c(F)c(F)c5F)c5nc(c(-c6c(F)c(F)c(F)c(F)c6F)c6ccc3[nH]6)C=C5)C=C4)cc2)C2=C(C)N=N[C@@H]2C)c1
REMARK SMILES IDX 20 1 19 2 18 3 16 4 17 5 15 7 14 8 12 9 13 10 11 12 7 13
REMARK SMILES IDX 8 14 98 15 9 16 10 17 6 18 4 19 5 20 3 22 2 23 1 24 91 25
REMARK SMILES IDX 92 26 96 27 93 28 94 29 95 30 97 31 21 32 22 33 23 34 24 35
REMARK SMILES IDX 25 36 26 37 27 39 28 40 29 41 90 42 30 43 89 44 31 45 32 46
REMARK SMILES IDX 33 47 83 48 34 49 88 50 82 51 84 52 35 53 87 54 81 55 80 56
REMARK SMILES IDX 36 58 68 59 48 60 67 61 49 62 52 63 66 64 85 65 50 66 51 67
REMARK SMILES IDX 65 69 86 70 53 71 37 72 38 73 46 74 39 75 40 76 44 77 47 78
REMARK SMILES IDX 41 79 42 80 45 81 43 82 69 83 70 84 78 85 71 86 72 87 76 88
REMARK SMILES IDX 79 89 73 90 74 91 77 92 75 93 54 94 55 95 63 96 56 97 57 98
REMARK SMILES IDX 61 99 64 100 58 101 59 102 62 103 60 104
REMARK H PARENT 18 6 14 11 6 21 25 38 84 57 52 68
REMARK Flexibility Score: inf
ROOT
ATOM      1  C   UNL A   1      38.619  23.709  26.513  1.00  0.00     0.021 C 
ENDROOT
BRANCH   1   2
ATOM      2  C   UNL A   1      37.225  23.691  25.906  1.00  0.00     0.116 C 
BRANCH   2   3
ATOM      3  N   UNL A   1      36.332  22.763  26.552  1.00  0.00    -0.354 N 
ATOM      4  C   UNL A   1      34.972  22.698  26.615  1.00  0.00     0.247 C 
ATOM      5  O   UNL A   1      34.555  21.581  26.945  1.00  0.00    -0.272 OA
ATOM      6  H   UNL A   1      36.790  22.041  27.040  1.00  0.00     0.163 HD
BRANCH   4   7
ATOM      7  C   UNL A   1      33.970  23.860  26.142  1.00  0.00     0.202 C 
BRANCH   7   8
ATOM      8  N   UNL A   1      32.595  23.684  26.662  1.00  0.00    -0.337 N 
ATOM      9  C   UNL A   1      31.344  24.265  26.540  1.00  0.00     0.252 C 
ATOM     10  O   UNL A   1      30.515  23.867  27.368  1.00  0.00    -0.269 OA
ATOM     11  H   UNL A   1      32.559  22.922  27.285  1.00  0.00     0.165 HD
BRANCH   9  12
ATOM     12  C   UNL A   1      30.842  25.286  25.536  1.00  0.00     0.041 A 
ATOM     13  C   UNL A   1      30.499  27.520  24.578  1.00  0.00     0.041 A 
ATOM     14  C   UNL A   1      30.136  26.956  23.355  1.00  0.00     0.026 A 
ATOM     15  C   UNL A   1      30.741  26.687  25.692  1.00  0.00     0.040 A 
ATOM     16  C   UNL A   1      30.117  25.574  23.208  1.00  0.00     0.003 A 
ATOM     17  C   UNL A   1      30.478  24.752  24.281  1.00  0.00     0.014 A 
BRANCH  13  18
ATOM     18  N   UNL A   1      30.537  28.921  24.647  1.00  0.00    -0.326 N 
ATOM     19  C   UNL A   1      31.456  29.808  25.133  1.00  0.00     0.224 C 
ATOM     20  O   UNL A   1      31.072  30.964  25.345  1.00  0.00    -0.275 OA
ATOM     21  H   UNL A   1      29.739  29.353  24.268  1.00  0.00     0.169 HD
BRANCH  19  22
ATOM     22  C   UNL A   1      32.948  29.521  25.146  1.00  0.00     0.100 C 
BRANCH  22  23
ATOM     23  C   UNL A   1      33.666  29.502  26.468  1.00  0.00     0.006 C 
ATOM     24  C   UNL A   1      34.042  28.086  26.828  1.00  0.00     0.004 C 
ENDBRANCH  22  23
ENDBRANCH  19  22
ENDBRANCH  13  18
ENDBRANCH   9  12
ENDBRANCH   7   8
BRANCH   7  25
ATOM     25  C   UNL A   1      33.965  23.949  24.583  1.00  0.00     0.011 C 
ATOM     26  C   UNL A   1      33.990  24.923  23.637  1.00  0.00     0.064 C 
ATOM     27  C   UNL A   1      34.063  22.694  23.730  1.00  0.00     0.156 C 
ATOM     28  C   UNL A   1      33.817  26.407  23.601  1.00  0.00     0.069 C 
ATOM     29  N   UNL A   1      34.221  24.443  22.367  1.00  0.00    -0.160 NA
ATOM     30  N   UNL A   1      34.340  23.206  22.369  1.00  0.00    -0.181 NA
ATOM     31  C   UNL A   1      32.752  21.930  23.624  1.00  0.00     0.040 C 
ENDBRANCH   7  25
ENDBRANCH   4   7
ENDBRANCH   2   3
ENDBRANCH   1   2
BRANCH   1  32
ATOM     32  C   UNL A   1      39.390  22.410  26.278  1.00  0.00     0.002 C 
BRANCH  32  33
ATOM     33  C   UNL A   1      40.407  22.065  27.375  1.00  0.00     0.002 C 
BRANCH  33  34
ATOM     34  C   UNL A   1      40.873  20.606  27.399  1.00  0.00     0.021 C 
BRANCH  34  35
ATOM     35  C   UNL A   1      40.711  19.873  26.071  1.00  0.00     0.116 C 
BRANCH  35  36
ATOM     36  N   UNL A   1      41.915  19.144  25.705  1.00  0.00    -0.352 N 
ATOM     37  C   UNL A   1      43.180  19.613  25.445  1.00  0.00     0.251 C 
ATOM     38  H   UNL A   1      41.807  18.168  25.632  1.00  0.00     0.163 HD
ATOM     39  O   UNL A   1      44.018  18.886  24.942  1.00  0.00    -0.269 OA
BRANCH  37  40
ATOM     40  C   UNL A   1      43.512  21.017  25.770  1.00  0.00     0.039 A 
ATOM     41  C   UNL A   1      43.321  21.996  24.794  1.00  0.00     0.014 A 
ATOM     42  C   UNL A   1      44.020  21.358  27.027  1.00  0.00     0.014 A 
ATOM     43  C   UNL A   1      43.587  23.332  25.099  1.00  0.00     0.010 A 
ATOM     44  C   UNL A   1      44.210  22.696  27.353  1.00  0.00     0.010 A 
ATOM     45  C   UNL A   1      44.003  23.695  26.391  1.00  0.00    -0.014 A 
BRANCH  45  46
ATOM     46  C   UNL A   1      44.225  25.117  26.752  1.00  0.00     0.031 A 
ATOM     47  C   UNL A   1      45.599  25.715  26.647  1.00  0.00     0.074 A 
ATOM     48  C   UNL A   1      43.200  25.847  27.230  1.00  0.00     0.049 A 
ATOM     49  N   UNL A   1      46.005  26.917  26.974  1.00  0.00    -0.248 NA
ATOM     50  C   UNL A   1      46.666  24.841  26.133  1.00  0.00     0.031 C 
ATOM     51  C   UNL A   1      41.832  25.362  27.419  1.00  0.00     0.029 A 
ATOM     52  N   UNL A   1      43.151  27.152  27.654  1.00  0.00    -0.354 N 
ATOM     53  C   UNL A   1      47.370  26.937  26.715  1.00  0.00     0.074 A 
ATOM     54  C   UNL A   1      47.734  25.613  26.261  1.00  0.00     0.031 C 
ATOM     55  C   UNL A   1      41.073  26.362  27.897  1.00  0.00     0.029 A 
ATOM     56  C   UNL A   1      41.908  27.543  28.089  1.00  0.00     0.049 A 
ATOM     57  H   UNL A   1      43.933  27.751  27.646  1.00  0.00     0.167 HD
ATOM     58  C   UNL A   1      48.234  27.974  26.821  1.00  0.00     0.037 A 
ATOM     59  C   UNL A   1      41.493  28.720  28.596  1.00  0.00     0.037 A 
ATOM     60  C   UNL A   1      47.861  29.294  27.257  1.00  0.00     0.049 A 
ATOM     61  C   UNL A   1      42.479  29.849  28.723  1.00  0.00     0.074 A 
ATOM     62  C   UNL A   1      48.649  30.428  27.348  1.00  0.00     0.029 A 
ATOM     63  N   UNL A   1      46.590  29.656  27.683  1.00  0.00    -0.354 N 
ATOM     64  N   UNL A   1      43.752  29.879  28.408  1.00  0.00    -0.248 NA
ATOM     65  C   UNL A   1      41.969  31.113  29.271  1.00  0.00     0.031 C 
ATOM     66  C   UNL A   1      47.870  31.459  27.882  1.00  0.00     0.029 A 
ATOM     67  C   UNL A   1      46.580  30.988  28.064  1.00  0.00     0.049 A 
ATOM     68  H   UNL A   1      45.811  29.054  27.710  1.00  0.00     0.167 HD
ATOM     69  C   UNL A   1      44.186  31.167  28.689  1.00  0.00     0.074 A 
ATOM     70  C   UNL A   1      43.037  31.894  29.185  1.00  0.00     0.031 C 
ATOM     71  C   UNL A   1      45.425  31.701  28.549  1.00  0.00     0.037 A 
BRANCH  58  72
ATOM     72  C   UNL A   1      49.671  27.723  26.461  1.00  0.00     0.064 A 
ATOM     73  C   UNL A   1      50.635  27.426  27.436  1.00  0.00     0.173 A 
ATOM     74  C   UNL A   1      50.082  27.739  25.119  1.00  0.00     0.173 A 
ATOM     75  F   UNL A   1      50.300  27.408  28.735  1.00  0.00    -0.203 F 
ATOM     76  C   UNL A   1      51.961  27.184  27.085  1.00  0.00     0.198 A 
ATOM     77  C   UNL A   1      51.401  27.463  24.768  1.00  0.00     0.198 A 
ATOM     78  F   UNL A   1      49.201  28.011  24.145  1.00  0.00    -0.203 F 
ATOM     79  F   UNL A   1      52.874  26.955  28.039  1.00  0.00    -0.200 F 
ATOM     80  C   UNL A   1      52.341  27.195  25.752  1.00  0.00     0.200 A 
ATOM     81  F   UNL A   1      51.762  27.458  23.478  1.00  0.00    -0.200 F 
ATOM     82  F   UNL A   1      53.615  26.952  25.414  1.00  0.00    -0.200 F 
ENDBRANCH  58  72
BRANCH  59  83
ATOM     83  C   UNL A   1      40.075  28.895  29.004  1.00  0.00     0.064 A 
ATOM     84  C   UNL A   1      39.674  28.673  30.329  1.00  0.00     0.173 A 
ATOM     85  C   UNL A   1      39.090  29.275  28.081  1.00  0.00     0.173 A 
ATOM     86  F   UNL A   1      40.575  28.291  31.246  1.00  0.00    -0.203 F 
ATOM     87  C   UNL A   1      38.338  28.799  30.708  1.00  0.00     0.198 A 
ATOM     88  C   UNL A   1      37.761  29.432  28.468  1.00  0.00     0.198 A 
ATOM     89  F   UNL A   1      39.420  29.506  26.801  1.00  0.00    -0.203 F 
ATOM     90  F   UNL A   1      37.974  28.529  31.969  1.00  0.00    -0.200 F 
ATOM     91  C   UNL A   1      37.384  29.183  29.779  1.00  0.00     0.200 A 
ATOM     92  F   UNL A   1      36.845  29.820  27.570  1.00  0.00    -0.200 F 
ATOM     93  F   UNL A   1      36.101  29.306  30.144  1.00  0.00    -0.200 F 
ENDBRANCH  59  83
BRANCH  71  94
ATOM     94  C   UNL A   1      45.594  33.151  28.899  1.00  0.00     0.064 A 
ATOM     95  C   UNL A   1      45.994  33.561  30.179  1.00  0.00     0.173 A 
ATOM     96  C   UNL A   1      45.391  34.143  27.926  1.00  0.00     0.173 A 
ATOM     97  F   UNL A   1      46.187  32.654  31.149  1.00  0.00    -0.203 F 
ATOM     98  C   UNL A   1      46.155  34.910  30.481  1.00  0.00     0.198 A 
ATOM     99  C   UNL A   1      45.587  35.488  28.221  1.00  0.00     0.198 A 
ATOM    100  F   UNL A   1      45.015  33.805  26.684  1.00  0.00    -0.203 F 
ATOM    101  F   UNL A   1      46.485  35.282  31.725  1.00  0.00    -0.200 F 
ATOM    102  C   UNL A   1      45.959  35.872  29.501  1.00  0.00     0.200 A 
ATOM    103  F   UNL A   1      45.415  36.415  27.268  1.00  0.00    -0.200 F 
ATOM    104  F   UNL A   1      46.124  37.170  29.790  1.00  0.00    -0.200 F 
ENDBRANCH  71  94
ENDBRANCH  45  46
ENDBRANCH  37  40
ENDBRANCH  35  36
ENDBRANCH  34  35
ENDBRANCH  33  34
ENDBRANCH  32  33
ENDBRANCH   1  32
TORSDOF 19
ENDMDL
MODEL 2
REMARK VINA RESULT:     -10.9      0.465      7.082
REMARK SMILES CCCC(=O)Nc1cccc(C(=O)N[C@@H](C(=O)NCCCCCCNC(=O)c2ccc(-c3c4nc(c(-c5c(F)c(F)c(F)c(F)c5F)c5ccc([nH]5)c(-c5c(F)c(F)c(F)c(F)c5F)c5nc(c(-c6c(F)c(F)c(F)c(F)c6F)c6ccc3[nH]6)C=C5)C=C4)cc2)C2=C(C)N=N[C@@H]2C)c1
REMARK SMILES IDX 20 1 19 2 18 3 16 4 17 5 15 7 14 8 12 9 13 10 11 12 7 13
REMARK SMILES IDX 8 14 98 15 9 16 10 17 6 18 4 19 5 20 3 22 2 23 1 24 91 25
REMARK SMILES IDX 92 26 96 27 93 28 94 29 95 30 97 31 21 32 22 33 23 34 24 35
REMARK SMILES IDX 25 36 26 37 27 39 28 40 29 41 90 42 30 43 89 44 31 45 32 46
REMARK SMILES IDX 33 47 83 48 34 49 88 50 82 51 84 52 35 53 87 54 81 55 80 56
REMARK SMILES IDX 36 58 68 59 48 60 67 61 49 62 52 63 66 64 85 65 50 66 51 67
REMARK SMILES IDX 65 69 86 70 53 71 37 72 38 73 46 74 39 75 40 76 44 77 47 78
REMARK SMILES IDX 41 79 42 80 45 81 43 82 69 83 70 84 78 85 71 86 72 87 76 88
REMARK SMILES IDX 79 89 73 90 74 91 77 92 75 93 54 94 55 95 63 96 56 97 57 98
REMARK SMILES IDX 61 99 64 100 58 101 59 102 62 103 60 104
REMARK H PARENT 18 6 14 11 6 21 25 38 84 57 52 68
REMARK Flexibility Score: inf
ROOT
ATOM      1  C   UNL A   1      38.644  23.504  26.470  1.00  0.00     0.021 C 
ENDROOT
BRANCH   1   2
ATOM      2  C   UNL A   1      37.262  23.464  25.840  1.00  0.00     0.116 C 
BRANCH   2   3
ATOM      3  N   UNL A   1      36.357  22.561  26.502  1.00  0.00    -0.354 N 
ATOM      4  C   UNL A   1      34.997  22.539  26.600  1.00  0.00     0.247 C 
ATOM      5  O   UNL A   1      34.553  21.433  26.933  1.00  0.00    -0.272 OA
ATOM      6  H   UNL A   1      36.804  21.820  26.972  1.00  0.00     0.163 HD
BRANCH   4   7
ATOM      7  C   UNL A   1      34.022  23.736  26.163  1.00  0.00     0.202 C 
BRANCH   7   8
ATOM      8  N   UNL A   1      32.629  23.546  26.627  1.00  0.00    -0.337 N 
ATOM      9  C   UNL A   1      31.380  24.120  26.462  1.00  0.00     0.252 C 
ATOM     10  O   UNL A   1      30.521  23.707  27.252  1.00  0.00    -0.269 OA
ATOM     11  H   UNL A   1      32.574  22.777  27.239  1.00  0.00     0.165 HD
BRANCH   9  12
ATOM     12  C   UNL A   1      30.910  25.148  25.450  1.00  0.00     0.041 A 
ATOM     13  C   UNL A   1      30.581  27.392  24.508  1.00  0.00     0.041 A 
ATOM     14  C   UNL A   1      30.281  26.840  23.263  1.00  0.00     0.026 A 
ATOM     15  C   UNL A   1      30.784  26.546  25.620  1.00  0.00     0.040 A 
ATOM     16  C   UNL A   1      30.287  25.460  23.095  1.00  0.00     0.003 A 
ATOM     17  C   UNL A   1      30.610  24.628  24.173  1.00  0.00     0.014 A 
BRANCH  13  18
ATOM     18  N   UNL A   1      30.597  28.792  24.597  1.00  0.00    -0.326 N 
ATOM     19  C   UNL A   1      31.445  29.680  25.198  1.00  0.00     0.224 C 
ATOM     20  O   UNL A   1      31.028  30.830  25.377  1.00  0.00    -0.275 OA
ATOM     21  H   UNL A   1      29.844  29.222  24.133  1.00  0.00     0.169 HD
BRANCH  19  22
ATOM     22  C   UNL A   1      32.927  29.405  25.382  1.00  0.00     0.100 C 
BRANCH  22  23
ATOM     23  C   UNL A   1      33.634  30.018  26.560  1.00  0.00     0.006 C 
ATOM     24  C   UNL A   1      33.972  28.950  27.570  1.00  0.00     0.004 C 
ENDBRANCH  22  23
ENDBRANCH  19  22
ENDBRANCH  13  18
ENDBRANCH   9  12
ENDBRANCH   7   8
BRANCH   7  25
ATOM     25  C   UNL A   1      34.070  23.915  24.612  1.00  0.00     0.011 C 
ATOM     26  C   UNL A   1      34.134  24.942  23.726  1.00  0.00     0.064 C 
ATOM     27  C   UNL A   1      34.186  22.710  23.692  1.00  0.00     0.156 C 
ATOM     28  C   UNL A   1      33.973  26.427  23.770  1.00  0.00     0.069 C 
ATOM     29  N   UNL A   1      34.403  24.534  22.439  1.00  0.00    -0.160 NA
ATOM     30  N   UNL A   1      34.513  23.297  22.372  1.00  0.00    -0.181 NA
ATOM     31  C   UNL A   1      32.874  21.967  23.499  1.00  0.00     0.040 C 
ENDBRANCH   7  25
ENDBRANCH   4   7
ENDBRANCH   2   3
ENDBRANCH   1   2
BRANCH   1  32
ATOM     32  C   UNL A   1      39.435  22.212  26.260  1.00  0.00     0.002 C 
BRANCH  32  33
ATOM     33  C   UNL A   1      40.375  21.844  27.417  1.00  0.00     0.002 C 
BRANCH  33  34
ATOM     34  C   UNL A   1      40.859  20.390  27.428  1.00  0.00     0.021 C 
BRANCH  34  35
ATOM     35  C   UNL A   1      40.692  19.663  26.098  1.00  0.00     0.116 C 
BRANCH  35  36
ATOM     36  N   UNL A   1      41.932  19.041  25.662  1.00  0.00    -0.352 N 
ATOM     37  C   UNL A   1      43.149  19.613  25.380  1.00  0.00     0.251 C 
ATOM     38  H   UNL A   1      41.894  18.063  25.552  1.00  0.00     0.163 HD
ATOM     39  O   UNL A   1      44.020  18.971  24.819  1.00  0.00    -0.269 OA
BRANCH  37  40
ATOM     40  C   UNL A   1      43.389  21.023  25.752  1.00  0.00     0.039 A 
ATOM     41  C   UNL A   1      43.916  21.306  27.013  1.00  0.00     0.014 A 
ATOM     42  C   UNL A   1      43.084  22.059  24.863  1.00  0.00     0.014 A 
ATOM     43  C   UNL A   1      44.190  22.629  27.363  1.00  0.00     0.010 A 
ATOM     44  C   UNL A   1      43.430  23.366  25.184  1.00  0.00     0.010 A 
ATOM     45  C   UNL A   1      43.980  23.665  26.439  1.00  0.00    -0.014 A 
BRANCH  45  46
ATOM     46  C   UNL A   1      44.329  25.069  26.769  1.00  0.00     0.031 A 
ATOM     47  C   UNL A   1      43.278  26.003  27.297  1.00  0.00     0.074 A 
ATOM     48  C   UNL A   1      45.578  25.513  26.536  1.00  0.00     0.049 A 
ATOM     49  N   UNL A   1      43.372  27.277  27.586  1.00  0.00    -0.248 NA
ATOM     50  C   UNL A   1      41.934  25.440  27.505  1.00  0.00     0.031 C 
ATOM     51  C   UNL A   1      46.672  24.712  25.983  1.00  0.00     0.029 A 
ATOM     52  N   UNL A   1      46.138  26.752  26.726  1.00  0.00    -0.354 N 
ATOM     53  C   UNL A   1      42.104  27.666  27.996  1.00  0.00     0.074 A 
ATOM     54  C   UNL A   1      41.243  26.511  27.864  1.00  0.00     0.031 C 
ATOM     55  C   UNL A   1      47.776  25.472  25.901  1.00  0.00     0.029 A 
ATOM     56  C   UNL A   1      47.459  26.823  26.354  1.00  0.00     0.049 A 
ATOM     57  H   UNL A   1      45.640  27.519  27.094  1.00  0.00     0.167 HD
ATOM     58  C   UNL A   1      41.700  28.871  28.465  1.00  0.00     0.037 A 
ATOM     59  C   UNL A   1      48.313  27.863  26.368  1.00  0.00     0.037 A 
ATOM     60  C   UNL A   1      42.567  30.012  28.610  1.00  0.00     0.049 A 
ATOM     61  C   UNL A   1      47.833  29.196  26.874  1.00  0.00     0.074 A 
ATOM     62  C   UNL A   1      42.270  31.261  29.125  1.00  0.00     0.029 A 
ATOM     63  N   UNL A   1      43.902  30.043  28.230  1.00  0.00    -0.354 N 
ATOM     64  N   UNL A   1      46.650  29.535  27.327  1.00  0.00    -0.248 NA
ATOM     65  C   UNL A   1      48.811  30.293  26.877  1.00  0.00     0.031 C 
ATOM     66  C   UNL A   1      43.408  32.065  29.005  1.00  0.00     0.029 A 
ATOM     67  C   UNL A   1      44.433  31.299  28.475  1.00  0.00     0.049 A 
ATOM     68  H   UNL A   1      44.397  29.285  27.844  1.00  0.00     0.167 HD
ATOM     69  C   UNL A   1      46.750  30.869  27.697  1.00  0.00     0.074 A 
ATOM     70  C   UNL A   1      48.113  31.274  27.431  1.00  0.00     0.031 C 
ATOM     71  C   UNL A   1      45.797  31.686  28.211  1.00  0.00     0.037 A 
BRANCH  58  72
ATOM     72  C   UNL A   1      40.258  29.019  28.855  1.00  0.00     0.064 A 
ATOM     73  C   UNL A   1      39.838  28.896  30.189  1.00  0.00     0.173 A 
ATOM     74  C   UNL A   1      39.287  29.329  27.891  1.00  0.00     0.173 A 
ATOM     75  F   UNL A   1      40.722  28.590  31.150  1.00  0.00    -0.203 F 
ATOM     76  C   UNL A   1      38.498  29.047  30.537  1.00  0.00     0.198 A 
ATOM     77  C   UNL A   1      37.953  29.513  28.246  1.00  0.00     0.198 A 
ATOM     78  F   UNL A   1      39.633  29.464  26.602  1.00  0.00    -0.203 F 
ATOM     79  F   UNL A   1      38.113  28.873  31.809  1.00  0.00    -0.200 F 
ATOM     80  C   UNL A   1      37.559  29.363  29.568  1.00  0.00     0.200 A 
ATOM     81  F   UNL A   1      37.050  29.834  27.310  1.00  0.00    -0.200 F 
ATOM     82  F   UNL A   1      36.271  29.518  29.905  1.00  0.00    -0.200 F 
ENDBRANCH  58  72
BRANCH  59  83
ATOM     83  C   UNL A   1      49.714  27.682  25.903  1.00  0.00     0.064 A 
ATOM     84  C   UNL A   1      50.024  27.675  24.536  1.00  0.00     0.173 A 
ATOM     85  C   UNL A   1      50.767  27.500  26.811  1.00  0.00     0.173 A 
ATOM     86  F   UNL A   1      49.050  27.826  23.627  1.00  0.00    -0.203 F 
ATOM     87  C   UNL A   1      51.331  27.466  24.095  1.00  0.00     0.198 A 
ATOM     88  C   UNL A   1      52.077  27.325  26.370  1.00  0.00     0.198 A 
ATOM     89  F   UNL A   1      50.527  27.505  28.131  1.00  0.00    -0.203 F 
ATOM     90  F   UNL A   1      51.590  27.411  22.782  1.00  0.00    -0.200 F 
ATOM     91  C   UNL A   1      52.356  27.297  25.012  1.00  0.00     0.200 A 
ATOM     92  F   UNL A   1      53.067  27.179  27.261  1.00  0.00    -0.200 F 
ATOM     93  F   UNL A   1      53.611  27.099  24.589  1.00  0.00    -0.200 F 
ENDBRANCH  59  83
BRANCH  71  94
ATOM     94  C   UNL A   1      46.205  33.089  28.558  1.00  0.00     0.064 A 
ATOM     95  C   UNL A   1      46.076  34.144  27.643  1.00  0.00     0.173 A 
ATOM     96  C   UNL A   1      46.696  33.388  29.839  1.00  0.00     0.173 A 
ATOM     97  F   UNL A   1      45.626  33.909  26.400  1.00  0.00    -0.203 F 
ATOM     98  C   UNL A   1      46.452  35.439  27.987  1.00  0.00     0.198 A 
ATOM     99  C   UNL A   1      47.038  34.689  30.191  1.00  0.00     0.198 A 
ATOM    100  F   UNL A   1      46.833  32.417  30.755  1.00  0.00    -0.203 F 
ATOM    101  F   UNL A   1      46.371  36.421  27.079  1.00  0.00    -0.200 F 
ATOM    102  C   UNL A   1      46.924  35.713  29.262  1.00  0.00     0.200 A 
ATOM    103  F   UNL A   1      47.477  34.955  31.429  1.00  0.00    -0.200 F 
ATOM    104  F   UNL A   1      47.276  36.962  29.595  1.00  0.00    -0.200 F 
ENDBRANCH  71  94
ENDBRANCH  45  46
ENDBRANCH  37  40
ENDBRANCH  35  36
ENDBRANCH  34  35
ENDBRANCH  33  34
ENDBRANCH  32  33
ENDBRANCH   1  32
TORSDOF 19
ENDMDL
MODEL 3
REMARK VINA RESULT:     -10.7      1.105      2.303
REMARK SMILES CCCC(=O)Nc1cccc(C(=O)N[C@@H](C(=O)NCCCCCCNC(=O)c2ccc(-c3c4nc(c(-c5c(F)c(F)c(F)c(F)c5F)c5ccc([nH]5)c(-c5c(F)c(F)c(F)c(F)c5F)c5nc(c(-c6c(F)c(F)c(F)c(F)c6F)c6ccc3[nH]6)C=C5)C=C4)cc2)C2=C(C)N=N[C@@H]2C)c1
REMARK SMILES IDX 20 1 19 2 18 3 16 4 17 5 15 7 14 8 12 9 13 10 11 12 7 13
REMARK SMILES IDX 8 14 98 15 9 16 10 17 6 18 4 19 5 20 3 22 2 23 1 24 91 25
REMARK SMILES IDX 92 26 96 27 93 28 94 29 95 30 97 31 21 32 22 33 23 34 24 35
REMARK SMILES IDX 25 36 26 37 27 39 28 40 29 41 90 42 30 43 89 44 31 45 32 46
REMARK SMILES IDX 33 47 83 48 34 49 88 50 82 51 84 52 35 53 87 54 81 55 80 56
REMARK SMILES IDX 36 58 68 59 48 60 67 61 49 62 52 63 66 64 85 65 50 66 51 67
REMARK SMILES IDX 65 69 86 70 53 71 37 72 38 73 46 74 39 75 40 76 44 77 47 78
REMARK SMILES IDX 41 79 42 80 45 81 43 82 69 83 70 84 78 85 71 86 72 87 76 88
REMARK SMILES IDX 79 89 73 90 74 91 77 92 75 93 54 94 55 95 63 96 56 97 57 98
REMARK SMILES IDX 61 99 64 100 58 101 59 102 62 103 60 104
REMARK H PARENT 18 6 14 11 6 21 25 38 84 57 52 68
REMARK Flexibility Score: inf
ROOT
ATOM      1  C   UNL A   1      38.203  23.623  26.129  1.00  0.00     0.021 C 
ENDROOT
BRANCH   1   2
ATOM      2  C   UNL A   1      36.907  23.704  25.338  1.00  0.00     0.116 C 
BRANCH   2   3
ATOM      3  N   UNL A   1      35.825  22.966  25.936  1.00  0.00    -0.354 N 
ATOM      4  C   UNL A   1      34.474  23.145  25.910  1.00  0.00     0.247 C 
ATOM      5  O   UNL A   1      33.844  22.127  26.228  1.00  0.00    -0.272 OA
ATOM      6  H   UNL A   1      36.115  22.186  26.464  1.00  0.00     0.163 HD
BRANCH   4   7
ATOM      7  C   UNL A   1      33.726  24.452  25.357  1.00  0.00     0.202 C 
BRANCH   7   8
ATOM      8  N   UNL A   1      32.407  24.675  25.989  1.00  0.00    -0.337 N 
ATOM      9  C   UNL A   1      31.553  25.721  26.296  1.00  0.00     0.252 C 
ATOM     10  O   UNL A   1      30.612  25.410  27.038  1.00  0.00    -0.269 OA
ATOM     11  H   UNL A   1      32.017  23.819  26.279  1.00  0.00     0.165 HD
BRANCH   9  12
ATOM     12  C   UNL A   1      31.587  27.169  25.841  1.00  0.00     0.041 A 
ATOM     13  C   UNL A   1      31.157  29.069  24.347  1.00  0.00     0.041 A 
ATOM     14  C   UNL A   1      31.441  29.963  25.379  1.00  0.00     0.026 A 
ATOM     15  C   UNL A   1      31.339  27.683  24.548  1.00  0.00     0.040 A 
ATOM     16  C   UNL A   1      31.798  29.482  26.634  1.00  0.00     0.003 A 
ATOM     17  C   UNL A   1      31.857  28.104  26.863  1.00  0.00     0.014 A 
BRANCH  13  18
ATOM     18  N   UNL A   1      30.763  29.619  23.118  1.00  0.00    -0.326 N 
ATOM     19  C   UNL A   1      29.564  29.682  22.464  1.00  0.00     0.224 C 
ATOM     20  O   UNL A   1      29.590  29.947  21.257  1.00  0.00    -0.275 OA
ATOM     21  H   UNL A   1      31.500  30.047  22.627  1.00  0.00     0.169 HD
BRANCH  19  22
ATOM     22  C   UNL A   1      28.232  29.729  23.192  1.00  0.00     0.100 C 
BRANCH  22  23
ATOM     23  C   UNL A   1      27.617  31.070  23.485  1.00  0.00     0.006 C 
ATOM     24  C   UNL A   1      28.691  32.129  23.537  1.00  0.00     0.004 C 
ENDBRANCH  22  23
ENDBRANCH  19  22
ENDBRANCH  13  18
ENDBRANCH   9  12
ENDBRANCH   7   8
BRANCH   7  25
ATOM     25  C   UNL A   1      33.589  24.363  23.803  1.00  0.00     0.011 C 
ATOM     26  C   UNL A   1      33.640  25.212  22.745  1.00  0.00     0.064 C 
ATOM     27  C   UNL A   1      33.461  23.016  23.109  1.00  0.00     0.156 C 
ATOM     28  C   UNL A   1      33.639  26.691  22.537  1.00  0.00     0.069 C 
ATOM     29  N   UNL A   1      33.696  24.565  21.531  1.00  0.00    -0.160 NA
ATOM     30  N   UNL A   1      33.670  23.330  21.677  1.00  0.00    -0.181 NA
ATOM     31  C   UNL A   1      32.066  22.418  23.200  1.00  0.00     0.040 C 
ENDBRANCH   7  25
ENDBRANCH   4   7
ENDBRANCH   2   3
ENDBRANCH   1   2
BRANCH   1  32
ATOM     32  C   UNL A   1      38.850  22.240  26.076  1.00  0.00     0.002 C 
BRANCH  32  33
ATOM     33  C   UNL A   1      39.912  21.990  27.157  1.00  0.00     0.002 C 
BRANCH  33  34
ATOM     34  C   UNL A   1      40.391  20.540  27.280  1.00  0.00     0.021 C 
BRANCH  34  35
ATOM     35  C   UNL A   1      40.446  19.782  25.958  1.00  0.00     0.116 C 
BRANCH  35  36
ATOM     36  N   UNL A   1      41.753  19.185  25.731  1.00  0.00    -0.352 N 
ATOM     37  C   UNL A   1      42.983  19.785  25.614  1.00  0.00     0.251 C 
ATOM     38  H   UNL A   1      41.756  18.204  25.649  1.00  0.00     0.163 HD
ATOM     39  O   UNL A   1      43.944  19.153  25.210  1.00  0.00    -0.269 OA
BRANCH  37  40
ATOM     40  C   UNL A   1      43.130  21.212  25.971  1.00  0.00     0.039 A 
ATOM     41  C   UNL A   1      43.482  21.544  27.280  1.00  0.00     0.014 A 
ATOM     42  C   UNL A   1      42.909  22.213  25.020  1.00  0.00     0.014 A 
ATOM     43  C   UNL A   1      43.668  22.885  27.622  1.00  0.00     0.010 A 
ATOM     44  C   UNL A   1      43.170  23.539  25.343  1.00  0.00     0.010 A 
ATOM     45  C   UNL A   1      43.545  23.890  26.648  1.00  0.00    -0.014 A 
BRANCH  45  46
ATOM     46  C   UNL A   1      43.805  25.312  26.978  1.00  0.00     0.031 A 
ATOM     47  C   UNL A   1      45.179  25.891  26.791  1.00  0.00     0.074 A 
ATOM     48  C   UNL A   1      42.818  26.062  27.502  1.00  0.00     0.049 A 
ATOM     49  N   UNL A   1      45.619  27.090  27.079  1.00  0.00    -0.248 NA
ATOM     50  C   UNL A   1      46.205  24.996  26.231  1.00  0.00     0.031 C 
ATOM     51  C   UNL A   1      41.456  25.599  27.772  1.00  0.00     0.029 A 
ATOM     52  N   UNL A   1      42.809  27.373  27.911  1.00  0.00    -0.354 N 
ATOM     53  C   UNL A   1      46.967  27.088  26.746  1.00  0.00     0.074 A 
ATOM     54  C   UNL A   1      47.289  25.754  26.289  1.00  0.00     0.031 C 
ATOM     55  C   UNL A   1      40.738  26.614  28.278  1.00  0.00     0.029 A 
ATOM     56  C   UNL A   1      41.598  27.787  28.409  1.00  0.00     0.049 A 
ATOM     57  H   UNL A   1      43.598  27.961  27.853  1.00  0.00     0.167 HD
ATOM     58  C   UNL A   1      47.850  28.115  26.792  1.00  0.00     0.037 A 
ATOM     59  C   UNL A   1      41.227  28.975  28.922  1.00  0.00     0.037 A 
ATOM     60  C   UNL A   1      47.518  29.445  27.230  1.00  0.00     0.049 A 
ATOM     61  C   UNL A   1      42.233  30.092  28.981  1.00  0.00     0.074 A 
ATOM     62  C   UNL A   1      48.324  30.568  27.264  1.00  0.00     0.029 A 
ATOM     63  N   UNL A   1      46.277  29.829  27.720  1.00  0.00    -0.354 N 
ATOM     64  N   UNL A   1      43.487  30.100  28.596  1.00  0.00    -0.248 NA
ATOM     65  C   UNL A   1      41.770  31.369  29.540  1.00  0.00     0.031 C 
ATOM     66  C   UNL A   1      47.590  31.617  27.826  1.00  0.00     0.029 A 
ATOM     67  C   UNL A   1      46.306  31.166  28.084  1.00  0.00     0.049 A 
ATOM     68  H   UNL A   1      45.493  29.239  27.798  1.00  0.00     0.167 HD
ATOM     69  C   UNL A   1      43.952  31.385  28.837  1.00  0.00     0.074 A 
ATOM     70  C   UNL A   1      42.842  32.135  29.385  1.00  0.00     0.031 C 
ATOM     71  C   UNL A   1      45.188  31.900  28.622  1.00  0.00     0.037 A 
BRANCH  58  72
ATOM     72  C   UNL A   1      49.261  27.840  26.356  1.00  0.00     0.064 A 
ATOM     73  C   UNL A   1      49.617  27.784  25.000  1.00  0.00     0.173 A 
ATOM     74  C   UNL A   1      50.279  27.669  27.307  1.00  0.00     0.173 A 
ATOM     75  F   UNL A   1      48.682  27.929  24.049  1.00  0.00    -0.203 F 
ATOM     76  C   UNL A   1      50.932  27.539  24.613  1.00  0.00     0.198 A 
ATOM     77  C   UNL A   1      51.599  27.459  26.917  1.00  0.00     0.198 A 
ATOM     78  F   UNL A   1      49.996  27.719  28.617  1.00  0.00    -0.203 F 
ATOM     79  F   UNL A   1      51.238  27.439  23.312  1.00  0.00    -0.200 F 
ATOM     80  C   UNL A   1      51.923  27.385  25.570  1.00  0.00     0.200 A 
ATOM     81  F   UNL A   1      52.557  27.326  27.844  1.00  0.00    -0.200 F 
ATOM     82  F   UNL A   1      53.190  27.160  25.196  1.00  0.00    -0.200 F 
ENDBRANCH  58  72
BRANCH  59  83
ATOM     83  C   UNL A   1      39.835  29.175  29.406  1.00  0.00     0.064 A 
ATOM     84  C   UNL A   1      38.808  29.526  28.519  1.00  0.00     0.173 A 
ATOM     85  C   UNL A   1      39.504  29.032  30.762  1.00  0.00     0.173 A 
ATOM     86  F   UNL A   1      39.076  29.692  27.216  1.00  0.00    -0.203 F 
ATOM     87  C   UNL A   1      37.509  29.752  28.974  1.00  0.00     0.198 A 
ATOM     88  C   UNL A   1      38.200  29.226  31.210  1.00  0.00     0.198 A 
ATOM     89  F   UNL A   1      40.448  28.691  31.652  1.00  0.00    -0.203 F 
ATOM     90  F   UNL A   1      36.559  30.139  28.113  1.00  0.00    -0.200 F 
ATOM     91  C   UNL A   1      37.206  29.597  30.318  1.00  0.00     0.200 A 
ATOM     92  F   UNL A   1      37.908  29.058  32.507  1.00  0.00    -0.200 F 
ATOM     93  F   UNL A   1      35.958  29.812  30.754  1.00  0.00    -0.200 F 
ENDBRANCH  59  83
BRANCH  71  94
ATOM     94  C   UNL A   1      45.396  33.353  28.945  1.00  0.00     0.064 A 
ATOM     95  C   UNL A   1      45.836  33.775  30.207  1.00  0.00     0.173 A 
ATOM     96  C   UNL A   1      45.189  34.333  27.960  1.00  0.00     0.173 A 
ATOM     97  F   UNL A   1      46.034  32.879  31.187  1.00  0.00    -0.203 F 
ATOM     98  C   UNL A   1      46.031  35.125  30.482  1.00  0.00     0.198 A 
ATOM     99  C   UNL A   1      45.419  35.678  28.228  1.00  0.00     0.198 A 
ATOM    100  F   UNL A   1      44.776  33.982  26.733  1.00  0.00    -0.203 F 
ATOM    101  F   UNL A   1      46.398  35.509  31.712  1.00  0.00    -0.200 F 
ATOM    102  C   UNL A   1      45.831  36.074  29.492  1.00  0.00     0.200 A 
ATOM    103  F   UNL A   1      45.243  36.592  27.264  1.00  0.00    -0.200 F 
ATOM    104  F   UNL A   1      46.029  37.373  29.755  1.00  0.00    -0.200 F 
ENDBRANCH  71  94
ENDBRANCH  45  46
ENDBRANCH  37  40
ENDBRANCH  35  36
ENDBRANCH  34  35
ENDBRANCH  33  34
ENDBRANCH  32  33
ENDBRANCH   1  32
TORSDOF 19
ENDMDL
