MODEL 1
REMARK VINA RESULT:     -11.8      0.000      0.000
REMARK SMILES O=C(NCCCCCCNC(=O)c1ccnc(-n2cnnn2)c1)c1ccc(-c2c3nc(c(-c4c(F)c(F)c(F)c(F)c4F)c4ccc([nH]4)c(-c4c(F)c(F)c(F)c(F)c4F)c4nc(c(-c5c(F)c(F)c(F)c(F)c5F)c5ccc2[nH]5)C=C4)C=C3)cc1
REMARK SMILES IDX 6 1 5 2 4 3 3 4 1 5 2 6 24 8 25 9 86 10 26 11 85 12 27 13
REMARK SMILES IDX 28 14 29 15 79 16 30 17 84 18 78 19 80 20 31 21 83 22 77 23
REMARK SMILES IDX 76 24 32 26 64 27 44 28 63 29 45 30 48 31 62 32 81 33 46 34
REMARK SMILES IDX 47 35 61 37 82 38 49 39 33 40 34 41 42 42 35 43 36 44 40 45
REMARK SMILES IDX 43 46 37 47 38 48 41 49 39 50 65 51 66 52 74 53 67 54 68 55
REMARK SMILES IDX 72 56 75 57 69 58 70 59 73 60 71 61 50 62 51 63 59 64 52 65
REMARK SMILES IDX 53 66 57 67 60 68 54 69 55 70 58 71 56 72 7 73 8 74 9 75
REMARK SMILES IDX 10 76 11 77 12 79 13 80 14 81 23 82 15 83 17 84 16 85 18 86
REMARK SMILES IDX 19 87 22 88 20 89 21 90
REMARK H PARENT 3 7 80 25 48 36 10 78
REMARK Flexibility Score: inf
ROOT
ATOM      1  C   UNL A   1      42.472  23.026  28.417  1.00  0.00     0.002 C 
ENDROOT
BRANCH   1   2
ATOM      2  C   UNL A   1      41.850  21.694  27.980  1.00  0.00     0.021 C 
BRANCH   2   3
ATOM      3  C   UNL A   1      41.544  21.580  26.486  1.00  0.00     0.116 C 
BRANCH   3   4
ATOM      4  N   UNL A   1      40.140  21.718  26.160  1.00  0.00    -0.352 N 
ATOM      5  O   UNL A   1      38.109  22.475  25.755  1.00  0.00    -0.269 OA
ATOM      6  C   UNL A   1      39.218  22.725  26.237  1.00  0.00     0.251 C 
ATOM      7  H   UNL A   1      39.758  20.888  25.794  1.00  0.00     0.163 HD
BRANCH   6   8
ATOM      8  C   UNL A   1      39.429  24.058  26.871  1.00  0.00     0.039 A 
ATOM      9  C   UNL A   1      38.960  24.453  28.123  1.00  0.00     0.014 A 
ATOM     10  C   UNL A   1      40.181  24.989  26.123  1.00  0.00     0.014 A 
ATOM     11  C   UNL A   1      39.206  25.743  28.599  1.00  0.00     0.010 A 
ATOM     12  C   UNL A   1      40.438  26.276  26.596  1.00  0.00     0.010 A 
ATOM     13  C   UNL A   1      39.940  26.659  27.837  1.00  0.00    -0.014 A 
BRANCH  13  14
ATOM     14  C   UNL A   1      40.274  27.945  28.453  1.00  0.00     0.031 A 
ATOM     15  C   UNL A   1      41.494  28.620  27.921  1.00  0.00     0.074 A 
ATOM     16  C   UNL A   1      39.523  28.607  29.354  1.00  0.00     0.049 A 
ATOM     17  N   UNL A   1      42.582  28.917  28.556  1.00  0.00    -0.248 NA
ATOM     18  C   UNL A   1      41.514  28.976  26.496  1.00  0.00     0.031 C 
ATOM     19  C   UNL A   1      38.155  28.324  29.780  1.00  0.00     0.029 A 
ATOM     20  N   UNL A   1      39.832  29.758  30.029  1.00  0.00    -0.354 N 
ATOM     21  C   UNL A   1      43.378  29.624  27.657  1.00  0.00     0.074 A 
ATOM     22  C   UNL A   1      42.711  29.555  26.381  1.00  0.00     0.031 C 
ATOM     23  C   UNL A   1      37.685  29.375  30.491  1.00  0.00     0.029 A 
ATOM     24  C   UNL A   1      38.758  30.340  30.682  1.00  0.00     0.049 A 
ATOM     25  H   UNL A   1      40.740  30.138  30.048  1.00  0.00     0.167 HD
ATOM     26  C   UNL A   1      44.453  30.357  28.063  1.00  0.00     0.037 A 
ATOM     27  C   UNL A   1      38.739  31.549  31.296  1.00  0.00     0.037 A 
ATOM     28  C   UNL A   1      44.883  29.989  29.386  1.00  0.00     0.049 A 
ATOM     29  C   UNL A   1      40.135  31.944  31.594  1.00  0.00     0.074 A 
ATOM     30  C   UNL A   1      45.333  28.826  29.980  1.00  0.00     0.029 A 
ATOM     31  N   UNL A   1      44.614  30.845  30.423  1.00  0.00    -0.354 N 
ATOM     32  N   UNL A   1      40.876  31.404  32.518  1.00  0.00    -0.248 NA
ATOM     33  C   UNL A   1      40.847  32.759  30.621  1.00  0.00     0.031 C 
ATOM     34  C   UNL A   1      44.841  28.875  31.317  1.00  0.00     0.029 A 
ATOM     35  C   UNL A   1      44.147  30.078  31.457  1.00  0.00     0.049 A 
ATOM     36  H   UNL A   1      44.732  31.822  30.425  1.00  0.00     0.167 HD
ATOM     37  C   UNL A   1      42.159  31.442  32.003  1.00  0.00     0.074 A 
ATOM     38  C   UNL A   1      42.100  32.403  30.908  1.00  0.00     0.031 C 
ATOM     39  C   UNL A   1      43.074  30.484  32.328  1.00  0.00     0.037 A 
BRANCH  26  40
ATOM     40  C   UNL A   1      44.938  31.621  27.399  1.00  0.00     0.064 A 
ATOM     41  C   UNL A   1      46.254  31.679  26.893  1.00  0.00     0.173 A 
ATOM     42  C   UNL A   1      44.276  32.860  27.519  1.00  0.00     0.173 A 
ATOM     43  F   UNL A   1      46.984  30.561  26.758  1.00  0.00    -0.203 F 
ATOM     44  C   UNL A   1      46.884  32.893  26.608  1.00  0.00     0.198 A 
ATOM     45  C   UNL A   1      44.891  34.067  27.180  1.00  0.00     0.198 A 
ATOM     46  F   UNL A   1      43.061  32.962  28.071  1.00  0.00    -0.203 F 
ATOM     47  F   UNL A   1      48.177  32.904  26.255  1.00  0.00    -0.200 F 
ATOM     48  C   UNL A   1      46.203  34.087  26.758  1.00  0.00     0.200 A 
ATOM     49  F   UNL A   1      44.223  35.217  27.350  1.00  0.00    -0.200 F 
ATOM     50  F   UNL A   1      46.824  35.255  26.546  1.00  0.00    -0.200 F 
ENDBRANCH  26  40
BRANCH  27  51
ATOM     51  C   UNL A   1      37.614  32.494  31.477  1.00  0.00     0.064 A 
ATOM     52  C   UNL A   1      36.993  33.105  30.374  1.00  0.00     0.173 A 
ATOM     53  C   UNL A   1      36.945  32.598  32.710  1.00  0.00     0.173 A 
ATOM     54  F   UNL A   1      37.542  33.018  29.154  1.00  0.00    -0.203 F 
ATOM     55  C   UNL A   1      35.759  33.751  30.493  1.00  0.00     0.198 A 
ATOM     56  C   UNL A   1      35.719  33.253  32.830  1.00  0.00     0.198 A 
ATOM     57  F   UNL A   1      37.420  31.982  33.803  1.00  0.00    -0.203 F 
ATOM     58  F   UNL A   1      35.164  34.260  29.405  1.00  0.00    -0.200 F 
ATOM     59  C   UNL A   1      35.118  33.815  31.719  1.00  0.00     0.200 A 
ATOM     60  F   UNL A   1      35.092  33.278  34.015  1.00  0.00    -0.200 F 
ATOM     61  F   UNL A   1      33.906  34.378  31.822  1.00  0.00    -0.200 F 
ENDBRANCH  27  51
BRANCH  39  62
ATOM     62  C   UNL A   1      42.791  29.618  33.520  1.00  0.00     0.064 A 
ATOM     63  C   UNL A   1      42.057  28.420  33.471  1.00  0.00     0.173 A 
ATOM     64  C   UNL A   1      43.383  29.963  34.743  1.00  0.00     0.173 A 
ATOM     65  F   UNL A   1      41.559  27.960  32.315  1.00  0.00    -0.203 F 
ATOM     66  C   UNL A   1      41.873  27.641  34.612  1.00  0.00     0.198 A 
ATOM     67  C   UNL A   1      43.235  29.162  35.871  1.00  0.00     0.198 A 
ATOM     68  F   UNL A   1      44.146  31.064  34.836  1.00  0.00    -0.203 F 
ATOM     69  F   UNL A   1      41.149  26.516  34.548  1.00  0.00    -0.200 F 
ATOM     70  C   UNL A   1      42.467  28.010  35.809  1.00  0.00     0.200 A 
ATOM     71  F   UNL A   1      43.856  29.493  37.011  1.00  0.00    -0.200 F 
ATOM     72  F   UNL A   1      42.322  27.241  36.897  1.00  0.00    -0.200 F 
ENDBRANCH  39  62
ENDBRANCH  13  14
ENDBRANCH   6   8
ENDBRANCH   3   4
ENDBRANCH   2   3
ENDBRANCH   1   2
BRANCH   1  73
ATOM     73  C   UNL A   1      43.500  22.950  29.550  1.00  0.00     0.002 C 
BRANCH  73  74
ATOM     74  C   UNL A   1      44.137  24.283  29.963  1.00  0.00     0.021 C 
BRANCH  74  75
ATOM     75  C   UNL A   1      44.396  25.263  28.819  1.00  0.00     0.116 C 
BRANCH  75  76
ATOM     76  N   UNL A   1      45.778  25.210  28.371  1.00  0.00    -0.352 N 
ATOM     77  C   UNL A   1      46.330  24.479  27.357  1.00  0.00     0.251 C 
ATOM     78  H   UNL A   1      46.405  25.784  28.868  1.00  0.00     0.163 HD
ATOM     79  O   UNL A   1      47.554  24.366  27.260  1.00  0.00    -0.269 OA
BRANCH  77  80
ATOM     80  C   UNL A   1      45.478  23.801  26.365  1.00  0.00     0.045 A 
ATOM     81  C   UNL A   1      44.614  24.530  25.552  1.00  0.00     0.034 A 
ATOM     82  C   UNL A   1      45.634  22.424  26.188  1.00  0.00     0.063 A 
ATOM     83  C   UNL A   1      43.910  23.836  24.591  1.00  0.00     0.114 A 
ATOM     84  C   UNL A   1      44.890  21.809  25.189  1.00  0.00     0.157 A 
ATOM     85  N   UNL A   1      44.032  22.506  24.396  1.00  0.00    -0.237 NA
BRANCH  84  86
ATOM     86  N   UNL A   1      45.025  20.414  24.964  1.00  0.00    -0.182 N 
ATOM     87  C   UNL A   1      46.114  19.601  25.156  1.00  0.00     0.254 A 
ATOM     88  N   UNL A   1      44.012  19.645  24.501  1.00  0.00    -0.039 NA
ATOM     89  N   UNL A   1      45.818  18.378  24.783  1.00  0.00    -0.117 NA
ATOM     90  N   UNL A   1      44.513  18.424  24.367  1.00  0.00    -0.024 NA
ENDBRANCH  84  86
ENDBRANCH  77  80
ENDBRANCH  75  76
ENDBRANCH  74  75
ENDBRANCH  73  74
ENDBRANCH   1  73
TORSDOF 14
ENDMDL
MODEL 2
REMARK VINA RESULT:     -11.8      6.034     11.728
REMARK SMILES O=C(NCCCCCCNC(=O)c1ccnc(-n2cnnn2)c1)c1ccc(-c2c3nc(c(-c4c(F)c(F)c(F)c(F)c4F)c4ccc([nH]4)c(-c4c(F)c(F)c(F)c(F)c4F)c4nc(c(-c5c(F)c(F)c(F)c(F)c5F)c5ccc2[nH]5)C=C4)C=C3)cc1
REMARK SMILES IDX 6 1 5 2 4 3 3 4 1 5 2 6 24 8 25 9 86 10 26 11 85 12 27 13
REMARK SMILES IDX 28 14 29 15 79 16 30 17 84 18 78 19 80 20 31 21 83 22 77 23
REMARK SMILES IDX 76 24 32 26 64 27 44 28 63 29 45 30 48 31 62 32 81 33 46 34
REMARK SMILES IDX 47 35 61 37 82 38 49 39 33 40 34 41 42 42 35 43 36 44 40 45
REMARK SMILES IDX 43 46 37 47 38 48 41 49 39 50 65 51 66 52 74 53 67 54 68 55
REMARK SMILES IDX 72 56 75 57 69 58 70 59 73 60 71 61 50 62 51 63 59 64 52 65
REMARK SMILES IDX 53 66 57 67 60 68 54 69 55 70 58 71 56 72 7 73 8 74 9 75
REMARK SMILES IDX 10 76 11 77 12 79 13 80 14 81 23 82 15 83 17 84 16 85 18 86
REMARK SMILES IDX 19 87 22 88 20 89 21 90
REMARK H PARENT 3 7 80 25 48 36 10 78
REMARK Flexibility Score: inf
ROOT
ATOM      1  C   UNL A   1      32.792  29.855  27.197  1.00  0.00     0.002 C 
ENDROOT
BRANCH   1   2
ATOM      2  C   UNL A   1      34.246  30.225  27.514  1.00  0.00     0.021 C 
BRANCH   2   3
ATOM      3  C   UNL A   1      34.490  31.706  27.806  1.00  0.00     0.116 C 
BRANCH   3   4
ATOM      4  N   UNL A   1      34.407  32.051  29.211  1.00  0.00    -0.352 N 
ATOM      5  O   UNL A   1      34.813  32.389  31.351  1.00  0.00    -0.269 OA
ATOM      6  C   UNL A   1      35.186  31.835  30.313  1.00  0.00     0.251 C 
ATOM      7  H   UNL A   1      33.595  32.564  29.421  1.00  0.00     0.163 HD
BRANCH   6   8
ATOM      8  C   UNL A   1      36.405  30.977  30.369  1.00  0.00     0.039 A 
ATOM      9  C   UNL A   1      36.424  29.586  30.460  1.00  0.00     0.014 A 
ATOM     10  C   UNL A   1      37.643  31.654  30.316  1.00  0.00     0.014 A 
ATOM     11  C   UNL A   1      37.637  28.896  30.528  1.00  0.00     0.010 A 
ATOM     12  C   UNL A   1      38.857  30.970  30.374  1.00  0.00     0.010 A 
ATOM     13  C   UNL A   1      38.856  29.584  30.490  1.00  0.00    -0.014 A 
BRANCH  13  14
ATOM     14  C   UNL A   1      40.084  28.790  30.430  1.00  0.00     0.031 A 
ATOM     15  C   UNL A   1      40.801  28.607  31.727  1.00  0.00     0.074 A 
ATOM     16  C   UNL A   1      40.545  28.128  29.351  1.00  0.00     0.049 A 
ATOM     17  N   UNL A   1      41.994  28.999  32.041  1.00  0.00    -0.248 NA
ATOM     18  C   UNL A   1      40.082  27.935  32.817  1.00  0.00     0.031 C 
ATOM     19  C   UNL A   1      39.870  27.882  28.080  1.00  0.00     0.029 A 
ATOM     20  N   UNL A   1      41.730  27.455  29.215  1.00  0.00    -0.354 N 
ATOM     21  C   UNL A   1      42.242  28.506  33.321  1.00  0.00     0.074 A 
ATOM     22  C   UNL A   1      41.002  27.935  33.785  1.00  0.00     0.031 C 
ATOM     23  C   UNL A   1      40.568  26.960  27.378  1.00  0.00     0.029 A 
ATOM     24  C   UNL A   1      41.802  26.654  28.087  1.00  0.00     0.049 A 
ATOM     25  H   UNL A   1      42.466  27.533  29.864  1.00  0.00     0.167 HD
ATOM     26  C   UNL A   1      43.498  28.457  33.845  1.00  0.00     0.037 A 
ATOM     27  C   UNL A   1      42.784  25.771  27.780  1.00  0.00     0.037 A 
ATOM     28  C   UNL A   1      44.411  29.310  33.132  1.00  0.00     0.049 A 
ATOM     29  C   UNL A   1      43.992  26.124  28.559  1.00  0.00     0.074 A 
ATOM     30  C   UNL A   1      44.475  30.664  32.861  1.00  0.00     0.029 A 
ATOM     31  N   UNL A   1      45.339  28.730  32.305  1.00  0.00    -0.354 N 
ATOM     32  N   UNL A   1      44.748  27.158  28.324  1.00  0.00    -0.248 NA
ATOM     33  C   UNL A   1      44.198  25.482  29.848  1.00  0.00     0.031 C 
ATOM     34  C   UNL A   1      45.061  30.757  31.566  1.00  0.00     0.029 A 
ATOM     35  C   UNL A   1      45.340  29.457  31.144  1.00  0.00     0.049 A 
ATOM     36  H   UNL A   1      45.896  27.945  32.506  1.00  0.00     0.167 HD
ATOM     37  C   UNL A   1      45.195  27.554  29.572  1.00  0.00     0.074 A 
ATOM     38  C   UNL A   1      44.943  26.415  30.445  1.00  0.00     0.031 C 
ATOM     39  C   UNL A   1      45.465  28.865  29.836  1.00  0.00     0.037 A 
BRANCH  26  40
ATOM     40  C   UNL A   1      43.991  27.410  34.814  1.00  0.00     0.064 A 
ATOM     41  C   UNL A   1      43.918  26.047  34.459  1.00  0.00     0.173 A 
ATOM     42  C   UNL A   1      44.237  27.673  36.177  1.00  0.00     0.173 A 
ATOM     43  F   UNL A   1      43.667  25.682  33.192  1.00  0.00    -0.203 F 
ATOM     44  C   UNL A   1      44.003  25.029  35.412  1.00  0.00     0.198 A 
ATOM     45  C   UNL A   1      44.377  26.651  37.118  1.00  0.00     0.198 A 
ATOM     46  F   UNL A   1      44.238  28.919  36.667  1.00  0.00    -0.203 F 
ATOM     47  F   UNL A   1      43.797  23.756  35.047  1.00  0.00    -0.200 F 
ATOM     48  C   UNL A   1      44.227  25.334  36.743  1.00  0.00     0.200 A 
ATOM     49  F   UNL A   1      44.574  26.965  38.406  1.00  0.00    -0.200 F 
ATOM     50  F   UNL A   1      44.246  24.365  37.668  1.00  0.00    -0.200 F 
ENDBRANCH  26  40
BRANCH  27  51
ATOM     51  C   UNL A   1      42.707  24.512  27.005  1.00  0.00     0.064 A 
ATOM     52  C   UNL A   1      43.286  24.407  25.729  1.00  0.00     0.173 A 
ATOM     53  C   UNL A   1      42.313  23.307  27.616  1.00  0.00     0.173 A 
ATOM     54  F   UNL A   1      43.727  25.502  25.093  1.00  0.00    -0.203 F 
ATOM     55  C   UNL A   1      43.490  23.167  25.116  1.00  0.00     0.198 A 
ATOM     56  C   UNL A   1      42.507  22.071  26.998  1.00  0.00     0.198 A 
ATOM     57  F   UNL A   1      41.823  23.298  28.864  1.00  0.00    -0.203 F 
ATOM     58  F   UNL A   1      44.110  23.102  23.930  1.00  0.00    -0.200 F 
ATOM     59  C   UNL A   1      43.110  21.999  25.756  1.00  0.00     0.200 A 
ATOM     60  F   UNL A   1      42.166  20.946  27.643  1.00  0.00    -0.200 F 
ATOM     61  F   UNL A   1      43.363  20.807  25.199  1.00  0.00    -0.200 F 
ENDBRANCH  27  51
BRANCH  39  62
ATOM     62  C   UNL A   1      45.626  29.798  28.672  1.00  0.00     0.064 A 
ATOM     63  C   UNL A   1      44.555  30.393  27.981  1.00  0.00     0.173 A 
ATOM     64  C   UNL A   1      46.923  30.191  28.315  1.00  0.00     0.173 A 
ATOM     65  F   UNL A   1      43.285  30.161  28.340  1.00  0.00    -0.203 F 
ATOM     66  C   UNL A   1      44.782  31.288  26.937  1.00  0.00     0.198 A 
ATOM     67  C   UNL A   1      47.146  31.118  27.301  1.00  0.00     0.198 A 
ATOM     68  F   UNL A   1      47.983  29.703  28.980  1.00  0.00    -0.203 F 
ATOM     69  F   UNL A   1      43.747  31.823  26.275  1.00  0.00    -0.200 F 
ATOM     70  C   UNL A   1      46.076  31.654  26.602  1.00  0.00     0.200 A 
ATOM     71  F   UNL A   1      48.395  31.510  27.018  1.00  0.00    -0.200 F 
ATOM     72  F   UNL A   1      46.291  32.544  25.624  1.00  0.00    -0.200 F 
ENDBRANCH  39  62
ENDBRANCH  13  14
ENDBRANCH   6   8
ENDBRANCH   3   4
ENDBRANCH   2   3
ENDBRANCH   1   2
BRANCH   1  73
ATOM     73  C   UNL A   1      32.490  28.358  27.067  1.00  0.00     0.002 C 
BRANCH  73  74
ATOM     74  C   UNL A   1      31.706  27.941  25.817  1.00  0.00     0.021 C 
BRANCH  74  75
ATOM     75  C   UNL A   1      31.946  28.807  24.580  1.00  0.00     0.116 C 
BRANCH  75  76
ATOM     76  N   UNL A   1      31.986  28.008  23.366  1.00  0.00    -0.352 N 
ATOM     77  C   UNL A   1      30.962  27.641  22.540  1.00  0.00     0.251 C 
ATOM     78  H   UNL A   1      32.878  27.688  23.102  1.00  0.00     0.163 HD
ATOM     79  O   UNL A   1      31.127  26.767  21.687  1.00  0.00    -0.269 OA
BRANCH  77  80
ATOM     80  C   UNL A   1      29.636  28.273  22.656  1.00  0.00     0.045 A 
ATOM     81  C   UNL A   1      28.578  27.601  23.264  1.00  0.00     0.034 A 
ATOM     82  C   UNL A   1      29.494  29.598  22.239  1.00  0.00     0.063 A 
ATOM     83  C   UNL A   1      27.391  28.286  23.410  1.00  0.00     0.114 A 
ATOM     84  C   UNL A   1      28.264  30.213  22.433  1.00  0.00     0.157 A 
ATOM     85  N   UNL A   1      27.217  29.565  23.013  1.00  0.00    -0.237 NA
BRANCH  84  86
ATOM     86  N   UNL A   1      28.077  31.563  22.036  1.00  0.00    -0.182 N 
ATOM     87  C   UNL A   1      27.706  32.069  20.815  1.00  0.00     0.254 A 
ATOM     88  N   UNL A   1      28.246  32.606  22.882  1.00  0.00    -0.039 NA
ATOM     89  N   UNL A   1      27.691  33.381  20.873  1.00  0.00    -0.117 NA
ATOM     90  N   UNL A   1      28.040  33.699  22.159  1.00  0.00    -0.024 NA
ENDBRANCH  84  86
ENDBRANCH  77  80
ENDBRANCH  75  76
ENDBRANCH  74  75
ENDBRANCH  73  74
ENDBRANCH   1  73
TORSDOF 14
ENDMDL
MODEL 3
REMARK VINA RESULT:     -11.7      3.124      5.708
REMARK SMILES O=C(NCCCCCCNC(=O)c1ccnc(-n2cnnn2)c1)c1ccc(-c2c3nc(c(-c4c(F)c(F)c(F)c(F)c4F)c4ccc([nH]4)c(-c4c(F)c(F)c(F)c(F)c4F)c4nc(c(-c5c(F)c(F)c(F)c(F)c5F)c5ccc2[nH]5)C=C4)C=C3)cc1
REMARK SMILES IDX 6 1 5 2 4 3 3 4 1 5 2 6 24 8 25 9 86 10 26 11 85 12 27 13
REMARK SMILES IDX 28 14 29 15 79 16 30 17 84 18 78 19 80 20 31 21 83 22 77 23
REMARK SMILES IDX 76 24 32 26 64 27 44 28 63 29 45 30 48 31 62 32 81 33 46 34
REMARK SMILES IDX 47 35 61 37 82 38 49 39 33 40 34 41 42 42 35 43 36 44 40 45
REMARK SMILES IDX 43 46 37 47 38 48 41 49 39 50 65 51 66 52 74 53 67 54 68 55
REMARK SMILES IDX 72 56 75 57 69 58 70 59 73 60 71 61 50 62 51 63 59 64 52 65
REMARK SMILES IDX 53 66 57 67 60 68 54 69 55 70 58 71 56 72 7 73 8 74 9 75
REMARK SMILES IDX 10 76 11 77 12 79 13 80 14 81 23 82 15 83 17 84 16 85 18 86
REMARK SMILES IDX 19 87 22 88 20 89 21 90
REMARK H PARENT 3 7 80 25 48 36 10 78
REMARK Flexibility Score: inf
ROOT
ATOM      1  C   UNL A   1      41.122  20.708  27.602  1.00  0.00     0.002 C 
ENDROOT
BRANCH   1   2
ATOM      2  C   UNL A   1      42.180  19.667  27.220  1.00  0.00     0.021 C 
BRANCH   2   3
ATOM      3  C   UNL A   1      42.227  19.303  25.735  1.00  0.00     0.116 C 
BRANCH   3   4
ATOM      4  N   UNL A   1      43.458  19.684  25.073  1.00  0.00    -0.352 N 
ATOM      5  O   UNL A   1      45.315  20.688  24.438  1.00  0.00    -0.269 OA
ATOM      6  C   UNL A   1      44.269  20.785  25.087  1.00  0.00     0.251 C 
ATOM      7  H   UNL A   1      43.790  18.981  24.470  1.00  0.00     0.163 HD
BRANCH   6   8
ATOM      8  C   UNL A   1      43.983  22.074  25.780  1.00  0.00     0.039 A 
ATOM      9  C   UNL A   1      44.522  22.487  26.997  1.00  0.00     0.014 A 
ATOM     10  C   UNL A   1      43.088  22.946  25.123  1.00  0.00     0.014 A 
ATOM     11  C   UNL A   1      44.157  23.714  27.555  1.00  0.00     0.010 A 
ATOM     12  C   UNL A   1      42.725  24.177  25.671  1.00  0.00     0.010 A 
ATOM     13  C   UNL A   1      43.255  24.560  26.899  1.00  0.00    -0.014 A 
BRANCH  13  14
ATOM     14  C   UNL A   1      43.021  25.885  27.475  1.00  0.00     0.031 A 
ATOM     15  C   UNL A   1      44.015  26.936  27.106  1.00  0.00     0.074 A 
ATOM     16  C   UNL A   1      41.945  26.255  28.195  1.00  0.00     0.049 A 
ATOM     17  N   UNL A   1      44.809  27.592  27.888  1.00  0.00    -0.248 NA
ATOM     18  C   UNL A   1      44.163  27.268  25.682  1.00  0.00     0.031 C 
ATOM     19  C   UNL A   1      40.700  25.520  28.411  1.00  0.00     0.029 A 
ATOM     20  N   UNL A   1      41.724  27.445  28.835  1.00  0.00    -0.354 N 
ATOM     21  C   UNL A   1      45.465  28.525  27.086  1.00  0.00     0.074 A 
ATOM     22  C   UNL A   1      45.096  28.223  25.726  1.00  0.00     0.031 C 
ATOM     23  C   UNL A   1      39.786  26.351  28.965  1.00  0.00     0.029 A 
ATOM     24  C   UNL A   1      40.419  27.627  29.264  1.00  0.00     0.049 A 
ATOM     25  H   UNL A   1      42.431  28.114  28.977  1.00  0.00     0.167 HD
ATOM     26  C   UNL A   1      46.140  29.584  27.613  1.00  0.00     0.037 A 
ATOM     27  C   UNL A   1      39.885  28.759  29.786  1.00  0.00     0.037 A 
ATOM     28  C   UNL A   1      46.429  29.395  29.010  1.00  0.00     0.049 A 
ATOM     29  C   UNL A   1      40.991  29.612  30.281  1.00  0.00     0.074 A 
ATOM     30  C   UNL A   1      47.134  28.461  29.744  1.00  0.00     0.029 A 
ATOM     31  N   UNL A   1      45.709  30.113  29.930  1.00  0.00    -0.354 N 
ATOM     32  N   UNL A   1      41.696  29.364  31.347  1.00  0.00    -0.248 NA
ATOM     33  C   UNL A   1      41.545  30.616  29.386  1.00  0.00     0.031 C 
ATOM     34  C   UNL A   1      46.428  28.346  30.977  1.00  0.00     0.029 A 
ATOM     35  C   UNL A   1      45.356  29.238  30.923  1.00  0.00     0.049 A 
ATOM     36  H   UNL A   1      45.489  31.071  29.887  1.00  0.00     0.167 HD
ATOM     37  C   UNL A   1      42.960  29.839  31.046  1.00  0.00     0.074 A 
ATOM     38  C   UNL A   1      42.774  30.715  29.896  1.00  0.00     0.031 C 
ATOM     39  C   UNL A   1      44.073  29.255  31.579  1.00  0.00     0.037 A 
BRANCH  26  40
ATOM     40  C   UNL A   1      46.279  30.935  26.955  1.00  0.00     0.064 A 
ATOM     41  C   UNL A   1      47.545  31.556  26.903  1.00  0.00     0.173 A 
ATOM     42  C   UNL A   1      45.180  31.767  26.658  1.00  0.00     0.173 A 
ATOM     43  F   UNL A   1      48.658  30.862  27.189  1.00  0.00    -0.203 F 
ATOM     44  C   UNL A   1      47.689  32.922  26.654  1.00  0.00     0.198 A 
ATOM     45  C   UNL A   1      45.333  33.121  26.355  1.00  0.00     0.198 A 
ATOM     46  F   UNL A   1      43.918  31.333  26.761  1.00  0.00    -0.203 F 
ATOM     47  F   UNL A   1      48.899  33.491  26.744  1.00  0.00    -0.200 F 
ATOM     48  C   UNL A   1      46.581  33.705  26.385  1.00  0.00     0.200 A 
ATOM     49  F   UNL A   1      44.246  33.869  26.116  1.00  0.00    -0.200 F 
ATOM     50  F   UNL A   1      46.709  35.027  26.208  1.00  0.00    -0.200 F 
ENDBRANCH  26  40
BRANCH  27  51
ATOM     51  C   UNL A   1      38.495  29.261  29.719  1.00  0.00     0.064 A 
ATOM     52  C   UNL A   1      37.753  29.507  30.886  1.00  0.00     0.173 A 
ATOM     53  C   UNL A   1      37.967  29.778  28.521  1.00  0.00     0.173 A 
ATOM     54  F   UNL A   1      38.204  29.086  32.077  1.00  0.00    -0.203 F 
ATOM     55  C   UNL A   1      36.571  30.253  30.861  1.00  0.00     0.198 A 
ATOM     56  C   UNL A   1      36.782  30.513  28.495  1.00  0.00     0.198 A 
ATOM     57  F   UNL A   1      38.643  29.662  27.367  1.00  0.00    -0.203 F 
ATOM     58  F   UNL A   1      35.929  30.527  32.005  1.00  0.00    -0.200 F 
ATOM     59  C   UNL A   1      36.093  30.765  29.666  1.00  0.00     0.200 A 
ATOM     60  F   UNL A   1      36.349  31.033  27.337  1.00  0.00    -0.200 F 
ATOM     61  F   UNL A   1      34.996  31.535  29.649  1.00  0.00    -0.200 F 
ENDBRANCH  27  51
BRANCH  39  62
ATOM     62  C   UNL A   1      43.894  28.352  32.763  1.00  0.00     0.064 A 
ATOM     63  C   UNL A   1      43.727  26.958  32.677  1.00  0.00     0.173 A 
ATOM     64  C   UNL A   1      44.008  28.911  34.044  1.00  0.00     0.173 A 
ATOM     65  F   UNL A   1      43.727  26.333  31.492  1.00  0.00    -0.203 F 
ATOM     66  C   UNL A   1      43.613  26.176  33.824  1.00  0.00     0.198 A 
ATOM     67  C   UNL A   1      43.938  28.121  35.187  1.00  0.00     0.198 A 
ATOM     68  F   UNL A   1      44.230  30.228  34.187  1.00  0.00    -0.203 F 
ATOM     69  F   UNL A   1      43.428  24.852  33.719  1.00  0.00    -0.200 F 
ATOM     70  C   UNL A   1      43.724  26.756  35.078  1.00  0.00     0.200 A 
ATOM     71  F   UNL A   1      44.101  28.679  36.394  1.00  0.00    -0.200 F 
ATOM     72  F   UNL A   1      43.653  25.998  36.180  1.00  0.00    -0.200 F 
ENDBRANCH  39  62
ENDBRANCH  13  14
ENDBRANCH   6   8
ENDBRANCH   3   4
ENDBRANCH   2   3
ENDBRANCH   1   2
BRANCH   1  73
ATOM     73  C   UNL A   1      40.203  21.183  26.471  1.00  0.00     0.002 C 
BRANCH  73  74
ATOM     74  C   UNL A   1      39.607  22.586  26.640  1.00  0.00     0.021 C 
BRANCH  74  75
ATOM     75  C   UNL A   1      38.284  22.823  25.911  1.00  0.00     0.116 C 
BRANCH  75  76
ATOM     76  N   UNL A   1      37.721  21.582  25.404  1.00  0.00    -0.352 N 
ATOM     77  C   UNL A   1      36.414  21.257  25.176  1.00  0.00     0.251 C 
ATOM     78  H   UNL A   1      38.375  20.876  25.197  1.00  0.00     0.163 HD
ATOM     79  O   UNL A   1      36.085  20.086  24.972  1.00  0.00    -0.269 OA
BRANCH  77  80
ATOM     80  C   UNL A   1      35.368  22.294  25.176  1.00  0.00     0.045 A 
ATOM     81  C   UNL A   1      34.777  22.709  26.367  1.00  0.00     0.034 A 
ATOM     82  C   UNL A   1      35.060  22.925  23.969  1.00  0.00     0.063 A 
ATOM     83  C   UNL A   1      33.866  23.741  26.298  1.00  0.00     0.114 A 
ATOM     84  C   UNL A   1      34.136  23.963  23.994  1.00  0.00     0.157 A 
ATOM     85  N   UNL A   1      33.540  24.370  25.148  1.00  0.00    -0.237 NA
BRANCH  84  86
ATOM     86  N   UNL A   1      33.801  24.642  22.793  1.00  0.00    -0.182 N 
ATOM     87  C   UNL A   1      33.712  25.990  22.550  1.00  0.00     0.254 A 
ATOM     88  N   UNL A   1      33.512  23.994  21.641  1.00  0.00    -0.039 NA
ATOM     89  N   UNL A   1      33.332  26.185  21.308  1.00  0.00    -0.117 NA
ATOM     90  N   UNL A   1      33.201  24.936  20.761  1.00  0.00    -0.024 NA
ENDBRANCH  84  86
ENDBRANCH  77  80
ENDBRANCH  75  76
ENDBRANCH  74  75
ENDBRANCH  73  74
ENDBRANCH   1  73
TORSDOF 14
ENDMDL
