MODEL 1
REMARK VINA RESULT:     -11.8      0.000      0.000
REMARK SMILES COC(=O)C[C@@H](NC(=O)c1ccccc1C(=O)NCCCCCCNC(=O)c1ccc(-c2c3nc(c(-c4c(F)c(F)c(F)c(F)c4F)c4ccc([nH]4)c(-c4c(F)c(F)c(F)c(F)c4F)c4nc(c(-c5c(F)c(F)c(F)c(F)c5F)c5ccc2[nH]5)C=C4)C=C3)cc1)c1cccc(C)c1C
REMARK SMILES IDX 20 1 19 2 18 3 16 4 17 5 15 7 10 8 11 9 12 10 14 11 13 12
REMARK SMILES IDX 8 13 7 14 9 16 6 17 5 18 3 19 4 20 2 21 1 22 91 23 92 24
REMARK SMILES IDX 97 25 93 26 95 27 98 28 94 29 96 30 21 31 22 32 23 33 24 34
REMARK SMILES IDX 25 35 26 36 27 38 28 39 29 40 90 41 30 42 89 43 31 44 32 45
REMARK SMILES IDX 33 46 83 47 34 48 88 49 82 50 84 51 35 52 87 53 81 54 80 55
REMARK SMILES IDX 36 57 68 58 48 59 67 60 49 61 52 62 66 63 85 64 50 65 51 66
REMARK SMILES IDX 65 68 86 69 53 70 37 71 38 72 46 73 39 74 40 75 44 76 47 77
REMARK SMILES IDX 41 78 42 79 45 80 43 81 69 82 70 83 78 84 71 85 72 86 76 87
REMARK SMILES IDX 79 88 73 89 74 90 77 91 75 92 54 93 55 94 63 95 56 96 57 97
REMARK SMILES IDX 61 98 64 99 58 100 59 101 62 102 60 103
REMARK H PARENT 18 6 7 15 25 37 84 56 52 67
REMARK Flexibility Score: inf
ROOT
ATOM      1  C   UNL A   1      34.444  28.698  26.902  1.00  0.00     0.021 C 
ENDROOT
BRANCH   1   2
ATOM      2  C   UNL A   1      33.229  28.767  25.991  1.00  0.00     0.116 C 
BRANCH   2   3
ATOM      3  N   UNL A   1      33.519  29.016  24.603  1.00  0.00    -0.352 N 
ATOM      4  C   UNL A   1      32.992  28.426  23.482  1.00  0.00     0.252 C 
ATOM      5  O   UNL A   1      33.403  28.820  22.390  1.00  0.00    -0.269 OA
ATOM      6  H   UNL A   1      34.193  29.714  24.433  1.00  0.00     0.163 HD
BRANCH   4   7
ATOM      7  C   UNL A   1      32.040  27.281  23.526  1.00  0.00     0.052 A 
ATOM      8  C   UNL A   1      32.145  26.048  22.872  1.00  0.00     0.052 A 
ATOM      9  C   UNL A   1      31.078  25.120  22.961  1.00  0.00     0.014 A 
ATOM     10  C   UNL A   1      29.961  25.367  23.757  1.00  0.00     0.001 A 
ATOM     11  C   UNL A   1      30.910  27.500  24.351  1.00  0.00     0.014 A 
ATOM     12  C   UNL A   1      29.888  26.553  24.472  1.00  0.00     0.001 A 
BRANCH   8  13
ATOM     13  C   UNL A   1      33.263  25.544  22.049  1.00  0.00     0.252 C 
ATOM     14  N   UNL A   1      34.181  24.614  22.461  1.00  0.00    -0.345 N 
ATOM     15  H   UNL A   1      34.668  24.197  21.715  1.00  0.00     0.164 HD
ATOM     16  O   UNL A   1      33.321  25.916  20.873  1.00  0.00    -0.269 OA
BRANCH  14  17
ATOM     17  C   UNL A   1      34.599  24.105  23.781  1.00  0.00     0.124 C 
BRANCH  17  18
ATOM     18  C   UNL A   1      35.977  23.445  23.665  1.00  0.00     0.152 C 
BRANCH  18  19
ATOM     19  C   UNL A   1      36.618  23.294  25.018  1.00  0.00     0.307 C 
ATOM     20  O   UNL A   1      36.649  24.183  25.864  1.00  0.00    -0.252 OA
BRANCH  19  21
ATOM     21  O   UNL A   1      37.135  22.047  25.176  1.00  0.00    -0.469 OA
ATOM     22  C   UNL A   1      38.420  22.013  25.809  1.00  0.00     0.282 C 
ENDBRANCH  19  21
ENDBRANCH  18  19
ENDBRANCH  17  18
BRANCH  17  23
ATOM     23  C   UNL A   1      33.614  23.142  24.432  1.00  0.00    -0.022 A 
ATOM     24  C   UNL A   1      33.487  21.831  23.938  1.00  0.00     0.006 A 
ATOM     25  C   UNL A   1      32.770  23.557  25.497  1.00  0.00    -0.043 A 
ATOM     26  C   UNL A   1      32.420  21.024  24.320  1.00  0.00     0.001 A 
ATOM     27  C   UNL A   1      31.714  22.710  25.912  1.00  0.00    -0.048 A 
ATOM     28  C   UNL A   1      33.010  24.848  26.249  1.00  0.00     0.045 C 
ATOM     29  C   UNL A   1      31.518  21.479  25.271  1.00  0.00     0.004 A 
ATOM     30  C   UNL A   1      30.722  23.118  26.971  1.00  0.00     0.044 C 
ENDBRANCH  17  23
ENDBRANCH  14  17
ENDBRANCH   8  13
ENDBRANCH   4   7
ENDBRANCH   2   3
ENDBRANCH   1   2
BRANCH   1  31
ATOM     31  C   UNL A   1      35.033  30.047  27.325  1.00  0.00     0.002 C 
BRANCH  31  32
ATOM     32  C   UNL A   1      34.093  31.023  28.043  1.00  0.00     0.002 C 
BRANCH  32  33
ATOM     33  C   UNL A   1      33.701  32.287  27.278  1.00  0.00     0.021 C 
BRANCH  33  34
ATOM     34  C   UNL A   1      32.301  32.819  27.537  1.00  0.00     0.116 C 
BRANCH  34  35
ATOM     35  N   UNL A   1      32.287  34.252  27.783  1.00  0.00    -0.352 N 
ATOM     36  C   UNL A   1      33.041  35.020  28.631  1.00  0.00     0.251 C 
ATOM     37  H   UNL A   1      31.627  34.752  27.251  1.00  0.00     0.163 HD
ATOM     38  O   UNL A   1      32.737  36.197  28.811  1.00  0.00    -0.269 OA
BRANCH  36  39
ATOM     39  C   UNL A   1      34.203  34.450  29.350  1.00  0.00     0.039 A 
ATOM     40  C   UNL A   1      33.983  33.783  30.559  1.00  0.00     0.014 A 
ATOM     41  C   UNL A   1      35.506  34.598  28.869  1.00  0.00     0.014 A 
ATOM     42  C   UNL A   1      35.057  33.221  31.252  1.00  0.00     0.010 A 
ATOM     43  C   UNL A   1      36.561  33.953  29.507  1.00  0.00     0.010 A 
ATOM     44  C   UNL A   1      36.352  33.273  30.714  1.00  0.00    -0.014 A 
BRANCH  44  45
ATOM     45  C   UNL A   1      37.504  32.635  31.403  1.00  0.00     0.031 A 
ATOM     46  C   UNL A   1      38.212  31.470  30.769  1.00  0.00     0.074 A 
ATOM     47  C   UNL A   1      37.859  33.055  32.632  1.00  0.00     0.049 A 
ATOM     48  N   UNL A   1      39.179  30.727  31.245  1.00  0.00    -0.248 NA
ATOM     49  C   UNL A   1      37.744  31.059  29.437  1.00  0.00     0.031 C 
ATOM     50  C   UNL A   1      37.210  34.134  33.375  1.00  0.00     0.029 A 
ATOM     51  N   UNL A   1      38.842  32.611  33.479  1.00  0.00    -0.354 N 
ATOM     52  C   UNL A   1      39.415  29.752  30.286  1.00  0.00     0.074 A 
ATOM     53  C   UNL A   1      38.450  29.959  29.228  1.00  0.00     0.031 C 
ATOM     54  C   UNL A   1      37.824  34.283  34.559  1.00  0.00     0.029 A 
ATOM     55  C   UNL A   1      38.880  33.283  34.675  1.00  0.00     0.049 A 
ATOM     56  H   UNL A   1      39.461  31.880  33.252  1.00  0.00     0.167 HD
ATOM     57  C   UNL A   1      40.365  28.786  30.276  1.00  0.00     0.037 A 
ATOM     58  C   UNL A   1      39.672  33.106  35.751  1.00  0.00     0.037 A 
ATOM     59  C   UNL A   1      41.337  28.604  31.322  1.00  0.00     0.049 A 
ATOM     60  C   UNL A   1      40.727  32.038  35.716  1.00  0.00     0.074 A 
ATOM     61  C   UNL A   1      42.394  27.712  31.374  1.00  0.00     0.029 A 
ATOM     62  N   UNL A   1      41.365  29.325  32.508  1.00  0.00    -0.354 N 
ATOM     63  N   UNL A   1      40.999  31.174  34.766  1.00  0.00    -0.248 NA
ATOM     64  C   UNL A   1      41.594  31.924  36.896  1.00  0.00     0.031 C 
ATOM     65  C   UNL A   1      43.023  27.853  32.616  1.00  0.00     0.029 A 
ATOM     66  C   UNL A   1      42.400  28.876  33.312  1.00  0.00     0.049 A 
ATOM     67  H   UNL A   1      40.741  30.050  32.743  1.00  0.00     0.167 HD
ATOM     68  C   UNL A   1      42.078  30.429  35.222  1.00  0.00     0.074 A 
ATOM     69  C   UNL A   1      42.422  30.955  36.529  1.00  0.00     0.031 C 
ATOM     70  C   UNL A   1      42.726  29.405  34.615  1.00  0.00     0.037 A 
BRANCH  57  71
ATOM     71  C   UNL A   1      40.384  27.846  29.101  1.00  0.00     0.064 A 
ATOM     72  C   UNL A   1      41.156  28.103  27.957  1.00  0.00     0.173 A 
ATOM     73  C   UNL A   1      39.621  26.669  29.121  1.00  0.00     0.173 A 
ATOM     74  F   UNL A   1      41.899  29.218  27.879  1.00  0.00    -0.203 F 
ATOM     75  C   UNL A   1      41.123  27.246  26.860  1.00  0.00     0.198 A 
ATOM     76  C   UNL A   1      39.620  25.794  28.037  1.00  0.00     0.198 A 
ATOM     77  F   UNL A   1      38.871  26.365  30.192  1.00  0.00    -0.203 F 
ATOM     78  F   UNL A   1      41.811  27.552  25.752  1.00  0.00    -0.200 F 
ATOM     79  C   UNL A   1      40.359  26.090  26.903  1.00  0.00     0.200 A 
ATOM     80  F   UNL A   1      38.894  24.669  28.088  1.00  0.00    -0.200 F 
ATOM     81  F   UNL A   1      40.327  25.266  25.846  1.00  0.00    -0.200 F 
ENDBRANCH  57  71
BRANCH  58  82
ATOM     82  C   UNL A   1      39.501  33.988  36.935  1.00  0.00     0.064 A 
ATOM     83  C   UNL A   1      38.743  33.573  38.038  1.00  0.00     0.173 A 
ATOM     84  C   UNL A   1      40.126  35.242  37.006  1.00  0.00     0.173 A 
ATOM     85  F   UNL A   1      38.113  32.389  38.010  1.00  0.00    -0.203 F 
ATOM     86  C   UNL A   1      38.609  34.383  39.164  1.00  0.00     0.198 A 
ATOM     87  C   UNL A   1      40.014  36.038  38.144  1.00  0.00     0.198 A 
ATOM     88  F   UNL A   1      40.870  35.681  35.981  1.00  0.00    -0.203 F 
ATOM     89  F   UNL A   1      37.853  33.974  40.193  1.00  0.00    -0.200 F 
ATOM     90  C   UNL A   1      39.251  35.609  39.220  1.00  0.00     0.200 A 
ATOM     91  F   UNL A   1      40.653  37.215  38.202  1.00  0.00    -0.200 F 
ATOM     92  F   UNL A   1      39.136  36.380  40.311  1.00  0.00    -0.200 F 
ENDBRANCH  58  82
BRANCH  70  93
ATOM     93  C   UNL A   1      43.890  28.797  35.344  1.00  0.00     0.064 A 
ATOM     94  C   UNL A   1      43.732  27.704  36.206  1.00  0.00     0.173 A 
ATOM     95  C   UNL A   1      45.188  29.291  35.142  1.00  0.00     0.173 A 
ATOM     96  F   UNL A   1      42.510  27.203  36.445  1.00  0.00    -0.203 F 
ATOM     97  C   UNL A   1      44.825  27.143  36.861  1.00  0.00     0.198 A 
ATOM     98  C   UNL A   1      46.283  28.708  35.772  1.00  0.00     0.198 A 
ATOM     99  F   UNL A   1      45.397  30.332  34.323  1.00  0.00    -0.203 F 
ATOM    100  F   UNL A   1      44.643  26.131  37.720  1.00  0.00    -0.200 F 
ATOM    101  C   UNL A   1      46.101  27.640  36.637  1.00  0.00     0.200 A 
ATOM    102  F   UNL A   1      47.517  29.180  35.542  1.00  0.00    -0.200 F 
ATOM    103  F   UNL A   1      47.153  27.093  37.261  1.00  0.00    -0.200 F 
ENDBRANCH  70  93
ENDBRANCH  44  45
ENDBRANCH  36  39
ENDBRANCH  34  35
ENDBRANCH  33  34
ENDBRANCH  32  33
ENDBRANCH  31  32
ENDBRANCH   1  31
TORSDOF 19
ENDMDL
MODEL 2
REMARK VINA RESULT:     -11.7      5.142      9.757
REMARK SMILES COC(=O)C[C@@H](NC(=O)c1ccccc1C(=O)NCCCCCCNC(=O)c1ccc(-c2c3nc(c(-c4c(F)c(F)c(F)c(F)c4F)c4ccc([nH]4)c(-c4c(F)c(F)c(F)c(F)c4F)c4nc(c(-c5c(F)c(F)c(F)c(F)c5F)c5ccc2[nH]5)C=C4)C=C3)cc1)c1cccc(C)c1C
REMARK SMILES IDX 20 1 19 2 18 3 16 4 17 5 15 7 10 8 11 9 12 10 14 11 13 12
REMARK SMILES IDX 8 13 7 14 9 16 6 17 5 18 3 19 4 20 2 21 1 22 91 23 92 24
REMARK SMILES IDX 97 25 93 26 95 27 98 28 94 29 96 30 21 31 22 32 23 33 24 34
REMARK SMILES IDX 25 35 26 36 27 38 28 39 29 40 90 41 30 42 89 43 31 44 32 45
REMARK SMILES IDX 33 46 83 47 34 48 88 49 82 50 84 51 35 52 87 53 81 54 80 55
REMARK SMILES IDX 36 57 68 58 48 59 67 60 49 61 52 62 66 63 85 64 50 65 51 66
REMARK SMILES IDX 65 68 86 69 53 70 37 71 38 72 46 73 39 74 40 75 44 76 47 77
REMARK SMILES IDX 41 78 42 79 45 80 43 81 69 82 70 83 78 84 71 85 72 86 76 87
REMARK SMILES IDX 79 88 73 89 74 90 77 91 75 92 54 93 55 94 63 95 56 96 57 97
REMARK SMILES IDX 61 98 64 99 58 100 59 101 62 102 60 103
REMARK H PARENT 18 6 7 15 25 37 84 56 52 67
REMARK Flexibility Score: inf
ROOT
ATOM      1  C   UNL A   1      37.169  23.687  25.802  1.00  0.00     0.021 C 
ENDROOT
BRANCH   1   2
ATOM      2  C   UNL A   1      35.691  23.808  26.128  1.00  0.00     0.116 C 
BRANCH   2   3
ATOM      3  N   UNL A   1      35.117  22.672  26.804  1.00  0.00    -0.352 N 
ATOM      4  C   UNL A   1      33.972  21.974  26.519  1.00  0.00     0.252 C 
ATOM      5  O   UNL A   1      33.692  21.024  27.251  1.00  0.00    -0.269 OA
ATOM      6  H   UNL A   1      35.623  22.350  27.585  1.00  0.00     0.163 HD
BRANCH   4   7
ATOM      7  C   UNL A   1      33.015  22.367  25.446  1.00  0.00     0.052 A 
ATOM      8  C   UNL A   1      31.988  23.316  25.514  1.00  0.00     0.052 A 
ATOM      9  C   UNL A   1      31.115  23.476  24.410  1.00  0.00     0.014 A 
ATOM     10  C   UNL A   1      31.306  22.773  23.221  1.00  0.00     0.001 A 
ATOM     11  C   UNL A   1      33.208  21.685  24.221  1.00  0.00     0.014 A 
ATOM     12  C   UNL A   1      32.370  21.890  23.120  1.00  0.00     0.001 A 
BRANCH   8  13
ATOM     13  C   UNL A   1      31.655  24.222  26.631  1.00  0.00     0.252 C 
ATOM     14  N   UNL A   1      31.926  25.564  26.658  1.00  0.00    -0.345 N 
ATOM     15  H   UNL A   1      31.398  26.051  27.332  1.00  0.00     0.164 HD
ATOM     16  O   UNL A   1      31.002  23.757  27.570  1.00  0.00    -0.269 OA
BRANCH  14  17
ATOM     17  C   UNL A   1      32.839  26.439  25.897  1.00  0.00     0.124 C 
BRANCH  17  18
ATOM     18  C   UNL A   1      33.168  27.685  26.726  1.00  0.00     0.152 C 
BRANCH  18  19
ATOM     19  C   UNL A   1      31.921  28.286  27.314  1.00  0.00     0.307 C 
ATOM     20  O   UNL A   1      31.079  27.644  27.936  1.00  0.00    -0.252 OA
BRANCH  19  21
ATOM     21  O   UNL A   1      31.867  29.624  27.080  1.00  0.00    -0.469 OA
ATOM     22  C   UNL A   1      33.145  30.271  27.034  1.00  0.00     0.282 C 
ENDBRANCH  19  21
ENDBRANCH  18  19
ENDBRANCH  17  18
BRANCH  17  23
ATOM     23  C   UNL A   1      32.327  26.850  24.522  1.00  0.00    -0.022 A 
ATOM     24  C   UNL A   1      31.293  27.797  24.414  1.00  0.00     0.006 A 
ATOM     25  C   UNL A   1      32.830  26.247  23.337  1.00  0.00    -0.043 A 
ATOM     26  C   UNL A   1      30.621  27.988  23.211  1.00  0.00     0.001 A 
ATOM     27  C   UNL A   1      32.169  26.483  22.107  1.00  0.00    -0.048 A 
ATOM     28  C   UNL A   1      34.096  25.419  23.339  1.00  0.00     0.045 C 
ATOM     29  C   UNL A   1      31.032  27.303  22.076  1.00  0.00     0.004 A 
ATOM     30  C   UNL A   1      32.586  25.811  20.826  1.00  0.00     0.044 C 
ENDBRANCH  17  23
ENDBRANCH  14  17
ENDBRANCH   8  13
ENDBRANCH   4   7
ENDBRANCH   2   3
ENDBRANCH   1   2
BRANCH   1  31
ATOM     31  C   UNL A   1      37.619  22.328  25.257  1.00  0.00     0.002 C 
BRANCH  31  32
ATOM     32  C   UNL A   1      38.963  21.787  25.759  1.00  0.00     0.002 C 
BRANCH  32  33
ATOM     33  C   UNL A   1      39.321  20.357  25.355  1.00  0.00     0.021 C 
BRANCH  33  34
ATOM     34  C   UNL A   1      39.892  19.474  26.454  1.00  0.00     0.116 C 
BRANCH  34  35
ATOM     35  N   UNL A   1      41.111  18.796  26.044  1.00  0.00    -0.352 N 
ATOM     36  C   UNL A   1      42.379  19.277  25.847  1.00  0.00     0.251 C 
ATOM     37  H   UNL A   1      41.008  17.830  25.883  1.00  0.00     0.163 HD
ATOM     38  O   UNL A   1      43.225  18.556  25.324  1.00  0.00    -0.269 OA
BRANCH  36  39
ATOM     39  C   UNL A   1      42.740  20.660  26.236  1.00  0.00     0.039 A 
ATOM     40  C   UNL A   1      43.185  21.541  25.245  1.00  0.00     0.014 A 
ATOM     41  C   UNL A   1      42.684  21.085  27.565  1.00  0.00     0.014 A 
ATOM     42  C   UNL A   1      43.518  22.855  25.578  1.00  0.00     0.010 A 
ATOM     43  C   UNL A   1      42.919  22.420  27.879  1.00  0.00     0.010 A 
ATOM     44  C   UNL A   1      43.356  23.316  26.893  1.00  0.00    -0.014 A 
BRANCH  44  45
ATOM     45  C   UNL A   1      43.650  24.724  27.264  1.00  0.00     0.031 A 
ATOM     46  C   UNL A   1      45.073  25.201  27.347  1.00  0.00     0.074 A 
ATOM     47  C   UNL A   1      42.640  25.548  27.601  1.00  0.00     0.049 A 
ATOM     48  N   UNL A   1      45.539  26.362  27.733  1.00  0.00    -0.248 NA
ATOM     49  C   UNL A   1      46.117  24.229  26.987  1.00  0.00     0.031 C 
ATOM     50  C   UNL A   1      41.224  25.184  27.618  1.00  0.00     0.029 A 
ATOM     51  N   UNL A   1      42.653  26.857  28.012  1.00  0.00    -0.354 N 
ATOM     52  C   UNL A   1      46.922  26.251  27.685  1.00  0.00     0.074 A 
ATOM     53  C   UNL A   1      47.222  24.890  27.293  1.00  0.00     0.031 C 
ATOM     54  C   UNL A   1      40.502  26.249  27.999  1.00  0.00     0.029 A 
ATOM     55  C   UNL A   1      41.405  27.356  28.294  1.00  0.00     0.049 A 
ATOM     56  H   UNL A   1      43.478  27.388  28.098  1.00  0.00     0.167 HD
ATOM     57  C   UNL A   1      47.857  27.202  27.924  1.00  0.00     0.037 A 
ATOM     58  C   UNL A   1      41.032  28.567  28.749  1.00  0.00     0.037 A 
ATOM     59  C   UNL A   1      47.547  28.559  28.288  1.00  0.00     0.049 A 
ATOM     60  C   UNL A   1      42.083  29.612  28.996  1.00  0.00     0.074 A 
ATOM     61  C   UNL A   1      48.413  29.624  28.471  1.00  0.00     0.029 A 
ATOM     62  N   UNL A   1      46.268  29.039  28.536  1.00  0.00    -0.354 N 
ATOM     63  N   UNL A   1      43.385  29.522  28.866  1.00  0.00    -0.248 NA
ATOM     64  C   UNL A   1      41.615  30.930  29.444  1.00  0.00     0.031 C 
ATOM     65  C   UNL A   1      47.663  30.729  28.888  1.00  0.00     0.029 A 
ATOM     66  C   UNL A   1      46.324  30.374  28.902  1.00  0.00     0.049 A 
ATOM     67  H   UNL A   1      45.442  28.507  28.461  1.00  0.00     0.167 HD
ATOM     68  C   UNL A   1      43.891  30.774  29.193  1.00  0.00     0.074 A 
ATOM     69  C   UNL A   1      42.750  31.611  29.513  1.00  0.00     0.031 C 
ATOM     70  C   UNL A   1      45.180  31.192  29.224  1.00  0.00     0.037 A 
BRANCH  57  71
ATOM     71  C   UNL A   1      49.301  26.796  27.809  1.00  0.00     0.064 A 
ATOM     72  C   UNL A   1      49.957  26.725  26.569  1.00  0.00     0.173 A 
ATOM     73  C   UNL A   1      50.042  26.477  28.957  1.00  0.00     0.173 A 
ATOM     74  F   UNL A   1      49.295  27.011  25.437  1.00  0.00    -0.203 F 
ATOM     75  C   UNL A   1      51.280  26.301  26.479  1.00  0.00     0.198 A 
ATOM     76  C   UNL A   1      51.378  26.090  28.866  1.00  0.00     0.198 A 
ATOM     77  F   UNL A   1      49.472  26.537  30.170  1.00  0.00    -0.203 F 
ATOM     78  F   UNL A   1      51.859  26.170  25.277  1.00  0.00    -0.200 F 
ATOM     79  C   UNL A   1      51.990  25.989  27.627  1.00  0.00     0.200 A 
ATOM     80  F   UNL A   1      52.067  25.805  29.979  1.00  0.00    -0.200 F 
ATOM     81  F   UNL A   1      53.264  25.578  27.539  1.00  0.00    -0.200 F 
ENDBRANCH  57  71
BRANCH  58  82
ATOM     82  C   UNL A   1      39.591  28.851  28.972  1.00  0.00     0.064 A 
ATOM     83  C   UNL A   1      39.015  28.701  30.240  1.00  0.00     0.173 A 
ATOM     84  C   UNL A   1      38.770  29.317  27.933  1.00  0.00     0.173 A 
ATOM     85  F   UNL A   1      39.754  28.241  31.261  1.00  0.00    -0.203 F 
ATOM     86  C   UNL A   1      37.671  28.999  30.461  1.00  0.00     0.198 A 
ATOM     87  C   UNL A   1      37.435  29.641  28.162  1.00  0.00     0.198 A 
ATOM     88  F   UNL A   1      39.276  29.486  26.703  1.00  0.00    -0.203 F 
ATOM     89  F   UNL A   1      37.138  28.817  31.677  1.00  0.00    -0.200 F 
ATOM     90  C   UNL A   1      36.886  29.477  29.424  1.00  0.00     0.200 A 
ATOM     91  F   UNL A   1      36.684  30.122  27.161  1.00  0.00    -0.200 F 
ATOM     92  F   UNL A   1      35.598  29.779  29.640  1.00  0.00    -0.200 F 
ENDBRANCH  58  82
BRANCH  70  93
ATOM     93  C   UNL A   1      45.430  32.626  29.595  1.00  0.00     0.064 A 
ATOM     94  C   UNL A   1      45.697  33.011  30.916  1.00  0.00     0.173 A 
ATOM     95  C   UNL A   1      45.443  33.621  28.606  1.00  0.00     0.173 A 
ATOM     96  F   UNL A   1      45.682  32.101  31.902  1.00  0.00    -0.203 F 
ATOM     97  C   UNL A   1      45.942  34.344  31.238  1.00  0.00     0.198 A 
ATOM     98  C   UNL A   1      45.722  34.947  28.926  1.00  0.00     0.198 A 
ATOM     99  F   UNL A   1      45.200  33.307  27.325  1.00  0.00    -0.203 F 
ATOM    100  F   UNL A   1      46.145  34.696  32.515  1.00  0.00    -0.200 F 
ATOM    101  C   UNL A   1      45.963  35.309  30.242  1.00  0.00     0.200 A 
ATOM    102  F   UNL A   1      45.757  35.875  27.959  1.00  0.00    -0.200 F 
ATOM    103  F   UNL A   1      46.209  36.589  30.552  1.00  0.00    -0.200 F 
ENDBRANCH  70  93
ENDBRANCH  44  45
ENDBRANCH  36  39
ENDBRANCH  34  35
ENDBRANCH  33  34
ENDBRANCH  32  33
ENDBRANCH  31  32
ENDBRANCH   1  31
TORSDOF 19
ENDMDL
MODEL 3
REMARK VINA RESULT:     -11.6      1.121      3.162
REMARK SMILES COC(=O)C[C@@H](NC(=O)c1ccccc1C(=O)NCCCCCCNC(=O)c1ccc(-c2c3nc(c(-c4c(F)c(F)c(F)c(F)c4F)c4ccc([nH]4)c(-c4c(F)c(F)c(F)c(F)c4F)c4nc(c(-c5c(F)c(F)c(F)c(F)c5F)c5ccc2[nH]5)C=C4)C=C3)cc1)c1cccc(C)c1C
REMARK SMILES IDX 20 1 19 2 18 3 16 4 17 5 15 7 10 8 11 9 12 10 14 11 13 12
REMARK SMILES IDX 8 13 7 14 9 16 6 17 5 18 3 19 4 20 2 21 1 22 91 23 92 24
REMARK SMILES IDX 97 25 93 26 95 27 98 28 94 29 96 30 21 31 22 32 23 33 24 34
REMARK SMILES IDX 25 35 26 36 27 38 28 39 29 40 90 41 30 42 89 43 31 44 32 45
REMARK SMILES IDX 33 46 83 47 34 48 88 49 82 50 84 51 35 52 87 53 81 54 80 55
REMARK SMILES IDX 36 57 68 58 48 59 67 60 49 61 52 62 66 63 85 64 50 65 51 66
REMARK SMILES IDX 65 68 86 69 53 70 37 71 38 72 46 73 39 74 40 75 44 76 47 77
REMARK SMILES IDX 41 78 42 79 45 80 43 81 69 82 70 83 78 84 71 85 72 86 76 87
REMARK SMILES IDX 79 88 73 89 74 90 77 91 75 92 54 93 55 94 63 95 56 96 57 97
REMARK SMILES IDX 61 98 64 99 58 100 59 101 62 102 60 103
REMARK H PARENT 18 6 7 15 25 37 84 56 52 67
REMARK Flexibility Score: inf
ROOT
ATOM      1  C   UNL A   1      31.817  28.991  26.672  1.00  0.00     0.021 C 
ENDROOT
BRANCH   1   2
ATOM      2  C   UNL A   1      31.716  27.507  26.981  1.00  0.00     0.116 C 
BRANCH   2   3
ATOM      3  N   UNL A   1      30.970  26.732  26.023  1.00  0.00    -0.352 N 
ATOM      4  C   UNL A   1      31.053  25.395  25.728  1.00  0.00     0.252 C 
ATOM      5  O   UNL A   1      30.294  24.960  24.861  1.00  0.00    -0.269 OA
ATOM      6  H   UNL A   1      30.302  27.236  25.504  1.00  0.00     0.163 HD
BRANCH   4   7
ATOM      7  C   UNL A   1      32.069  24.483  26.325  1.00  0.00     0.052 A 
ATOM      8  C   UNL A   1      33.450  24.465  26.095  1.00  0.00     0.052 A 
ATOM      9  C   UNL A   1      34.239  23.447  26.685  1.00  0.00     0.014 A 
ATOM     10  C   UNL A   1      33.690  22.513  27.562  1.00  0.00     0.001 A 
ATOM     11  C   UNL A   1      31.536  23.543  27.240  1.00  0.00     0.014 A 
ATOM     12  C   UNL A   1      32.337  22.576  27.857  1.00  0.00     0.001 A 
BRANCH   8  13
ATOM     13  C   UNL A   1      34.251  25.396  25.275  1.00  0.00     0.252 C 
ATOM     14  N   UNL A   1      34.330  25.365  23.908  1.00  0.00    -0.345 N 
ATOM     15  H   UNL A   1      34.668  26.205  23.522  1.00  0.00     0.164 HD
ATOM     16  O   UNL A   1      34.817  26.327  25.855  1.00  0.00    -0.269 OA
BRANCH  14  17
ATOM     17  C   UNL A   1      34.018  24.344  22.888  1.00  0.00     0.124 C 
BRANCH  17  18
ATOM     18  C   UNL A   1      32.633  24.620  22.291  1.00  0.00     0.152 C 
BRANCH  18  19
ATOM     19  C   UNL A   1      32.615  25.932  21.556  1.00  0.00     0.307 C 
ATOM     20  O   UNL A   1      33.625  26.519  21.176  1.00  0.00    -0.252 OA
BRANCH  19  21
ATOM     21  O   UNL A   1      31.341  26.363  21.359  1.00  0.00    -0.469 OA
ATOM     22  C   UNL A   1      30.896  27.349  22.298  1.00  0.00     0.282 C 
ENDBRANCH  19  21
ENDBRANCH  18  19
ENDBRANCH  17  18
BRANCH  17  23
ATOM     23  C   UNL A   1      34.092  22.906  23.384  1.00  0.00    -0.022 A 
ATOM     24  C   UNL A   1      32.915  22.146  23.508  1.00  0.00     0.006 A 
ATOM     25  C   UNL A   1      35.326  22.328  23.787  1.00  0.00    -0.043 A 
ATOM     26  C   UNL A   1      32.911  20.944  24.208  1.00  0.00     0.001 A 
ATOM     27  C   UNL A   1      35.319  21.081  24.458  1.00  0.00    -0.048 A 
ATOM     28  C   UNL A   1      36.655  22.971  23.456  1.00  0.00     0.045 C 
ATOM     29  C   UNL A   1      34.099  20.437  24.714  1.00  0.00     0.004 A 
ATOM     30  C   UNL A   1      36.575  20.447  24.996  1.00  0.00     0.044 C 
ENDBRANCH  17  23
ENDBRANCH  14  17
ENDBRANCH   8  13
ENDBRANCH   4   7
ENDBRANCH   2   3
ENDBRANCH   1   2
BRANCH   1  31
ATOM     31  C   UNL A   1      33.239  29.545  26.532  1.00  0.00     0.002 C 
BRANCH  31  32
ATOM     32  C   UNL A   1      33.689  30.576  27.573  1.00  0.00     0.002 C 
BRANCH  32  33
ATOM     33  C   UNL A   1      33.499  32.048  27.208  1.00  0.00     0.021 C 
BRANCH  33  34
ATOM     34  C   UNL A   1      32.149  32.655  27.555  1.00  0.00     0.116 C 
BRANCH  34  35
ATOM     35  N   UNL A   1      32.210  34.100  27.698  1.00  0.00    -0.352 N 
ATOM     36  C   UNL A   1      33.040  34.890  28.450  1.00  0.00     0.251 C 
ATOM     37  H   UNL A   1      31.544  34.593  27.166  1.00  0.00     0.163 HD
ATOM     38  O   UNL A   1      32.796  36.090  28.560  1.00  0.00    -0.269 OA
BRANCH  36  39
ATOM     39  C   UNL A   1      34.213  34.319  29.148  1.00  0.00     0.039 A 
ATOM     40  C   UNL A   1      34.004  33.579  30.316  1.00  0.00     0.014 A 
ATOM     41  C   UNL A   1      35.515  34.534  28.690  1.00  0.00     0.014 A 
ATOM     42  C   UNL A   1      35.090  33.014  30.989  1.00  0.00     0.010 A 
ATOM     43  C   UNL A   1      36.585  33.889  29.302  1.00  0.00     0.010 A 
ATOM     44  C   UNL A   1      36.387  33.136  30.468  1.00  0.00    -0.014 A 
BRANCH  44  45
ATOM     45  C   UNL A   1      37.553  32.499  31.133  1.00  0.00     0.031 A 
ATOM     46  C   UNL A   1      38.273  31.361  30.465  1.00  0.00     0.074 A 
ATOM     47  C   UNL A   1      37.910  32.892  32.370  1.00  0.00     0.049 A 
ATOM     48  N   UNL A   1      39.255  30.620  30.916  1.00  0.00    -0.248 NA
ATOM     49  C   UNL A   1      37.802  30.977  29.126  1.00  0.00     0.031 C 
ATOM     50  C   UNL A   1      37.250  33.942  33.145  1.00  0.00     0.029 A 
ATOM     51  N   UNL A   1      38.906  32.441  33.199  1.00  0.00    -0.354 N 
ATOM     52  C   UNL A   1      39.498  29.673  29.930  1.00  0.00     0.074 A 
ATOM     53  C   UNL A   1      38.523  29.893  28.884  1.00  0.00     0.031 C 
ATOM     54  C   UNL A   1      37.870  34.069  34.328  1.00  0.00     0.029 A 
ATOM     55  C   UNL A   1      38.942  33.083  34.412  1.00  0.00     0.049 A 
ATOM     56  H   UNL A   1      39.534  31.725  32.950  1.00  0.00     0.167 HD
ATOM     57  C   UNL A   1      40.462  28.722  29.890  1.00  0.00     0.037 A 
ATOM     58  C   UNL A   1      39.743  32.891  35.478  1.00  0.00     0.037 A 
ATOM     59  C   UNL A   1      41.444  28.528  30.924  1.00  0.00     0.049 A 
ATOM     60  C   UNL A   1      40.814  31.839  35.408  1.00  0.00     0.074 A 
ATOM     61  C   UNL A   1      42.514  27.651  30.946  1.00  0.00     0.029 A 
ATOM     62  N   UNL A   1      41.469  29.219  32.128  1.00  0.00    -0.354 N 
ATOM     63  N   UNL A   1      41.091  31.004  34.435  1.00  0.00    -0.248 NA
ATOM     64  C   UNL A   1      41.691  31.708  36.580  1.00  0.00     0.031 C 
ATOM     65  C   UNL A   1      43.149  27.769  32.188  1.00  0.00     0.029 A 
ATOM     66  C   UNL A   1      42.516  28.765  32.914  1.00  0.00     0.049 A 
ATOM     67  H   UNL A   1      40.837  29.928  32.385  1.00  0.00     0.167 HD
ATOM     68  C   UNL A   1      42.185  30.264  34.865  1.00  0.00     0.074 A 
ATOM     69  C   UNL A   1      42.530  30.762  36.183  1.00  0.00     0.031 C 
ATOM     70  C   UNL A   1      42.844  29.265  34.228  1.00  0.00     0.037 A 
BRANCH  57  71
ATOM     71  C   UNL A   1      40.487  27.813  28.691  1.00  0.00     0.064 A 
ATOM     72  C   UNL A   1      39.789  26.595  28.667  1.00  0.00     0.173 A 
ATOM     73  C   UNL A   1      41.218  28.167  27.547  1.00  0.00     0.173 A 
ATOM     74  F   UNL A   1      39.080  26.201  29.736  1.00  0.00    -0.203 F 
ATOM     75  C   UNL A   1      39.864  25.745  27.567  1.00  0.00     0.198 A 
ATOM     76  C   UNL A   1      41.260  27.331  26.433  1.00  0.00     0.198 A 
ATOM     77  F   UNL A   1      41.897  29.324  27.508  1.00  0.00    -0.203 F 
ATOM     78  F   UNL A   1      39.249  24.554  27.600  1.00  0.00    -0.200 F 
ATOM     79  C   UNL A   1      40.595  26.116  26.450  1.00  0.00     0.200 A 
ATOM     80  F   UNL A   1      41.954  27.700  25.348  1.00  0.00    -0.200 F 
ATOM     81  F   UNL A   1      40.668  25.295  25.392  1.00  0.00    -0.200 F 
ENDBRANCH  57  71
BRANCH  58  82
ATOM     82  C   UNL A   1      39.568  33.739  36.685  1.00  0.00     0.064 A 
ATOM     83  C   UNL A   1      40.159  35.007  36.766  1.00  0.00     0.173 A 
ATOM     84  C   UNL A   1      38.772  33.320  37.762  1.00  0.00     0.173 A 
ATOM     85  F   UNL A   1      40.943  35.445  35.770  1.00  0.00    -0.203 F 
ATOM     86  C   UNL A   1      39.969  35.819  37.882  1.00  0.00     0.198 A 
ATOM     87  C   UNL A   1      38.559  34.145  38.864  1.00  0.00     0.198 A 
ATOM     88  F   UNL A   1      38.176  32.119  37.728  1.00  0.00    -0.203 F 
ATOM     89  F   UNL A   1      40.572  37.015  37.948  1.00  0.00    -0.200 F 
ATOM     90  C   UNL A   1      39.162  35.392  38.925  1.00  0.00     0.200 A 
ATOM     91  F   UNL A   1      37.763  33.735  39.861  1.00  0.00    -0.200 F 
ATOM     92  F   UNL A   1      38.966  36.181  39.990  1.00  0.00    -0.200 F 
ENDBRANCH  58  82
BRANCH  70  93
ATOM     93  C   UNL A   1      44.021  28.656  34.933  1.00  0.00     0.064 A 
ATOM     94  C   UNL A   1      45.314  29.185  34.803  1.00  0.00     0.173 A 
ATOM     95  C   UNL A   1      43.846  27.554  35.783  1.00  0.00     0.173 A 
ATOM     96  F   UNL A   1      45.538  30.230  33.992  1.00  0.00    -0.203 F 
ATOM     97  C   UNL A   1      46.391  28.617  35.478  1.00  0.00     0.198 A 
ATOM     98  C   UNL A   1      44.919  27.009  36.482  1.00  0.00     0.198 A 
ATOM     99  F   UNL A   1      42.630  27.013  35.948  1.00  0.00    -0.203 F 
ATOM    100  F   UNL A   1      47.625  29.107  35.299  1.00  0.00    -0.200 F 
ATOM    101  C   UNL A   1      46.192  27.535  36.323  1.00  0.00     0.200 A 
ATOM    102  F   UNL A   1      44.721  25.973  37.310  1.00  0.00    -0.200 F 
ATOM    103  F   UNL A   1      47.228  26.995  36.978  1.00  0.00    -0.200 F 
ENDBRANCH  70  93
ENDBRANCH  44  45
ENDBRANCH  36  39
ENDBRANCH  34  35
ENDBRANCH  33  34
ENDBRANCH  32  33
ENDBRANCH  31  32
ENDBRANCH   1  31
TORSDOF 19
ENDMDL
