MODEL 1
REMARK VINA RESULT:     -10.7      0.000      0.000
REMARK SMILES CCCS[C@@H]1CC[C@@]([NH2+]CC)(C(=O)NCCCCCCNC(=O)c2ccc(-c3c4nc(c(-c5c(F)c(F)c(F)c(F)c5F)c5ccc([nH]5)c(-c5c(F)c(F)c(F)c(F)c5F)c5nc(c(-c6c(F)c(F)c(F)c(F)c6F)c6ccc3[nH]6)C=C5)C=C4)cc2)C1
REMARK SMILES IDX 17 1 16 2 15 3 14 4 12 5 13 6 8 8 5 9 6 10 87 11 7 12 4 13
REMARK SMILES IDX 3 14 2 15 1 16 9 17 10 20 11 21 18 22 19 23 20 24 21 25
REMARK SMILES IDX 22 26 23 28 24 29 25 30 86 31 26 32 85 33 27 34 28 35 29 36
REMARK SMILES IDX 79 37 30 38 84 39 78 40 80 41 31 42 83 43 77 44 76 45 32 47
REMARK SMILES IDX 64 48 44 49 63 50 45 51 48 52 62 53 81 54 46 55 47 56 61 58
REMARK SMILES IDX 82 59 49 60 33 61 34 62 42 63 35 64 36 65 40 66 43 67 37 68
REMARK SMILES IDX 38 69 41 70 39 71 65 72 66 73 74 74 67 75 68 76 72 77 75 78
REMARK SMILES IDX 69 79 70 80 73 81 71 82 50 83 51 84 59 85 52 86 53 87 57 88
REMARK SMILES IDX 60 89 54 90 55 91 58 92 56 93
REMARK H PARENT 14 7 9 18 9 19 21 27 80 46 48 57
REMARK Flexibility Score: inf
ROOT
ATOM      1  C   UNL A   1      31.852  29.602  27.207  1.00  0.00     0.002 C 
ENDROOT
BRANCH   1   2
ATOM      2  C   UNL A   1      32.787  28.446  26.840  1.00  0.00     0.021 C 
BRANCH   2   3
ATOM      3  C   UNL A   1      32.232  27.528  25.755  1.00  0.00     0.116 C 
BRANCH   3   4
ATOM      4  N   UNL A   1      31.029  26.861  26.218  1.00  0.00    -0.351 N 
ATOM      5  C   UNL A   1      30.650  25.559  26.061  1.00  0.00     0.281 C 
ATOM      6  O   UNL A   1      29.546  25.231  26.502  1.00  0.00    -0.268 OA
ATOM      7  H   UNL A   1      30.398  27.428  26.716  1.00  0.00     0.163 HD
BRANCH   5   8
ATOM      8  C   UNL A   1      31.596  24.548  25.344  1.00  0.00     0.176 C 
ATOM      9  C   UNL A   1      32.527  23.011  27.008  1.00  0.00     0.053 C 
ATOM     10  C   UNL A   1      31.679  22.172  26.061  1.00  0.00     0.022 C 
ATOM     11  C   UNL A   1      32.848  24.246  26.185  1.00  0.00     0.093 C 
ATOM     12  C   UNL A   1      30.878  23.178  25.239  1.00  0.00     0.080 C 
BRANCH   9  13
ATOM     13  S   UNL A   1      34.030  22.077  27.472  1.00  0.00    -0.158 SA
BRANCH  13  14
ATOM     14  C   UNL A   1      35.176  22.531  26.126  1.00  0.00     0.069 C 
BRANCH  14  15
ATOM     15  C   UNL A   1      35.618  21.357  25.245  1.00  0.00     0.007 C 
ATOM     16  C   UNL A   1      34.543  20.315  24.986  1.00  0.00     0.005 C 
ENDBRANCH  14  15
ENDBRANCH  13  14
ENDBRANCH   9  13
BRANCH   8  17
ATOM     17  N   UNL A   1      31.982  25.041  23.991  1.00  0.00    -0.334 N 
ATOM     18  H   UNL A   1      31.875  26.055  23.995  1.00  0.00     0.347 HD
ATOM     19  H   UNL A   1      31.368  24.540  23.349  1.00  0.00     0.347 HD
BRANCH  17  20
ATOM     20  C   UNL A   1      33.338  24.742  23.521  1.00  0.00     0.257 C 
ATOM     21  C   UNL A   1      33.458  23.652  22.471  1.00  0.00     0.071 C 
ENDBRANCH  17  20
ENDBRANCH   8  17
ENDBRANCH   5   8
ENDBRANCH   3   4
ENDBRANCH   2   3
ENDBRANCH   1   2
BRANCH   1  22
ATOM     22  C   UNL A   1      31.767  30.714  26.158  1.00  0.00     0.002 C 
BRANCH  22  23
ATOM     23  C   UNL A   1      31.511  32.113  26.723  1.00  0.00     0.021 C 
BRANCH  23  24
ATOM     24  C   UNL A   1      32.757  32.823  27.237  1.00  0.00     0.116 C 
BRANCH  24  25
ATOM     25  N   UNL A   1      32.482  34.196  27.627  1.00  0.00    -0.352 N 
ATOM     26  C   UNL A   1      33.028  34.928  28.648  1.00  0.00     0.251 C 
ATOM     27  H   UNL A   1      31.811  34.665  27.081  1.00  0.00     0.163 HD
ATOM     28  O   UNL A   1      32.545  36.014  28.963  1.00  0.00    -0.269 OA
BRANCH  26  29
ATOM     29  C   UNL A   1      34.188  34.397  29.389  1.00  0.00     0.039 A 
ATOM     30  C   UNL A   1      33.972  33.734  30.598  1.00  0.00     0.014 A 
ATOM     31  C   UNL A   1      35.486  34.550  28.891  1.00  0.00     0.014 A 
ATOM     32  C   UNL A   1      35.053  33.176  31.282  1.00  0.00     0.010 A 
ATOM     33  C   UNL A   1      36.552  33.930  29.535  1.00  0.00     0.010 A 
ATOM     34  C   UNL A   1      36.348  33.242  30.740  1.00  0.00    -0.014 A 
BRANCH  34  35
ATOM     35  C   UNL A   1      37.497  32.595  31.422  1.00  0.00     0.031 A 
ATOM     36  C   UNL A   1      38.208  31.440  30.771  1.00  0.00     0.074 A 
ATOM     37  C   UNL A   1      37.858  33.006  32.654  1.00  0.00     0.049 A 
ATOM     38  N   UNL A   1      39.188  30.705  31.234  1.00  0.00    -0.248 NA
ATOM     39  C   UNL A   1      37.742  31.040  29.433  1.00  0.00     0.031 C 
ATOM     40  C   UNL A   1      37.211  34.081  33.410  1.00  0.00     0.029 A 
ATOM     41  N   UNL A   1      38.847  32.560  33.495  1.00  0.00    -0.354 N 
ATOM     42  C   UNL A   1      39.436  29.747  30.260  1.00  0.00     0.074 A 
ATOM     43  C   UNL A   1      38.481  29.965  29.196  1.00  0.00     0.031 C 
ATOM     44  C   UNL A   1      37.831  34.221  34.593  1.00  0.00     0.029 A 
ATOM     45  C   UNL A   1      38.889  33.222  34.698  1.00  0.00     0.049 A 
ATOM     46  H   UNL A   1      39.467  31.833  33.258  1.00  0.00     0.167 HD
ATOM     47  C   UNL A   1      40.388  28.784  30.248  1.00  0.00     0.037 A 
ATOM     48  C   UNL A   1      39.681  33.034  35.771  1.00  0.00     0.037 A 
ATOM     49  C   UNL A   1      41.364  28.600  31.290  1.00  0.00     0.049 A 
ATOM     50  C   UNL A   1      40.735  31.958  35.721  1.00  0.00     0.074 A 
ATOM     51  C   UNL A   1      42.428  27.715  31.324  1.00  0.00     0.029 A 
ATOM     52  N   UNL A   1      41.393  29.308  32.480  1.00  0.00    -0.354 N 
ATOM     53  N   UNL A   1      41.023  31.123  34.752  1.00  0.00    -0.248 NA
ATOM     54  C   UNL A   1      41.581  31.803  36.913  1.00  0.00     0.031 C 
ATOM     55  C   UNL A   1      43.064  27.845  32.562  1.00  0.00     0.029 A 
ATOM     56  C   UNL A   1      42.436  28.855  33.272  1.00  0.00     0.049 A 
ATOM     57  H   UNL A   1      40.767  30.027  32.727  1.00  0.00     0.167 HD
ATOM     58  C   UNL A   1      42.101  30.372  35.202  1.00  0.00     0.074 A 
ATOM     59  C   UNL A   1      42.428  30.862  36.524  1.00  0.00     0.031 C 
ATOM     60  C   UNL A   1      42.760  29.365  34.579  1.00  0.00     0.037 A 
BRANCH  47  61
ATOM     61  C   UNL A   1      40.433  27.847  29.077  1.00  0.00     0.064 A 
ATOM     62  C   UNL A   1      39.651  26.683  29.030  1.00  0.00     0.173 A 
ATOM     63  C   UNL A   1      41.205  28.166  27.949  1.00  0.00     0.173 A 
ATOM     64  F   UNL A   1      38.903  26.330  30.086  1.00  0.00    -0.203 F 
ATOM     65  C   UNL A   1      39.650  25.867  27.903  1.00  0.00     0.198 A 
ATOM     66  C   UNL A   1      41.179  27.362  26.812  1.00  0.00     0.198 A 
ATOM     67  F   UNL A   1      41.966  29.270  27.939  1.00  0.00    -0.203 F 
ATOM     68  F   UNL A   1      38.920  24.743  27.891  1.00  0.00    -0.200 F 
ATOM     69  C   UNL A   1      40.405  26.212  26.790  1.00  0.00     0.200 A 
ATOM     70  F   UNL A   1      41.896  27.707  25.733  1.00  0.00    -0.200 F 
ATOM     71  F   UNL A   1      40.385  25.436  25.699  1.00  0.00    -0.200 F 
ENDBRANCH  47  61
BRANCH  48  72
ATOM     72  C   UNL A   1      39.520  33.874  36.987  1.00  0.00     0.064 A 
ATOM     73  C   UNL A   1      38.756  33.431  38.076  1.00  0.00     0.173 A 
ATOM     74  C   UNL A   1      40.084  35.157  37.068  1.00  0.00     0.173 A 
ATOM     75  F   UNL A   1      38.180  32.221  38.042  1.00  0.00    -0.203 F 
ATOM     76  C   UNL A   1      38.528  34.253  39.179  1.00  0.00     0.198 A 
ATOM     77  C   UNL A   1      39.885  35.962  38.186  1.00  0.00     0.198 A 
ATOM     78  F   UNL A   1      40.829  35.628  36.057  1.00  0.00    -0.203 F 
ATOM     79  F   UNL A   1      37.735  33.830  40.173  1.00  0.00    -0.200 F 
ATOM     80  C   UNL A   1      39.094  35.517  39.234  1.00  0.00     0.200 A 
ATOM     81  F   UNL A   1      40.448  37.178  38.242  1.00  0.00    -0.200 F 
ATOM     82  F   UNL A   1      38.868  36.310  40.290  1.00  0.00    -0.200 F 
ENDBRANCH  48  72
BRANCH  60  83
ATOM     83  C   UNL A   1      43.933  28.758  35.295  1.00  0.00     0.064 A 
ATOM     84  C   UNL A   1      43.787  27.652  36.145  1.00  0.00     0.173 A 
ATOM     85  C   UNL A   1      45.225  29.267  35.094  1.00  0.00     0.173 A 
ATOM     86  F   UNL A   1      42.571  27.137  36.383  1.00  0.00    -0.203 F 
ATOM     87  C   UNL A   1      44.889  27.098  36.791  1.00  0.00     0.198 A 
ATOM     88  C   UNL A   1      46.328  28.687  35.713  1.00  0.00     0.198 A 
ATOM     89  F   UNL A   1      45.420  30.317  34.283  1.00  0.00    -0.203 F 
ATOM     90  F   UNL A   1      44.719  26.075  37.641  1.00  0.00    -0.200 F 
ATOM     91  C   UNL A   1      46.158  27.608  36.568  1.00  0.00     0.200 A 
ATOM     92  F   UNL A   1      47.556  29.172  35.482  1.00  0.00    -0.200 F 
ATOM     93  F   UNL A   1      47.218  27.067  37.182  1.00  0.00    -0.200 F 
ENDBRANCH  60  83
ENDBRANCH  34  35
ENDBRANCH  26  29
ENDBRANCH  24  25
ENDBRANCH  23  24
ENDBRANCH  22  23
ENDBRANCH   1  22
TORSDOF 18
ENDMDL
MODEL 2
REMARK VINA RESULT:     -10.4      5.869     11.318
REMARK SMILES CCCS[C@@H]1CC[C@@]([NH2+]CC)(C(=O)NCCCCCCNC(=O)c2ccc(-c3c4nc(c(-c5c(F)c(F)c(F)c(F)c5F)c5ccc([nH]5)c(-c5c(F)c(F)c(F)c(F)c5F)c5nc(c(-c6c(F)c(F)c(F)c(F)c6F)c6ccc3[nH]6)C=C5)C=C4)cc2)C1
REMARK SMILES IDX 17 1 16 2 15 3 14 4 12 5 13 6 8 8 5 9 6 10 87 11 7 12 4 13
REMARK SMILES IDX 3 14 2 15 1 16 9 17 10 20 11 21 18 22 19 23 20 24 21 25
REMARK SMILES IDX 22 26 23 28 24 29 25 30 86 31 26 32 85 33 27 34 28 35 29 36
REMARK SMILES IDX 79 37 30 38 84 39 78 40 80 41 31 42 83 43 77 44 76 45 32 47
REMARK SMILES IDX 64 48 44 49 63 50 45 51 48 52 62 53 81 54 46 55 47 56 61 58
REMARK SMILES IDX 82 59 49 60 33 61 34 62 42 63 35 64 36 65 40 66 43 67 37 68
REMARK SMILES IDX 38 69 41 70 39 71 65 72 66 73 74 74 67 75 68 76 72 77 75 78
REMARK SMILES IDX 69 79 70 80 73 81 71 82 50 83 51 84 59 85 52 86 53 87 57 88
REMARK SMILES IDX 60 89 54 90 55 91 58 92 56 93
REMARK H PARENT 14 7 9 18 9 19 21 27 80 46 48 57
REMARK Flexibility Score: inf
ROOT
ATOM      1  C   UNL A   1      37.684  22.018  25.360  1.00  0.00     0.002 C 
ENDROOT
BRANCH   1   2
ATOM      2  C   UNL A   1      36.817  23.143  24.788  1.00  0.00     0.021 C 
BRANCH   2   3
ATOM      3  C   UNL A   1      35.341  22.777  24.663  1.00  0.00     0.116 C 
BRANCH   3   4
ATOM      4  N   UNL A   1      34.913  22.856  23.278  1.00  0.00    -0.351 N 
ATOM      5  C   UNL A   1      33.844  23.516  22.743  1.00  0.00     0.281 C 
ATOM      6  O   UNL A   1      33.650  23.393  21.531  1.00  0.00    -0.268 OA
ATOM      7  H   UNL A   1      35.471  22.364  22.635  1.00  0.00     0.163 HD
BRANCH   5   8
ATOM      8  C   UNL A   1      32.921  24.382  23.652  1.00  0.00     0.176 C 
ATOM      9  C   UNL A   1      33.335  26.750  23.184  1.00  0.00     0.053 C 
ATOM     10  C   UNL A   1      31.893  26.469  22.784  1.00  0.00     0.022 C 
ATOM     11  C   UNL A   1      33.645  25.637  24.169  1.00  0.00     0.093 C 
ATOM     12  C   UNL A   1      31.760  24.949  22.793  1.00  0.00     0.080 C 
BRANCH   9  13
ATOM     13  S   UNL A   1      33.444  28.406  23.953  1.00  0.00    -0.158 SA
BRANCH  13  14
ATOM     14  C   UNL A   1      32.063  28.350  25.145  1.00  0.00     0.069 C 
BRANCH  14  15
ATOM     15  C   UNL A   1      32.465  27.931  26.564  1.00  0.00     0.007 C 
ATOM     16  C   UNL A   1      31.417  28.205  27.630  1.00  0.00     0.005 C 
ENDBRANCH  14  15
ENDBRANCH  13  14
ENDBRANCH   9  13
BRANCH   8  17
ATOM     17  N   UNL A   1      32.386  23.582  24.790  1.00  0.00    -0.334 N 
ATOM     18  H   UNL A   1      33.060  22.841  24.985  1.00  0.00     0.347 HD
ATOM     19  H   UNL A   1      31.469  23.266  24.476  1.00  0.00     0.347 HD
BRANCH  17  20
ATOM     20  C   UNL A   1      32.127  24.285  26.051  1.00  0.00     0.257 C 
ATOM     21  C   UNL A   1      30.670  24.572  26.371  1.00  0.00     0.071 C 
ENDBRANCH  17  20
ENDBRANCH   8  17
ENDBRANCH   5   8
ENDBRANCH   3   4
ENDBRANCH   2   3
ENDBRANCH   1   2
BRANCH   1  22
ATOM     22  C   UNL A   1      37.272  20.608  24.925  1.00  0.00     0.002 C 
BRANCH  22  23
ATOM     23  C   UNL A   1      38.384  19.561  25.004  1.00  0.00     0.021 C 
BRANCH  23  24
ATOM     24  C   UNL A   1      39.463  19.863  26.036  1.00  0.00     0.116 C 
BRANCH  24  25
ATOM     25  N   UNL A   1      40.533  18.880  26.013  1.00  0.00    -0.352 N 
ATOM     26  C   UNL A   1      41.888  19.078  26.060  1.00  0.00     0.251 C 
ATOM     27  H   UNL A   1      40.244  17.941  25.955  1.00  0.00     0.163 HD
ATOM     28  O   UNL A   1      42.661  18.150  25.836  1.00  0.00    -0.269 OA
BRANCH  26  29
ATOM     29  C   UNL A   1      42.419  20.422  26.361  1.00  0.00     0.039 A 
ATOM     30  C   UNL A   1      42.900  21.208  25.312  1.00  0.00     0.014 A 
ATOM     31  C   UNL A   1      42.440  20.906  27.673  1.00  0.00     0.014 A 
ATOM     32  C   UNL A   1      43.353  22.503  25.572  1.00  0.00     0.010 A 
ATOM     33  C   UNL A   1      42.822  22.221  27.919  1.00  0.00     0.010 A 
ATOM     34  C   UNL A   1      43.287  23.031  26.873  1.00  0.00    -0.014 A 
BRANCH  34  35
ATOM     35  C   UNL A   1      43.703  24.429  27.152  1.00  0.00     0.031 A 
ATOM     36  C   UNL A   1      42.695  25.430  27.649  1.00  0.00     0.074 A 
ATOM     37  C   UNL A   1      44.970  24.811  26.898  1.00  0.00     0.049 A 
ATOM     38  N   UNL A   1      42.848  26.708  27.888  1.00  0.00    -0.248 NA
ATOM     39  C   UNL A   1      41.328  24.938  27.883  1.00  0.00     0.031 C 
ATOM     40  C   UNL A   1      46.023  23.945  26.366  1.00  0.00     0.029 A 
ATOM     41  N   UNL A   1      45.584  26.030  27.039  1.00  0.00    -0.354 N 
ATOM     42  C   UNL A   1      41.598  27.173  28.276  1.00  0.00     0.074 A 
ATOM     43  C   UNL A   1      40.686  26.053  28.203  1.00  0.00     0.031 C 
ATOM     44  C   UNL A   1      47.157  24.655  26.242  1.00  0.00     0.029 A 
ATOM     45  C   UNL A   1      46.900  26.035  26.645  1.00  0.00     0.049 A 
ATOM     46  H   UNL A   1      45.124  26.828  27.389  1.00  0.00     0.167 HD
ATOM     47  C   UNL A   1      41.249  28.420  28.674  1.00  0.00     0.037 A 
ATOM     48  C   UNL A   1      47.795  27.040  26.599  1.00  0.00     0.037 A 
ATOM     49  C   UNL A   1      42.170  29.520  28.786  1.00  0.00     0.049 A 
ATOM     50  C   UNL A   1      47.375  28.413  27.056  1.00  0.00     0.074 A 
ATOM     51  C   UNL A   1      41.932  30.794  29.271  1.00  0.00     0.029 A 
ATOM     52  N   UNL A   1      43.502  29.478  28.405  1.00  0.00    -0.354 N 
ATOM     53  N   UNL A   1      46.215  28.817  27.514  1.00  0.00    -0.248 NA
ATOM     54  C   UNL A   1      48.394  29.472  26.998  1.00  0.00     0.031 C 
ATOM     55  C   UNL A   1      43.104  31.542  29.126  1.00  0.00     0.029 A 
ATOM     56  C   UNL A   1      44.089  30.716  28.610  1.00  0.00     0.049 A 
ATOM     57  H   UNL A   1      43.963  28.687  28.042  1.00  0.00     0.167 HD
ATOM     58  C   UNL A   1      46.374  30.159  27.830  1.00  0.00     0.074 A 
ATOM     59  C   UNL A   1      47.748  30.499  27.529  1.00  0.00     0.031 C 
ATOM     60  C   UNL A   1      45.464  31.034  28.323  1.00  0.00     0.037 A 
BRANCH  47  61
ATOM     61  C   UNL A   1      39.812  28.676  29.021  1.00  0.00     0.064 A 
ATOM     62  C   UNL A   1      39.329  28.527  30.330  1.00  0.00     0.173 A 
ATOM     63  C   UNL A   1      38.927  29.161  28.046  1.00  0.00     0.173 A 
ATOM     64  F   UNL A   1      40.132  28.058  31.296  1.00  0.00    -0.203 F 
ATOM     65  C   UNL A   1      38.010  28.841  30.646  1.00  0.00     0.198 A 
ATOM     66  C   UNL A   1      37.618  29.503  28.372  1.00  0.00     0.198 A 
ATOM     67  F   UNL A   1      39.340  29.327  26.780  1.00  0.00    -0.203 F 
ATOM     68  F   UNL A   1      37.561  28.662  31.896  1.00  0.00    -0.200 F 
ATOM     69  C   UNL A   1      37.158  29.340  29.670  1.00  0.00     0.200 A 
ATOM     70  F   UNL A   1      36.802  29.999  27.431  1.00  0.00    -0.200 F 
ATOM     71  F   UNL A   1      35.896  29.663  29.982  1.00  0.00    -0.200 F 
ENDBRANCH  47  61
BRANCH  48  72
ATOM     72  C   UNL A   1      49.177  26.801  26.105  1.00  0.00     0.064 A 
ATOM     73  C   UNL A   1      49.514  27.023  24.761  1.00  0.00     0.173 A 
ATOM     74  C   UNL A   1      50.178  26.299  26.951  1.00  0.00     0.173 A 
ATOM     75  F   UNL A   1      48.589  27.484  23.907  1.00  0.00    -0.203 F 
ATOM     76  C   UNL A   1      50.783  26.714  24.275  1.00  0.00     0.198 A 
ATOM     77  C   UNL A   1      51.457  26.025  26.471  1.00  0.00     0.198 A 
ATOM     78  F   UNL A   1      49.913  26.075  28.246  1.00  0.00    -0.203 F 
ATOM     79  F   UNL A   1      51.054  26.870  22.972  1.00  0.00    -0.200 F 
ATOM     80  C   UNL A   1      51.754  26.217  25.131  1.00  0.00     0.200 A 
ATOM     81  F   UNL A   1      52.397  25.560  27.305  1.00  0.00    -0.200 F 
ATOM     82  F   UNL A   1      52.971  25.912  24.661  1.00  0.00    -0.200 F 
ENDBRANCH  48  72
BRANCH  60  83
ATOM     83  C   UNL A   1      45.934  32.430  28.616  1.00  0.00     0.064 A 
ATOM     84  C   UNL A   1      46.495  32.776  29.854  1.00  0.00     0.173 A 
ATOM     85  C   UNL A   1      45.859  33.424  27.629  1.00  0.00     0.173 A 
ATOM     86  F   UNL A   1      46.576  31.865  30.837  1.00  0.00    -0.203 F 
ATOM     87  C   UNL A   1      46.935  34.073  30.102  1.00  0.00     0.198 A 
ATOM     88  C   UNL A   1      46.333  34.709  27.868  1.00  0.00     0.198 A 
ATOM     89  F   UNL A   1      45.340  33.143  26.423  1.00  0.00    -0.203 F 
ATOM     90  F   UNL A   1      47.418  34.394  31.310  1.00  0.00    -0.200 F 
ATOM     91  C   UNL A   1      46.863  35.036  29.108  1.00  0.00     0.200 A 
ATOM     92  F   UNL A   1      46.278  35.634  26.899  1.00  0.00    -0.200 F 
ATOM     93  F   UNL A   1      47.297  36.281  29.345  1.00  0.00    -0.200 F 
ENDBRANCH  60  83
ENDBRANCH  34  35
ENDBRANCH  26  29
ENDBRANCH  24  25
ENDBRANCH  23  24
ENDBRANCH  22  23
ENDBRANCH   1  22
TORSDOF 18
ENDMDL
MODEL 3
REMARK VINA RESULT:     -10.4      5.809     11.231
REMARK SMILES CCCS[C@@H]1CC[C@@]([NH2+]CC)(C(=O)NCCCCCCNC(=O)c2ccc(-c3c4nc(c(-c5c(F)c(F)c(F)c(F)c5F)c5ccc([nH]5)c(-c5c(F)c(F)c(F)c(F)c5F)c5nc(c(-c6c(F)c(F)c(F)c(F)c6F)c6ccc3[nH]6)C=C5)C=C4)cc2)C1
REMARK SMILES IDX 17 1 16 2 15 3 14 4 12 5 13 6 8 8 5 9 6 10 87 11 7 12 4 13
REMARK SMILES IDX 3 14 2 15 1 16 9 17 10 20 11 21 18 22 19 23 20 24 21 25
REMARK SMILES IDX 22 26 23 28 24 29 25 30 86 31 26 32 85 33 27 34 28 35 29 36
REMARK SMILES IDX 79 37 30 38 84 39 78 40 80 41 31 42 83 43 77 44 76 45 32 47
REMARK SMILES IDX 64 48 44 49 63 50 45 51 48 52 62 53 81 54 46 55 47 56 61 58
REMARK SMILES IDX 82 59 49 60 33 61 34 62 42 63 35 64 36 65 40 66 43 67 37 68
REMARK SMILES IDX 38 69 41 70 39 71 65 72 66 73 74 74 67 75 68 76 72 77 75 78
REMARK SMILES IDX 69 79 70 80 73 81 71 82 50 83 51 84 59 85 52 86 53 87 57 88
REMARK SMILES IDX 60 89 54 90 55 91 58 92 56 93
REMARK H PARENT 14 7 9 18 9 19 21 27 80 46 48 57
REMARK Flexibility Score: inf
ROOT
ATOM      1  C   UNL A   1      37.405  21.990  25.609  1.00  0.00     0.002 C 
ENDROOT
BRANCH   1   2
ATOM      2  C   UNL A   1      37.156  23.260  24.790  1.00  0.00     0.021 C 
BRANCH   2   3
ATOM      3  C   UNL A   1      35.698  23.709  24.783  1.00  0.00     0.116 C 
BRANCH   3   4
ATOM      4  N   UNL A   1      35.156  23.659  23.438  1.00  0.00    -0.351 N 
ATOM      5  C   UNL A   1      33.867  23.457  23.034  1.00  0.00     0.281 C 
ATOM      6  O   UNL A   1      33.654  23.404  21.820  1.00  0.00    -0.268 OA
ATOM      7  H   UNL A   1      35.810  23.790  22.714  1.00  0.00     0.163 HD
BRANCH   5   8
ATOM      8  C   UNL A   1      32.731  23.300  24.089  1.00  0.00     0.176 C 
ATOM      9  C   UNL A   1      31.546  25.432  24.308  1.00  0.00     0.053 C 
ATOM     10  C   UNL A   1      30.542  24.426  23.763  1.00  0.00     0.022 C 
ATOM     11  C   UNL A   1      32.593  24.554  24.969  1.00  0.00     0.093 C 
ATOM     12  C   UNL A   1      31.369  23.212  23.351  1.00  0.00     0.080 C 
BRANCH   9  13
ATOM     13  S   UNL A   1      30.715  26.539  25.503  1.00  0.00    -0.158 SA
BRANCH  13  14
ATOM     14  C   UNL A   1      32.124  27.130  26.501  1.00  0.00     0.069 C 
BRANCH  14  15
ATOM     15  C   UNL A   1      31.756  28.168  27.568  1.00  0.00     0.007 C 
ATOM     16  C   UNL A   1      32.161  29.594  27.234  1.00  0.00     0.005 C 
ENDBRANCH  14  15
ENDBRANCH  13  14
ENDBRANCH   9  13
BRANCH   8  17
ATOM     17  N   UNL A   1      32.946  22.090  24.934  1.00  0.00    -0.334 N 
ATOM     18  H   UNL A   1      32.086  21.929  25.459  1.00  0.00     0.347 HD
ATOM     19  H   UNL A   1      33.767  22.311  25.497  1.00  0.00     0.347 HD
BRANCH  17  20
ATOM     20  C   UNL A   1      33.286  20.838  24.251  1.00  0.00     0.257 C 
ATOM     21  C   UNL A   1      32.527  19.602  24.702  1.00  0.00     0.071 C 
ENDBRANCH  17  20
ENDBRANCH   8  17
ENDBRANCH   5   8
ENDBRANCH   3   4
ENDBRANCH   2   3
ENDBRANCH   1   2
BRANCH   1  22
ATOM     22  C   UNL A   1      37.091  20.683  24.875  1.00  0.00     0.002 C 
BRANCH  22  23
ATOM     23  C   UNL A   1      38.165  19.601  25.001  1.00  0.00     0.021 C 
BRANCH  23  24
ATOM     24  C   UNL A   1      39.311  19.957  25.940  1.00  0.00     0.116 C 
BRANCH  24  25
ATOM     25  N   UNL A   1      40.358  18.949  25.933  1.00  0.00    -0.352 N 
ATOM     26  C   UNL A   1      41.716  19.114  26.005  1.00  0.00     0.251 C 
ATOM     27  H   UNL A   1      40.047  18.016  25.867  1.00  0.00     0.163 HD
ATOM     28  O   UNL A   1      42.470  18.167  25.792  1.00  0.00    -0.269 OA
BRANCH  26  29
ATOM     29  C   UNL A   1      42.273  20.443  26.319  1.00  0.00     0.039 A 
ATOM     30  C   UNL A   1      42.735  21.246  25.273  1.00  0.00     0.014 A 
ATOM     31  C   UNL A   1      42.340  20.898  27.640  1.00  0.00     0.014 A 
ATOM     32  C   UNL A   1      43.212  22.528  25.547  1.00  0.00     0.010 A 
ATOM     33  C   UNL A   1      42.747  22.202  27.903  1.00  0.00     0.010 A 
ATOM     34  C   UNL A   1      43.193  23.029  26.861  1.00  0.00    -0.014 A 
BRANCH  34  35
ATOM     35  C   UNL A   1      43.635  24.415  27.158  1.00  0.00     0.031 A 
ATOM     36  C   UNL A   1      42.643  25.435  27.646  1.00  0.00     0.074 A 
ATOM     37  C   UNL A   1      44.914  24.769  26.927  1.00  0.00     0.049 A 
ATOM     38  N   UNL A   1      42.820  26.707  27.899  1.00  0.00    -0.248 NA
ATOM     39  C   UNL A   1      41.261  24.972  27.855  1.00  0.00     0.031 C 
ATOM     40  C   UNL A   1      45.956  23.883  26.406  1.00  0.00     0.029 A 
ATOM     41  N   UNL A   1      45.554  25.973  27.088  1.00  0.00    -0.354 N 
ATOM     42  C   UNL A   1      41.576  27.198  28.270  1.00  0.00     0.074 A 
ATOM     43  C   UNL A   1      40.640  26.099  28.173  1.00  0.00     0.031 C 
ATOM     44  C   UNL A   1      47.108  24.568  26.305  1.00  0.00     0.029 A 
ATOM     45  C   UNL A   1      46.876  25.950  26.715  1.00  0.00     0.049 A 
ATOM     46  H   UNL A   1      45.107  26.778  27.437  1.00  0.00     0.167 HD
ATOM     47  C   UNL A   1      41.249  28.449  28.672  1.00  0.00     0.037 A 
ATOM     48  C   UNL A   1      47.794  26.935  26.691  1.00  0.00     0.037 A 
ATOM     49  C   UNL A   1      42.193  29.526  28.808  1.00  0.00     0.049 A 
ATOM     50  C   UNL A   1      47.398  28.314  27.153  1.00  0.00     0.074 A 
ATOM     51  C   UNL A   1      41.976  30.803  29.299  1.00  0.00     0.029 A 
ATOM     52  N   UNL A   1      43.529  29.458  28.448  1.00  0.00    -0.354 N 
ATOM     53  N   UNL A   1      46.240  28.740  27.595  1.00  0.00    -0.248 NA
ATOM     54  C   UNL A   1      48.442  29.349  27.119  1.00  0.00     0.031 C 
ATOM     55  C   UNL A   1      43.167  31.525  29.179  1.00  0.00     0.029 A 
ATOM     56  C   UNL A   1      44.142  30.680  28.672  1.00  0.00     0.049 A 
ATOM     57  H   UNL A   1      43.978  28.659  28.086  1.00  0.00     0.167 HD
ATOM     58  C   UNL A   1      46.425  30.076  27.924  1.00  0.00     0.074 A 
ATOM     59  C   UNL A   1      47.811  30.387  27.647  1.00  0.00     0.031 C 
ATOM     60  C   UNL A   1      45.527  30.968  28.409  1.00  0.00     0.037 A 
BRANCH  47  61
ATOM     61  C   UNL A   1      39.813  28.735  28.998  1.00  0.00     0.064 A 
ATOM     62  C   UNL A   1      39.315  28.627  30.305  1.00  0.00     0.173 A 
ATOM     63  C   UNL A   1      38.944  29.209  28.002  1.00  0.00     0.173 A 
ATOM     64  F   UNL A   1      40.101  28.171  31.291  1.00  0.00    -0.203 F 
ATOM     65  C   UNL A   1      37.998  28.969  30.601  1.00  0.00     0.198 A 
ATOM     66  C   UNL A   1      37.637  29.578  28.307  1.00  0.00     0.198 A 
ATOM     67  F   UNL A   1      39.372  29.336  26.737  1.00  0.00    -0.203 F 
ATOM     68  F   UNL A   1      37.534  28.828  31.850  1.00  0.00    -0.200 F 
ATOM     69  C   UNL A   1      37.163  29.455  29.604  1.00  0.00     0.200 A 
ATOM     70  F   UNL A   1      36.838  30.062  27.345  1.00  0.00    -0.200 F 
ATOM     71  F   UNL A   1      35.903  29.805  29.895  1.00  0.00    -0.200 F 
ENDBRANCH  47  61
BRANCH  48  72
ATOM     72  C   UNL A   1      49.178  26.668  26.217  1.00  0.00     0.064 A 
ATOM     73  C   UNL A   1      50.171  26.216  27.099  1.00  0.00     0.173 A 
ATOM     74  C   UNL A   1      49.552  26.904  24.885  1.00  0.00     0.173 A 
ATOM     75  F   UNL A   1      49.870  25.993  28.387  1.00  0.00    -0.203 F 
ATOM     76  C   UNL A   1      51.489  26.050  26.678  1.00  0.00     0.198 A 
ATOM     77  C   UNL A   1      50.862  26.703  24.458  1.00  0.00     0.198 A 
ATOM     78  F   UNL A   1      48.641  27.330  23.998  1.00  0.00    -0.203 F 
ATOM     79  F   UNL A   1      52.430  25.686  27.560  1.00  0.00    -0.200 F 
ATOM     80  C   UNL A   1      51.833  26.292  25.358  1.00  0.00     0.200 A 
ATOM     81  F   UNL A   1      51.187  26.923  23.176  1.00  0.00    -0.200 F 
ATOM     82  F   UNL A   1      53.102  26.143  24.955  1.00  0.00    -0.200 F 
ENDBRANCH  48  72
BRANCH  60  83
ATOM     83  C   UNL A   1      46.025  32.351  28.721  1.00  0.00     0.064 A 
ATOM     84  C   UNL A   1      45.969  33.386  27.777  1.00  0.00     0.173 A 
ATOM     85  C   UNL A   1      46.526  32.652  29.996  1.00  0.00     0.173 A 
ATOM     86  F   UNL A   1      45.512  33.147  26.537  1.00  0.00    -0.203 F 
ATOM     87  C   UNL A   1      46.425  34.664  28.089  1.00  0.00     0.198 A 
ATOM     88  C   UNL A   1      46.947  33.938  30.316  1.00  0.00     0.198 A 
ATOM     89  F   UNL A   1      46.592  31.700  30.939  1.00  0.00    -0.203 F 
ATOM     90  F   UNL A   1      46.412  35.624  27.154  1.00  0.00    -0.200 F 
ATOM     91  C   UNL A   1      46.905  34.942  29.359  1.00  0.00     0.200 A 
ATOM     92  F   UNL A   1      47.395  34.208  31.551  1.00  0.00    -0.200 F 
ATOM     93  F   UNL A   1      47.334  36.174  29.661  1.00  0.00    -0.200 F 
ENDBRANCH  60  83
ENDBRANCH  34  35
ENDBRANCH  26  29
ENDBRANCH  24  25
ENDBRANCH  23  24
ENDBRANCH  22  23
ENDBRANCH   1  22
TORSDOF 18
ENDMDL
