MODEL 1
REMARK VINA RESULT:     -12.0      0.000      0.000
REMARK SMILES CSc1ccc(NS(=O)(=O)c2ccc(C(=O)NCCCCCCNC(=O)c3ccc(-c4c5nc(c(-c6c(F)c(F)c(F)c(F)c6F)c6ccc([nH]6)c(-c6c(F)c(F)c(F)c(F)c6F)c6nc(c(-c7c(F)c(F)c(F)c(F)c7F)c7ccc4[nH]7)C=C6)C=C5)cc3)cc2)cc1
REMARK SMILES IDX 19 1 18 2 17 3 15 4 16 5 14 7 11 8 12 9 91 10 13 11 90 12
REMARK SMILES IDX 8 13 9 14 10 15 7 16 6 18 3 19 4 20 93 21 5 22 92 23 2 24
REMARK SMILES IDX 1 25 20 26 21 27 22 28 23 29 24 30 25 31 26 33 27 34 28 35
REMARK SMILES IDX 89 36 29 37 88 38 30 39 31 40 32 41 82 42 33 43 87 44 81 45
REMARK SMILES IDX 83 46 34 47 86 48 80 49 79 50 35 52 67 53 47 54 66 55 48 56
REMARK SMILES IDX 51 57 65 58 84 59 49 60 50 61 64 63 85 64 52 65 36 66 37 67
REMARK SMILES IDX 45 68 38 69 39 70 43 71 46 72 40 73 41 74 44 75 42 76 68 77
REMARK SMILES IDX 69 78 77 79 70 80 71 81 75 82 78 83 72 84 73 85 76 86 74 87
REMARK SMILES IDX 53 88 54 89 62 90 55 91 56 92 60 93 63 94 57 95 58 96 61 97
REMARK SMILES IDX 59 98
REMARK H PARENT 17 6 7 17 24 32 83 51 51 62
REMARK Flexibility Score: inf
ROOT
ATOM      1  C   UNL A   1      39.369  23.000  26.656  1.00  0.00     0.021 C 
ENDROOT
BRANCH   1   2
ATOM      2  C   UNL A   1      38.037  23.588  26.197  1.00  0.00     0.116 C 
BRANCH   2   3
ATOM      3  N   UNL A   1      37.795  23.268  24.803  1.00  0.00    -0.352 N 
ATOM      4  C   UNL A   1      36.626  23.234  24.098  1.00  0.00     0.251 C 
ATOM      5  O   UNL A   1      36.642  23.017  22.889  1.00  0.00    -0.269 OA
ATOM      6  H   UNL A   1      38.601  23.042  24.284  1.00  0.00     0.163 HD
BRANCH   4   7
ATOM      7  C   UNL A   1      35.334  23.509  24.756  1.00  0.00     0.039 A 
ATOM      8  C   UNL A   1      32.829  24.179  25.755  1.00  0.00     0.087 A 
ATOM      9  C   UNL A   1      33.761  25.190  25.489  1.00  0.00     0.023 A 
ATOM     10  C   UNL A   1      33.162  22.830  25.583  1.00  0.00     0.023 A 
ATOM     11  C   UNL A   1      35.004  24.853  24.967  1.00  0.00     0.015 A 
ATOM     12  C   UNL A   1      34.419  22.495  25.068  1.00  0.00     0.015 A 
BRANCH   8  13
ATOM     13  S   UNL A   1      31.185  24.647  26.242  1.00  0.00     0.261 S 
ATOM     14  O   UNL A   1      31.204  26.029  26.660  1.00  0.00    -0.201 OA
ATOM     15  O   UNL A   1      30.674  23.614  27.125  1.00  0.00    -0.201 OA
BRANCH  13  16
ATOM     16  N   UNL A   1      30.284  24.537  24.798  1.00  0.00    -0.280 N 
ATOM     17  H   UNL A   1      29.942  23.674  24.470  1.00  0.00     0.180 HD
BRANCH  16  18
ATOM     18  C   UNL A   1      30.047  25.754  24.082  1.00  0.00     0.049 A 
ATOM     19  C   UNL A   1      29.710  28.223  22.798  1.00  0.00     0.007 A 
ATOM     20  C   UNL A   1      30.935  27.557  22.732  1.00  0.00     0.017 A 
ATOM     21  C   UNL A   1      28.649  27.634  23.495  1.00  0.00     0.017 A 
ATOM     22  C   UNL A   1      31.100  26.323  23.364  1.00  0.00     0.028 A 
ATOM     23  C   UNL A   1      28.821  26.408  24.153  1.00  0.00     0.028 A 
BRANCH  19  24
ATOM     24  S   UNL A   1      29.465  29.777  21.961  1.00  0.00    -0.130 SA
ATOM     25  C   UNL A   1      27.773  30.159  22.497  1.00  0.00     0.091 C 
ENDBRANCH  19  24
ENDBRANCH  16  18
ENDBRANCH  13  16
ENDBRANCH   8  13
ENDBRANCH   4   7
ENDBRANCH   2   3
ENDBRANCH   1   2
BRANCH   1  26
ATOM     26  C   UNL A   1      39.656  21.598  26.099  1.00  0.00     0.002 C 
BRANCH  26  27
ATOM     27  C   UNL A   1      40.747  20.815  26.837  1.00  0.00     0.002 C 
BRANCH  27  28
ATOM     28  C   UNL A   1      41.158  19.493  26.179  1.00  0.00     0.021 C 
BRANCH  28  29
ATOM     29  C   UNL A   1      42.556  19.003  26.547  1.00  0.00     0.116 C 
BRANCH  29  30
ATOM     30  N   UNL A   1      43.373  18.755  25.372  1.00  0.00    -0.352 N 
ATOM     31  C   UNL A   1      44.093  19.636  24.608  1.00  0.00     0.251 C 
ATOM     32  H   UNL A   1      43.417  17.816  25.082  1.00  0.00     0.163 HD
ATOM     33  O   UNL A   1      44.570  19.269  23.538  1.00  0.00    -0.269 OA
BRANCH  31  34
ATOM     34  C   UNL A   1      44.292  21.032  25.055  1.00  0.00     0.039 A 
ATOM     35  C   UNL A   1      45.310  21.297  25.976  1.00  0.00     0.014 A 
ATOM     36  C   UNL A   1      43.454  22.064  24.624  1.00  0.00     0.014 A 
ATOM     37  C   UNL A   1      45.505  22.598  26.442  1.00  0.00     0.010 A 
ATOM     38  C   UNL A   1      43.687  23.374  25.041  1.00  0.00     0.010 A 
ATOM     39  C   UNL A   1      44.704  23.650  25.968  1.00  0.00    -0.014 A 
BRANCH  39  40
ATOM     40  C   UNL A   1      44.914  25.034  26.460  1.00  0.00     0.031 A 
ATOM     41  C   UNL A   1      46.266  25.682  26.351  1.00  0.00     0.074 A 
ATOM     42  C   UNL A   1      43.889  25.700  27.024  1.00  0.00     0.049 A 
ATOM     43  N   UNL A   1      46.638  26.888  26.703  1.00  0.00    -0.248 NA
ATOM     44  C   UNL A   1      47.354  24.859  25.798  1.00  0.00     0.031 C 
ATOM     45  C   UNL A   1      42.547  25.158  27.236  1.00  0.00     0.029 A 
ATOM     46  N   UNL A   1      43.816  26.978  27.518  1.00  0.00    -0.354 N 
ATOM     47  C   UNL A   1      47.996  26.964  26.421  1.00  0.00     0.074 A 
ATOM     48  C   UNL A   1      48.396  25.667  25.920  1.00  0.00     0.031 C 
ATOM     49  C   UNL A   1      41.774  26.107  27.791  1.00  0.00     0.029 A 
ATOM     50  C   UNL A   1      42.571  27.313  27.989  1.00  0.00     0.049 A 
ATOM     51  H   UNL A   1      44.584  27.594  27.534  1.00  0.00     0.167 HD
ATOM     52  C   UNL A   1      48.828  28.025  26.547  1.00  0.00     0.037 A 
ATOM     53  C   UNL A   1      42.122  28.471  28.510  1.00  0.00     0.037 A 
ATOM     54  C   UNL A   1      48.420  29.322  27.020  1.00  0.00     0.049 A 
ATOM     55  C   UNL A   1      43.056  29.646  28.602  1.00  0.00     0.074 A 
ATOM     56  C   UNL A   1      49.174  30.477  27.137  1.00  0.00     0.029 A 
ATOM     57  N   UNL A   1      47.140  29.635  27.456  1.00  0.00    -0.354 N 
ATOM     58  N   UNL A   1      44.319  29.728  28.264  1.00  0.00    -0.248 NA
ATOM     59  C   UNL A   1      42.493  30.896  29.131  1.00  0.00     0.031 C 
ATOM     60  C   UNL A   1      48.357  31.480  27.673  1.00  0.00     0.029 A 
ATOM     61  C   UNL A   1      47.085  30.962  27.850  1.00  0.00     0.049 A 
ATOM     62  H   UNL A   1      46.382  29.007  27.480  1.00  0.00     0.167 HD
ATOM     63  C   UNL A   1      44.695  31.041  28.511  1.00  0.00     0.074 A 
ATOM     64  C   UNL A   1      43.521  31.724  29.013  1.00  0.00     0.031 C 
ATOM     65  C   UNL A   1      45.906  31.627  28.338  1.00  0.00     0.037 A 
BRANCH  52  66
ATOM     66  C   UNL A   1      50.264  27.830  26.156  1.00  0.00     0.064 A 
ATOM     67  C   UNL A   1      51.261  27.606  27.117  1.00  0.00     0.173 A 
ATOM     68  C   UNL A   1      50.643  27.835  24.805  1.00  0.00     0.173 A 
ATOM     69  F   UNL A   1      50.952  27.604  28.422  1.00  0.00    -0.203 F 
ATOM     70  C   UNL A   1      52.589  27.422  26.742  1.00  0.00     0.198 A 
ATOM     71  C   UNL A   1      51.968  27.624  24.433  1.00  0.00     0.198 A 
ATOM     72  F   UNL A   1      49.729  28.040  23.846  1.00  0.00    -0.203 F 
ATOM     73  F   UNL A   1      53.532  27.257  27.681  1.00  0.00    -0.200 F 
ATOM     74  C   UNL A   1      52.941  27.425  25.400  1.00  0.00     0.200 A 
ATOM     75  F   UNL A   1      52.305  27.616  23.135  1.00  0.00    -0.200 F 
ATOM     76  F   UNL A   1      54.220  27.243  25.042  1.00  0.00    -0.200 F 
ENDBRANCH  52  66
BRANCH  53  77
ATOM     77  C   UNL A   1      40.702  28.589  28.931  1.00  0.00     0.064 A 
ATOM     78  C   UNL A   1      39.718  29.012  28.028  1.00  0.00     0.173 A 
ATOM     79  C   UNL A   1      40.302  28.278  30.238  1.00  0.00     0.173 A 
ATOM     80  F   UNL A   1      40.058  29.336  26.772  1.00  0.00    -0.203 F 
ATOM     81  C   UNL A   1      38.387  29.139  28.420  1.00  0.00     0.198 A 
ATOM     82  C   UNL A   1      38.966  28.381  30.622  1.00  0.00     0.198 A 
ATOM     83  F   UNL A   1      41.204  27.862  31.137  1.00  0.00    -0.203 F 
ATOM     84  F   UNL A   1      37.474  29.583  27.548  1.00  0.00    -0.200 F 
ATOM     85  C   UNL A   1      38.012  28.818  29.716  1.00  0.00     0.200 A 
ATOM     86  F   UNL A   1      38.605  28.057  31.872  1.00  0.00    -0.200 F 
ATOM     87  F   UNL A   1      36.731  28.936  30.092  1.00  0.00    -0.200 F 
ENDBRANCH  53  77
BRANCH  65  88
ATOM     88  C   UNL A   1      46.007  33.090  28.660  1.00  0.00     0.064 A 
ATOM     89  C   UNL A   1      46.366  33.538  29.939  1.00  0.00     0.173 A 
ATOM     90  C   UNL A   1      45.762  34.052  27.668  1.00  0.00     0.173 A 
ATOM     91  F   UNL A   1      46.596  32.656  30.924  1.00  0.00    -0.203 F 
ATOM     92  C   UNL A   1      46.447  34.899  30.223  1.00  0.00     0.198 A 
ATOM     93  C   UNL A   1      45.870  35.411  27.949  1.00  0.00     0.198 A 
ATOM     94  F   UNL A   1      45.422  33.673  26.428  1.00  0.00    -0.203 F 
ATOM     95  F   UNL A   1      46.741  35.306  31.465  1.00  0.00    -0.200 F 
ATOM     96  C   UNL A   1      46.203  35.833  29.227  1.00  0.00     0.200 A 
ATOM     97  F   UNL A   1      45.646  36.312  26.983  1.00  0.00    -0.200 F 
ATOM     98  F   UNL A   1      46.282  37.142  29.502  1.00  0.00    -0.200 F 
ENDBRANCH  65  88
ENDBRANCH  39  40
ENDBRANCH  31  34
ENDBRANCH  29  30
ENDBRANCH  28  29
ENDBRANCH  27  28
ENDBRANCH  26  27
ENDBRANCH   1  26
TORSDOF 17
ENDMDL
MODEL 2
REMARK VINA RESULT:     -11.9      0.619      1.751
REMARK SMILES CSc1ccc(NS(=O)(=O)c2ccc(C(=O)NCCCCCCNC(=O)c3ccc(-c4c5nc(c(-c6c(F)c(F)c(F)c(F)c6F)c6ccc([nH]6)c(-c6c(F)c(F)c(F)c(F)c6F)c6nc(c(-c7c(F)c(F)c(F)c(F)c7F)c7ccc4[nH]7)C=C6)C=C5)cc3)cc2)cc1
REMARK SMILES IDX 19 1 18 2 17 3 15 4 16 5 14 7 11 8 12 9 91 10 13 11 90 12
REMARK SMILES IDX 8 13 9 14 10 15 7 16 6 18 3 19 4 20 93 21 5 22 92 23 2 24
REMARK SMILES IDX 1 25 20 26 21 27 22 28 23 29 24 30 25 31 26 33 27 34 28 35
REMARK SMILES IDX 89 36 29 37 88 38 30 39 31 40 32 41 82 42 33 43 87 44 81 45
REMARK SMILES IDX 83 46 34 47 86 48 80 49 79 50 35 52 67 53 47 54 66 55 48 56
REMARK SMILES IDX 51 57 65 58 84 59 49 60 50 61 64 63 85 64 52 65 36 66 37 67
REMARK SMILES IDX 45 68 38 69 39 70 43 71 46 72 40 73 41 74 44 75 42 76 68 77
REMARK SMILES IDX 69 78 77 79 70 80 71 81 75 82 78 83 72 84 73 85 76 86 74 87
REMARK SMILES IDX 53 88 54 89 62 90 55 91 56 92 60 93 63 94 57 95 58 96 61 97
REMARK SMILES IDX 59 98
REMARK H PARENT 17 6 7 17 24 32 83 51 51 62
REMARK Flexibility Score: inf
ROOT
ATOM      1  C   UNL A   1      40.027  22.927  27.288  1.00  0.00     0.021 C 
ENDROOT
BRANCH   1   2
ATOM      2  C   UNL A   1      38.812  23.404  26.495  1.00  0.00     0.116 C 
BRANCH   2   3
ATOM      3  N   UNL A   1      38.436  22.416  25.501  1.00  0.00    -0.352 N 
ATOM      4  C   UNL A   1      37.212  22.121  24.973  1.00  0.00     0.251 C 
ATOM      5  O   UNL A   1      37.114  21.295  24.070  1.00  0.00    -0.269 OA
ATOM      6  H   UNL A   1      39.181  21.875  25.153  1.00  0.00     0.163 HD
BRANCH   4   7
ATOM      7  C   UNL A   1      35.997  22.823  25.432  1.00  0.00     0.039 A 
ATOM      8  C   UNL A   1      33.601  24.097  26.030  1.00  0.00     0.087 A 
ATOM      9  C   UNL A   1      34.433  24.621  25.034  1.00  0.00     0.023 A 
ATOM     10  C   UNL A   1      33.987  22.974  26.774  1.00  0.00     0.023 A 
ATOM     11  C   UNL A   1      35.620  23.968  24.720  1.00  0.00     0.015 A 
ATOM     12  C   UNL A   1      35.188  22.327  26.463  1.00  0.00     0.015 A 
BRANCH   8  13
ATOM     13  S   UNL A   1      32.006  24.839  26.282  1.00  0.00     0.261 S 
ATOM     14  O   UNL A   1      32.186  26.256  26.493  1.00  0.00    -0.201 OA
ATOM     15  O   UNL A   1      31.289  24.031  27.251  1.00  0.00    -0.201 OA
BRANCH  13  16
ATOM     16  N   UNL A   1      31.212  24.617  24.788  1.00  0.00    -0.280 N 
ATOM     17  H   UNL A   1      31.047  23.719  24.422  1.00  0.00     0.180 HD
BRANCH  16  18
ATOM     18  C   UNL A   1      30.798  25.796  24.088  1.00  0.00     0.049 A 
ATOM     19  C   UNL A   1      30.113  28.202  22.823  1.00  0.00     0.007 A 
ATOM     20  C   UNL A   1      31.388  27.657  22.656  1.00  0.00     0.017 A 
ATOM     21  C   UNL A   1      29.178  27.523  23.612  1.00  0.00     0.017 A 
ATOM     22  C   UNL A   1      31.725  26.453  23.278  1.00  0.00     0.028 A 
ATOM     23  C   UNL A   1      29.524  26.329  24.260  1.00  0.00     0.028 A 
BRANCH  19  24
ATOM     24  S   UNL A   1      29.648  29.713  22.001  1.00  0.00    -0.130 SA
ATOM     25  C   UNL A   1      29.132  30.703  23.433  1.00  0.00     0.091 C 
ENDBRANCH  19  24
ENDBRANCH  16  18
ENDBRANCH  13  16
ENDBRANCH   8  13
ENDBRANCH   4   7
ENDBRANCH   2   3
ENDBRANCH   1   2
BRANCH   1  26
ATOM     26  C   UNL A   1      41.022  22.100  26.463  1.00  0.00     0.002 C 
BRANCH  26  27
ATOM     27  C   UNL A   1      41.459  20.777  27.104  1.00  0.00     0.002 C 
BRANCH  27  28
ATOM     28  C   UNL A   1      41.679  19.620  26.125  1.00  0.00     0.021 C 
BRANCH  28  29
ATOM     29  C   UNL A   1      42.995  18.869  26.306  1.00  0.00     0.116 C 
BRANCH  29  30
ATOM     30  N   UNL A   1      43.721  18.732  25.056  1.00  0.00    -0.352 N 
ATOM     31  C   UNL A   1      44.356  19.687  24.306  1.00  0.00     0.251 C 
ATOM     32  H   UNL A   1      43.764  17.818  24.693  1.00  0.00     0.163 HD
ATOM     33  O   UNL A   1      44.754  19.414  23.177  1.00  0.00    -0.269 OA
BRANCH  31  34
ATOM     34  C   UNL A   1      44.556  21.052  24.840  1.00  0.00     0.039 A 
ATOM     35  C   UNL A   1      44.054  22.133  24.109  1.00  0.00     0.014 A 
ATOM     36  C   UNL A   1      45.278  21.279  26.015  1.00  0.00     0.014 A 
ATOM     37  C   UNL A   1      44.252  23.435  24.569  1.00  0.00     0.010 A 
ATOM     38  C   UNL A   1      45.423  22.576  26.507  1.00  0.00     0.010 A 
ATOM     39  C   UNL A   1      44.926  23.667  25.779  1.00  0.00    -0.014 A 
BRANCH  39  40
ATOM     40  C   UNL A   1      45.132  25.052  26.271  1.00  0.00     0.031 A 
ATOM     41  C   UNL A   1      46.488  25.696  26.181  1.00  0.00     0.074 A 
ATOM     42  C   UNL A   1      44.101  25.722  26.817  1.00  0.00     0.049 A 
ATOM     43  N   UNL A   1      46.857  26.902  26.536  1.00  0.00    -0.248 NA
ATOM     44  C   UNL A   1      47.581  24.869  25.647  1.00  0.00     0.031 C 
ATOM     45  C   UNL A   1      42.754  25.184  27.010  1.00  0.00     0.029 A 
ATOM     46  N   UNL A   1      44.023  27.001  27.308  1.00  0.00    -0.354 N 
ATOM     47  C   UNL A   1      48.219  26.974  26.275  1.00  0.00     0.074 A 
ATOM     48  C   UNL A   1      48.624  25.675  25.784  1.00  0.00     0.031 C 
ATOM     49  C   UNL A   1      41.975  26.136  27.551  1.00  0.00     0.029 A 
ATOM     50  C   UNL A   1      42.772  27.341  27.759  1.00  0.00     0.049 A 
ATOM     51  H   UNL A   1      44.792  27.616  27.334  1.00  0.00     0.167 HD
ATOM     52  C   UNL A   1      49.052  28.033  26.411  1.00  0.00     0.037 A 
ATOM     53  C   UNL A   1      42.318  28.501  28.270  1.00  0.00     0.037 A 
ATOM     54  C   UNL A   1      48.640  29.333  26.875  1.00  0.00     0.049 A 
ATOM     55  C   UNL A   1      43.253  29.674  28.374  1.00  0.00     0.074 A 
ATOM     56  C   UNL A   1      49.395  30.486  27.001  1.00  0.00     0.029 A 
ATOM     57  N   UNL A   1      47.355  29.649  27.290  1.00  0.00    -0.354 N 
ATOM     58  N   UNL A   1      44.521  29.752  28.054  1.00  0.00    -0.248 NA
ATOM     59  C   UNL A   1      42.686  30.927  28.891  1.00  0.00     0.031 C 
ATOM     60  C   UNL A   1      48.573  31.492  27.522  1.00  0.00     0.029 A 
ATOM     61  C   UNL A   1      47.297  30.978  27.681  1.00  0.00     0.049 A 
ATOM     62  H   UNL A   1      46.595  29.023  27.305  1.00  0.00     0.167 HD
ATOM     63  C   UNL A   1      44.897  31.064  28.304  1.00  0.00     0.074 A 
ATOM     64  C   UNL A   1      43.718  31.751  28.787  1.00  0.00     0.031 C 
ATOM     65  C   UNL A   1      46.112  31.647  28.149  1.00  0.00     0.037 A 
BRANCH  52  66
ATOM     66  C   UNL A   1      50.493  27.833  26.043  1.00  0.00     0.064 A 
ATOM     67  C   UNL A   1      50.930  27.925  24.713  1.00  0.00     0.173 A 
ATOM     68  C   UNL A   1      51.454  27.579  27.033  1.00  0.00     0.173 A 
ATOM     69  F   UNL A   1      50.049  28.155  23.728  1.00  0.00    -0.203 F 
ATOM     70  C   UNL A   1      52.270  27.742  24.384  1.00  0.00     0.198 A 
ATOM     71  C   UNL A   1      52.798  27.423  26.703  1.00  0.00     0.198 A 
ATOM     72  F   UNL A   1      51.091  27.485  28.321  1.00  0.00    -0.203 F 
ATOM     73  F   UNL A   1      52.656  27.787  23.101  1.00  0.00    -0.200 F 
ATOM     74  C   UNL A   1      53.205  27.497  25.380  1.00  0.00     0.200 A 
ATOM     75  F   UNL A   1      53.702  27.198  27.668  1.00  0.00    -0.200 F 
ATOM     76  F   UNL A   1      54.495  27.326  25.062  1.00  0.00    -0.200 F 
ENDBRANCH  52  66
BRANCH  53  77
ATOM     77  C   UNL A   1      40.892  28.624  28.668  1.00  0.00     0.064 A 
ATOM     78  C   UNL A   1      40.482  28.325  29.974  1.00  0.00     0.173 A 
ATOM     79  C   UNL A   1      39.914  29.045  27.755  1.00  0.00     0.173 A 
ATOM     80  F   UNL A   1      41.381  27.902  30.876  1.00  0.00    -0.203 F 
ATOM     81  C   UNL A   1      39.145  28.425  30.350  1.00  0.00     0.198 A 
ATOM     82  C   UNL A   1      38.581  29.169  28.139  1.00  0.00     0.198 A 
ATOM     83  F   UNL A   1      40.257  29.349  26.495  1.00  0.00    -0.203 F 
ATOM     84  F   UNL A   1      38.775  28.095  31.594  1.00  0.00    -0.200 F 
ATOM     85  C   UNL A   1      38.195  28.852  29.433  1.00  0.00     0.200 A 
ATOM     86  F   UNL A   1      37.668  29.594  27.254  1.00  0.00    -0.200 F 
ATOM     87  F   UNL A   1      36.910  28.951  29.796  1.00  0.00    -0.200 F 
ENDBRANCH  53  77
BRANCH  65  88
ATOM     88  C   UNL A   1      46.212  33.110  28.469  1.00  0.00     0.064 A 
ATOM     89  C   UNL A   1      46.569  33.560  29.748  1.00  0.00     0.173 A 
ATOM     90  C   UNL A   1      45.969  34.070  27.475  1.00  0.00     0.173 A 
ATOM     91  F   UNL A   1      46.797  32.680  30.735  1.00  0.00    -0.203 F 
ATOM     92  C   UNL A   1      46.648  34.921  30.030  1.00  0.00     0.198 A 
ATOM     93  C   UNL A   1      46.076  35.430  27.754  1.00  0.00     0.198 A 
ATOM     94  F   UNL A   1      45.632  33.690  26.235  1.00  0.00    -0.203 F 
ATOM     95  F   UNL A   1      46.940  35.330  31.272  1.00  0.00    -0.200 F 
ATOM     96  C   UNL A   1      46.407  35.854  29.032  1.00  0.00     0.200 A 
ATOM     97  F   UNL A   1      45.853  36.330  26.787  1.00  0.00    -0.200 F 
ATOM     98  F   UNL A   1      46.484  37.164  29.306  1.00  0.00    -0.200 F 
ENDBRANCH  65  88
ENDBRANCH  39  40
ENDBRANCH  31  34
ENDBRANCH  29  30
ENDBRANCH  28  29
ENDBRANCH  27  28
ENDBRANCH  26  27
ENDBRANCH   1  26
TORSDOF 17
ENDMDL
MODEL 3
REMARK VINA RESULT:     -11.9      2.035      3.254
REMARK SMILES CSc1ccc(NS(=O)(=O)c2ccc(C(=O)NCCCCCCNC(=O)c3ccc(-c4c5nc(c(-c6c(F)c(F)c(F)c(F)c6F)c6ccc([nH]6)c(-c6c(F)c(F)c(F)c(F)c6F)c6nc(c(-c7c(F)c(F)c(F)c(F)c7F)c7ccc4[nH]7)C=C6)C=C5)cc3)cc2)cc1
REMARK SMILES IDX 19 1 18 2 17 3 15 4 16 5 14 7 11 8 12 9 91 10 13 11 90 12
REMARK SMILES IDX 8 13 9 14 10 15 7 16 6 18 3 19 4 20 93 21 5 22 92 23 2 24
REMARK SMILES IDX 1 25 20 26 21 27 22 28 23 29 24 30 25 31 26 33 27 34 28 35
REMARK SMILES IDX 89 36 29 37 88 38 30 39 31 40 32 41 82 42 33 43 87 44 81 45
REMARK SMILES IDX 83 46 34 47 86 48 80 49 79 50 35 52 67 53 47 54 66 55 48 56
REMARK SMILES IDX 51 57 65 58 84 59 49 60 50 61 64 63 85 64 52 65 36 66 37 67
REMARK SMILES IDX 45 68 38 69 39 70 43 71 46 72 40 73 41 74 44 75 42 76 68 77
REMARK SMILES IDX 69 78 77 79 70 80 71 81 75 82 78 83 72 84 73 85 76 86 74 87
REMARK SMILES IDX 53 88 54 89 62 90 55 91 56 92 60 93 63 94 57 95 58 96 61 97
REMARK SMILES IDX 59 98
REMARK H PARENT 17 6 7 17 24 32 83 51 51 62
REMARK Flexibility Score: inf
ROOT
ATOM      1  C   UNL A   1      40.471  22.665  27.551  1.00  0.00     0.021 C 
ENDROOT
BRANCH   1   2
ATOM      2  C   UNL A   1      39.383  22.882  26.501  1.00  0.00     0.116 C 
BRANCH   2   3
ATOM      3  N   UNL A   1      38.895  21.608  26.008  1.00  0.00    -0.352 N 
ATOM      4  C   UNL A   1      37.778  21.318  25.277  1.00  0.00     0.251 C 
ATOM      5  O   UNL A   1      37.581  20.172  24.883  1.00  0.00    -0.269 OA
ATOM      6  H   UNL A   1      39.456  20.832  26.235  1.00  0.00     0.163 HD
BRANCH   4   7
ATOM      7  C   UNL A   1      36.821  22.377  24.900  1.00  0.00     0.039 A 
ATOM      8  C   UNL A   1      34.850  24.156  24.081  1.00  0.00     0.087 A 
ATOM      9  C   UNL A   1      35.535  23.396  23.126  1.00  0.00     0.023 A 
ATOM     10  C   UNL A   1      35.184  24.077  25.440  1.00  0.00     0.023 A 
ATOM     11  C   UNL A   1      36.504  22.489  23.541  1.00  0.00     0.015 A 
ATOM     12  C   UNL A   1      36.168  23.172  25.851  1.00  0.00     0.015 A 
BRANCH   8  13
ATOM     13  S   UNL A   1      33.489  25.166  23.546  1.00  0.00     0.261 S 
ATOM     14  O   UNL A   1      33.482  25.201  22.102  1.00  0.00    -0.201 OA
ATOM     15  O   UNL A   1      33.520  26.396  24.315  1.00  0.00    -0.201 OA
BRANCH  13  16
ATOM     16  N   UNL A   1      32.111  24.306  24.066  1.00  0.00    -0.280 N 
ATOM     17  H   UNL A   1      31.325  24.769  24.436  1.00  0.00     0.180 HD
BRANCH  16  18
ATOM     18  C   UNL A   1      32.147  22.880  23.944  1.00  0.00     0.049 A 
ATOM     19  C   UNL A   1      32.402  20.094  23.761  1.00  0.00     0.007 A 
ATOM     20  C   UNL A   1      32.489  20.728  25.001  1.00  0.00     0.017 A 
ATOM     21  C   UNL A   1      32.166  20.863  22.615  1.00  0.00     0.017 A 
ATOM     22  C   UNL A   1      32.353  22.115  25.093  1.00  0.00     0.028 A 
ATOM     23  C   UNL A   1      32.056  22.257  22.702  1.00  0.00     0.028 A 
BRANCH  19  24
ATOM     24  S   UNL A   1      32.528  18.322  23.627  1.00  0.00    -0.130 SA
ATOM     25  C   UNL A   1      32.680  17.884  25.382  1.00  0.00     0.091 C 
ENDBRANCH  19  24
ENDBRANCH  16  18
ENDBRANCH  13  16
ENDBRANCH   8  13
ENDBRANCH   4   7
ENDBRANCH   2   3
ENDBRANCH   1   2
BRANCH   1  26
ATOM     26  C   UNL A   1      40.985  21.221  27.626  1.00  0.00     0.002 C 
BRANCH  26  27
ATOM     27  C   UNL A   1      42.235  20.929  26.788  1.00  0.00     0.002 C 
BRANCH  27  28
ATOM     28  C   UNL A   1      42.198  19.618  25.996  1.00  0.00     0.021 C 
BRANCH  28  29
ATOM     29  C   UNL A   1      43.465  18.774  26.096  1.00  0.00     0.116 C 
BRANCH  29  30
ATOM     30  N   UNL A   1      44.115  18.611  24.807  1.00  0.00    -0.352 N 
ATOM     31  C   UNL A   1      44.678  19.554  23.987  1.00  0.00     0.251 C 
ATOM     32  H   UNL A   1      44.156  17.686  24.471  1.00  0.00     0.163 HD
ATOM     33  O   UNL A   1      45.011  19.251  22.845  1.00  0.00    -0.269 OA
BRANCH  31  34
ATOM     34  C   UNL A   1      44.880  20.940  24.464  1.00  0.00     0.039 A 
ATOM     35  C   UNL A   1      45.600  21.140  25.645  1.00  0.00     0.014 A 
ATOM     36  C   UNL A   1      44.321  22.032  23.792  1.00  0.00     0.014 A 
ATOM     37  C   UNL A   1      45.782  22.432  26.138  1.00  0.00     0.010 A 
ATOM     38  C   UNL A   1      44.555  23.328  24.251  1.00  0.00     0.010 A 
ATOM     39  C   UNL A   1      45.273  23.539  25.438  1.00  0.00    -0.014 A 
BRANCH  39  40
ATOM     40  C   UNL A   1      45.471  24.914  25.960  1.00  0.00     0.031 A 
ATOM     41  C   UNL A   1      46.820  25.571  25.875  1.00  0.00     0.074 A 
ATOM     42  C   UNL A   1      44.438  25.562  26.529  1.00  0.00     0.049 A 
ATOM     43  N   UNL A   1      47.182  26.772  26.255  1.00  0.00    -0.248 NA
ATOM     44  C   UNL A   1      47.917  24.766  25.314  1.00  0.00     0.031 C 
ATOM     45  C   UNL A   1      43.098  25.008  26.720  1.00  0.00     0.029 A 
ATOM     46  N   UNL A   1      44.353  26.829  27.049  1.00  0.00    -0.354 N 
ATOM     47  C   UNL A   1      48.542  26.862  25.986  1.00  0.00     0.074 A 
ATOM     48  C   UNL A   1      48.953  25.578  25.461  1.00  0.00     0.031 C 
ATOM     49  C   UNL A   1      42.315  25.940  27.288  1.00  0.00     0.029 A 
ATOM     50  C   UNL A   1      43.103  27.147  27.517  1.00  0.00     0.049 A 
ATOM     51  H   UNL A   1      45.117  27.449  27.084  1.00  0.00     0.167 HD
ATOM     52  C   UNL A   1      49.366  27.925  26.139  1.00  0.00     0.037 A 
ATOM     53  C   UNL A   1      42.642  28.291  28.058  1.00  0.00     0.037 A 
ATOM     54  C   UNL A   1      48.946  29.210  26.636  1.00  0.00     0.049 A 
ATOM     55  C   UNL A   1      43.568  29.469  28.182  1.00  0.00     0.074 A 
ATOM     56  C   UNL A   1      49.692  30.367  26.783  1.00  0.00     0.029 A 
ATOM     57  N   UNL A   1      47.661  29.506  27.068  1.00  0.00    -0.354 N 
ATOM     58  N   UNL A   1      44.833  29.566  27.855  1.00  0.00    -0.248 NA
ATOM     59  C   UNL A   1      42.994  30.705  28.732  1.00  0.00     0.031 C 
ATOM     60  C   UNL A   1      48.866  31.354  27.333  1.00  0.00     0.029 A 
ATOM     61  C   UNL A   1      47.596  30.825  27.489  1.00  0.00     0.049 A 
ATOM     62  H   UNL A   1      46.907  28.873  27.074  1.00  0.00     0.167 HD
ATOM     63  C   UNL A   1      45.200  30.875  28.132  1.00  0.00     0.074 A 
ATOM     64  C   UNL A   1      44.018  31.541  28.640  1.00  0.00     0.031 C 
ATOM     65  C   UNL A   1      46.408  31.473  27.982  1.00  0.00     0.037 A 
BRANCH  52  66
ATOM     66  C   UNL A   1      50.806  27.747  25.756  1.00  0.00     0.064 A 
ATOM     67  C   UNL A   1      51.781  27.408  26.707  1.00  0.00     0.173 A 
ATOM     68  C   UNL A   1      51.211  27.885  24.420  1.00  0.00     0.173 A 
ATOM     69  F   UNL A   1      51.447  27.276  27.999  1.00  0.00    -0.203 F 
ATOM     70  C   UNL A   1      53.113  27.241  26.338  1.00  0.00     0.198 A 
ATOM     71  C   UNL A   1      52.540  27.690  24.052  1.00  0.00     0.198 A 
ATOM     72  F   UNL A   1      50.319  28.203  23.471  1.00  0.00    -0.203 F 
ATOM     73  F   UNL A   1      54.035  26.964  27.271  1.00  0.00    -0.200 F 
ATOM     74  C   UNL A   1      53.491  27.376  25.010  1.00  0.00     0.200 A 
ATOM     75  F   UNL A   1      52.902  27.809  22.766  1.00  0.00    -0.200 F 
ATOM     76  F   UNL A   1      54.773  27.210  24.658  1.00  0.00    -0.200 F 
ENDBRANCH  52  66
BRANCH  53  77
ATOM     77  C   UNL A   1      41.218  28.392  28.470  1.00  0.00     0.064 A 
ATOM     78  C   UNL A   1      40.807  27.975  29.743  1.00  0.00     0.173 A 
ATOM     79  C   UNL A   1      40.245  28.910  27.603  1.00  0.00     0.173 A 
ATOM     80  F   UNL A   1      41.701  27.458  30.598  1.00  0.00    -0.203 F 
ATOM     81  C   UNL A   1      39.471  28.055  30.129  1.00  0.00     0.198 A 
ATOM     82  C   UNL A   1      38.913  29.012  28.001  1.00  0.00     0.198 A 
ATOM     83  F   UNL A   1      40.589  29.328  26.377  1.00  0.00    -0.203 F 
ATOM     84  F   UNL A   1      39.099  27.612  31.337  1.00  0.00    -0.200 F 
ATOM     85  C   UNL A   1      38.526  28.578  29.259  1.00  0.00     0.200 A 
ATOM     86  F   UNL A   1      38.005  29.530  27.163  1.00  0.00    -0.200 F 
ATOM     87  F   UNL A   1      37.242  28.658  29.633  1.00  0.00    -0.200 F 
ENDBRANCH  53  77
BRANCH  65  88
ATOM     88  C   UNL A   1      46.498  32.929  28.334  1.00  0.00     0.064 A 
ATOM     89  C   UNL A   1      46.234  33.931  27.390  1.00  0.00     0.173 A 
ATOM     90  C   UNL A   1      46.830  33.322  29.639  1.00  0.00     0.173 A 
ATOM     91  F   UNL A   1      45.926  33.604  26.126  1.00  0.00    -0.203 F 
ATOM     92  C   UNL A   1      46.331  35.277  27.731  1.00  0.00     0.198 A 
ATOM     93  C   UNL A   1      46.899  34.669  29.984  1.00  0.00     0.198 A 
ATOM     94  F   UNL A   1      47.085  32.401  30.579  1.00  0.00    -0.203 F 
ATOM     95  F   UNL A   1      46.125  36.219  26.801  1.00  0.00    -0.200 F 
ATOM     96  C   UNL A   1      46.658  35.645  29.029  1.00  0.00     0.200 A 
ATOM     97  F   UNL A   1      47.204  35.022  31.240  1.00  0.00    -0.200 F 
ATOM     98  F   UNL A   1      46.750  36.941  29.355  1.00  0.00    -0.200 F 
ENDBRANCH  65  88
ENDBRANCH  39  40
ENDBRANCH  31  34
ENDBRANCH  29  30
ENDBRANCH  28  29
ENDBRANCH  27  28
ENDBRANCH  26  27
ENDBRANCH   1  26
TORSDOF 17
ENDMDL
