MODEL 1
REMARK VINA RESULT:     -11.2      0.000      0.000
REMARK SMILES C[C@@H]1SCCC[C@H]1[N@H+]1CCC[C@H](CCC(=O)NCCCCCCNC(=O)c2ccc(-c3c4nc(c(-c5c(F)c(F)c(F)c(F)c5F)c5ccc([nH]5)c(-c5c(F)c(F)c(F)c(F)c5F)c5nc(c(-c6c(F)c(F)c(F)c(F)c6F)c6ccc3[nH]6)C=C5)C=C4)cc2)C1
REMARK SMILES IDX 20 1 19 2 18 3 17 4 15 5 16 6 14 8 13 9 12 10 8 11 9 12
REMARK SMILES IDX 90 13 10 15 11 16 7 17 1 18 2 19 3 20 4 21 6 22 5 23 21 24
REMARK SMILES IDX 22 25 23 26 24 27 25 28 26 30 27 31 28 32 89 33 29 34 88 35
REMARK SMILES IDX 30 36 31 37 32 38 82 39 33 40 87 41 81 42 83 43 34 44 86 45
REMARK SMILES IDX 80 46 79 47 35 49 67 50 47 51 66 52 48 53 51 54 65 55 84 56
REMARK SMILES IDX 49 57 50 58 64 60 85 61 52 62 36 63 37 64 45 65 38 66 39 67
REMARK SMILES IDX 43 68 46 69 40 70 41 71 44 72 42 73 68 74 69 75 77 76 70 77
REMARK SMILES IDX 71 78 75 79 78 80 72 81 73 82 76 83 74 84 53 85 54 86 62 87
REMARK SMILES IDX 55 88 56 89 60 90 63 91 57 92 58 93 61 94 59 95
REMARK H PARENT 17 7 8 14 24 29 83 48 51 59
REMARK Flexibility Score: inf
ROOT
ATOM      1  C   UNL A   1      33.329  27.904  26.234  1.00  0.00     0.002 C 
ENDROOT
BRANCH   1   2
ATOM      2  C   UNL A   1      33.949  28.432  24.892  1.00  0.00     0.021 C 
BRANCH   2   3
ATOM      3  C   UNL A   1      33.518  28.136  23.441  1.00  0.00     0.116 C 
BRANCH   3   4
ATOM      4  N   UNL A   1      32.404  29.036  23.076  1.00  0.00    -0.356 N 
ATOM      5  C   UNL A   1      31.046  28.953  23.145  1.00  0.00     0.220 C 
ATOM      6  O   UNL A   1      30.396  29.765  22.477  1.00  0.00    -0.275 OA
ATOM      7  H   UNL A   1      32.714  29.890  22.696  1.00  0.00     0.163 HD
BRANCH   5   8
ATOM      8  C   UNL A   1      30.317  27.955  24.025  1.00  0.00     0.100 C 
BRANCH   8   9
ATOM      9  C   UNL A   1      30.168  26.558  23.398  1.00  0.00     0.019 C 
BRANCH   9  10
ATOM     10  C   UNL A   1      30.805  25.468  24.280  1.00  0.00     0.045 C 
ATOM     11  N   UNL A   1      31.390  23.077  24.470  1.00  0.00    -0.331 N 
ATOM     12  C   UNL A   1      30.768  22.944  25.781  1.00  0.00     0.262 C 
ATOM     13  C   UNL A   1      30.674  24.076  23.668  1.00  0.00     0.265 C 
ATOM     14  H   UNL A   1      31.272  22.167  24.025  1.00  0.00     0.348 HD
ATOM     15  C   UNL A   1      30.652  24.251  26.561  1.00  0.00     0.062 C 
ATOM     16  C   UNL A   1      30.224  25.454  25.709  1.00  0.00     0.015 C 
BRANCH  11  17
ATOM     17  C   UNL A   1      32.872  23.150  24.408  1.00  0.00     0.196 C 
ATOM     18  C   UNL A   1      34.914  24.536  25.328  1.00  0.00     0.026 C 
ATOM     19  C   UNL A   1      33.710  23.638  25.651  1.00  0.00     0.101 C 
ATOM     20  S   UNL A   1      34.271  22.358  26.829  1.00  0.00    -0.153 SA
ATOM     21  C   UNL A   1      34.866  21.117  25.666  1.00  0.00     0.070 C 
ATOM     22  C   UNL A   1      33.324  21.822  23.779  1.00  0.00     0.067 C 
ATOM     23  C   UNL A   1      33.754  20.710  24.719  1.00  0.00     0.017 C 
ENDBRANCH  11  17
ENDBRANCH   9  10
ENDBRANCH   8   9
ENDBRANCH   5   8
ENDBRANCH   3   4
ENDBRANCH   2   3
ENDBRANCH   1   2
BRANCH   1  24
ATOM     24  C   UNL A   1      32.345  28.614  27.191  1.00  0.00     0.002 C 
BRANCH  24  25
ATOM     25  C   UNL A   1      31.777  30.009  26.836  1.00  0.00     0.021 C 
BRANCH  25  26
ATOM     26  C   UNL A   1      32.661  31.192  26.389  1.00  0.00     0.116 C 
BRANCH  26  27
ATOM     27  N   UNL A   1      32.421  32.492  26.977  1.00  0.00    -0.352 N 
ATOM     28  C   UNL A   1      33.250  33.276  27.760  1.00  0.00     0.251 C 
ATOM     29  H   UNL A   1      31.533  32.877  26.791  1.00  0.00     0.163 HD
ATOM     30  O   UNL A   1      32.905  34.438  28.002  1.00  0.00    -0.269 OA
BRANCH  28  31
ATOM     31  C   UNL A   1      34.511  32.779  28.390  1.00  0.00     0.039 A 
ATOM     32  C   UNL A   1      34.402  31.781  29.369  1.00  0.00     0.014 A 
ATOM     33  C   UNL A   1      35.778  33.306  28.132  1.00  0.00     0.014 A 
ATOM     34  C   UNL A   1      35.539  31.273  30.023  1.00  0.00     0.010 A 
ATOM     35  C   UNL A   1      36.926  32.757  28.749  1.00  0.00     0.010 A 
ATOM     36  C   UNL A   1      36.829  31.728  29.700  1.00  0.00    -0.014 A 
BRANCH  36  37
ATOM     37  C   UNL A   1      38.036  31.130  30.372  1.00  0.00     0.031 A 
ATOM     38  C   UNL A   1      38.400  31.477  31.798  1.00  0.00     0.074 A 
ATOM     39  C   UNL A   1      38.821  30.248  29.712  1.00  0.00     0.049 A 
ATOM     40  N   UNL A   1      39.376  31.011  32.545  1.00  0.00    -0.248 NA
ATOM     41  C   UNL A   1      37.573  32.486  32.469  1.00  0.00     0.031 C 
ATOM     42  C   UNL A   1      38.640  29.837  28.320  1.00  0.00     0.029 A 
ATOM     43  N   UNL A   1      39.925  29.532  30.124  1.00  0.00    -0.354 N 
ATOM     44  C   UNL A   1      39.274  31.665  33.768  1.00  0.00     0.074 A 
ATOM     45  C   UNL A   1      38.182  32.607  33.641  1.00  0.00     0.031 C 
ATOM     46  C   UNL A   1      39.572  28.923  28.005  1.00  0.00     0.029 A 
ATOM     47  C   UNL A   1      40.444  28.703  29.157  1.00  0.00     0.049 A 
ATOM     48  H   UNL A   1      40.306  29.607  31.029  1.00  0.00     0.167 HD
ATOM     49  C   UNL A   1      39.996  31.485  34.903  1.00  0.00     0.037 A 
ATOM     50  C   UNL A   1      41.498  27.859  29.182  1.00  0.00     0.037 A 
ATOM     51  C   UNL A   1      41.079  30.546  35.055  1.00  0.00     0.049 A 
ATOM     52  C   UNL A   1      42.303  27.694  30.447  1.00  0.00     0.074 A 
ATOM     53  C   UNL A   1      41.830  30.271  36.186  1.00  0.00     0.029 A 
ATOM     54  N   UNL A   1      41.573  29.734  34.046  1.00  0.00    -0.354 N 
ATOM     55  N   UNL A   1      42.136  28.265  31.614  1.00  0.00    -0.248 NA
ATOM     56  C   UNL A   1      43.438  26.758  30.399  1.00  0.00     0.031 C 
ATOM     57  C   UNL A   1      42.813  29.334  35.849  1.00  0.00     0.029 A 
ATOM     58  C   UNL A   1      42.635  28.978  34.523  1.00  0.00     0.049 A 
ATOM     59  H   UNL A   1      41.222  29.698  33.127  1.00  0.00     0.167 HD
ATOM     60  C   UNL A   1      43.121  27.738  32.442  1.00  0.00     0.074 A 
ATOM     61  C   UNL A   1      43.871  26.788  31.652  1.00  0.00     0.031 C 
ATOM     62  C   UNL A   1      43.377  28.021  33.743  1.00  0.00     0.037 A 
BRANCH  49  63
ATOM     63  C   UNL A   1      39.630  32.322  36.100  1.00  0.00     0.064 A 
ATOM     64  C   UNL A   1      40.301  33.520  36.389  1.00  0.00     0.173 A 
ATOM     65  C   UNL A   1      38.563  31.953  36.934  1.00  0.00     0.173 A 
ATOM     66  F   UNL A   1      41.328  33.921  35.626  1.00  0.00    -0.203 F 
ATOM     67  C   UNL A   1      39.941  34.298  37.488  1.00  0.00     0.198 A 
ATOM     68  C   UNL A   1      38.184  32.750  38.011  1.00  0.00     0.198 A 
ATOM     69  F   UNL A   1      37.875  30.826  36.694  1.00  0.00    -0.203 F 
ATOM     70  F   UNL A   1      40.631  35.411  37.773  1.00  0.00    -0.200 F 
ATOM     71  C   UNL A   1      38.879  33.916  38.294  1.00  0.00     0.200 A 
ATOM     72  F   UNL A   1      37.144  32.390  38.777  1.00  0.00    -0.200 F 
ATOM     73  F   UNL A   1      38.529  34.669  39.345  1.00  0.00    -0.200 F 
ENDBRANCH  49  63
BRANCH  50  74
ATOM     74  C   UNL A   1      41.864  27.086  27.961  1.00  0.00     0.064 A 
ATOM     75  C   UNL A   1      41.332  25.810  27.719  1.00  0.00     0.173 A 
ATOM     76  C   UNL A   1      42.782  27.593  27.029  1.00  0.00     0.173 A 
ATOM     77  F   UNL A   1      40.474  25.266  28.594  1.00  0.00    -0.203 F 
ATOM     78  C   UNL A   1      41.721  25.065  26.607  1.00  0.00     0.198 A 
ATOM     79  C   UNL A   1      43.144  26.861  25.900  1.00  0.00     0.198 A 
ATOM     80  F   UNL A   1      43.324  28.805  27.213  1.00  0.00    -0.203 F 
ATOM     81  F   UNL A   1      41.240  23.826  26.432  1.00  0.00    -0.200 F 
ATOM     82  C   UNL A   1      42.621  25.593  25.695  1.00  0.00     0.200 A 
ATOM     83  F   UNL A   1      44.004  27.381  25.014  1.00  0.00    -0.200 F 
ATOM     84  F   UNL A   1      42.993  24.877  24.625  1.00  0.00    -0.200 F 
ENDBRANCH  50  74
BRANCH  62  85
ATOM     85  C   UNL A   1      44.491  27.270  34.420  1.00  0.00     0.064 A 
ATOM     86  C   UNL A   1      45.807  27.754  34.438  1.00  0.00     0.173 A 
ATOM     87  C   UNL A   1      44.225  26.073  35.105  1.00  0.00     0.173 A 
ATOM     88  F   UNL A   1      46.120  28.886  33.789  1.00  0.00    -0.203 F 
ATOM     89  C   UNL A   1      46.819  27.057  35.095  1.00  0.00     0.198 A 
ATOM     90  C   UNL A   1      45.233  25.395  35.787  1.00  0.00     0.198 A 
ATOM     91  F   UNL A   1      42.983  25.567  35.126  1.00  0.00    -0.203 F 
ATOM     92  F   UNL A   1      48.078  27.516  35.061  1.00  0.00    -0.200 F 
ATOM     93  C   UNL A   1      46.530  25.884  35.776  1.00  0.00     0.200 A 
ATOM     94  F   UNL A   1      44.947  24.270  36.457  1.00  0.00    -0.200 F 
ATOM     95  F   UNL A   1      47.503  25.222  36.418  1.00  0.00    -0.200 F 
ENDBRANCH  62  85
ENDBRANCH  36  37
ENDBRANCH  28  31
ENDBRANCH  26  27
ENDBRANCH  25  26
ENDBRANCH  24  25
ENDBRANCH   1  24
TORSDOF 16
ENDMDL
MODEL 2
REMARK VINA RESULT:     -11.2      5.921     11.280
REMARK SMILES C[C@@H]1SCCC[C@H]1[N@H+]1CCC[C@H](CCC(=O)NCCCCCCNC(=O)c2ccc(-c3c4nc(c(-c5c(F)c(F)c(F)c(F)c5F)c5ccc([nH]5)c(-c5c(F)c(F)c(F)c(F)c5F)c5nc(c(-c6c(F)c(F)c(F)c(F)c6F)c6ccc3[nH]6)C=C5)C=C4)cc2)C1
REMARK SMILES IDX 20 1 19 2 18 3 17 4 15 5 16 6 14 8 13 9 12 10 8 11 9 12
REMARK SMILES IDX 90 13 10 15 11 16 7 17 1 18 2 19 3 20 4 21 6 22 5 23 21 24
REMARK SMILES IDX 22 25 23 26 24 27 25 28 26 30 27 31 28 32 89 33 29 34 88 35
REMARK SMILES IDX 30 36 31 37 32 38 82 39 33 40 87 41 81 42 83 43 34 44 86 45
REMARK SMILES IDX 80 46 79 47 35 49 67 50 47 51 66 52 48 53 51 54 65 55 84 56
REMARK SMILES IDX 49 57 50 58 64 60 85 61 52 62 36 63 37 64 45 65 38 66 39 67
REMARK SMILES IDX 43 68 46 69 40 70 41 71 44 72 42 73 68 74 69 75 77 76 70 77
REMARK SMILES IDX 71 78 75 79 78 80 72 81 73 82 76 83 74 84 53 85 54 86 62 87
REMARK SMILES IDX 55 88 56 89 60 90 63 91 57 92 58 93 61 94 59 95
REMARK H PARENT 17 7 8 14 24 29 83 48 51 59
REMARK Flexibility Score: inf
ROOT
ATOM      1  C   UNL A   1      40.863  21.963  26.158  1.00  0.00     0.002 C 
ENDROOT
BRANCH   1   2
ATOM      2  C   UNL A   1      39.312  21.797  25.996  1.00  0.00     0.021 C 
BRANCH   2   3
ATOM      3  C   UNL A   1      38.202  22.862  26.124  1.00  0.00     0.116 C 
BRANCH   3   4
ATOM      4  N   UNL A   1      37.670  23.167  24.779  1.00  0.00    -0.356 N 
ATOM      5  C   UNL A   1      36.644  22.684  24.025  1.00  0.00     0.220 C 
ATOM      6  O   UNL A   1      36.654  22.953  22.819  1.00  0.00    -0.275 OA
ATOM      7  H   UNL A   1      38.172  23.882  24.325  1.00  0.00     0.163 HD
BRANCH   5   8
ATOM      8  C   UNL A   1      35.491  21.884  24.603  1.00  0.00     0.100 C 
BRANCH   8   9
ATOM      9  C   UNL A   1      34.689  22.631  25.682  1.00  0.00     0.019 C 
BRANCH   9  10
ATOM     10  C   UNL A   1      33.728  23.664  25.065  1.00  0.00     0.045 C 
ATOM     11  N   UNL A   1      32.163  25.520  25.512  1.00  0.00    -0.331 N 
ATOM     12  C   UNL A   1      31.102  24.928  24.708  1.00  0.00     0.262 C 
ATOM     13  C   UNL A   1      32.981  24.467  26.126  1.00  0.00     0.265 C 
ATOM     14  H   UNL A   1      31.683  26.026  26.257  1.00  0.00     0.348 HD
ATOM     15  C   UNL A   1      31.589  23.957  23.637  1.00  0.00     0.062 C 
ATOM     16  C   UNL A   1      32.710  23.018  24.103  1.00  0.00     0.015 C 
BRANCH  11  17
ATOM     17  C   UNL A   1      32.919  26.662  24.936  1.00  0.00     0.196 C 
ATOM     18  C   UNL A   1      33.114  28.119  22.750  1.00  0.00     0.026 C 
ATOM     19  C   UNL A   1      32.233  27.653  23.920  1.00  0.00     0.101 C 
ATOM     20  S   UNL A   1      31.415  29.129  24.621  1.00  0.00    -0.153 SA
ATOM     21  C   UNL A   1      32.679  29.644  25.798  1.00  0.00     0.070 C 
ATOM     22  C   UNL A   1      33.641  27.320  26.124  1.00  0.00     0.067 C 
ATOM     23  C   UNL A   1      32.977  28.521  26.772  1.00  0.00     0.017 C 
ENDBRANCH  11  17
ENDBRANCH   9  10
ENDBRANCH   8   9
ENDBRANCH   5   8
ENDBRANCH   3   4
ENDBRANCH   2   3
ENDBRANCH   1   2
BRANCH   1  24
ATOM     24  C   UNL A   1      41.919  20.892  26.519  1.00  0.00     0.002 C 
BRANCH  24  25
ATOM     25  C   UNL A   1      41.944  19.536  25.774  1.00  0.00     0.021 C 
BRANCH  25  26
ATOM     26  C   UNL A   1      43.143  18.567  25.825  1.00  0.00     0.116 C 
BRANCH  26  27
ATOM     27  N   UNL A   1      43.996  18.464  24.660  1.00  0.00    -0.352 N 
ATOM     28  C   UNL A   1      44.911  19.369  24.152  1.00  0.00     0.251 C 
ATOM     29  H   UNL A   1      43.911  17.624  24.153  1.00  0.00     0.163 HD
ATOM     30  O   UNL A   1      45.665  18.997  23.246  1.00  0.00    -0.269 OA
BRANCH  28  31
ATOM     31  C   UNL A   1      44.998  20.796  24.588  1.00  0.00     0.039 A 
ATOM     32  C   UNL A   1      45.516  21.058  25.864  1.00  0.00     0.014 A 
ATOM     33  C   UNL A   1      44.515  21.875  23.844  1.00  0.00     0.014 A 
ATOM     34  C   UNL A   1      45.613  22.373  26.356  1.00  0.00     0.010 A 
ATOM     35  C   UNL A   1      44.663  23.199  24.316  1.00  0.00     0.010 A 
ATOM     36  C   UNL A   1      45.220  23.473  25.577  1.00  0.00    -0.014 A 
BRANCH  36  37
ATOM     37  C   UNL A   1      45.386  24.874  26.101  1.00  0.00     0.031 A 
ATOM     38  C   UNL A   1      46.720  25.585  26.050  1.00  0.00     0.074 A 
ATOM     39  C   UNL A   1      44.331  25.541  26.620  1.00  0.00     0.049 A 
ATOM     40  N   UNL A   1      47.025  26.812  26.409  1.00  0.00    -0.248 NA
ATOM     41  C   UNL A   1      47.864  24.816  25.545  1.00  0.00     0.031 C 
ATOM     42  C   UNL A   1      42.985  24.992  26.785  1.00  0.00     0.029 A 
ATOM     43  N   UNL A   1      44.219  26.830  27.099  1.00  0.00    -0.354 N 
ATOM     44  C   UNL A   1      48.386  26.959  26.169  1.00  0.00     0.074 A 
ATOM     45  C   UNL A   1      48.862  25.677  25.694  1.00  0.00     0.031 C 
ATOM     46  C   UNL A   1      42.180  25.939  27.293  1.00  0.00     0.029 A 
ATOM     47  C   UNL A   1      42.952  27.158  27.526  1.00  0.00     0.049 A 
ATOM     48  H   UNL A   1      44.976  27.457  27.131  1.00  0.00     0.167 HD
ATOM     49  C   UNL A   1      49.169  28.061  26.298  1.00  0.00     0.037 A 
ATOM     50  C   UNL A   1      42.458  28.302  28.046  1.00  0.00     0.037 A 
ATOM     51  C   UNL A   1      48.714  29.349  26.757  1.00  0.00     0.049 A 
ATOM     52  C   UNL A   1      43.353  29.506  28.206  1.00  0.00     0.074 A 
ATOM     53  C   UNL A   1      49.435  30.527  26.874  1.00  0.00     0.029 A 
ATOM     54  N   UNL A   1      47.426  29.631  27.185  1.00  0.00    -0.354 N 
ATOM     55  N   UNL A   1      44.618  29.645  27.895  1.00  0.00    -0.248 NA
ATOM     56  C   UNL A   1      42.745  30.718  28.780  1.00  0.00     0.031 C 
ATOM     57  C   UNL A   1      48.599  31.506  27.421  1.00  0.00     0.029 A 
ATOM     58  C   UNL A   1      47.339  30.956  27.589  1.00  0.00     0.049 A 
ATOM     59  H   UNL A   1      46.682  28.986  27.199  1.00  0.00     0.167 HD
ATOM     60  C   UNL A   1      44.947  30.959  28.207  1.00  0.00     0.074 A 
ATOM     61  C   UNL A   1      43.747  31.584  28.715  1.00  0.00     0.031 C 
ATOM     62  C   UNL A   1      46.143  31.587  28.083  1.00  0.00     0.037 A 
BRANCH  49  63
ATOM     63  C   UNL A   1      50.621  27.930  25.923  1.00  0.00     0.064 A 
ATOM     64  C   UNL A   1      51.045  28.034  24.589  1.00  0.00     0.173 A 
ATOM     65  C   UNL A   1      51.604  27.755  26.909  1.00  0.00     0.173 A 
ATOM     66  F   UNL A   1      50.149  28.201  23.606  1.00  0.00    -0.203 F 
ATOM     67  C   UNL A   1      52.394  27.931  24.255  1.00  0.00     0.198 A 
ATOM     68  C   UNL A   1      52.954  27.688  26.575  1.00  0.00     0.198 A 
ATOM     69  F   UNL A   1      51.257  27.667  28.203  1.00  0.00    -0.203 F 
ATOM     70  F   UNL A   1      52.769  27.982  22.969  1.00  0.00    -0.200 F 
ATOM     71  C   UNL A   1      53.347  27.766  25.247  1.00  0.00     0.200 A 
ATOM     72  F   UNL A   1      53.876  27.548  27.538  1.00  0.00    -0.200 F 
ATOM     73  F   UNL A   1      54.645  27.676  24.925  1.00  0.00    -0.200 F 
ENDBRANCH  49  63
BRANCH  50  74
ATOM     74  C   UNL A   1      41.028  28.378  28.457  1.00  0.00     0.064 A 
ATOM     75  C   UNL A   1      40.048  28.895  27.595  1.00  0.00     0.173 A 
ATOM     76  C   UNL A   1      40.617  27.968  29.734  1.00  0.00     0.173 A 
ATOM     77  F   UNL A   1      40.392  29.329  26.374  1.00  0.00    -0.203 F 
ATOM     78  C   UNL A   1      38.721  29.019  28.003  1.00  0.00     0.198 A 
ATOM     79  C   UNL A   1      39.284  28.061  30.129  1.00  0.00     0.198 A 
ATOM     80  F   UNL A   1      41.512  27.470  30.599  1.00  0.00    -0.203 F 
ATOM     81  F   UNL A   1      37.818  29.570  27.180  1.00  0.00    -0.200 F 
ATOM     82  C   UNL A   1      38.338  28.596  29.267  1.00  0.00     0.200 A 
ATOM     83  F   UNL A   1      38.917  27.639  31.346  1.00  0.00    -0.200 F 
ATOM     84  F   UNL A   1      37.062  28.715  29.658  1.00  0.00    -0.200 F 
ENDBRANCH  50  74
BRANCH  62  85
ATOM     85  C   UNL A   1      46.215  33.040  28.462  1.00  0.00     0.064 A 
ATOM     86  C   UNL A   1      46.569  33.452  29.756  1.00  0.00     0.173 A 
ATOM     87  C   UNL A   1      45.977  34.037  27.501  1.00  0.00     0.173 A 
ATOM     88  F   UNL A   1      46.794  32.542  30.716  1.00  0.00    -0.203 F 
ATOM     89  C   UNL A   1      46.658  34.804  30.079  1.00  0.00     0.198 A 
ATOM     90  C   UNL A   1      46.098  35.387  27.821  1.00  0.00     0.198 A 
ATOM     91  F   UNL A   1      45.642  33.701  26.247  1.00  0.00    -0.203 F 
ATOM     92  F   UNL A   1      46.955  35.173  31.334  1.00  0.00    -0.200 F 
ATOM     93  C   UNL A   1      46.432  35.770  29.110  1.00  0.00     0.200 A 
ATOM     94  F   UNL A   1      45.894  36.318  26.878  1.00  0.00    -0.200 F 
ATOM     95  F   UNL A   1      46.531  37.071  29.421  1.00  0.00    -0.200 F 
ENDBRANCH  62  85
ENDBRANCH  36  37
ENDBRANCH  28  31
ENDBRANCH  26  27
ENDBRANCH  25  26
ENDBRANCH  24  25
ENDBRANCH   1  24
TORSDOF 16
ENDMDL
MODEL 3
REMARK VINA RESULT:     -10.8      2.217      3.645
REMARK SMILES C[C@@H]1SCCC[C@H]1[N@H+]1CCC[C@H](CCC(=O)NCCCCCCNC(=O)c2ccc(-c3c4nc(c(-c5c(F)c(F)c(F)c(F)c5F)c5ccc([nH]5)c(-c5c(F)c(F)c(F)c(F)c5F)c5nc(c(-c6c(F)c(F)c(F)c(F)c6F)c6ccc3[nH]6)C=C5)C=C4)cc2)C1
REMARK SMILES IDX 20 1 19 2 18 3 17 4 15 5 16 6 14 8 13 9 12 10 8 11 9 12
REMARK SMILES IDX 90 13 10 15 11 16 7 17 1 18 2 19 3 20 4 21 6 22 5 23 21 24
REMARK SMILES IDX 22 25 23 26 24 27 25 28 26 30 27 31 28 32 89 33 29 34 88 35
REMARK SMILES IDX 30 36 31 37 32 38 82 39 33 40 87 41 81 42 83 43 34 44 86 45
REMARK SMILES IDX 80 46 79 47 35 49 67 50 47 51 66 52 48 53 51 54 65 55 84 56
REMARK SMILES IDX 49 57 50 58 64 60 85 61 52 62 36 63 37 64 45 65 38 66 39 67
REMARK SMILES IDX 43 68 46 69 40 70 41 71 44 72 42 73 68 74 69 75 77 76 70 77
REMARK SMILES IDX 71 78 75 79 78 80 72 81 73 82 76 83 74 84 53 85 54 86 62 87
REMARK SMILES IDX 55 88 56 89 60 90 63 91 57 92 58 93 61 94 59 95
REMARK H PARENT 17 7 8 14 24 29 83 48 51 59
REMARK Flexibility Score: inf
ROOT
ATOM      1  C   UNL A   1      35.245  33.615  29.302  1.00  0.00     0.002 C 
ENDROOT
BRANCH   1   2
ATOM      2  C   UNL A   1      34.842  32.115  29.076  1.00  0.00     0.021 C 
BRANCH   2   3
ATOM      3  C   UNL A   1      34.727  31.329  27.754  1.00  0.00     0.116 C 
BRANCH   3   4
ATOM      4  N   UNL A   1      33.336  31.417  27.260  1.00  0.00    -0.356 N 
ATOM      5  C   UNL A   1      32.403  30.508  26.863  1.00  0.00     0.220 C 
ATOM      6  O   UNL A   1      31.436  30.935  26.224  1.00  0.00    -0.275 OA
ATOM      7  H   UNL A   1      33.011  32.345  27.206  1.00  0.00     0.163 HD
BRANCH   5   8
ATOM      8  C   UNL A   1      32.480  29.033  27.208  1.00  0.00     0.100 C 
BRANCH   8   9
ATOM      9  C   UNL A   1      33.613  28.279  26.491  1.00  0.00     0.019 C 
BRANCH   9  10
ATOM     10  C   UNL A   1      33.246  26.804  26.242  1.00  0.00     0.045 C 
ATOM     11  N   UNL A   1      33.530  24.851  24.759  1.00  0.00    -0.331 N 
ATOM     12  C   UNL A   1      32.097  24.611  24.664  1.00  0.00     0.262 C 
ATOM     13  C   UNL A   1      33.795  26.286  24.915  1.00  0.00     0.265 C 
ATOM     14  H   UNL A   1      33.912  24.553  23.861  1.00  0.00     0.348 HD
ATOM     15  C   UNL A   1      31.284  25.165  25.830  1.00  0.00     0.062 C 
ATOM     16  C   UNL A   1      31.723  26.560  26.294  1.00  0.00     0.015 C 
BRANCH  11  17
ATOM     17  C   UNL A   1      34.330  23.955  25.634  1.00  0.00     0.196 C 
ATOM     18  C   UNL A   1      34.071  22.180  27.562  1.00  0.00     0.026 C 
ATOM     19  C   UNL A   1      33.753  22.567  26.109  1.00  0.00     0.101 C 
ATOM     20  S   UNL A   1      34.108  21.115  25.057  1.00  0.00    -0.153 SA
ATOM     21  C   UNL A   1      35.859  21.396  24.735  1.00  0.00     0.070 C 
ATOM     22  C   UNL A   1      35.735  23.915  25.009  1.00  0.00     0.067 C 
ATOM     23  C   UNL A   1      36.061  22.753  24.088  1.00  0.00     0.017 C 
ENDBRANCH  11  17
ENDBRANCH   9  10
ENDBRANCH   8   9
ENDBRANCH   5   8
ENDBRANCH   3   4
ENDBRANCH   2   3
ENDBRANCH   1   2
BRANCH   1  24
ATOM     24  C   UNL A   1      34.829  34.862  28.488  1.00  0.00     0.002 C 
BRANCH  24  25
ATOM     25  C   UNL A   1      33.683  35.774  28.986  1.00  0.00     0.021 C 
BRANCH  25  26
ATOM     26  C   UNL A   1      32.477  35.251  29.794  1.00  0.00     0.116 C 
BRANCH  26  27
ATOM     27  N   UNL A   1      32.139  35.914  31.035  1.00  0.00    -0.352 N 
ATOM     28  C   UNL A   1      32.856  36.001  32.215  1.00  0.00     0.251 C 
ATOM     29  H   UNL A   1      31.267  36.373  31.040  1.00  0.00     0.163 HD
ATOM     30  O   UNL A   1      32.456  36.775  33.092  1.00  0.00    -0.269 OA
BRANCH  28  31
ATOM     31  C   UNL A   1      34.054  35.160  32.523  1.00  0.00     0.039 A 
ATOM     32  C   UNL A   1      35.319  35.716  32.287  1.00  0.00     0.014 A 
ATOM     33  C   UNL A   1      33.992  33.830  32.943  1.00  0.00     0.014 A 
ATOM     34  C   UNL A   1      36.495  34.984  32.533  1.00  0.00     0.010 A 
ATOM     35  C   UNL A   1      35.173  33.113  33.242  1.00  0.00     0.010 A 
ATOM     36  C   UNL A   1      36.445  33.678  33.048  1.00  0.00    -0.014 A 
BRANCH  36  37
ATOM     37  C   UNL A   1      37.716  32.934  33.357  1.00  0.00     0.031 A 
ATOM     38  C   UNL A   1      38.499  33.196  34.625  1.00  0.00     0.074 A 
ATOM     39  C   UNL A   1      38.184  31.993  32.506  1.00  0.00     0.049 A 
ATOM     40  N   UNL A   1      39.585  32.606  35.071  1.00  0.00    -0.248 NA
ATOM     41  C   UNL A   1      38.008  34.269  35.499  1.00  0.00     0.031 C 
ATOM     42  C   UNL A   1      37.580  31.646  31.220  1.00  0.00     0.029 A 
ATOM     43  N   UNL A   1      39.272  31.150  32.595  1.00  0.00    -0.354 N 
ATOM     44  C   UNL A   1      39.899  33.230  36.273  1.00  0.00     0.074 A 
ATOM     45  C   UNL A   1      38.928  34.288  36.454  1.00  0.00     0.031 C 
ATOM     46  C   UNL A   1      38.279  30.646  30.658  1.00  0.00     0.029 A 
ATOM     47  C   UNL A   1      39.406  30.299  31.522  1.00  0.00     0.049 A 
ATOM     48  H   UNL A   1      39.894  31.156  33.357  1.00  0.00     0.167 HD
ATOM     49  C   UNL A   1      40.883  32.940  37.162  1.00  0.00     0.037 A 
ATOM     50  C   UNL A   1      40.325  29.346  31.253  1.00  0.00     0.037 A 
ATOM     51  C   UNL A   1      41.853  31.885  37.008  1.00  0.00     0.049 A 
ATOM     52  C   UNL A   1      41.425  29.057  32.245  1.00  0.00     0.074 A 
ATOM     53  C   UNL A   1      42.852  31.497  37.885  1.00  0.00     0.029 A 
ATOM     54  N   UNL A   1      41.953  31.055  35.902  1.00  0.00    -0.354 N 
ATOM     55  N   UNL A   1      41.653  29.608  33.411  1.00  0.00    -0.248 NA
ATOM     56  C   UNL A   1      42.390  28.006  31.883  1.00  0.00     0.031 C 
ATOM     57  C   UNL A   1      43.591  30.470  37.289  1.00  0.00     0.029 A 
ATOM     58  C   UNL A   1      43.014  30.174  36.065  1.00  0.00     0.049 A 
ATOM     59  H   UNL A   1      41.360  31.084  35.117  1.00  0.00     0.167 HD
ATOM     60  C   UNL A   1      42.763  28.952  33.933  1.00  0.00     0.074 A 
ATOM     61  C   UNL A   1      43.154  27.951  32.966  1.00  0.00     0.031 C 
ATOM     62  C   UNL A   1      43.400  29.167  35.110  1.00  0.00     0.037 A 
BRANCH  49  63
ATOM     63  C   UNL A   1      40.959  33.775  38.412  1.00  0.00     0.064 A 
ATOM     64  C   UNL A   1      40.178  33.480  39.540  1.00  0.00     0.173 A 
ATOM     65  C   UNL A   1      41.861  34.847  38.505  1.00  0.00     0.173 A 
ATOM     66  F   UNL A   1      39.299  32.467  39.507  1.00  0.00    -0.203 F 
ATOM     67  C   UNL A   1      40.270  34.247  40.699  1.00  0.00     0.198 A 
ATOM     68  C   UNL A   1      41.976  35.591  39.676  1.00  0.00     0.198 A 
ATOM     69  F   UNL A   1      42.645  35.163  37.463  1.00  0.00    -0.203 F 
ATOM     70  F   UNL A   1      39.477  33.978  41.744  1.00  0.00    -0.200 F 
ATOM     71  C   UNL A   1      41.174  35.297  40.769  1.00  0.00     0.200 A 
ATOM     72  F   UNL A   1      42.863  36.592  39.749  1.00  0.00    -0.200 F 
ATOM     73  F   UNL A   1      41.267  36.029  41.887  1.00  0.00    -0.200 F 
ENDBRANCH  49  63
BRANCH  50  74
ATOM     74  C   UNL A   1      40.249  28.575  29.980  1.00  0.00     0.064 A 
ATOM     75  C   UNL A   1      39.582  27.343  29.912  1.00  0.00     0.173 A 
ATOM     76  C   UNL A   1      40.874  29.039  28.813  1.00  0.00     0.173 A 
ATOM     77  F   UNL A   1      38.993  26.839  31.007  1.00  0.00    -0.203 F 
ATOM     78  C   UNL A   1      39.562  26.595  28.736  1.00  0.00     0.198 A 
ATOM     79  C   UNL A   1      40.826  28.307  27.628  1.00  0.00     0.198 A 
ATOM     80  F   UNL A   1      41.530  30.208  28.822  1.00  0.00    -0.203 F 
ATOM     81  F   UNL A   1      38.967  25.395  28.716  1.00  0.00    -0.200 F 
ATOM     82  C   UNL A   1      40.178  27.081  27.593  1.00  0.00     0.200 A 
ATOM     83  F   UNL A   1      41.411  28.787  26.522  1.00  0.00    -0.200 F 
ATOM     84  F   UNL A   1      40.159  26.363  26.461  1.00  0.00    -0.200 F 
ENDBRANCH  50  74
BRANCH  62  85
ATOM     85  C   UNL A   1      44.566  28.280  35.451  1.00  0.00     0.064 A 
ATOM     86  C   UNL A   1      45.883  28.628  35.118  1.00  0.00     0.173 A 
ATOM     87  C   UNL A   1      44.365  27.089  36.168  1.00  0.00     0.173 A 
ATOM     88  F   UNL A   1      46.131  29.748  34.421  1.00  0.00    -0.203 F 
ATOM     89  C   UNL A   1      46.952  27.805  35.467  1.00  0.00     0.198 A 
ATOM     90  C   UNL A   1      45.439  26.286  36.543  1.00  0.00     0.198 A 
ATOM     91  F   UNL A   1      43.127  26.711  36.518  1.00  0.00    -0.203 F 
ATOM     92  F   UNL A   1      48.198  28.136  35.098  1.00  0.00    -0.200 F 
ATOM     93  C   UNL A   1      46.731  26.641  36.187  1.00  0.00     0.200 A 
ATOM     94  F   UNL A   1      45.224  25.169  37.252  1.00  0.00    -0.200 F 
ATOM     95  F   UNL A   1      47.763  25.858  36.533  1.00  0.00    -0.200 F 
ENDBRANCH  62  85
ENDBRANCH  36  37
ENDBRANCH  28  31
ENDBRANCH  26  27
ENDBRANCH  25  26
ENDBRANCH  24  25
ENDBRANCH   1  24
TORSDOF 16
ENDMDL
