MODEL 1
REMARK VINA RESULT:     -12.3      0.000      0.000
REMARK SMILES CCn1c(=O)n(CC)c2cc(C(=O)NCCCCCCNC(=O)c3ccc(-c4c5nc(c(-c6c(F)c(F)c(F)c(F)c6F)c6ccc([nH]6)c(-c6c(F)c(F)c(F)c(F)c6F)c6nc(c(-c7c(F)c(F)c(F)c(F)c7F)c7ccc4[nH]7)C=C6)C=C5)cc3)ccc21
REMARK SMILES IDX 18 1 17 2 16 3 15 4 14 5 12 6 13 7 11 9 3 10 4 11 89 12 5 13
REMARK SMILES IDX 6 14 9 15 88 16 10 17 87 18 2 19 1 20 7 21 8 22 19 23 20 24
REMARK SMILES IDX 21 25 22 26 23 28 24 29 25 30 86 31 26 32 85 33 27 34 28 35
REMARK SMILES IDX 29 36 79 37 30 38 84 39 78 40 80 41 31 42 83 43 77 44 76 45
REMARK SMILES IDX 32 47 64 48 44 49 63 50 45 51 48 52 62 53 81 54 46 55 47 56
REMARK SMILES IDX 61 58 82 59 49 60 33 61 34 62 42 63 35 64 36 65 40 66 43 67
REMARK SMILES IDX 37 68 38 69 41 70 39 71 65 72 66 73 74 74 67 75 68 76 72 77
REMARK SMILES IDX 75 78 69 79 70 80 73 81 71 82 50 83 51 84 59 85 52 86 53 87
REMARK SMILES IDX 57 88 60 89 54 90 55 91 58 92 56 93
REMARK H PARENT 14 8 21 27 80 46 48 57
REMARK Flexibility Score: inf
ROOT
ATOM      1  C   UNL A   1      34.582  29.264  27.103  1.00  0.00     0.002 C 
ENDROOT
BRANCH   1   2
ATOM      2  C   UNL A   1      33.876  28.129  26.350  1.00  0.00     0.002 C 
BRANCH   2   3
ATOM      3  C   UNL A   1      32.397  27.943  26.713  1.00  0.00     0.021 C 
BRANCH   3   4
ATOM      4  C   UNL A   1      31.654  27.032  25.731  1.00  0.00     0.116 C 
BRANCH   4   5
ATOM      5  N   UNL A   1      31.069  25.913  26.440  1.00  0.00    -0.352 N 
ATOM      6  C   UNL A   1      31.431  24.603  26.600  1.00  0.00     0.251 C 
ATOM      7  O   UNL A   1      30.661  23.893  27.250  1.00  0.00    -0.269 OA
ATOM      8  H   UNL A   1      30.233  26.144  26.906  1.00  0.00     0.163 HD
BRANCH   6   9
ATOM      9  C   UNL A   1      32.707  24.008  26.101  1.00  0.00     0.042 A 
ATOM     10  N   UNL A   1      36.092  21.814  25.062  1.00  0.00    -0.292 N 
ATOM     11  C   UNL A   1      35.538  20.513  25.004  1.00  0.00     0.329 A 
ATOM     12  C   UNL A   1      35.060  22.715  25.371  1.00  0.00     0.069 A 
ATOM     13  O   UNL A   1      36.112  19.473  24.692  1.00  0.00    -0.248 OA
ATOM     14  N   UNL A   1      34.177  20.638  25.363  1.00  0.00    -0.292 N 
ATOM     15  C   UNL A   1      33.895  21.989  25.598  1.00  0.00     0.070 A 
ATOM     16  C   UNL A   1      35.067  24.091  25.422  1.00  0.00     0.029 A 
ATOM     17  C   UNL A   1      32.719  22.605  25.973  1.00  0.00     0.042 A 
ATOM     18  C   UNL A   1      33.865  24.735  25.752  1.00  0.00     0.016 A 
BRANCH  10  19
ATOM     19  C   UNL A   1      37.443  22.219  24.738  1.00  0.00     0.124 C 
ATOM     20  C   UNL A   1      38.502  21.813  25.751  1.00  0.00     0.028 C 
ENDBRANCH  10  19
BRANCH  14  21
ATOM     21  C   UNL A   1      33.221  19.559  25.386  1.00  0.00     0.124 C 
ATOM     22  C   UNL A   1      32.533  19.345  24.046  1.00  0.00     0.028 C 
ENDBRANCH  14  21
ENDBRANCH   6   9
ENDBRANCH   4   5
ENDBRANCH   3   4
ENDBRANCH   2   3
ENDBRANCH   1   2
BRANCH   1  23
ATOM     23  C   UNL A   1      33.740  30.527  27.317  1.00  0.00     0.021 C 
BRANCH  23  24
ATOM     24  C   UNL A   1      34.546  31.745  27.769  1.00  0.00     0.116 C 
BRANCH  24  25
ATOM     25  N   UNL A   1      34.407  32.033  29.181  1.00  0.00    -0.352 N 
ATOM     26  C   UNL A   1      35.196  31.876  30.285  1.00  0.00     0.251 C 
ATOM     27  H   UNL A   1      33.536  32.438  29.396  1.00  0.00     0.163 HD
ATOM     28  O   UNL A   1      34.743  32.329  31.339  1.00  0.00    -0.269 OA
BRANCH  26  29
ATOM     29  C   UNL A   1      36.500  31.158  30.324  1.00  0.00     0.039 A 
ATOM     30  C   UNL A   1      37.759  31.747  30.422  1.00  0.00     0.014 A 
ATOM     31  C   UNL A   1      36.427  29.755  30.200  1.00  0.00     0.014 A 
ATOM     32  C   UNL A   1      38.908  30.970  30.286  1.00  0.00     0.010 A 
ATOM     33  C   UNL A   1      37.571  28.971  30.087  1.00  0.00     0.010 A 
ATOM     34  C   UNL A   1      38.815  29.587  30.083  1.00  0.00    -0.014 A 
BRANCH  34  35
ATOM     35  C   UNL A   1      40.055  28.810  30.054  1.00  0.00     0.031 A 
ATOM     36  C   UNL A   1      40.682  28.669  31.397  1.00  0.00     0.074 A 
ATOM     37  C   UNL A   1      40.568  28.202  28.963  1.00  0.00     0.049 A 
ATOM     38  N   UNL A   1      41.804  29.174  31.793  1.00  0.00    -0.248 NA
ATOM     39  C   UNL A   1      39.902  28.032  32.471  1.00  0.00     0.031 C 
ATOM     40  C   UNL A   1      39.951  28.046  27.645  1.00  0.00     0.029 A 
ATOM     41  N   UNL A   1      41.749  27.524  28.824  1.00  0.00    -0.354 N 
ATOM     42  C   UNL A   1      41.966  28.763  33.113  1.00  0.00     0.074 A 
ATOM     43  C   UNL A   1      40.707  28.201  33.522  1.00  0.00     0.031 C 
ATOM     44  C   UNL A   1      40.656  27.147  26.917  1.00  0.00     0.029 A 
ATOM     45  C   UNL A   1      41.850  26.770  27.655  1.00  0.00     0.049 A 
ATOM     46  H   UNL A   1      42.469  27.565  29.495  1.00  0.00     0.167 HD
ATOM     47  C   UNL A   1      43.207  28.699  33.667  1.00  0.00     0.037 A 
ATOM     48  C   UNL A   1      42.832  25.888  27.330  1.00  0.00     0.037 A 
ATOM     49  C   UNL A   1      44.143  29.500  32.921  1.00  0.00     0.049 A 
ATOM     50  C   UNL A   1      44.013  26.228  28.153  1.00  0.00     0.074 A 
ATOM     51  C   UNL A   1      44.285  30.844  32.638  1.00  0.00     0.029 A 
ATOM     52  N   UNL A   1      44.936  28.833  32.026  1.00  0.00    -0.354 N 
ATOM     53  N   UNL A   1      44.727  27.304  27.992  1.00  0.00    -0.248 NA
ATOM     54  C   UNL A   1      44.177  25.548  29.428  1.00  0.00     0.031 C 
ATOM     55  C   UNL A   1      44.828  30.893  31.319  1.00  0.00     0.029 A 
ATOM     56  C   UNL A   1      45.048  29.584  30.889  1.00  0.00     0.049 A 
ATOM     57  H   UNL A   1      45.356  27.956  32.176  1.00  0.00     0.167 HD
ATOM     58  C   UNL A   1      45.064  27.686  29.277  1.00  0.00     0.074 A 
ATOM     59  C   UNL A   1      44.817  26.505  30.101  1.00  0.00     0.031 C 
ATOM     60  C   UNL A   1      45.228  29.006  29.579  1.00  0.00     0.037 A 
BRANCH  47  61
ATOM     61  C   UNL A   1      43.671  27.575  34.572  1.00  0.00     0.064 A 
ATOM     62  C   UNL A   1      43.606  26.248  34.098  1.00  0.00     0.173 A 
ATOM     63  C   UNL A   1      43.848  27.709  35.966  1.00  0.00     0.173 A 
ATOM     64  F   UNL A   1      43.416  25.995  32.793  1.00  0.00    -0.203 F 
ATOM     65  C   UNL A   1      43.621  25.149  34.963  1.00  0.00     0.198 A 
ATOM     66  C   UNL A   1      43.915  26.610  36.821  1.00  0.00     0.198 A 
ATOM     67  F   UNL A   1      43.847  28.898  36.578  1.00  0.00    -0.203 F 
ATOM     68  F   UNL A   1      43.414  23.917  34.479  1.00  0.00    -0.200 F 
ATOM     69  C   UNL A   1      43.768  25.332  36.325  1.00  0.00     0.200 A 
ATOM     70  F   UNL A   1      44.032  26.810  38.141  1.00  0.00    -0.200 F 
ATOM     71  F   UNL A   1      43.715  24.289  37.164  1.00  0.00    -0.200 F 
ENDBRANCH  47  61
BRANCH  48  72
ATOM     72  C   UNL A   1      42.777  24.618  26.560  1.00  0.00     0.064 A 
ATOM     73  C   UNL A   1      43.576  24.425  25.416  1.00  0.00     0.173 A 
ATOM     74  C   UNL A   1      42.191  23.462  27.109  1.00  0.00     0.173 A 
ATOM     75  F   UNL A   1      44.208  25.463  24.848  1.00  0.00    -0.203 F 
ATOM     76  C   UNL A   1      43.812  23.151  24.886  1.00  0.00     0.198 A 
ATOM     77  C   UNL A   1      42.423  22.192  26.576  1.00  0.00     0.198 A 
ATOM     78  F   UNL A   1      41.468  23.531  28.235  1.00  0.00    -0.203 F 
ATOM     79  F   UNL A   1      44.642  23.002  23.843  1.00  0.00    -0.200 F 
ATOM     80  C   UNL A   1      43.247  22.034  25.476  1.00  0.00     0.200 A 
ATOM     81  F   UNL A   1      41.902  21.114  27.177  1.00  0.00    -0.200 F 
ATOM     82  F   UNL A   1      43.530  20.806  25.015  1.00  0.00    -0.200 F 
ENDBRANCH  48  72
BRANCH  60  83
ATOM     83  C   UNL A   1      45.401  29.967  28.437  1.00  0.00     0.064 A 
ATOM     84  C   UNL A   1      44.344  30.598  27.760  1.00  0.00     0.173 A 
ATOM     85  C   UNL A   1      46.706  30.368  28.119  1.00  0.00     0.173 A 
ATOM     86  F   UNL A   1      43.067  30.331  28.063  1.00  0.00    -0.203 F 
ATOM     87  C   UNL A   1      44.591  31.571  26.790  1.00  0.00     0.198 A 
ATOM     88  C   UNL A   1      46.947  31.366  27.181  1.00  0.00     0.198 A 
ATOM     89  F   UNL A   1      47.750  29.828  28.767  1.00  0.00    -0.203 F 
ATOM     90  F   UNL A   1      43.569  32.160  26.153  1.00  0.00    -0.200 F 
ATOM     91  C   UNL A   1      45.891  31.961  26.511  1.00  0.00     0.200 A 
ATOM     92  F   UNL A   1      48.203  31.774  26.953  1.00  0.00    -0.200 F 
ATOM     93  F   UNL A   1      46.126  32.934  25.620  1.00  0.00    -0.200 F 
ENDBRANCH  60  83
ENDBRANCH  34  35
ENDBRANCH  26  29
ENDBRANCH  24  25
ENDBRANCH  23  24
ENDBRANCH   1  23
TORSDOF 15
ENDMDL
MODEL 2
REMARK VINA RESULT:     -12.1      1.495      2.169
REMARK SMILES CCn1c(=O)n(CC)c2cc(C(=O)NCCCCCCNC(=O)c3ccc(-c4c5nc(c(-c6c(F)c(F)c(F)c(F)c6F)c6ccc([nH]6)c(-c6c(F)c(F)c(F)c(F)c6F)c6nc(c(-c7c(F)c(F)c(F)c(F)c7F)c7ccc4[nH]7)C=C6)C=C5)cc3)ccc21
REMARK SMILES IDX 18 1 17 2 16 3 15 4 14 5 12 6 13 7 11 9 3 10 4 11 89 12 5 13
REMARK SMILES IDX 6 14 9 15 88 16 10 17 87 18 2 19 1 20 7 21 8 22 19 23 20 24
REMARK SMILES IDX 21 25 22 26 23 28 24 29 25 30 86 31 26 32 85 33 27 34 28 35
REMARK SMILES IDX 29 36 79 37 30 38 84 39 78 40 80 41 31 42 83 43 77 44 76 45
REMARK SMILES IDX 32 47 64 48 44 49 63 50 45 51 48 52 62 53 81 54 46 55 47 56
REMARK SMILES IDX 61 58 82 59 49 60 33 61 34 62 42 63 35 64 36 65 40 66 43 67
REMARK SMILES IDX 37 68 38 69 41 70 39 71 65 72 66 73 74 74 67 75 68 76 72 77
REMARK SMILES IDX 75 78 69 79 70 80 73 81 71 82 50 83 51 84 59 85 52 86 53 87
REMARK SMILES IDX 57 88 60 89 54 90 55 91 58 92 56 93
REMARK H PARENT 14 8 21 27 80 46 48 57
REMARK Flexibility Score: inf
ROOT
ATOM      1  C   UNL A   1      31.777  28.916  26.994  1.00  0.00     0.002 C 
ENDROOT
BRANCH   1   2
ATOM      2  C   UNL A   1      32.071  28.077  25.743  1.00  0.00     0.002 C 
BRANCH   2   3
ATOM      3  C   UNL A   1      31.349  28.546  24.473  1.00  0.00     0.021 C 
BRANCH   3   4
ATOM      4  C   UNL A   1      30.986  27.391  23.535  1.00  0.00     0.116 C 
BRANCH   4   5
ATOM      5  N   UNL A   1      31.999  27.249  22.511  1.00  0.00    -0.352 N 
ATOM      6  C   UNL A   1      32.876  26.252  22.180  1.00  0.00     0.251 C 
ATOM      7  O   UNL A   1      33.653  26.484  21.251  1.00  0.00    -0.269 OA
ATOM      8  H   UNL A   1      32.074  28.040  21.927  1.00  0.00     0.163 HD
BRANCH   6   9
ATOM      9  C   UNL A   1      32.905  24.902  22.820  1.00  0.00     0.042 A 
ATOM     10  N   UNL A   1      33.600  21.091  24.351  1.00  0.00    -0.292 N 
ATOM     11  C   UNL A   1      34.984  21.183  24.633  1.00  0.00     0.329 A 
ATOM     12  C   UNL A   1      33.172  22.331  23.849  1.00  0.00     0.069 A 
ATOM     13  O   UNL A   1      35.697  20.328  25.149  1.00  0.00    -0.248 OA
ATOM     14  N   UNL A   1      35.395  22.469  24.214  1.00  0.00    -0.292 N 
ATOM     15  C   UNL A   1      34.281  23.162  23.724  1.00  0.00     0.070 A 
ATOM     16  C   UNL A   1      31.906  22.778  23.544  1.00  0.00     0.029 A 
ATOM     17  C   UNL A   1      34.177  24.436  23.206  1.00  0.00     0.042 A 
ATOM     18  C   UNL A   1      31.778  24.089  23.064  1.00  0.00     0.016 A 
BRANCH  10  19
ATOM     19  C   UNL A   1      32.708  19.988  24.636  1.00  0.00     0.124 C 
ATOM     20  C   UNL A   1      32.528  18.990  23.502  1.00  0.00     0.028 C 
ENDBRANCH  10  19
BRANCH  14  21
ATOM     21  C   UNL A   1      36.725  23.006  24.363  1.00  0.00     0.124 C 
ATOM     22  C   UNL A   1      36.960  23.648  25.721  1.00  0.00     0.028 C 
ENDBRANCH  14  21
ENDBRANCH   6   9
ENDBRANCH   4   5
ENDBRANCH   3   4
ENDBRANCH   2   3
ENDBRANCH   1   2
BRANCH   1  23
ATOM     23  C   UNL A   1      32.210  30.384  26.909  1.00  0.00     0.021 C 
BRANCH  23  24
ATOM     24  C   UNL A   1      33.708  30.606  27.120  1.00  0.00     0.116 C 
BRANCH  24  25
ATOM     25  N   UNL A   1      34.006  31.492  28.227  1.00  0.00    -0.352 N 
ATOM     26  C   UNL A   1      35.102  31.736  29.004  1.00  0.00     0.251 C 
ATOM     27  H   UNL A   1      33.235  32.050  28.477  1.00  0.00     0.163 HD
ATOM     28  O   UNL A   1      34.987  32.651  29.824  1.00  0.00    -0.269 OA
BRANCH  26  29
ATOM     29  C   UNL A   1      36.371  30.956  28.984  1.00  0.00     0.039 A 
ATOM     30  C   UNL A   1      36.489  29.587  28.762  1.00  0.00     0.014 A 
ATOM     31  C   UNL A   1      37.542  31.691  29.266  1.00  0.00     0.014 A 
ATOM     32  C   UNL A   1      37.719  28.953  28.929  1.00  0.00     0.010 A 
ATOM     33  C   UNL A   1      38.778  31.067  29.411  1.00  0.00     0.010 A 
ATOM     34  C   UNL A   1      38.857  29.687  29.288  1.00  0.00    -0.014 A 
BRANCH  34  35
ATOM     35  C   UNL A   1      40.140  28.985  29.345  1.00  0.00     0.031 A 
ATOM     36  C   UNL A   1      40.642  28.807  30.735  1.00  0.00     0.074 A 
ATOM     37  C   UNL A   1      40.793  28.469  28.282  1.00  0.00     0.049 A 
ATOM     38  N   UNL A   1      41.687  29.352  31.265  1.00  0.00    -0.248 NA
ATOM     39  C   UNL A   1      39.803  28.068  31.693  1.00  0.00     0.031 C 
ATOM     40  C   UNL A   1      40.318  28.350  26.902  1.00  0.00     0.029 A 
ATOM     41  N   UNL A   1      42.022  27.868  28.228  1.00  0.00    -0.354 N 
ATOM     42  C   UNL A   1      41.746  28.879  32.573  1.00  0.00     0.074 A 
ATOM     43  C   UNL A   1      40.491  28.224  32.826  1.00  0.00     0.031 C 
ATOM     44  C   UNL A   1      41.144  27.534  26.206  1.00  0.00     0.029 A 
ATOM     45  C   UNL A   1      42.283  27.187  27.040  1.00  0.00     0.049 A 
ATOM     46  H   UNL A   1      42.669  27.913  28.968  1.00  0.00     0.167 HD
ATOM     47  C   UNL A   1      42.929  28.856  33.244  1.00  0.00     0.037 A 
ATOM     48  C   UNL A   1      43.344  26.381  26.771  1.00  0.00     0.037 A 
ATOM     49  C   UNL A   1      43.881  29.750  32.636  1.00  0.00     0.049 A 
ATOM     50  C   UNL A   1      44.416  26.742  27.724  1.00  0.00     0.074 A 
ATOM     51  C   UNL A   1      43.966  31.112  32.435  1.00  0.00     0.029 A 
ATOM     52  N   UNL A   1      44.796  29.179  31.792  1.00  0.00    -0.354 N 
ATOM     53  N   UNL A   1      45.075  27.865  27.687  1.00  0.00    -0.248 NA
ATOM     54  C   UNL A   1      44.499  26.004  28.973  1.00  0.00     0.031 C 
ATOM     55  C   UNL A   1      44.630  31.265  31.181  1.00  0.00     0.029 A 
ATOM     56  C   UNL A   1      44.971  29.997  30.711  1.00  0.00     0.049 A 
ATOM     57  H   UNL A   1      45.254  28.320  31.941  1.00  0.00     0.167 HD
ATOM     58  C   UNL A   1      45.261  28.195  29.017  1.00  0.00     0.074 A 
ATOM     59  C   UNL A   1      45.010  26.958  29.753  1.00  0.00     0.031 C 
ATOM     60  C   UNL A   1      45.312  29.503  29.399  1.00  0.00     0.037 A 
BRANCH  47  61
ATOM     61  C   UNL A   1      43.373  27.712  34.135  1.00  0.00     0.064 A 
ATOM     62  C   UNL A   1      43.517  26.427  33.571  1.00  0.00     0.173 A 
ATOM     63  C   UNL A   1      43.331  27.751  35.545  1.00  0.00     0.173 A 
ATOM     64  F   UNL A   1      43.546  26.262  32.240  1.00  0.00    -0.203 F 
ATOM     65  C   UNL A   1      43.522  25.270  34.356  1.00  0.00     0.198 A 
ATOM     66  C   UNL A   1      43.388  26.598  36.327  1.00  0.00     0.198 A 
ATOM     67  F   UNL A   1      43.116  28.882  36.226  1.00  0.00    -0.203 F 
ATOM     68  F   UNL A   1      43.518  24.066  33.767  1.00  0.00    -0.200 F 
ATOM     69  C   UNL A   1      43.449  25.356  35.733  1.00  0.00     0.200 A 
ATOM     70  F   UNL A   1      43.291  26.703  37.660  1.00  0.00    -0.200 F 
ATOM     71  F   UNL A   1      43.386  24.250  36.485  1.00  0.00    -0.200 F 
ENDBRANCH  47  61
BRANCH  48  72
ATOM     72  C   UNL A   1      43.443  25.154  25.938  1.00  0.00     0.064 A 
ATOM     73  C   UNL A   1      44.574  24.910  25.134  1.00  0.00     0.173 A 
ATOM     74  C   UNL A   1      42.591  24.057  26.160  1.00  0.00     0.173 A 
ATOM     75  F   UNL A   1      45.464  25.886  24.902  1.00  0.00    -0.203 F 
ATOM     76  C   UNL A   1      44.857  23.636  24.626  1.00  0.00     0.198 A 
ATOM     77  C   UNL A   1      42.873  22.788  25.648  1.00  0.00     0.198 A 
ATOM     78  F   UNL A   1      41.525  24.171  26.965  1.00  0.00    -0.203 F 
ATOM     79  F   UNL A   1      45.985  23.428  23.931  1.00  0.00    -0.200 F 
ATOM     80  C   UNL A   1      44.014  22.573  24.897  1.00  0.00     0.200 A 
ATOM     81  F   UNL A   1      42.070  21.758  25.948  1.00  0.00    -0.200 F 
ATOM     82  F   UNL A   1      44.322  21.338  24.474  1.00  0.00    -0.200 F 
ENDBRANCH  48  72
BRANCH  60  83
ATOM     83  C   UNL A   1      45.535  30.534  28.328  1.00  0.00     0.064 A 
ATOM     84  C   UNL A   1      44.515  31.104  27.547  1.00  0.00     0.173 A 
ATOM     85  C   UNL A   1      46.825  31.064  28.197  1.00  0.00     0.173 A 
ATOM     86  F   UNL A   1      43.241  30.710  27.673  1.00  0.00    -0.203 F 
ATOM     87  C   UNL A   1      44.788  32.143  26.657  1.00  0.00     0.198 A 
ATOM     88  C   UNL A   1      47.086  32.127  27.339  1.00  0.00     0.198 A 
ATOM     89  F   UNL A   1      47.828  30.585  28.951  1.00  0.00    -0.203 F 
ATOM     90  F   UNL A   1      43.802  32.673  25.919  1.00  0.00    -0.200 F 
ATOM     91  C   UNL A   1      46.070  32.661  26.564  1.00  0.00     0.200 A 
ATOM     92  F   UNL A   1      48.317  32.655  27.290  1.00  0.00    -0.200 F 
ATOM     93  F   UNL A   1      46.321  33.696  25.750  1.00  0.00    -0.200 F 
ENDBRANCH  60  83
ENDBRANCH  34  35
ENDBRANCH  26  29
ENDBRANCH  24  25
ENDBRANCH  23  24
ENDBRANCH   1  23
TORSDOF 15
ENDMDL
MODEL 3
REMARK VINA RESULT:     -12.0      2.911      8.701
REMARK SMILES CCn1c(=O)n(CC)c2cc(C(=O)NCCCCCCNC(=O)c3ccc(-c4c5nc(c(-c6c(F)c(F)c(F)c(F)c6F)c6ccc([nH]6)c(-c6c(F)c(F)c(F)c(F)c6F)c6nc(c(-c7c(F)c(F)c(F)c(F)c7F)c7ccc4[nH]7)C=C6)C=C5)cc3)ccc21
REMARK SMILES IDX 18 1 17 2 16 3 15 4 14 5 12 6 13 7 11 9 3 10 4 11 89 12 5 13
REMARK SMILES IDX 6 14 9 15 88 16 10 17 87 18 2 19 1 20 7 21 8 22 19 23 20 24
REMARK SMILES IDX 21 25 22 26 23 28 24 29 25 30 86 31 26 32 85 33 27 34 28 35
REMARK SMILES IDX 29 36 79 37 30 38 84 39 78 40 80 41 31 42 83 43 77 44 76 45
REMARK SMILES IDX 32 47 64 48 44 49 63 50 45 51 48 52 62 53 81 54 46 55 47 56
REMARK SMILES IDX 61 58 82 59 49 60 33 61 34 62 42 63 35 64 36 65 40 66 43 67
REMARK SMILES IDX 37 68 38 69 41 70 39 71 65 72 66 73 74 74 67 75 68 76 72 77
REMARK SMILES IDX 75 78 69 79 70 80 73 81 71 82 50 83 51 84 59 85 52 86 53 87
REMARK SMILES IDX 57 88 60 89 54 90 55 91 58 92 56 93
REMARK H PARENT 14 8 21 27 80 46 48 57
REMARK Flexibility Score: inf
ROOT
ATOM      1  C   UNL A   1      35.456  21.202  24.794  1.00  0.00     0.002 C 
ENDROOT
BRANCH   1   2
ATOM      2  C   UNL A   1      34.077  20.883  25.387  1.00  0.00     0.002 C 
BRANCH   2   3
ATOM      3  C   UNL A   1      33.034  20.409  24.366  1.00  0.00     0.021 C 
BRANCH   3   4
ATOM      4  C   UNL A   1      32.146  21.546  23.852  1.00  0.00     0.116 C 
BRANCH   4   5
ATOM      5  N   UNL A   1      32.781  22.200  22.728  1.00  0.00    -0.352 N 
ATOM      6  C   UNL A   1      33.190  23.484  22.489  1.00  0.00     0.251 C 
ATOM      7  O   UNL A   1      33.669  23.714  21.376  1.00  0.00    -0.269 OA
ATOM      8  H   UNL A   1      32.957  21.591  21.974  1.00  0.00     0.163 HD
BRANCH   6   9
ATOM      9  C   UNL A   1      33.151  24.587  23.495  1.00  0.00     0.042 A 
ATOM     10  N   UNL A   1      32.974  28.067  25.778  1.00  0.00    -0.292 N 
ATOM     11  C   UNL A   1      32.059  28.825  25.008  1.00  0.00     0.329 A 
ATOM     12  C   UNL A   1      33.130  26.814  25.164  1.00  0.00     0.069 A 
ATOM     13  O   UNL A   1      31.617  29.941  25.264  1.00  0.00    -0.248 OA
ATOM     14  N   UNL A   1      31.734  28.038  23.880  1.00  0.00    -0.292 N 
ATOM     15  C   UNL A   1      32.404  26.812  23.977  1.00  0.00     0.070 A 
ATOM     16  C   UNL A   1      33.813  25.695  25.586  1.00  0.00     0.029 A 
ATOM     17  C   UNL A   1      32.408  25.726  23.126  1.00  0.00     0.042 A 
ATOM     18  C   UNL A   1      33.784  24.565  24.756  1.00  0.00     0.016 A 
BRANCH  10  19
ATOM     19  C   UNL A   1      33.568  28.419  27.050  1.00  0.00     0.124 C 
ATOM     20  C   UNL A   1      34.816  29.283  26.966  1.00  0.00     0.028 C 
ENDBRANCH  10  19
BRANCH  14  21
ATOM     21  C   UNL A   1      30.791  28.406  22.854  1.00  0.00     0.124 C 
ATOM     22  C   UNL A   1      29.343  28.226  23.283  1.00  0.00     0.028 C 
ENDBRANCH  14  21
ENDBRANCH   6   9
ENDBRANCH   4   5
ENDBRANCH   3   4
ENDBRANCH   2   3
ENDBRANCH   1   2
BRANCH   1  23
ATOM     23  C   UNL A   1      36.461  21.814  25.775  1.00  0.00     0.021 C 
BRANCH  23  24
ATOM     24  C   UNL A   1      37.822  22.133  25.154  1.00  0.00     0.116 C 
BRANCH  24  25
ATOM     25  N   UNL A   1      38.929  21.507  25.847  1.00  0.00    -0.352 N 
ATOM     26  C   UNL A   1      39.824  21.902  26.800  1.00  0.00     0.251 C 
ATOM     27  H   UNL A   1      39.069  20.574  25.563  1.00  0.00     0.163 HD
ATOM     28  O   UNL A   1      40.597  21.030  27.207  1.00  0.00    -0.269 OA
BRANCH  26  29
ATOM     29  C   UNL A   1      39.979  23.288  27.323  1.00  0.00     0.039 A 
ATOM     30  C   UNL A   1      39.068  24.330  27.167  1.00  0.00     0.014 A 
ATOM     31  C   UNL A   1      41.191  23.554  27.994  1.00  0.00     0.014 A 
ATOM     32  C   UNL A   1      39.406  25.622  27.567  1.00  0.00     0.010 A 
ATOM     33  C   UNL A   1      41.525  24.837  28.416  1.00  0.00     0.010 A 
ATOM     34  C   UNL A   1      40.649  25.883  28.159  1.00  0.00    -0.014 A 
BRANCH  34  35
ATOM     35  C   UNL A   1      40.905  27.236  28.654  1.00  0.00     0.031 A 
ATOM     36  C   UNL A   1      42.145  27.835  28.088  1.00  0.00     0.074 A 
ATOM     37  C   UNL A   1      40.090  27.934  29.473  1.00  0.00     0.049 A 
ATOM     38  N   UNL A   1      43.232  28.127  28.723  1.00  0.00    -0.248 NA
ATOM     39  C   UNL A   1      42.251  27.977  26.626  1.00  0.00     0.031 C 
ATOM     40  C   UNL A   1      38.738  27.581  29.913  1.00  0.00     0.029 A 
ATOM     41  N   UNL A   1      40.279  29.164  30.043  1.00  0.00    -0.354 N 
ATOM     42  C   UNL A   1      44.098  28.666  27.775  1.00  0.00     0.074 A 
ATOM     43  C   UNL A   1      43.507  28.408  26.489  1.00  0.00     0.031 C 
ATOM     44  C   UNL A   1      38.155  28.657  30.495  1.00  0.00     0.029 A 
ATOM     45  C   UNL A   1      39.132  29.728  30.600  1.00  0.00     0.049 A 
ATOM     46  H   UNL A   1      41.155  29.613  30.060  1.00  0.00     0.167 HD
ATOM     47  C   UNL A   1      45.105  29.498  28.155  1.00  0.00     0.037 A 
ATOM     48  C   UNL A   1      38.992  30.987  31.091  1.00  0.00     0.037 A 
ATOM     49  C   UNL A   1      45.394  29.344  29.558  1.00  0.00     0.049 A 
ATOM     50  C   UNL A   1      40.349  31.483  31.410  1.00  0.00     0.074 A 
ATOM     51  C   UNL A   1      45.865  28.326  30.362  1.00  0.00     0.029 A 
ATOM     52  N   UNL A   1      44.837  30.271  30.398  1.00  0.00    -0.354 N 
ATOM     53  N   UNL A   1      41.078  31.028  32.388  1.00  0.00    -0.248 NA
ATOM     54  C   UNL A   1      41.060  32.235  30.390  1.00  0.00     0.031 C 
ATOM     55  C   UNL A   1      45.194  28.495  31.611  1.00  0.00     0.029 A 
ATOM     56  C   UNL A   1      44.399  29.637  31.527  1.00  0.00     0.049 A 
ATOM     57  H   UNL A   1      44.763  31.236  30.218  1.00  0.00     0.167 HD
ATOM     58  C   UNL A   1      42.365  31.031  31.883  1.00  0.00     0.074 A 
ATOM     59  C   UNL A   1      42.312  31.903  30.711  1.00  0.00     0.031 C 
ATOM     60  C   UNL A   1      43.267  30.095  32.297  1.00  0.00     0.037 A 
BRANCH  47  61
ATOM     61  C   UNL A   1      45.497  30.752  27.398  1.00  0.00     0.064 A 
ATOM     62  C   UNL A   1      46.852  30.944  27.057  1.00  0.00     0.173 A 
ATOM     63  C   UNL A   1      44.681  31.899  27.300  1.00  0.00     0.173 A 
ATOM     64  F   UNL A   1      47.729  29.931  27.134  1.00  0.00    -0.203 F 
ATOM     65  C   UNL A   1      47.364  32.205  26.735  1.00  0.00     0.198 A 
ATOM     66  C   UNL A   1      45.184  33.145  26.928  1.00  0.00     0.198 A 
ATOM     67  F   UNL A   1      43.395  31.898  27.667  1.00  0.00    -0.203 F 
ATOM     68  F   UNL A   1      48.682  32.364  26.557  1.00  0.00    -0.200 F 
ATOM     69  C   UNL A   1      46.530  33.306  26.680  1.00  0.00     0.200 A 
ATOM     70  F   UNL A   1      44.364  34.205  26.905  1.00  0.00    -0.200 F 
ATOM     71  F   UNL A   1      47.026  34.527  26.439  1.00  0.00    -0.200 F 
ENDBRANCH  47  61
BRANCH  48  72
ATOM     72  C   UNL A   1      37.825  31.908  31.079  1.00  0.00     0.064 A 
ATOM     73  C   UNL A   1      37.377  32.500  29.881  1.00  0.00     0.173 A 
ATOM     74  C   UNL A   1      36.938  31.967  32.169  1.00  0.00     0.173 A 
ATOM     75  F   UNL A   1      38.138  32.456  28.778  1.00  0.00    -0.203 F 
ATOM     76  C   UNL A   1      36.104  33.072  29.772  1.00  0.00     0.198 A 
ATOM     77  C   UNL A   1      35.670  32.542  32.059  1.00  0.00     0.198 A 
ATOM     78  F   UNL A   1      37.244  31.374  33.332  1.00  0.00    -0.203 F 
ATOM     79  F   UNL A   1      35.686  33.556  28.593  1.00  0.00    -0.200 F 
ATOM     80  C   UNL A   1      35.246  33.079  30.857  1.00  0.00     0.200 A 
ATOM     81  F   UNL A   1      34.833  32.510  33.106  1.00  0.00    -0.200 F 
ATOM     82  F   UNL A   1      33.999  33.560  30.734  1.00  0.00    -0.200 F 
ENDBRANCH  48  72
BRANCH  60  83
ATOM     83  C   UNL A   1      42.950  29.328  33.550  1.00  0.00     0.064 A 
ATOM     84  C   UNL A   1      42.155  28.170  33.596  1.00  0.00     0.173 A 
ATOM     85  C   UNL A   1      43.606  29.712  34.728  1.00  0.00     0.173 A 
ATOM     86  F   UNL A   1      41.562  27.691  32.495  1.00  0.00    -0.203 F 
ATOM     87  C   UNL A   1      42.008  27.447  34.780  1.00  0.00     0.198 A 
ATOM     88  C   UNL A   1      43.489  28.966  35.896  1.00  0.00     0.198 A 
ATOM     89  F   UNL A   1      44.412  30.786  34.728  1.00  0.00    -0.203 F 
ATOM     90  F   UNL A   1      41.243  26.345  34.805  1.00  0.00    -0.200 F 
ATOM     91  C   UNL A   1      42.684  27.839  35.924  1.00  0.00     0.200 A 
ATOM     92  F   UNL A   1      44.185  29.322  36.984  1.00  0.00    -0.200 F 
ATOM     93  F   UNL A   1      42.588  27.113  37.046  1.00  0.00    -0.200 F 
ENDBRANCH  60  83
ENDBRANCH  34  35
ENDBRANCH  26  29
ENDBRANCH  24  25
ENDBRANCH  23  24
ENDBRANCH   1  23
TORSDOF 15
ENDMDL
