MODEL 1
REMARK VINA RESULT:     -14.0      0.000      0.000
REMARK SMILES Cc1cc2c(=O)cc(-c3ccc(F)cc3)oc2c(C(=O)NCCCCCCNC(=O)c2ccc(-c3c4nc(c(-c5c(F)c(F)c(F)c(F)c5F)c5ccc([nH]5)c(-c5c(F)c(F)c(F)c(F)c5F)c5nc(c(-c6c(F)c(F)c(F)c(F)c6F)c6ccc3[nH]6)C=C5)C=C4)cc2)c1C
REMARK SMILES IDX 25 1 24 2 23 3 22 4 21 5 19 6 20 7 18 9 1 10 2 11 3 12 94 13
REMARK SMILES IDX 4 14 95 15 5 16 17 17 6 18 7 19 16 20 8 21 9 22 10 23 15 24
REMARK SMILES IDX 11 25 14 26 12 27 13 28 26 29 27 30 28 31 29 32 30 34 31 35
REMARK SMILES IDX 32 36 93 37 33 38 92 39 34 40 35 41 36 42 86 43 37 44 91 45
REMARK SMILES IDX 85 46 87 47 38 48 90 49 84 50 83 51 39 53 71 54 51 55 70 56
REMARK SMILES IDX 52 57 55 58 69 59 88 60 53 61 54 62 68 64 89 65 56 66 40 67
REMARK SMILES IDX 41 68 49 69 42 70 43 71 47 72 50 73 44 74 45 75 48 76 46 77
REMARK SMILES IDX 72 78 73 79 81 80 74 81 75 82 79 83 82 84 76 85 77 86 80 87
REMARK SMILES IDX 78 88 57 89 58 90 66 91 59 92 60 93 64 94 67 95 61 96 62 97
REMARK SMILES IDX 65 98 63 99
REMARK H PARENT 21 8 28 33 87 52 55 63
REMARK Flexibility Score: inf
ROOT
ATOM      1  C   UNL A   1      31.503  30.642  26.721  1.00  0.00     0.002 C 
ENDROOT
BRANCH   1   2
ATOM      2  C   UNL A   1      32.043  29.869  25.511  1.00  0.00     0.002 C 
BRANCH   2   3
ATOM      3  C   UNL A   1      33.436  29.231  25.587  1.00  0.00     0.021 C 
BRANCH   3   4
ATOM      4  C   UNL A   1      33.700  28.174  26.659  1.00  0.00     0.116 C 
BRANCH   4   5
ATOM      5  N   UNL A   1      32.621  27.253  26.941  1.00  0.00    -0.352 N 
ATOM      6  C   UNL A   1      32.356  25.975  26.479  1.00  0.00     0.255 C 
ATOM      7  O   UNL A   1      31.482  25.350  27.084  1.00  0.00    -0.269 OA
ATOM      8  H   UNL A   1      31.954  27.597  27.578  1.00  0.00     0.163 HD
BRANCH   6   9
ATOM      9  C   UNL A   1      33.020  25.330  25.287  1.00  0.00     0.086 A 
ATOM     10  C   UNL A   1      35.615  22.673  24.222  1.00  0.00     0.044 C 
ATOM     11  C   UNL A   1      34.555  23.745  24.185  1.00  0.00    -0.046 A 
ATOM     12  C   UNL A   1      34.183  24.248  22.940  1.00  0.00     0.019 A 
ATOM     13  C   UNL A   1      33.888  24.202  25.356  1.00  0.00    -0.032 A 
ATOM     14  C   UNL A   1      33.204  25.232  22.850  1.00  0.00     0.066 A 
ATOM     15  C   UNL A   1      34.061  23.370  26.600  1.00  0.00     0.045 C 
ATOM     16  C   UNL A   1      32.725  25.621  21.516  1.00  0.00     0.193 A 
ATOM     17  C   UNL A   1      32.652  25.811  23.999  1.00  0.00     0.151 A 
ATOM     18  O   UNL A   1      33.179  25.143  20.485  1.00  0.00    -0.289 OA
ATOM     19  C   UNL A   1      31.633  26.591  21.472  1.00  0.00     0.100 A 
ATOM     20  O   UNL A   1      31.729  26.837  23.876  1.00  0.00    -0.455 OA
ATOM     21  C   UNL A   1      31.203  27.122  22.623  1.00  0.00     0.138 A 
BRANCH  21  22
ATOM     22  C   UNL A   1      30.131  28.130  22.585  1.00  0.00     0.018 A 
ATOM     23  C   UNL A   1      28.858  27.823  23.083  1.00  0.00     0.015 A 
ATOM     24  C   UNL A   1      30.383  29.433  22.115  1.00  0.00     0.015 A 
ATOM     25  C   UNL A   1      27.863  28.803  23.134  1.00  0.00     0.040 A 
ATOM     26  C   UNL A   1      29.387  30.411  22.163  1.00  0.00     0.040 A 
ATOM     27  C   UNL A   1      28.138  30.087  22.676  1.00  0.00     0.123 A 
ATOM     28  F   UNL A   1      27.187  31.028  22.739  1.00  0.00    -0.207 F 
ENDBRANCH  21  22
ENDBRANCH   6   9
ENDBRANCH   4   5
ENDBRANCH   3   4
ENDBRANCH   2   3
ENDBRANCH   1   2
BRANCH   1  29
ATOM     29  C   UNL A   1      31.463  32.168  26.650  1.00  0.00     0.021 C 
BRANCH  29  30
ATOM     30  C   UNL A   1      32.682  32.919  27.169  1.00  0.00     0.116 C 
BRANCH  30  31
ATOM     31  N   UNL A   1      32.390  34.261  27.645  1.00  0.00    -0.352 N 
ATOM     32  C   UNL A   1      33.016  35.013  28.617  1.00  0.00     0.251 C 
ATOM     33  H   UNL A   1      31.628  34.701  27.205  1.00  0.00     0.163 HD
ATOM     34  O   UNL A   1      32.567  36.106  28.931  1.00  0.00    -0.269 OA
BRANCH  32  35
ATOM     35  C   UNL A   1      34.209  34.483  29.318  1.00  0.00     0.039 A 
ATOM     36  C   UNL A   1      35.494  34.655  28.800  1.00  0.00     0.014 A 
ATOM     37  C   UNL A   1      34.030  33.795  30.523  1.00  0.00     0.014 A 
ATOM     38  C   UNL A   1      36.572  33.998  29.390  1.00  0.00     0.010 A 
ATOM     39  C   UNL A   1      35.126  33.200  31.157  1.00  0.00     0.010 A 
ATOM     40  C   UNL A   1      36.399  33.255  30.569  1.00  0.00    -0.014 A 
BRANCH  40  41
ATOM     41  C   UNL A   1      37.553  32.537  31.170  1.00  0.00     0.031 A 
ATOM     42  C   UNL A   1      38.027  32.875  32.558  1.00  0.00     0.074 A 
ATOM     43  C   UNL A   1      38.152  31.548  30.479  1.00  0.00     0.049 A 
ATOM     44  N   UNL A   1      39.031  32.375  33.236  1.00  0.00    -0.248 NA
ATOM     45  C   UNL A   1      37.274  33.909  33.285  1.00  0.00     0.031 C 
ATOM     46  C   UNL A   1      37.771  31.113  29.135  1.00  0.00     0.029 A 
ATOM     47  N   UNL A   1      39.194  30.721  30.815  1.00  0.00    -0.354 N 
ATOM     48  C   UNL A   1      39.041  33.042  34.454  1.00  0.00     0.074 A 
ATOM     49  C   UNL A   1      37.957  34.000  34.418  1.00  0.00     0.031 C 
ATOM     50  C   UNL A   1      38.538  30.073  28.777  1.00  0.00     0.029 A 
ATOM     51  C   UNL A   1      39.505  29.808  29.837  1.00  0.00     0.049 A 
ATOM     52  H   UNL A   1      39.671  30.776  31.673  1.00  0.00     0.167 HD
ATOM     53  C   UNL A   1      39.873  32.862  35.508  1.00  0.00     0.037 A 
ATOM     54  C   UNL A   1      40.475  28.875  29.789  1.00  0.00     0.037 A 
ATOM     55  C   UNL A   1      40.940  31.895  35.547  1.00  0.00     0.049 A 
ATOM     56  C   UNL A   1      41.414  28.731  30.953  1.00  0.00     0.074 A 
ATOM     57  C   UNL A   1      41.834  31.637  36.573  1.00  0.00     0.029 A 
ATOM     58  N   UNL A   1      41.256  31.023  34.515  1.00  0.00    -0.354 N 
ATOM     59  N   UNL A   1      41.422  29.379  32.092  1.00  0.00    -0.248 NA
ATOM     60  C   UNL A   1      42.484  27.733  30.821  1.00  0.00     0.031 C 
ATOM     61  C   UNL A   1      42.712  30.637  36.148  1.00  0.00     0.029 A 
ATOM     62  C   UNL A   1      42.338  30.236  34.876  1.00  0.00     0.049 A 
ATOM     63  H   UNL A   1      40.781  30.970  33.655  1.00  0.00     0.167 HD
ATOM     64  C   UNL A   1      42.486  28.862  32.817  1.00  0.00     0.074 A 
ATOM     65  C   UNL A   1      43.088  27.830  31.997  1.00  0.00     0.031 C 
ATOM     66  C   UNL A   1      42.926  29.215  34.049  1.00  0.00     0.037 A 
BRANCH  53  67
ATOM     67  C   UNL A   1      39.675  33.732  36.715  1.00  0.00     0.064 A 
ATOM     68  C   UNL A   1      40.247  35.009  36.802  1.00  0.00     0.173 A 
ATOM     69  C   UNL A   1      38.839  33.316  37.763  1.00  0.00     0.173 A 
ATOM     70  F   UNL A   1      41.063  35.450  35.832  1.00  0.00    -0.203 F 
ATOM     71  C   UNL A   1      39.999  35.832  37.897  1.00  0.00     0.198 A 
ATOM     72  C   UNL A   1      38.574  34.150  38.844  1.00  0.00     0.198 A 
ATOM     73  F   UNL A   1      38.263  32.105  37.727  1.00  0.00    -0.203 F 
ATOM     74  F   UNL A   1      40.580  37.039  37.970  1.00  0.00    -0.200 F 
ATOM     75  C   UNL A   1      39.156  35.408  38.912  1.00  0.00     0.200 A 
ATOM     76  F   UNL A   1      37.748  33.743  39.819  1.00  0.00    -0.200 F 
ATOM     77  F   UNL A   1      38.905  36.208  39.957  1.00  0.00    -0.200 F 
ENDBRANCH  53  67
BRANCH  54  78
ATOM     78  C   UNL A   1      40.596  28.006  28.592  1.00  0.00     0.064 A 
ATOM     79  C   UNL A   1      39.930  26.775  28.525  1.00  0.00     0.173 A 
ATOM     80  C   UNL A   1      41.353  28.401  27.478  1.00  0.00     0.173 A 
ATOM     81  F   UNL A   1      39.212  26.345  29.573  1.00  0.00    -0.203 F 
ATOM     82  C   UNL A   1      40.018  25.971  27.391  1.00  0.00     0.198 A 
ATOM     83  C   UNL A   1      41.418  27.609  26.335  1.00  0.00     0.198 A 
ATOM     84  F   UNL A   1      42.008  29.572  27.493  1.00  0.00    -0.203 F 
ATOM     85  F   UNL A   1      39.395  24.785  27.363  1.00  0.00    -0.200 F 
ATOM     86  C   UNL A   1      40.754  26.393  26.294  1.00  0.00     0.200 A 
ATOM     87  F   UNL A   1      42.116  28.029  25.271  1.00  0.00    -0.200 F 
ATOM     88  F   UNL A   1      40.824  25.627  25.197  1.00  0.00    -0.200 F 
ENDBRANCH  54  78
BRANCH  66  89
ATOM     89  C   UNL A   1      44.105  28.466  34.598  1.00  0.00     0.064 A 
ATOM     90  C   UNL A   1      43.945  27.266  35.305  1.00  0.00     0.173 A 
ATOM     91  C   UNL A   1      45.410  28.929  34.371  1.00  0.00     0.173 A 
ATOM     92  F   UNL A   1      42.717  26.790  35.559  1.00  0.00    -0.203 F 
ATOM     93  C   UNL A   1      45.050  26.566  35.784  1.00  0.00     0.198 A 
ATOM     94  C   UNL A   1      46.513  28.214  34.827  1.00  0.00     0.198 A 
ATOM     95  F   UNL A   1      45.615  30.068  33.692  1.00  0.00    -0.203 F 
ATOM     96  F   UNL A   1      44.873  25.444  36.493  1.00  0.00    -0.200 F 
ATOM     97  C   UNL A   1      46.332  27.037  35.539  1.00  0.00     0.200 A 
ATOM     98  F   UNL A   1      47.750  28.662  34.579  1.00  0.00    -0.200 F 
ATOM     99  F   UNL A   1      47.394  26.358  35.994  1.00  0.00    -0.200 F 
ENDBRANCH  66  89
ENDBRANCH  40  41
ENDBRANCH  32  35
ENDBRANCH  30  31
ENDBRANCH  29  30
ENDBRANCH   1  29
TORSDOF 14
ENDMDL
MODEL 2
REMARK VINA RESULT:     -13.9      0.311      7.078
REMARK SMILES Cc1cc2c(=O)cc(-c3ccc(F)cc3)oc2c(C(=O)NCCCCCCNC(=O)c2ccc(-c3c4nc(c(-c5c(F)c(F)c(F)c(F)c5F)c5ccc([nH]5)c(-c5c(F)c(F)c(F)c(F)c5F)c5nc(c(-c6c(F)c(F)c(F)c(F)c6F)c6ccc3[nH]6)C=C5)C=C4)cc2)c1C
REMARK SMILES IDX 25 1 24 2 23 3 22 4 21 5 19 6 20 7 18 9 1 10 2 11 3 12 94 13
REMARK SMILES IDX 4 14 95 15 5 16 17 17 6 18 7 19 16 20 8 21 9 22 10 23 15 24
REMARK SMILES IDX 11 25 14 26 12 27 13 28 26 29 27 30 28 31 29 32 30 34 31 35
REMARK SMILES IDX 32 36 93 37 33 38 92 39 34 40 35 41 36 42 86 43 37 44 91 45
REMARK SMILES IDX 85 46 87 47 38 48 90 49 84 50 83 51 39 53 71 54 51 55 70 56
REMARK SMILES IDX 52 57 55 58 69 59 88 60 53 61 54 62 68 64 89 65 56 66 40 67
REMARK SMILES IDX 41 68 49 69 42 70 43 71 47 72 50 73 44 74 45 75 48 76 46 77
REMARK SMILES IDX 72 78 73 79 81 80 74 81 75 82 79 83 82 84 76 85 77 86 80 87
REMARK SMILES IDX 78 88 57 89 58 90 66 91 59 92 60 93 64 94 67 95 61 96 62 97
REMARK SMILES IDX 65 98 63 99
REMARK H PARENT 21 8 28 33 87 52 55 63
REMARK Flexibility Score: inf
ROOT
ATOM      1  C   UNL A   1      31.519  30.628  26.687  1.00  0.00     0.002 C 
ENDROOT
BRANCH   1   2
ATOM      2  C   UNL A   1      32.073  29.875  25.471  1.00  0.00     0.002 C 
BRANCH   2   3
ATOM      3  C   UNL A   1      33.440  29.186  25.572  1.00  0.00     0.021 C 
BRANCH   3   4
ATOM      4  C   UNL A   1      33.668  28.171  26.692  1.00  0.00     0.116 C 
BRANCH   4   5
ATOM      5  N   UNL A   1      32.588  27.245  26.958  1.00  0.00    -0.352 N 
ATOM      6  C   UNL A   1      32.330  25.970  26.484  1.00  0.00     0.255 C 
ATOM      7  O   UNL A   1      31.452  25.339  27.077  1.00  0.00    -0.269 OA
ATOM      8  H   UNL A   1      31.916  27.583  27.592  1.00  0.00     0.163 HD
BRANCH   6   9
ATOM      9  C   UNL A   1      33.006  25.336  25.292  1.00  0.00     0.086 A 
ATOM     10  C   UNL A   1      35.621  22.699  24.229  1.00  0.00     0.044 C 
ATOM     11  C   UNL A   1      34.556  23.766  24.191  1.00  0.00    -0.046 A 
ATOM     12  C   UNL A   1      34.189  24.274  22.946  1.00  0.00     0.019 A 
ATOM     13  C   UNL A   1      33.879  24.212  25.360  1.00  0.00    -0.032 A 
ATOM     14  C   UNL A   1      33.205  25.253  22.857  1.00  0.00     0.066 A 
ATOM     15  C   UNL A   1      34.048  23.374  26.601  1.00  0.00     0.045 C 
ATOM     16  C   UNL A   1      32.733  25.648  21.521  1.00  0.00     0.193 A 
ATOM     17  C   UNL A   1      32.643  25.822  24.005  1.00  0.00     0.151 A 
ATOM     18  O   UNL A   1      33.196  25.178  20.491  1.00  0.00    -0.289 OA
ATOM     19  C   UNL A   1      31.636  26.612  21.476  1.00  0.00     0.100 A 
ATOM     20  O   UNL A   1      31.715  26.845  23.882  1.00  0.00    -0.455 OA
ATOM     21  C   UNL A   1      31.196  27.134  22.627  1.00  0.00     0.138 A 
BRANCH  21  22
ATOM     22  C   UNL A   1      30.119  28.137  22.589  1.00  0.00     0.018 A 
ATOM     23  C   UNL A   1      28.847  27.823  23.087  1.00  0.00     0.015 A 
ATOM     24  C   UNL A   1      30.364  29.440  22.116  1.00  0.00     0.015 A 
ATOM     25  C   UNL A   1      27.848  28.799  23.137  1.00  0.00     0.040 A 
ATOM     26  C   UNL A   1      29.363  30.413  22.163  1.00  0.00     0.040 A 
ATOM     27  C   UNL A   1      28.116  30.083  22.678  1.00  0.00     0.123 A 
ATOM     28  F   UNL A   1      27.160  31.020  22.740  1.00  0.00    -0.207 F 
ENDBRANCH  21  22
ENDBRANCH   6   9
ENDBRANCH   4   5
ENDBRANCH   3   4
ENDBRANCH   2   3
ENDBRANCH   1   2
BRANCH   1  29
ATOM     29  C   UNL A   1      31.488  32.155  26.645  1.00  0.00     0.021 C 
BRANCH  29  30
ATOM     30  C   UNL A   1      32.679  32.891  27.243  1.00  0.00     0.116 C 
BRANCH  30  31
ATOM     31  N   UNL A   1      32.381  34.245  27.676  1.00  0.00    -0.352 N 
ATOM     32  C   UNL A   1      32.985  35.021  28.642  1.00  0.00     0.251 C 
ATOM     33  H   UNL A   1      31.630  34.675  27.207  1.00  0.00     0.163 HD
ATOM     34  O   UNL A   1      32.531  36.124  28.917  1.00  0.00    -0.269 OA
BRANCH  32  35
ATOM     35  C   UNL A   1      34.159  34.508  29.386  1.00  0.00     0.039 A 
ATOM     36  C   UNL A   1      35.455  34.639  28.881  1.00  0.00     0.014 A 
ATOM     37  C   UNL A   1      33.951  33.876  30.617  1.00  0.00     0.014 A 
ATOM     38  C   UNL A   1      36.514  33.995  29.517  1.00  0.00     0.010 A 
ATOM     39  C   UNL A   1      35.029  33.296  31.295  1.00  0.00     0.010 A 
ATOM     40  C   UNL A   1      36.311  33.307  30.725  1.00  0.00    -0.014 A 
BRANCH  40  41
ATOM     41  C   UNL A   1      37.446  32.602  31.376  1.00  0.00     0.031 A 
ATOM     42  C   UNL A   1      38.175  31.497  30.658  1.00  0.00     0.074 A 
ATOM     43  C   UNL A   1      37.850  32.986  32.602  1.00  0.00     0.049 A 
ATOM     44  N   UNL A   1      39.169  30.753  31.076  1.00  0.00    -0.248 NA
ATOM     45  C   UNL A   1      37.732  31.187  29.291  1.00  0.00     0.031 C 
ATOM     46  C   UNL A   1      37.240  34.057  33.390  1.00  0.00     0.029 A 
ATOM     47  N   UNL A   1      38.876  32.532  33.393  1.00  0.00    -0.354 N 
ATOM     48  C   UNL A   1      39.457  29.879  30.035  1.00  0.00     0.074 A 
ATOM     49  C   UNL A   1      38.519  30.168  28.972  1.00  0.00     0.031 C 
ATOM     50  C   UNL A   1      37.927  34.208  34.532  1.00  0.00     0.029 A 
ATOM     51  C   UNL A   1      38.985  33.204  34.587  1.00  0.00     0.049 A 
ATOM     52  H   UNL A   1      39.475  31.797  33.131  1.00  0.00     0.167 HD
ATOM     53  C   UNL A   1      40.423  28.931  29.972  1.00  0.00     0.037 A 
ATOM     54  C   UNL A   1      39.830  33.020  35.619  1.00  0.00     0.037 A 
ATOM     55  C   UNL A   1      41.366  28.658  31.025  1.00  0.00     0.049 A 
ATOM     56  C   UNL A   1      40.859  31.928  35.540  1.00  0.00     0.074 A 
ATOM     57  C   UNL A   1      42.383  27.718  31.050  1.00  0.00     0.029 A 
ATOM     58  N   UNL A   1      41.411  29.327  32.239  1.00  0.00    -0.354 N 
ATOM     59  N   UNL A   1      41.110  31.099  34.556  1.00  0.00    -0.248 NA
ATOM     60  C   UNL A   1      41.716  31.740  36.718  1.00  0.00     0.031 C 
ATOM     61  C   UNL A   1      43.019  27.793  32.293  1.00  0.00     0.029 A 
ATOM     62  C   UNL A   1      42.430  28.811  33.025  1.00  0.00     0.049 A 
ATOM     63  H   UNL A   1      40.809  30.059  32.504  1.00  0.00     0.167 HD
ATOM     64  C   UNL A   1      42.158  30.301  34.989  1.00  0.00     0.074 A 
ATOM     65  C   UNL A   1      42.512  30.758  36.318  1.00  0.00     0.031 C 
ATOM     66  C   UNL A   1      42.769  29.277  34.345  1.00  0.00     0.037 A 
BRANCH  53  67
ATOM     67  C   UNL A   1      40.513  28.105  28.721  1.00  0.00     0.064 A 
ATOM     68  C   UNL A   1      41.313  28.497  27.638  1.00  0.00     0.173 A 
ATOM     69  C   UNL A   1      39.854  26.869  28.635  1.00  0.00     0.173 A 
ATOM     70  F   UNL A   1      41.954  29.676  27.665  1.00  0.00    -0.203 F 
ATOM     71  C   UNL A   1      41.441  27.688  26.513  1.00  0.00     0.198 A 
ATOM     72  C   UNL A   1      40.004  26.051  27.520  1.00  0.00     0.198 A 
ATOM     73  F   UNL A   1      39.080  26.445  29.647  1.00  0.00    -0.203 F 
ATOM     74  F   UNL A   1      42.190  28.096  25.478  1.00  0.00    -0.200 F 
ATOM     75  C   UNL A   1      40.795  26.462  26.457  1.00  0.00     0.200 A 
ATOM     76  F   UNL A   1      39.388  24.861  27.473  1.00  0.00    -0.200 F 
ATOM     77  F   UNL A   1      40.934  25.677  25.380  1.00  0.00    -0.200 F 
ENDBRANCH  53  67
BRANCH  54  78
ATOM     78  C   UNL A   1      39.730  33.897  36.811  1.00  0.00     0.064 A 
ATOM     79  C   UNL A   1      40.412  35.121  36.864  1.00  0.00     0.173 A 
ATOM     80  C   UNL A   1      38.928  33.549  37.908  1.00  0.00     0.173 A 
ATOM     81  F   UNL A   1      41.209  35.487  35.849  1.00  0.00    -0.203 F 
ATOM     82  C   UNL A   1      40.298  35.960  37.970  1.00  0.00     0.198 A 
ATOM     83  C   UNL A   1      38.791  34.402  39.000  1.00  0.00     0.198 A 
ATOM     84  F   UNL A   1      38.253  32.389  37.904  1.00  0.00    -0.203 F 
ATOM     85  F   UNL A   1      40.983  37.111  38.008  1.00  0.00    -0.200 F 
ATOM     86  C   UNL A   1      39.480  35.605  39.032  1.00  0.00     0.200 A 
ATOM     87  F   UNL A   1      37.987  34.062  40.017  1.00  0.00    -0.200 F 
ATOM     88  F   UNL A   1      39.356  36.421  40.088  1.00  0.00    -0.200 F 
ENDBRANCH  54  78
BRANCH  66  89
ATOM     89  C   UNL A   1      43.898  28.592  35.057  1.00  0.00     0.064 A 
ATOM     90  C   UNL A   1      43.678  27.467  35.865  1.00  0.00     0.173 A 
ATOM     91  C   UNL A   1      45.218  29.038  34.892  1.00  0.00     0.173 A 
ATOM     92  F   UNL A   1      42.433  27.012  36.065  1.00  0.00    -0.203 F 
ATOM     93  C   UNL A   1      44.739  26.824  36.498  1.00  0.00     0.198 A 
ATOM     94  C   UNL A   1      46.279  28.377  35.504  1.00  0.00     0.198 A 
ATOM     95  F   UNL A   1      45.479  30.106  34.123  1.00  0.00    -0.203 F 
ATOM     96  F   UNL A   1      44.504  25.776  37.297  1.00  0.00    -0.200 F 
ATOM     97  C   UNL A   1      46.038  27.275  36.311  1.00  0.00     0.200 A 
ATOM     98  F   UNL A   1      47.534  28.806  35.313  1.00  0.00    -0.200 F 
ATOM     99  F   UNL A   1      47.059  26.651  36.915  1.00  0.00    -0.200 F 
ENDBRANCH  66  89
ENDBRANCH  40  41
ENDBRANCH  32  35
ENDBRANCH  30  31
ENDBRANCH  29  30
ENDBRANCH   1  29
TORSDOF 14
ENDMDL
MODEL 3
REMARK VINA RESULT:     -13.8      0.432      1.603
REMARK SMILES Cc1cc2c(=O)cc(-c3ccc(F)cc3)oc2c(C(=O)NCCCCCCNC(=O)c2ccc(-c3c4nc(c(-c5c(F)c(F)c(F)c(F)c5F)c5ccc([nH]5)c(-c5c(F)c(F)c(F)c(F)c5F)c5nc(c(-c6c(F)c(F)c(F)c(F)c6F)c6ccc3[nH]6)C=C5)C=C4)cc2)c1C
REMARK SMILES IDX 25 1 24 2 23 3 22 4 21 5 19 6 20 7 18 9 1 10 2 11 3 12 94 13
REMARK SMILES IDX 4 14 95 15 5 16 17 17 6 18 7 19 16 20 8 21 9 22 10 23 15 24
REMARK SMILES IDX 11 25 14 26 12 27 13 28 26 29 27 30 28 31 29 32 30 34 31 35
REMARK SMILES IDX 32 36 93 37 33 38 92 39 34 40 35 41 36 42 86 43 37 44 91 45
REMARK SMILES IDX 85 46 87 47 38 48 90 49 84 50 83 51 39 53 71 54 51 55 70 56
REMARK SMILES IDX 52 57 55 58 69 59 88 60 53 61 54 62 68 64 89 65 56 66 40 67
REMARK SMILES IDX 41 68 49 69 42 70 43 71 47 72 50 73 44 74 45 75 48 76 46 77
REMARK SMILES IDX 72 78 73 79 81 80 74 81 75 82 79 83 82 84 76 85 77 86 80 87
REMARK SMILES IDX 78 88 57 89 58 90 66 91 59 92 60 93 64 94 67 95 61 96 62 97
REMARK SMILES IDX 65 98 63 99
REMARK H PARENT 21 8 28 33 87 52 55 63
REMARK Flexibility Score: inf
ROOT
ATOM      1  C   UNL A   1      31.241  31.156  25.709  1.00  0.00     0.002 C 
ENDROOT
BRANCH   1   2
ATOM      2  C   UNL A   1      31.726  29.701  25.713  1.00  0.00     0.002 C 
BRANCH   2   3
ATOM      3  C   UNL A   1      32.166  29.059  27.036  1.00  0.00     0.021 C 
BRANCH   3   4
ATOM      4  C   UNL A   1      32.603  27.595  27.029  1.00  0.00     0.116 C 
BRANCH   4   5
ATOM      5  N   UNL A   1      31.550  26.603  27.070  1.00  0.00    -0.352 N 
ATOM      6  C   UNL A   1      31.420  25.372  26.451  1.00  0.00     0.255 C 
ATOM      7  O   UNL A   1      30.512  24.649  26.867  1.00  0.00    -0.269 OA
ATOM      8  H   UNL A   1      30.789  26.848  27.643  1.00  0.00     0.163 HD
BRANCH   6   9
ATOM      9  C   UNL A   1      32.267  24.887  25.299  1.00  0.00     0.086 A 
ATOM     10  C   UNL A   1      34.940  22.294  24.269  1.00  0.00     0.044 C 
ATOM     11  C   UNL A   1      33.931  23.415  24.229  1.00  0.00    -0.046 A 
ATOM     12  C   UNL A   1      33.797  24.126  23.038  1.00  0.00     0.019 A 
ATOM     13  C   UNL A   1      33.080  23.717  25.328  1.00  0.00    -0.032 A 
ATOM     14  C   UNL A   1      32.875  25.163  22.947  1.00  0.00     0.066 A 
ATOM     15  C   UNL A   1      33.010  22.692  26.431  1.00  0.00     0.045 C 
ATOM     16  C   UNL A   1      32.649  25.782  21.632  1.00  0.00     0.193 A 
ATOM     17  C   UNL A   1      32.144  25.583  24.064  1.00  0.00     0.151 A 
ATOM     18  O   UNL A   1      33.265  25.448  20.629  1.00  0.00    -0.289 OA
ATOM     19  C   UNL A   1      31.607  26.805  21.563  1.00  0.00     0.100 A 
ATOM     20  O   UNL A   1      31.284  26.664  23.956  1.00  0.00    -0.455 OA
ATOM     21  C   UNL A   1      30.994  27.170  22.696  1.00  0.00     0.138 A 
BRANCH  21  22
ATOM     22  C   UNL A   1      29.972  28.228  22.643  1.00  0.00     0.018 A 
ATOM     23  C   UNL A   1      28.686  27.990  23.148  1.00  0.00     0.015 A 
ATOM     24  C   UNL A   1      30.285  29.509  22.150  1.00  0.00     0.015 A 
ATOM     25  C   UNL A   1      27.740  29.019  23.183  1.00  0.00     0.040 A 
ATOM     26  C   UNL A   1      29.337  30.534  22.183  1.00  0.00     0.040 A 
ATOM     27  C   UNL A   1      28.075  30.280  22.703  1.00  0.00     0.123 A 
ATOM     28  F   UNL A   1      27.170  31.267  22.752  1.00  0.00    -0.207 F 
ENDBRANCH  21  22
ENDBRANCH   6   9
ENDBRANCH   4   5
ENDBRANCH   3   4
ENDBRANCH   2   3
ENDBRANCH   1   2
BRANCH   1  29
ATOM     29  C   UNL A   1      31.391  31.977  26.990  1.00  0.00     0.021 C 
BRANCH  29  30
ATOM     30  C   UNL A   1      32.625  32.861  27.108  1.00  0.00     0.116 C 
BRANCH  30  31
ATOM     31  N   UNL A   1      32.345  34.208  27.577  1.00  0.00    -0.352 N 
ATOM     32  C   UNL A   1      32.981  34.963  28.538  1.00  0.00     0.251 C 
ATOM     33  H   UNL A   1      31.581  34.649  27.139  1.00  0.00     0.163 HD
ATOM     34  O   UNL A   1      32.541  36.061  28.848  1.00  0.00    -0.269 OA
BRANCH  32  35
ATOM     35  C   UNL A   1      34.177  34.432  29.235  1.00  0.00     0.039 A 
ATOM     36  C   UNL A   1      35.462  34.616  28.719  1.00  0.00     0.014 A 
ATOM     37  C   UNL A   1      34.000  33.730  30.432  1.00  0.00     0.014 A 
ATOM     38  C   UNL A   1      36.543  33.959  29.303  1.00  0.00     0.010 A 
ATOM     39  C   UNL A   1      35.099  33.134  31.060  1.00  0.00     0.010 A 
ATOM     40  C   UNL A   1      36.372  33.202  30.474  1.00  0.00    -0.014 A 
BRANCH  40  41
ATOM     41  C   UNL A   1      37.530  32.484  31.068  1.00  0.00     0.031 A 
ATOM     42  C   UNL A   1      38.012  32.822  32.453  1.00  0.00     0.074 A 
ATOM     43  C   UNL A   1      38.123  31.493  30.374  1.00  0.00     0.049 A 
ATOM     44  N   UNL A   1      39.020  32.321  33.124  1.00  0.00    -0.248 NA
ATOM     45  C   UNL A   1      37.265  33.857  33.184  1.00  0.00     0.031 C 
ATOM     46  C   UNL A   1      37.733  31.058  29.033  1.00  0.00     0.029 A 
ATOM     47  N   UNL A   1      39.166  30.665  30.704  1.00  0.00    -0.354 N 
ATOM     48  C   UNL A   1      39.039  32.990  34.342  1.00  0.00     0.074 A 
ATOM     49  C   UNL A   1      37.956  33.949  34.312  1.00  0.00     0.031 C 
ATOM     50  C   UNL A   1      38.496  30.016  28.671  1.00  0.00     0.029 A 
ATOM     51  C   UNL A   1      39.470  29.751  29.725  1.00  0.00     0.049 A 
ATOM     52  H   UNL A   1      39.649  30.721  31.559  1.00  0.00     0.167 HD
ATOM     53  C   UNL A   1      39.878  32.809  35.390  1.00  0.00     0.037 A 
ATOM     54  C   UNL A   1      40.439  28.817  29.671  1.00  0.00     0.037 A 
ATOM     55  C   UNL A   1      40.944  31.842  35.423  1.00  0.00     0.049 A 
ATOM     56  C   UNL A   1      41.385  28.674  30.829  1.00  0.00     0.074 A 
ATOM     57  C   UNL A   1      41.844  31.584  36.444  1.00  0.00     0.029 A 
ATOM     58  N   UNL A   1      41.252  30.969  34.390  1.00  0.00    -0.354 N 
ATOM     59  N   UNL A   1      41.402  29.323  31.968  1.00  0.00    -0.248 NA
ATOM     60  C   UNL A   1      42.454  27.675  30.691  1.00  0.00     0.031 C 
ATOM     61  C   UNL A   1      42.719  30.582  36.014  1.00  0.00     0.029 A 
ATOM     62  C   UNL A   1      42.336  30.182  34.745  1.00  0.00     0.049 A 
ATOM     63  H   UNL A   1      40.771  30.916  33.533  1.00  0.00     0.167 HD
ATOM     64  C   UNL A   1      42.469  28.805  32.686  1.00  0.00     0.074 A 
ATOM     65  C   UNL A   1      43.066  27.772  31.864  1.00  0.00     0.031 C 
ATOM     66  C   UNL A   1      42.918  29.158  33.915  1.00  0.00     0.037 A 
BRANCH  53  67
ATOM     67  C   UNL A   1      39.688  33.681  36.598  1.00  0.00     0.064 A 
ATOM     68  C   UNL A   1      40.275  34.951  36.686  1.00  0.00     0.173 A 
ATOM     69  C   UNL A   1      38.847  33.273  37.645  1.00  0.00     0.173 A 
ATOM     70  F   UNL A   1      41.097  35.384  35.718  1.00  0.00    -0.203 F 
ATOM     71  C   UNL A   1      40.035  35.777  37.782  1.00  0.00     0.198 A 
ATOM     72  C   UNL A   1      38.589  34.110  38.726  1.00  0.00     0.198 A 
ATOM     73  F   UNL A   1      38.256  32.069  37.607  1.00  0.00    -0.203 F 
ATOM     74  F   UNL A   1      40.629  36.976  37.857  1.00  0.00    -0.200 F 
ATOM     75  C   UNL A   1      39.186  35.361  38.796  1.00  0.00     0.200 A 
ATOM     76  F   UNL A   1      37.758  33.711  39.700  1.00  0.00    -0.200 F 
ATOM     77  F   UNL A   1      38.943  36.163  39.841  1.00  0.00    -0.200 F 
ENDBRANCH  53  67
BRANCH  54  78
ATOM     78  C   UNL A   1      40.552  27.948  28.474  1.00  0.00     0.064 A 
ATOM     79  C   UNL A   1      41.312  28.345  27.366  1.00  0.00     0.173 A 
ATOM     80  C   UNL A   1      39.930  26.691  28.423  1.00  0.00     0.173 A 
ATOM     81  F   UNL A   1      41.907  29.547  27.358  1.00  0.00    -0.203 F 
ATOM     82  C   UNL A   1      41.444  27.519  26.252  1.00  0.00     0.198 A 
ATOM     83  C   UNL A   1      40.086  25.855  27.321  1.00  0.00     0.198 A 
ATOM     84  F   UNL A   1      39.193  26.265  29.460  1.00  0.00    -0.203 F 
ATOM     85  F   UNL A   1      42.153  27.934  25.193  1.00  0.00    -0.200 F 
ATOM     86  C   UNL A   1      40.839  26.271  26.234  1.00  0.00     0.200 A 
ATOM     87  F   UNL A   1      39.514  24.643  27.316  1.00  0.00    -0.200 F 
ATOM     88  F   UNL A   1      40.981  25.470  25.170  1.00  0.00    -0.200 F 
ENDBRANCH  54  78
BRANCH  66  89
ATOM     89  C   UNL A   1      44.100  28.409  34.456  1.00  0.00     0.064 A 
ATOM     90  C   UNL A   1      45.408  28.884  34.285  1.00  0.00     0.173 A 
ATOM     91  C   UNL A   1      43.917  27.231  35.195  1.00  0.00     0.173 A 
ATOM     92  F   UNL A   1      45.635  29.999  33.574  1.00  0.00    -0.203 F 
ATOM     93  C   UNL A   1      46.494  28.193  34.818  1.00  0.00     0.198 A 
ATOM     94  C   UNL A   1      45.002  26.558  35.749  1.00  0.00     0.198 A 
ATOM     95  F   UNL A   1      42.683  26.741  35.393  1.00  0.00    -0.203 F 
ATOM     96  F   UNL A   1      47.739  28.641  34.608  1.00  0.00    -0.200 F 
ATOM     97  C   UNL A   1      46.289  27.035  35.555  1.00  0.00     0.200 A 
ATOM     98  F   UNL A   1      44.802  25.447  36.471  1.00  0.00    -0.200 F 
ATOM     99  F   UNL A   1      47.335  26.377  36.073  1.00  0.00    -0.200 F 
ENDBRANCH  66  89
ENDBRANCH  40  41
ENDBRANCH  32  35
ENDBRANCH  30  31
ENDBRANCH  29  30
ENDBRANCH   1  29
TORSDOF 14
ENDMDL
