MODEL 1
REMARK VINA RESULT:     -13.1      0.000      0.000
REMARK SMILES CC(C)c1ccc([C@]2(C(=O)NCCCCCCNC(=O)c3ccc(-c4c5nc(c(-c6c(F)c(F)c(F)c(F)c6F)c6ccc([nH]6)c(-c6c(F)c(F)c(F)c(F)c6F)c6nc(c(-c7c(F)c(F)c(F)c(F)c7F)c7ccc4[nH]7)C=C6)C=C5)cc3)CCC[C@@H]2C)cc1
REMARK SMILES IDX 14 1 13 2 12 3 11 4 9 5 10 6 8 8 84 9 87 10 85 11 86 12
REMARK SMILES IDX 88 13 7 14 4 15 5 16 90 17 6 18 89 19 2 20 1 21 3 22 15 23
REMARK SMILES IDX 16 24 17 25 18 26 19 27 20 29 21 30 22 31 83 32 23 33 82 34
REMARK SMILES IDX 24 35 25 36 26 37 76 38 27 39 81 40 75 41 77 42 28 43 80 44
REMARK SMILES IDX 74 45 73 46 29 48 61 49 41 50 60 51 42 52 45 53 59 54 78 55
REMARK SMILES IDX 43 56 44 57 58 59 79 60 46 61 30 62 31 63 39 64 32 65 33 66
REMARK SMILES IDX 37 67 40 68 34 69 35 70 38 71 36 72 62 73 63 74 71 75 64 76
REMARK SMILES IDX 65 77 69 78 72 79 66 80 67 81 70 82 68 83 47 84 48 85 56 86
REMARK SMILES IDX 49 87 50 88 54 89 57 90 51 91 52 92 55 93 53 94
REMARK H PARENT 11 7 18 28 77 47 45 58
REMARK Flexibility Score: inf
ROOT
ATOM      1  C   UNL A   1      32.325  29.810  27.026  1.00  0.00     0.002 C 
ENDROOT
BRANCH   1   2
ATOM      2  C   UNL A   1      31.515  28.627  27.551  1.00  0.00     0.021 C 
BRANCH   2   3
ATOM      3  C   UNL A   1      32.092  27.256  27.239  1.00  0.00     0.116 C 
BRANCH   3   4
ATOM      4  N   UNL A   1      31.166  26.309  26.685  1.00  0.00    -0.355 N 
ATOM      5  C   UNL A   1      31.083  25.720  25.461  1.00  0.00     0.230 C 
ATOM      6  O   UNL A   1      30.437  24.660  25.491  1.00  0.00    -0.274 OA
ATOM      7  H   UNL A   1      30.456  26.032  27.309  1.00  0.00     0.163 HD
BRANCH   5   8
ATOM      8  C   UNL A   1      31.689  26.276  24.085  1.00  0.00     0.077 C 
ATOM      9  C   UNL A   1      33.099  26.900  24.263  1.00  0.00     0.022 C 
ATOM     10  C   UNL A   1      31.951  25.161  22.995  1.00  0.00     0.006 C 
ATOM     11  C   UNL A   1      34.140  25.920  23.698  1.00  0.00     0.002 C 
ATOM     12  C   UNL A   1      33.386  24.677  23.232  1.00  0.00     0.005 C 
ATOM     13  C   UNL A   1      31.945  25.568  21.502  1.00  0.00     0.009 C 
BRANCH   8  14
ATOM     14  C   UNL A   1      30.658  27.350  23.625  1.00  0.00    -0.032 A 
ATOM     15  C   UNL A   1      28.797  29.352  22.801  1.00  0.00    -0.045 A 
ATOM     16  C   UNL A   1      30.171  29.589  22.759  1.00  0.00     0.004 A 
ATOM     17  C   UNL A   1      28.367  28.069  23.174  1.00  0.00     0.004 A 
ATOM     18  C   UNL A   1      31.080  28.587  23.109  1.00  0.00     0.005 A 
ATOM     19  C   UNL A   1      29.280  27.086  23.581  1.00  0.00     0.005 A 
BRANCH  15  20
ATOM     20  C   UNL A   1      27.769  30.423  22.474  1.00  0.00     0.013 C 
ATOM     21  C   UNL A   1      27.662  31.415  23.638  1.00  0.00     0.012 C 
ATOM     22  C   UNL A   1      28.031  31.189  21.171  1.00  0.00     0.012 C 
ENDBRANCH  15  20
ENDBRANCH   8  14
ENDBRANCH   5   8
ENDBRANCH   3   4
ENDBRANCH   2   3
ENDBRANCH   1   2
BRANCH   1  23
ATOM     23  C   UNL A   1      31.588  30.750  26.063  1.00  0.00     0.002 C 
BRANCH  23  24
ATOM     24  C   UNL A   1      31.380  32.189  26.552  1.00  0.00     0.021 C 
BRANCH  24  25
ATOM     25  C   UNL A   1      32.554  32.793  27.317  1.00  0.00     0.116 C 
BRANCH  25  26
ATOM     26  N   UNL A   1      32.339  34.196  27.630  1.00  0.00    -0.352 N 
ATOM     27  C   UNL A   1      32.940  34.991  28.572  1.00  0.00     0.251 C 
ATOM     28  H   UNL A   1      31.656  34.645  27.080  1.00  0.00     0.163 HD
ATOM     29  O   UNL A   1      32.475  36.093  28.838  1.00  0.00    -0.269 OA
BRANCH  27  30
ATOM     30  C   UNL A   1      34.144  34.512  29.282  1.00  0.00     0.039 A 
ATOM     31  C   UNL A   1      34.001  33.962  30.558  1.00  0.00     0.014 A 
ATOM     32  C   UNL A   1      35.409  34.620  28.698  1.00  0.00     0.014 A 
ATOM     33  C   UNL A   1      35.119  33.448  31.218  1.00  0.00     0.010 A 
ATOM     34  C   UNL A   1      36.512  34.050  29.330  1.00  0.00     0.010 A 
ATOM     35  C   UNL A   1      36.376  33.449  30.590  1.00  0.00    -0.014 A 
BRANCH  35  36
ATOM     36  C   UNL A   1      37.548  32.784  31.213  1.00  0.00     0.031 A 
ATOM     37  C   UNL A   1      38.199  31.608  30.543  1.00  0.00     0.074 A 
ATOM     38  C   UNL A   1      37.963  33.188  32.430  1.00  0.00     0.049 A 
ATOM     39  N   UNL A   1      39.161  30.835  30.982  1.00  0.00    -0.248 NA
ATOM     40  C   UNL A   1      37.690  31.233  29.215  1.00  0.00     0.031 C 
ATOM     41  C   UNL A   1      37.376  34.288  33.200  1.00  0.00     0.029 A 
ATOM     42  N   UNL A   1      38.957  32.708  33.247  1.00  0.00    -0.354 N 
ATOM     43  C   UNL A   1      39.354  29.875  29.999  1.00  0.00     0.074 A 
ATOM     44  C   UNL A   1      38.392  30.139  28.952  1.00  0.00     0.031 C 
ATOM     45  C   UNL A   1      38.021  34.400  34.371  1.00  0.00     0.029 A 
ATOM     46  C   UNL A   1      39.034  33.353  34.458  1.00  0.00     0.049 A 
ATOM     47  H   UNL A   1      39.557  31.971  32.990  1.00  0.00     0.167 HD
ATOM     48  C   UNL A   1      40.265  28.872  29.972  1.00  0.00     0.037 A 
ATOM     49  C   UNL A   1      39.814  33.111  35.529  1.00  0.00     0.037 A 
ATOM     50  C   UNL A   1      41.244  28.640  31.001  1.00  0.00     0.049 A 
ATOM     51  C   UNL A   1      40.807  31.979  35.471  1.00  0.00     0.074 A 
ATOM     52  C   UNL A   1      42.277  27.719  31.011  1.00  0.00     0.029 A 
ATOM     53  N   UNL A   1      41.304  29.325  32.205  1.00  0.00    -0.354 N 
ATOM     54  N   UNL A   1      41.051  31.144  34.490  1.00  0.00    -0.248 NA
ATOM     55  C   UNL A   1      41.629  31.753  36.668  1.00  0.00     0.031 C 
ATOM     56  C   UNL A   1      42.920  27.800  32.250  1.00  0.00     0.029 A 
ATOM     57  C   UNL A   1      42.325  28.811  32.987  1.00  0.00     0.049 A 
ATOM     58  H   UNL A   1      40.708  30.064  32.466  1.00  0.00     0.167 HD
ATOM     59  C   UNL A   1      42.065  30.311  34.942  1.00  0.00     0.074 A 
ATOM     60  C   UNL A   1      42.408  30.756  36.277  1.00  0.00     0.031 C 
ATOM     61  C   UNL A   1      42.655  29.267  34.313  1.00  0.00     0.037 A 
BRANCH  48  62
ATOM     62  C   UNL A   1      40.256  27.938  28.797  1.00  0.00     0.064 A 
ATOM     63  C   UNL A   1      40.975  28.215  27.626  1.00  0.00     0.173 A 
ATOM     64  C   UNL A   1      39.591  26.704  28.884  1.00  0.00     0.173 A 
ATOM     65  F   UNL A   1      41.621  29.382  27.490  1.00  0.00    -0.203 F 
ATOM     66  C   UNL A   1      41.019  27.297  26.579  1.00  0.00     0.198 A 
ATOM     67  C   UNL A   1      39.662  25.777  27.848  1.00  0.00     0.198 A 
ATOM     68  F   UNL A   1      38.896  26.387  29.985  1.00  0.00    -0.203 F 
ATOM     69  F   UNL A   1      41.689  27.594  25.458  1.00  0.00    -0.200 F 
ATOM     70  C   UNL A   1      40.372  26.075  26.696  1.00  0.00     0.200 A 
ATOM     71  F   UNL A   1      39.049  24.591  27.968  1.00  0.00    -0.200 F 
ATOM     72  F   UNL A   1      40.435  25.184  25.696  1.00  0.00    -0.200 F 
ENDBRANCH  48  62
BRANCH  49  73
ATOM     73  C   UNL A   1      39.678  33.935  36.760  1.00  0.00     0.064 A 
ATOM     74  C   UNL A   1      38.863  33.522  37.822  1.00  0.00     0.173 A 
ATOM     75  C   UNL A   1      40.334  35.170  36.885  1.00  0.00     0.173 A 
ATOM     76  F   UNL A   1      38.197  32.360  37.742  1.00  0.00    -0.203 F 
ATOM     77  C   UNL A   1      38.679  34.327  38.945  1.00  0.00     0.198 A 
ATOM     78  C   UNL A   1      40.179  35.957  38.024  1.00  0.00     0.198 A 
ATOM     79  F   UNL A   1      41.132  35.611  35.901  1.00  0.00    -0.203 F 
ATOM     80  F   UNL A   1      37.843  33.936  39.917  1.00  0.00    -0.200 F 
ATOM     81  C   UNL A   1      39.340  35.541  39.047  1.00  0.00     0.200 A 
ATOM     82  F   UNL A   1      40.832  37.122  38.125  1.00  0.00    -0.200 F 
ATOM     83  F   UNL A   1      39.161  36.317  40.125  1.00  0.00    -0.200 F 
ENDBRANCH  49  73
BRANCH  61  84
ATOM     84  C   UNL A   1      43.742  28.540  35.049  1.00  0.00     0.064 A 
ATOM     85  C   UNL A   1      43.466  27.408  35.829  1.00  0.00     0.173 A 
ATOM     86  C   UNL A   1      45.080  28.943  34.927  1.00  0.00     0.173 A 
ATOM     87  F   UNL A   1      42.201  26.992  35.992  1.00  0.00    -0.203 F 
ATOM     88  C   UNL A   1      44.488  26.716  36.474  1.00  0.00     0.198 A 
ATOM     89  C   UNL A   1      46.103  28.231  35.545  1.00  0.00     0.198 A 
ATOM     90  F   UNL A   1      45.397  30.016  34.187  1.00  0.00    -0.203 F 
ATOM     91  F   UNL A   1      44.197  25.662  37.248  1.00  0.00    -0.200 F 
ATOM     92  C   UNL A   1      45.806  27.122  36.323  1.00  0.00     0.200 A 
ATOM     93  F   UNL A   1      47.377  28.616  35.385  1.00  0.00    -0.200 F 
ATOM     94  F   UNL A   1      46.790  26.447  36.932  1.00  0.00    -0.200 F 
ENDBRANCH  61  84
ENDBRANCH  35  36
ENDBRANCH  27  30
ENDBRANCH  25  26
ENDBRANCH  24  25
ENDBRANCH  23  24
ENDBRANCH   1  23
TORSDOF 15
ENDMDL
MODEL 2
REMARK VINA RESULT:     -12.7      6.044     11.544
REMARK SMILES CC(C)c1ccc([C@]2(C(=O)NCCCCCCNC(=O)c3ccc(-c4c5nc(c(-c6c(F)c(F)c(F)c(F)c6F)c6ccc([nH]6)c(-c6c(F)c(F)c(F)c(F)c6F)c6nc(c(-c7c(F)c(F)c(F)c(F)c7F)c7ccc4[nH]7)C=C6)C=C5)cc3)CCC[C@@H]2C)cc1
REMARK SMILES IDX 14 1 13 2 12 3 11 4 9 5 10 6 8 8 84 9 87 10 85 11 86 12
REMARK SMILES IDX 88 13 7 14 4 15 5 16 90 17 6 18 89 19 2 20 1 21 3 22 15 23
REMARK SMILES IDX 16 24 17 25 18 26 19 27 20 29 21 30 22 31 83 32 23 33 82 34
REMARK SMILES IDX 24 35 25 36 26 37 76 38 27 39 81 40 75 41 77 42 28 43 80 44
REMARK SMILES IDX 74 45 73 46 29 48 61 49 41 50 60 51 42 52 45 53 59 54 78 55
REMARK SMILES IDX 43 56 44 57 58 59 79 60 46 61 30 62 31 63 39 64 32 65 33 66
REMARK SMILES IDX 37 67 40 68 34 69 35 70 38 71 36 72 62 73 63 74 71 75 64 76
REMARK SMILES IDX 65 77 69 78 72 79 66 80 67 81 70 82 68 83 47 84 48 85 56 86
REMARK SMILES IDX 49 87 50 88 54 89 57 90 51 91 52 92 55 93 53 94
REMARK H PARENT 11 7 18 28 77 47 45 58
REMARK Flexibility Score: inf
ROOT
ATOM      1  C   UNL A   1      37.098  21.986  24.796  1.00  0.00     0.002 C 
ENDROOT
BRANCH   1   2
ATOM      2  C   UNL A   1      36.481  22.590  23.537  1.00  0.00     0.021 C 
BRANCH   2   3
ATOM      3  C   UNL A   1      35.596  23.804  23.766  1.00  0.00     0.116 C 
BRANCH   3   4
ATOM      4  N   UNL A   1      34.342  23.793  23.067  1.00  0.00    -0.355 N 
ATOM      5  C   UNL A   1      33.053  23.722  23.502  1.00  0.00     0.230 C 
ATOM      6  O   UNL A   1      32.250  24.169  22.667  1.00  0.00    -0.274 OA
ATOM      7  H   UNL A   1      34.429  23.847  22.088  1.00  0.00     0.163 HD
BRANCH   5   8
ATOM      8  C   UNL A   1      32.542  23.117  24.894  1.00  0.00     0.077 C 
ATOM      9  C   UNL A   1      33.369  23.626  26.106  1.00  0.00     0.022 C 
ATOM     10  C   UNL A   1      31.072  23.549  25.288  1.00  0.00     0.006 C 
ATOM     11  C   UNL A   1      32.529  24.663  26.868  1.00  0.00     0.002 C 
ATOM     12  C   UNL A   1      31.222  24.840  26.100  1.00  0.00     0.005 C 
ATOM     13  C   UNL A   1      30.253  22.624  26.220  1.00  0.00     0.009 C 
BRANCH   8  14
ATOM     14  C   UNL A   1      32.700  21.577  24.719  1.00  0.00    -0.032 A 
ATOM     15  C   UNL A   1      32.949  18.754  24.372  1.00  0.00    -0.045 A 
ATOM     16  C   UNL A   1      32.482  19.565  23.339  1.00  0.00     0.004 A 
ATOM     17  C   UNL A   1      33.376  19.382  25.552  1.00  0.00     0.004 A 
ATOM     18  C   UNL A   1      32.416  20.953  23.493  1.00  0.00     0.005 A 
ATOM     19  C   UNL A   1      33.252  20.768  25.724  1.00  0.00     0.005 A 
BRANCH  15  20
ATOM     20  C   UNL A   1      32.996  17.238  24.269  1.00  0.00     0.013 C 
ATOM     21  C   UNL A   1      34.030  16.820  23.218  1.00  0.00     0.012 C 
ATOM     22  C   UNL A   1      33.286  16.513  25.590  1.00  0.00     0.012 C 
ENDBRANCH  15  20
ENDBRANCH   8  14
ENDBRANCH   5   8
ENDBRANCH   3   4
ENDBRANCH   2   3
ENDBRANCH   1   2
BRANCH   1  23
ATOM     23  C   UNL A   1      36.829  20.493  25.023  1.00  0.00     0.002 C 
BRANCH  23  24
ATOM     24  C   UNL A   1      38.050  19.568  24.948  1.00  0.00     0.021 C 
BRANCH  24  25
ATOM     25  C   UNL A   1      39.275  20.042  25.725  1.00  0.00     0.116 C 
BRANCH  25  26
ATOM     26  N   UNL A   1      40.278  18.999  25.854  1.00  0.00    -0.352 N 
ATOM     27  C   UNL A   1      41.631  19.097  26.057  1.00  0.00     0.251 C 
ATOM     28  H   UNL A   1      39.933  18.079  25.786  1.00  0.00     0.163 HD
ATOM     29  O   UNL A   1      42.349  18.113  25.922  1.00  0.00    -0.269 OA
BRANCH  27  30
ATOM     30  C   UNL A   1      42.230  20.397  26.425  1.00  0.00     0.039 A 
ATOM     31  C   UNL A   1      42.830  21.170  25.428  1.00  0.00     0.014 A 
ATOM     32  C   UNL A   1      42.212  20.844  27.749  1.00  0.00     0.014 A 
ATOM     33  C   UNL A   1      43.345  22.428  25.746  1.00  0.00     0.010 A 
ATOM     34  C   UNL A   1      42.669  22.124  28.053  1.00  0.00     0.010 A 
ATOM     35  C   UNL A   1      43.229  22.933  27.052  1.00  0.00    -0.014 A 
BRANCH  35  36
ATOM     36  C   UNL A   1      43.643  24.320  27.381  1.00  0.00     0.031 A 
ATOM     37  C   UNL A   1      42.631  25.323  27.856  1.00  0.00     0.074 A 
ATOM     38  C   UNL A   1      44.918  24.696  27.158  1.00  0.00     0.049 A 
ATOM     39  N   UNL A   1      42.782  26.602  28.090  1.00  0.00    -0.248 NA
ATOM     40  C   UNL A   1      41.262  24.832  28.077  1.00  0.00     0.031 C 
ATOM     41  C   UNL A   1      45.979  23.822  26.651  1.00  0.00     0.029 A 
ATOM     42  N   UNL A   1      45.536  25.913  27.305  1.00  0.00    -0.354 N 
ATOM     43  C   UNL A   1      41.529  27.070  28.461  1.00  0.00     0.074 A 
ATOM     44  C   UNL A   1      40.619  25.948  28.393  1.00  0.00     0.031 C 
ATOM     45  C   UNL A   1      47.114  24.529  26.534  1.00  0.00     0.029 A 
ATOM     46  C   UNL A   1      46.852  25.915  26.910  1.00  0.00     0.049 A 
ATOM     47  H   UNL A   1      45.080  26.710  27.660  1.00  0.00     0.167 HD
ATOM     48  C   UNL A   1      41.178  28.323  28.837  1.00  0.00     0.037 A 
ATOM     49  C   UNL A   1      47.741  26.923  26.832  1.00  0.00     0.037 A 
ATOM     50  C   UNL A   1      42.098  29.425  28.938  1.00  0.00     0.049 A 
ATOM     51  C   UNL A   1      47.313  28.308  27.245  1.00  0.00     0.074 A 
ATOM     52  C   UNL A   1      41.859  30.703  29.414  1.00  0.00     0.029 A 
ATOM     53  N   UNL A   1      43.427  29.385  28.546  1.00  0.00    -0.354 N 
ATOM     54  N   UNL A   1      46.152  28.714  27.695  1.00  0.00    -0.248 NA
ATOM     55  C   UNL A   1      48.319  29.374  27.135  1.00  0.00     0.031 C 
ATOM     56  C   UNL A   1      43.025  31.455  29.246  1.00  0.00     0.029 A 
ATOM     57  C   UNL A   1      44.007  30.631  28.722  1.00  0.00     0.049 A 
ATOM     58  H   UNL A   1      43.889  28.590  28.193  1.00  0.00     0.167 HD
ATOM     59  C   UNL A   1      46.292  30.073  27.941  1.00  0.00     0.074 A 
ATOM     60  C   UNL A   1      47.659  30.419  27.614  1.00  0.00     0.031 C 
ATOM     61  C   UNL A   1      45.370  30.958  28.392  1.00  0.00     0.037 A 
BRANCH  48  62
ATOM     62  C   UNL A   1      39.738  28.587  29.169  1.00  0.00     0.064 A 
ATOM     63  C   UNL A   1      39.232  28.408  30.464  1.00  0.00     0.173 A 
ATOM     64  C   UNL A   1      38.876  29.115  28.194  1.00  0.00     0.173 A 
ATOM     65  F   UNL A   1      40.012  27.900  31.429  1.00  0.00    -0.203 F 
ATOM     66  C   UNL A   1      37.913  28.737  30.769  1.00  0.00     0.198 A 
ATOM     67  C   UNL A   1      37.568  29.469  28.509  1.00  0.00     0.198 A 
ATOM     68  F   UNL A   1      39.313  29.313  26.941  1.00  0.00    -0.203 F 
ATOM     69  F   UNL A   1      37.442  28.531  32.006  1.00  0.00    -0.200 F 
ATOM     70  C   UNL A   1      37.086  29.277  29.795  1.00  0.00     0.200 A 
ATOM     71  F   UNL A   1      36.775  30.005  27.571  1.00  0.00    -0.200 F 
ATOM     72  F   UNL A   1      35.824  29.612  30.096  1.00  0.00    -0.200 F 
ENDBRANCH  48  62
BRANCH  49  73
ATOM     73  C   UNL A   1      49.117  26.676  26.323  1.00  0.00     0.064 A 
ATOM     74  C   UNL A   1      49.444  26.908  24.980  1.00  0.00     0.173 A 
ATOM     75  C   UNL A   1      50.123  26.172  27.160  1.00  0.00     0.173 A 
ATOM     76  F   UNL A   1      48.511  27.370  24.134  1.00  0.00    -0.203 F 
ATOM     77  C   UNL A   1      50.712  26.610  24.485  1.00  0.00     0.198 A 
ATOM     78  C   UNL A   1      51.402  25.909  26.673  1.00  0.00     0.198 A 
ATOM     79  F   UNL A   1      49.866  25.937  28.455  1.00  0.00    -0.203 F 
ATOM     80  F   UNL A   1      50.978  26.780  23.183  1.00  0.00    -0.200 F 
ATOM     81  C   UNL A   1      51.691  26.115  25.333  1.00  0.00     0.200 A 
ATOM     82  F   UNL A   1      52.349  25.445  27.500  1.00  0.00    -0.200 F 
ATOM     83  F   UNL A   1      52.910  25.825  24.857  1.00  0.00    -0.200 F 
ENDBRANCH  49  73
BRANCH  61  84
ATOM     84  C   UNL A   1      45.809  32.381  28.572  1.00  0.00     0.064 A 
ATOM     85  C   UNL A   1      45.593  33.345  27.576  1.00  0.00     0.173 A 
ATOM     86  C   UNL A   1      46.396  32.801  29.775  1.00  0.00     0.173 A 
ATOM     87  F   UNL A   1      45.050  32.991  26.401  1.00  0.00    -0.203 F 
ATOM     88  C   UNL A   1      45.966  34.672  27.771  1.00  0.00     0.198 A 
ATOM     89  C   UNL A   1      46.737  34.134  29.980  1.00  0.00     0.198 A 
ATOM     90  F   UNL A   1      46.618  31.919  30.762  1.00  0.00    -0.203 F 
ATOM     91  F   UNL A   1      45.788  35.567  26.789  1.00  0.00    -0.200 F 
ATOM     92  C   UNL A   1      46.527  35.067  28.976  1.00  0.00     0.200 A 
ATOM     93  F   UNL A   1      47.266  34.516  31.151  1.00  0.00    -0.200 F 
ATOM     94  F   UNL A   1      46.872  36.348  29.168  1.00  0.00    -0.200 F 
ENDBRANCH  61  84
ENDBRANCH  35  36
ENDBRANCH  27  30
ENDBRANCH  25  26
ENDBRANCH  24  25
ENDBRANCH  23  24
ENDBRANCH   1  23
TORSDOF 15
ENDMDL
MODEL 3
REMARK VINA RESULT:     -12.7      1.465      3.797
REMARK SMILES CC(C)c1ccc([C@]2(C(=O)NCCCCCCNC(=O)c3ccc(-c4c5nc(c(-c6c(F)c(F)c(F)c(F)c6F)c6ccc([nH]6)c(-c6c(F)c(F)c(F)c(F)c6F)c6nc(c(-c7c(F)c(F)c(F)c(F)c7F)c7ccc4[nH]7)C=C6)C=C5)cc3)CCC[C@@H]2C)cc1
REMARK SMILES IDX 14 1 13 2 12 3 11 4 9 5 10 6 8 8 84 9 87 10 85 11 86 12
REMARK SMILES IDX 88 13 7 14 4 15 5 16 90 17 6 18 89 19 2 20 1 21 3 22 15 23
REMARK SMILES IDX 16 24 17 25 18 26 19 27 20 29 21 30 22 31 83 32 23 33 82 34
REMARK SMILES IDX 24 35 25 36 26 37 76 38 27 39 81 40 75 41 77 42 28 43 80 44
REMARK SMILES IDX 74 45 73 46 29 48 61 49 41 50 60 51 42 52 45 53 59 54 78 55
REMARK SMILES IDX 43 56 44 57 58 59 79 60 46 61 30 62 31 63 39 64 32 65 33 66
REMARK SMILES IDX 37 67 40 68 34 69 35 70 38 71 36 72 62 73 63 74 71 75 64 76
REMARK SMILES IDX 65 77 69 78 72 79 66 80 67 81 70 82 68 83 47 84 48 85 56 86
REMARK SMILES IDX 49 87 50 88 54 89 57 90 51 91 52 92 55 93 53 94
REMARK H PARENT 11 7 18 28 77 47 45 58
REMARK Flexibility Score: inf
ROOT
ATOM      1  C   UNL A   1      32.353  29.637  27.140  1.00  0.00     0.002 C 
ENDROOT
BRANCH   1   2
ATOM      2  C   UNL A   1      33.821  29.308  26.880  1.00  0.00     0.021 C 
BRANCH   2   3
ATOM      3  C   UNL A   1      34.076  27.969  26.209  1.00  0.00     0.116 C 
BRANCH   3   4
ATOM      4  N   UNL A   1      33.785  27.920  24.803  1.00  0.00    -0.355 N 
ATOM      5  C   UNL A   1      32.880  27.204  24.081  1.00  0.00     0.230 C 
ATOM      6  O   UNL A   1      32.627  27.733  22.987  1.00  0.00    -0.274 OA
ATOM      7  H   UNL A   1      34.347  28.517  24.258  1.00  0.00     0.163 HD
BRANCH   5   8
ATOM      8  C   UNL A   1      32.198  25.817  24.502  1.00  0.00     0.077 C 
ATOM      9  C   UNL A   1      31.493  25.893  25.884  1.00  0.00     0.022 C 
ATOM     10  C   UNL A   1      31.020  25.358  23.551  1.00  0.00     0.006 C 
ATOM     11  C   UNL A   1      29.975  25.947  25.653  1.00  0.00     0.002 C 
ATOM     12  C   UNL A   1      29.746  25.968  24.144  1.00  0.00     0.005 C 
ATOM     13  C   UNL A   1      30.692  23.848  23.453  1.00  0.00     0.009 C 
BRANCH   8  14
ATOM     14  C   UNL A   1      33.384  24.807  24.537  1.00  0.00    -0.032 A 
ATOM     15  C   UNL A   1      35.568  22.971  24.645  1.00  0.00    -0.045 A 
ATOM     16  C   UNL A   1      34.757  23.187  25.758  1.00  0.00     0.004 A 
ATOM     17  C   UNL A   1      35.219  23.615  23.448  1.00  0.00     0.004 A 
ATOM     18  C   UNL A   1      33.655  24.044  25.685  1.00  0.00     0.005 A 
ATOM     19  C   UNL A   1      34.148  24.519  23.395  1.00  0.00     0.005 A 
BRANCH  15  20
ATOM     20  C   UNL A   1      36.803  22.085  24.688  1.00  0.00     0.013 C 
ATOM     21  C   UNL A   1      37.838  22.682  25.648  1.00  0.00     0.012 C 
ATOM     22  C   UNL A   1      36.533  20.624  25.068  1.00  0.00     0.012 C 
ENDBRANCH  15  20
ENDBRANCH   8  14
ENDBRANCH   5   8
ENDBRANCH   3   4
ENDBRANCH   2   3
ENDBRANCH   1   2
BRANCH   1  23
ATOM     23  C   UNL A   1      31.702  30.614  26.153  1.00  0.00     0.002 C 
BRANCH  23  24
ATOM     24  C   UNL A   1      31.459  32.037  26.672  1.00  0.00     0.021 C 
BRANCH  24  25
ATOM     25  C   UNL A   1      32.665  32.707  27.323  1.00  0.00     0.116 C 
BRANCH  25  26
ATOM     26  N   UNL A   1      32.418  34.109  27.618  1.00  0.00    -0.352 N 
ATOM     27  C   UNL A   1      32.982  34.922  28.569  1.00  0.00     0.251 C 
ATOM     28  H   UNL A   1      31.742  34.541  27.048  1.00  0.00     0.163 HD
ATOM     29  O   UNL A   1      32.492  36.018  28.813  1.00  0.00    -0.269 OA
BRANCH  27  30
ATOM     30  C   UNL A   1      34.176  34.470  29.312  1.00  0.00     0.039 A 
ATOM     31  C   UNL A   1      34.013  33.951  30.600  1.00  0.00     0.014 A 
ATOM     32  C   UNL A   1      35.451  34.571  28.750  1.00  0.00     0.014 A 
ATOM     33  C   UNL A   1      35.122  33.462  31.293  1.00  0.00     0.010 A 
ATOM     34  C   UNL A   1      36.546  34.026  29.416  1.00  0.00     0.010 A 
ATOM     35  C   UNL A   1      36.390  33.456  30.688  1.00  0.00    -0.014 A 
BRANCH  35  36
ATOM     36  C   UNL A   1      37.555  32.815  31.349  1.00  0.00     0.031 A 
ATOM     37  C   UNL A   1      38.227  31.627  30.722  1.00  0.00     0.074 A 
ATOM     38  C   UNL A   1      37.943  33.252  32.564  1.00  0.00     0.049 A 
ATOM     39  N   UNL A   1      39.185  30.873  31.198  1.00  0.00    -0.248 NA
ATOM     40  C   UNL A   1      37.745  31.216  29.394  1.00  0.00     0.031 C 
ATOM     41  C   UNL A   1      37.335  34.367  33.295  1.00  0.00     0.029 A 
ATOM     42  N   UNL A   1      38.925  32.800  33.411  1.00  0.00    -0.354 N 
ATOM     43  C   UNL A   1      39.403  29.890  30.243  1.00  0.00     0.074 A 
ATOM     44  C   UNL A   1      38.459  30.121  29.172  1.00  0.00     0.031 C 
ATOM     45  C   UNL A   1      37.957  34.513  34.475  1.00  0.00     0.029 A 
ATOM     46  C   UNL A   1      38.975  33.475  34.607  1.00  0.00     0.049 A 
ATOM     47  H   UNL A   1      39.535  32.061  33.183  1.00  0.00     0.167 HD
ATOM     48  C   UNL A   1      40.321  28.894  30.257  1.00  0.00     0.037 A 
ATOM     49  C   UNL A   1      39.737  33.266  35.697  1.00  0.00     0.037 A 
ATOM     50  C   UNL A   1      41.282  28.694  31.310  1.00  0.00     0.049 A 
ATOM     51  C   UNL A   1      40.738  32.140  35.686  1.00  0.00     0.074 A 
ATOM     52  C   UNL A   1      42.322  27.782  31.363  1.00  0.00     0.029 A 
ATOM     53  N   UNL A   1      41.314  29.409  32.498  1.00  0.00    -0.354 N 
ATOM     54  N   UNL A   1      41.006  31.283  34.732  1.00  0.00    -0.248 NA
ATOM     55  C   UNL A   1      41.539  31.951  36.904  1.00  0.00     0.031 C 
ATOM     56  C   UNL A   1      42.940  27.898  32.611  1.00  0.00     0.029 A 
ATOM     57  C   UNL A   1      42.325  28.923  33.311  1.00  0.00     0.049 A 
ATOM     58  H   UNL A   1      40.709  30.151  32.729  1.00  0.00     0.167 HD
ATOM     59  C   UNL A   1      42.017  30.469  35.223  1.00  0.00     0.074 A 
ATOM     60  C   UNL A   1      42.332  30.950  36.552  1.00  0.00     0.031 C 
ATOM     61  C   UNL A   1      42.626  29.414  34.632  1.00  0.00     0.037 A 
BRANCH  48  62
ATOM     62  C   UNL A   1      40.341  27.930  29.107  1.00  0.00     0.064 A 
ATOM     63  C   UNL A   1      39.577  26.754  29.112  1.00  0.00     0.173 A 
ATOM     64  C   UNL A   1      41.065  28.237  27.944  1.00  0.00     0.173 A 
ATOM     65  F   UNL A   1      38.874  26.413  30.202  1.00  0.00    -0.203 F 
ATOM     66  C   UNL A   1      39.547  25.915  28.001  1.00  0.00     0.198 A 
ATOM     67  C   UNL A   1      41.010  27.411  26.825  1.00  0.00     0.198 A 
ATOM     68  F   UNL A   1      41.806  29.354  27.883  1.00  0.00    -0.203 F 
ATOM     69  F   UNL A   1      38.833  24.782  28.039  1.00  0.00    -0.200 F 
ATOM     70  C   UNL A   1      40.254  26.250  26.856  1.00  0.00     0.200 A 
ATOM     71  F   UNL A   1      41.681  27.744  25.714  1.00  0.00    -0.200 F 
ATOM     72  F   UNL A   1      40.206  25.451  25.780  1.00  0.00    -0.200 F 
ENDBRANCH  48  62
BRANCH  49  73
ATOM     73  C   UNL A   1      39.572  34.120  36.904  1.00  0.00     0.064 A 
ATOM     74  C   UNL A   1      40.214  35.362  37.005  1.00  0.00     0.173 A 
ATOM     75  C   UNL A   1      38.798  33.698  37.996  1.00  0.00     0.173 A 
ATOM     76  F   UNL A   1      40.983  35.802  35.998  1.00  0.00    -0.203 F 
ATOM     77  C   UNL A   1      40.117  36.132  38.163  1.00  0.00     0.198 A 
ATOM     78  C   UNL A   1      38.673  34.484  39.139  1.00  0.00     0.198 A 
ATOM     79  F   UNL A   1      38.158  32.520  37.950  1.00  0.00    -0.203 F 
ATOM     80  F   UNL A   1      40.794  37.285  38.257  1.00  0.00    -0.200 F 
ATOM     81  C   UNL A   1      39.344  35.693  39.228  1.00  0.00     0.200 A 
ATOM     82  F   UNL A   1      37.912  34.063  40.159  1.00  0.00    -0.200 F 
ATOM     83  F   UNL A   1      39.255  36.431  40.343  1.00  0.00    -0.200 F 
ENDBRANCH  49  73
BRANCH  61  84
ATOM     84  C   UNL A   1      43.704  28.714  35.406  1.00  0.00     0.064 A 
ATOM     85  C   UNL A   1      45.051  29.082  35.281  1.00  0.00     0.173 A 
ATOM     86  C   UNL A   1      43.382  27.704  36.326  1.00  0.00     0.173 A 
ATOM     87  F   UNL A   1      45.413  30.030  34.402  1.00  0.00    -0.203 F 
ATOM     88  C   UNL A   1      46.039  28.454  36.035  1.00  0.00     0.198 A 
ATOM     89  C   UNL A   1      44.366  27.101  37.103  1.00  0.00     0.198 A 
ATOM     90  F   UNL A   1      42.107  27.320  36.488  1.00  0.00    -0.203 F 
ATOM     91  F   UNL A   1      47.324  28.794  35.869  1.00  0.00    -0.200 F 
ATOM     92  C   UNL A   1      45.694  27.472  36.953  1.00  0.00     0.200 A 
ATOM     93  F   UNL A   1      44.029  26.164  37.999  1.00  0.00    -0.200 F 
ATOM     94  F   UNL A   1      46.643  26.879  37.689  1.00  0.00    -0.200 F 
ENDBRANCH  61  84
ENDBRANCH  35  36
ENDBRANCH  27  30
ENDBRANCH  25  26
ENDBRANCH  24  25
ENDBRANCH  23  24
ENDBRANCH   1  23
TORSDOF 15
ENDMDL
