MODEL 1
REMARK VINA RESULT:     -11.7      0.000      0.000
REMARK SMILES N#C/C(=C\c1ccc(Oc2ccccc2Cl)c([N+](=O)[O-])c1)C(=O)NCCCCCCNC(=O)c1ccc(-c2c3nc(c(-c4c(F)c(F)c(F)c(F)c4F)c4ccc([nH]4)c(-c4c(F)c(F)c(F)c(F)c4F)c4nc(c(-c5c(F)c(F)c(F)c(F)c5F)c5ccc2[nH]5)C=C4)C=C3)cc1
REMARK SMILES IDX 27 1 26 2 25 3 24 4 22 5 23 6 3 8 4 9 2 10 1 11 5 12 6 13
REMARK SMILES IDX 21 14 7 15 17 16 8 17 18 18 19 19 20 20 9 21 10 22 11 23
REMARK SMILES IDX 15 24 12 25 14 26 16 27 13 28 28 29 29 30 30 31 31 32 32 33
REMARK SMILES IDX 33 35 34 36 35 37 96 38 36 39 95 40 37 41 38 42 39 43 89 44
REMARK SMILES IDX 40 45 94 46 88 47 90 48 41 49 93 50 87 51 86 52 42 54 74 55
REMARK SMILES IDX 54 56 73 57 55 58 58 59 72 60 91 61 56 62 57 63 71 65 92 66
REMARK SMILES IDX 59 67 43 68 44 69 52 70 45 71 46 72 50 73 53 74 47 75 48 76
REMARK SMILES IDX 51 77 49 78 75 79 76 80 84 81 77 82 78 83 82 84 85 85 79 86
REMARK SMILES IDX 80 87 83 88 81 89 60 90 61 91 69 92 62 93 63 94 67 95 70 96
REMARK SMILES IDX 64 97 65 98 68 99 66 100
REMARK H PARENT 24 7 31 34 90 53 58 64
REMARK Flexibility Score: inf
ROOT
ATOM      1  C   UNL A   1      36.897  22.415  25.150  1.00  0.00     0.002 C 
ENDROOT
BRANCH   1   2
ATOM      2  C   UNL A   1      35.894  21.399  25.709  1.00  0.00     0.021 C 
BRANCH   2   3
ATOM      3  C   UNL A   1      35.595  20.269  24.719  1.00  0.00     0.116 C 
BRANCH   3   4
ATOM      4  N   UNL A   1      34.354  19.610  25.069  1.00  0.00    -0.351 N 
ATOM      5  C   UNL A   1      33.048  19.965  24.955  1.00  0.00     0.261 C 
ATOM      6  O   UNL A   1      32.215  19.162  25.377  1.00  0.00    -0.268 OA
ATOM      7  H   UNL A   1      34.484  18.721  25.472  1.00  0.00     0.163 HD
BRANCH   5   8
ATOM      8  C   UNL A   1      32.597  21.238  24.334  1.00  0.00     0.117 C 
ATOM      9  C   UNL A   1      32.351  22.428  24.938  1.00  0.00     0.033 C 
BRANCH   8  10
ATOM     10  C   UNL A   1      32.150  21.168  22.883  1.00  0.00     0.105 C 
ATOM     11  N   UNL A   1      31.778  21.109  21.680  1.00  0.00    -0.192 NA
ENDBRANCH   8  10
BRANCH   9  12
ATOM     12  C   UNL A   1      31.885  23.660  24.253  1.00  0.00    -0.017 A 
ATOM     13  C   UNL A   1      30.742  24.328  24.701  1.00  0.00     0.012 A 
ATOM     14  C   UNL A   1      32.586  24.207  23.176  1.00  0.00     0.098 A 
ATOM     15  C   UNL A   1      30.316  25.515  24.078  1.00  0.00     0.055 A 
ATOM     16  C   UNL A   1      32.210  25.444  22.626  1.00  0.00     0.312 A 
ATOM     17  C   UNL A   1      31.038  26.095  23.021  1.00  0.00     0.204 A 
BRANCH  16  18
ATOM     18  N   UNL A   1      33.190  26.021  21.730  1.00  0.00     0.066 N 
ATOM     19  O   UNL A   1      33.278  25.532  20.596  1.00  0.00    -0.258 OA
ATOM     20  O   UNL A   1      33.809  27.013  22.141  1.00  0.00    -0.258 OA
ENDBRANCH  16  18
BRANCH  17  21
ATOM     21  O   UNL A   1      30.437  27.239  22.536  1.00  0.00    -0.449 OA
BRANCH  21  22
ATOM     22  C   UNL A   1      30.413  28.387  23.286  1.00  0.00     0.146 A 
ATOM     23  C   UNL A   1      31.405  28.497  24.267  1.00  0.00     0.049 A 
ATOM     24  C   UNL A   1      29.466  29.406  23.130  1.00  0.00     0.083 A 
ATOM     25  C   UNL A   1      31.529  29.675  25.002  1.00  0.00     0.004 A 
ATOM     26  C   UNL A   1      29.610  30.594  23.851  1.00  0.00     0.024 A 
ATOM     27  Cl  UNL A   1      28.142  29.262  22.032  1.00  0.00    -0.080 Cl
ATOM     28  C   UNL A   1      30.652  30.734  24.772  1.00  0.00     0.002 A 
ENDBRANCH  21  22
ENDBRANCH  17  21
ENDBRANCH   9  12
ENDBRANCH   5   8
ENDBRANCH   3   4
ENDBRANCH   2   3
ENDBRANCH   1   2
BRANCH   1  29
ATOM     29  C   UNL A   1      38.321  22.267  25.703  1.00  0.00     0.002 C 
BRANCH  29  30
ATOM     30  C   UNL A   1      38.989  20.930  25.376  1.00  0.00     0.021 C 
BRANCH  30  31
ATOM     31  C   UNL A   1      39.576  20.237  26.598  1.00  0.00     0.116 C 
BRANCH  31  32
ATOM     32  N   UNL A   1      40.602  19.277  26.216  1.00  0.00    -0.352 N 
ATOM     33  C   UNL A   1      41.922  19.508  25.918  1.00  0.00     0.251 C 
ATOM     34  H   UNL A   1      40.310  18.338  26.164  1.00  0.00     0.163 HD
ATOM     35  O   UNL A   1      42.601  18.658  25.363  1.00  0.00    -0.269 OA
BRANCH  33  36
ATOM     36  C   UNL A   1      42.504  20.811  26.282  1.00  0.00     0.039 A 
ATOM     37  C   UNL A   1      42.838  21.721  25.277  1.00  0.00     0.014 A 
ATOM     38  C   UNL A   1      42.686  21.134  27.630  1.00  0.00     0.014 A 
ATOM     39  C   UNL A   1      43.307  22.988  25.629  1.00  0.00     0.010 A 
ATOM     40  C   UNL A   1      43.072  22.419  27.978  1.00  0.00     0.010 A 
ATOM     41  C   UNL A   1      43.396  23.353  26.981  1.00  0.00    -0.014 A 
BRANCH  41  42
ATOM     42  C   UNL A   1      43.851  24.699  27.404  1.00  0.00     0.031 A 
ATOM     43  C   UNL A   1      42.838  25.707  27.864  1.00  0.00     0.074 A 
ATOM     44  C   UNL A   1      45.142  25.047  27.260  1.00  0.00     0.049 A 
ATOM     45  N   UNL A   1      42.984  26.983  28.103  1.00  0.00    -0.248 NA
ATOM     46  C   UNL A   1      41.462  25.214  28.037  1.00  0.00     0.031 C 
ATOM     47  C   UNL A   1      46.210  24.165  26.789  1.00  0.00     0.029 A 
ATOM     48  N   UNL A   1      45.769  26.251  27.467  1.00  0.00    -0.354 N 
ATOM     49  C   UNL A   1      41.717  27.451  28.422  1.00  0.00     0.074 A 
ATOM     50  C   UNL A   1      40.806  26.335  28.291  1.00  0.00     0.031 C 
ATOM     51  C   UNL A   1      47.360  24.855  26.746  1.00  0.00     0.029 A 
ATOM     52  C   UNL A   1      47.101  26.238  27.137  1.00  0.00     0.049 A 
ATOM     53  H   UNL A   1      45.308  27.046  27.819  1.00  0.00     0.167 HD
ATOM     54  C   UNL A   1      41.350  28.697  28.807  1.00  0.00     0.037 A 
ATOM     55  C   UNL A   1      48.006  27.236  27.125  1.00  0.00     0.037 A 
ATOM     56  C   UNL A   1      42.271  29.793  28.951  1.00  0.00     0.049 A 
ATOM     57  C   UNL A   1      47.578  28.616  27.545  1.00  0.00     0.074 A 
ATOM     58  C   UNL A   1      42.020  31.079  29.396  1.00  0.00     0.029 A 
ATOM     59  N   UNL A   1      43.624  29.733  28.642  1.00  0.00    -0.354 N 
ATOM     60  N   UNL A   1      46.391  29.040  27.902  1.00  0.00    -0.248 NA
ATOM     61  C   UNL A   1      48.616  29.655  27.563  1.00  0.00     0.031 C 
ATOM     62  C   UNL A   1      43.206  31.813  29.296  1.00  0.00     0.029 A 
ATOM     63  C   UNL A   1      44.214  30.967  28.859  1.00  0.00     0.049 A 
ATOM     64  H   UNL A   1      44.094  28.932  28.318  1.00  0.00     0.167 HD
ATOM     65  C   UNL A   1      46.543  30.383  28.224  1.00  0.00     0.074 A 
ATOM     66  C   UNL A   1      47.941  30.703  28.017  1.00  0.00     0.031 C 
ATOM     67  C   UNL A   1      45.611  31.266  28.659  1.00  0.00     0.037 A 
BRANCH  54  68
ATOM     68  C   UNL A   1      39.891  28.936  29.074  1.00  0.00     0.064 A 
ATOM     69  C   UNL A   1      39.333  28.775  30.353  1.00  0.00     0.173 A 
ATOM     70  C   UNL A   1      39.034  29.327  28.033  1.00  0.00     0.173 A 
ATOM     71  F   UNL A   1      40.103  28.392  31.383  1.00  0.00    -0.203 F 
ATOM     72  C   UNL A   1      37.967  28.943  30.567  1.00  0.00     0.198 A 
ATOM     73  C   UNL A   1      37.676  29.535  28.260  1.00  0.00     0.198 A 
ATOM     74  F   UNL A   1      39.514  29.504  26.793  1.00  0.00    -0.203 F 
ATOM     75  F   UNL A   1      37.447  28.707  31.779  1.00  0.00    -0.200 F 
ATOM     76  C   UNL A   1      37.141  29.328  29.521  1.00  0.00     0.200 A 
ATOM     77  F   UNL A   1      36.883  29.922  27.251  1.00  0.00    -0.200 F 
ATOM     78  F   UNL A   1      35.826  29.487  29.728  1.00  0.00    -0.200 F 
ENDBRANCH  54  68
BRANCH  55  79
ATOM     79  C   UNL A   1      49.405  26.950  26.716  1.00  0.00     0.064 A 
ATOM     80  C   UNL A   1      50.369  26.576  27.661  1.00  0.00     0.173 A 
ATOM     81  C   UNL A   1      49.797  27.005  25.371  1.00  0.00     0.173 A 
ATOM     82  F   UNL A   1      50.045  26.524  28.963  1.00  0.00    -0.203 F 
ATOM     83  C   UNL A   1      51.675  26.278  27.279  1.00  0.00     0.198 A 
ATOM     84  C   UNL A   1      51.095  26.678  24.986  1.00  0.00     0.198 A 
ATOM     85  F   UNL A   1      48.910  27.348  24.424  1.00  0.00    -0.203 F 
ATOM     86  F   UNL A   1      52.584  25.952  28.207  1.00  0.00    -0.200 F 
ATOM     87  C   UNL A   1      52.035  26.320  25.940  1.00  0.00     0.200 A 
ATOM     88  F   UNL A   1      51.433  26.701  23.689  1.00  0.00    -0.200 F 
ATOM     89  F   UNL A   1      53.286  26.015  25.571  1.00  0.00    -0.200 F 
ENDBRANCH  55  79
BRANCH  67  90
ATOM     90  C   UNL A   1      46.072  32.655  29.000  1.00  0.00     0.064 A 
ATOM     91  C   UNL A   1      46.565  32.982  30.270  1.00  0.00     0.173 A 
ATOM     92  C   UNL A   1      46.088  33.652  28.012  1.00  0.00     0.173 A 
ATOM     93  F   UNL A   1      46.558  32.070  31.254  1.00  0.00    -0.203 F 
ATOM     94  C   UNL A   1      47.046  34.261  30.542  1.00  0.00     0.198 A 
ATOM     95  C   UNL A   1      46.598  34.918  28.277  1.00  0.00     0.198 A 
ATOM     96  F   UNL A   1      45.631  33.387  26.778  1.00  0.00    -0.203 F 
ATOM     97  F   UNL A   1      47.478  34.565  31.773  1.00  0.00    -0.200 F 
ATOM     98  C   UNL A   1      47.072  35.224  29.543  1.00  0.00     0.200 A 
ATOM     99  F   UNL A   1      46.639  35.840  27.305  1.00  0.00    -0.200 F 
ATOM    100  F   UNL A   1      47.553  36.448  29.801  1.00  0.00    -0.200 F 
ENDBRANCH  67  90
ENDBRANCH  41  42
ENDBRANCH  33  36
ENDBRANCH  31  32
ENDBRANCH  30  31
ENDBRANCH  29  30
ENDBRANCH   1  29
TORSDOF 18
ENDMDL
MODEL 2
REMARK VINA RESULT:     -11.6      3.260      9.439
REMARK SMILES N#C/C(=C\c1ccc(Oc2ccccc2Cl)c([N+](=O)[O-])c1)C(=O)NCCCCCCNC(=O)c1ccc(-c2c3nc(c(-c4c(F)c(F)c(F)c(F)c4F)c4ccc([nH]4)c(-c4c(F)c(F)c(F)c(F)c4F)c4nc(c(-c5c(F)c(F)c(F)c(F)c5F)c5ccc2[nH]5)C=C4)C=C3)cc1
REMARK SMILES IDX 27 1 26 2 25 3 24 4 22 5 23 6 3 8 4 9 2 10 1 11 5 12 6 13
REMARK SMILES IDX 21 14 7 15 17 16 8 17 18 18 19 19 20 20 9 21 10 22 11 23
REMARK SMILES IDX 15 24 12 25 14 26 16 27 13 28 28 29 29 30 30 31 31 32 32 33
REMARK SMILES IDX 33 35 34 36 35 37 96 38 36 39 95 40 37 41 38 42 39 43 89 44
REMARK SMILES IDX 40 45 94 46 88 47 90 48 41 49 93 50 87 51 86 52 42 54 74 55
REMARK SMILES IDX 54 56 73 57 55 58 58 59 72 60 91 61 56 62 57 63 71 65 92 66
REMARK SMILES IDX 59 67 43 68 44 69 52 70 45 71 46 72 50 73 53 74 47 75 48 76
REMARK SMILES IDX 51 77 49 78 75 79 76 80 84 81 77 82 78 83 82 84 85 85 79 86
REMARK SMILES IDX 80 87 83 88 81 89 60 90 61 91 69 92 62 93 63 94 67 95 70 96
REMARK SMILES IDX 64 97 65 98 68 99 66 100
REMARK H PARENT 24 7 31 34 90 53 58 64
REMARK Flexibility Score: inf
ROOT
ATOM      1  C   UNL A   1      36.560  30.637  29.752  1.00  0.00     0.002 C 
ENDROOT
BRANCH   1   2
ATOM      2  C   UNL A   1      35.524  29.957  28.847  1.00  0.00     0.021 C 
BRANCH   2   3
ATOM      3  C   UNL A   1      35.216  30.778  27.592  1.00  0.00     0.116 C 
BRANCH   3   4
ATOM      4  N   UNL A   1      33.799  31.061  27.512  1.00  0.00    -0.351 N 
ATOM      5  C   UNL A   1      32.751  30.410  26.944  1.00  0.00     0.261 C 
ATOM      6  O   UNL A   1      31.645  30.943  27.042  1.00  0.00    -0.268 OA
ATOM      7  H   UNL A   1      33.541  31.898  27.963  1.00  0.00     0.163 HD
BRANCH   5   8
ATOM      8  C   UNL A   1      32.880  29.102  26.250  1.00  0.00     0.117 C 
ATOM      9  C   UNL A   1      33.626  28.799  25.157  1.00  0.00     0.033 C 
BRANCH   8  10
ATOM     10  C   UNL A   1      31.907  28.011  26.666  1.00  0.00     0.105 C 
ATOM     11  N   UNL A   1      31.100  27.105  27.012  1.00  0.00    -0.192 NA
ENDBRANCH   8  10
BRANCH   9  12
ATOM     12  C   UNL A   1      33.693  27.467  24.504  1.00  0.00    -0.017 A 
ATOM     13  C   UNL A   1      34.078  26.340  25.236  1.00  0.00     0.012 A 
ATOM     14  C   UNL A   1      33.342  27.293  23.164  1.00  0.00     0.098 A 
ATOM     15  C   UNL A   1      34.110  25.071  24.631  1.00  0.00     0.055 A 
ATOM     16  C   UNL A   1      33.281  26.008  22.597  1.00  0.00     0.312 A 
ATOM     17  C   UNL A   1      33.718  24.879  23.295  1.00  0.00     0.204 A 
BRANCH  16  18
ATOM     18  N   UNL A   1      32.624  25.955  21.309  1.00  0.00     0.066 N 
ATOM     19  O   UNL A   1      33.278  25.508  20.357  1.00  0.00    -0.258 OA
ATOM     20  O   UNL A   1      31.430  26.288  21.274  1.00  0.00    -0.258 OA
ENDBRANCH  16  18
BRANCH  17  21
ATOM     21  O   UNL A   1      33.848  23.566  22.890  1.00  0.00    -0.449 OA
BRANCH  21  22
ATOM     22  C   UNL A   1      34.701  22.714  23.545  1.00  0.00     0.146 A 
ATOM     23  C   UNL A   1      36.067  22.956  23.361  1.00  0.00     0.049 A 
ATOM     24  C   UNL A   1      34.281  21.645  24.344  1.00  0.00     0.083 A 
ATOM     25  C   UNL A   1      37.007  22.215  24.073  1.00  0.00     0.004 A 
ATOM     26  C   UNL A   1      35.226  20.920  25.075  1.00  0.00     0.024 A 
ATOM     27  Cl  UNL A   1      32.616  21.216  24.496  1.00  0.00    -0.080 Cl
ATOM     28  C   UNL A   1      36.587  21.218  24.953  1.00  0.00     0.002 A 
ENDBRANCH  21  22
ENDBRANCH  17  21
ENDBRANCH   9  12
ENDBRANCH   5   8
ENDBRANCH   3   4
ENDBRANCH   2   3
ENDBRANCH   1   2
BRANCH   1  29
ATOM     29  C   UNL A   1      36.278  30.496  31.253  1.00  0.00     0.002 C 
BRANCH  29  30
ATOM     30  C   UNL A   1      35.405  31.608  31.838  1.00  0.00     0.021 C 
BRANCH  30  31
ATOM     31  C   UNL A   1      35.491  32.913  31.059  1.00  0.00     0.116 C 
BRANCH  31  32
ATOM     32  N   UNL A   1      36.029  33.984  31.885  1.00  0.00    -0.352 N 
ATOM     33  C   UNL A   1      37.319  34.166  32.318  1.00  0.00     0.251 C 
ATOM     34  H   UNL A   1      35.381  34.669  32.170  1.00  0.00     0.163 HD
ATOM     35  O   UNL A   1      37.578  34.955  33.214  1.00  0.00    -0.269 OA
BRANCH  33  36
ATOM     36  C   UNL A   1      38.389  33.382  31.679  1.00  0.00     0.039 A 
ATOM     37  C   UNL A   1      38.682  33.587  30.329  1.00  0.00     0.014 A 
ATOM     38  C   UNL A   1      39.120  32.465  32.439  1.00  0.00     0.014 A 
ATOM     39  C   UNL A   1      39.754  32.906  29.750  1.00  0.00     0.010 A 
ATOM     40  C   UNL A   1      40.234  31.853  31.885  1.00  0.00     0.010 A 
ATOM     41  C   UNL A   1      40.554  32.060  30.534  1.00  0.00    -0.014 A 
BRANCH  41  42
ATOM     42  C   UNL A   1      41.726  31.345  29.974  1.00  0.00     0.031 A 
ATOM     43  C   UNL A   1      42.996  32.105  29.718  1.00  0.00     0.074 A 
ATOM     44  C   UNL A   1      41.609  30.062  29.588  1.00  0.00     0.049 A 
ATOM     45  N   UNL A   1      44.071  31.733  29.074  1.00  0.00    -0.248 NA
ATOM     46  C   UNL A   1      43.041  33.487  30.222  1.00  0.00     0.031 C 
ATOM     47  C   UNL A   1      40.415  29.234  29.753  1.00  0.00     0.029 A 
ATOM     48  N   UNL A   1      42.502  29.239  28.949  1.00  0.00    -0.354 N 
ATOM     49  C   UNL A   1      44.905  32.843  29.068  1.00  0.00     0.074 A 
ATOM     50  C   UNL A   1      44.189  33.916  29.721  1.00  0.00     0.031 C 
ATOM     51  C   UNL A   1      40.648  28.020  29.231  1.00  0.00     0.029 A 
ATOM     52  C   UNL A   1      41.989  28.001  28.651  1.00  0.00     0.049 A 
ATOM     53  H   UNL A   1      43.421  29.510  28.724  1.00  0.00     0.167 HD
ATOM     54  C   UNL A   1      46.163  32.949  28.576  1.00  0.00     0.037 A 
ATOM     55  C   UNL A   1      42.529  26.976  27.964  1.00  0.00     0.037 A 
ATOM     56  C   UNL A   1      46.869  31.867  27.945  1.00  0.00     0.049 A 
ATOM     57  C   UNL A   1      43.923  27.117  27.415  1.00  0.00     0.074 A 
ATOM     58  C   UNL A   1      48.168  31.845  27.468  1.00  0.00     0.029 A 
ATOM     59  N   UNL A   1      46.330  30.612  27.694  1.00  0.00    -0.354 N 
ATOM     60  N   UNL A   1      44.730  28.148  27.463  1.00  0.00    -0.248 NA
ATOM     61  C   UNL A   1      44.483  25.950  26.720  1.00  0.00     0.031 C 
ATOM     62  C   UNL A   1      48.392  30.600  26.873  1.00  0.00     0.029 A 
ATOM     63  C   UNL A   1      47.260  29.819  27.043  1.00  0.00     0.049 A 
ATOM     64  H   UNL A   1      45.420  30.328  27.942  1.00  0.00     0.167 HD
ATOM     65  C   UNL A   1      45.904  27.747  26.840  1.00  0.00     0.074 A 
ATOM     66  C   UNL A   1      45.703  26.375  26.421  1.00  0.00     0.031 C 
ATOM     67  C   UNL A   1      47.047  28.449  26.642  1.00  0.00     0.037 A 
BRANCH  54  68
ATOM     68  C   UNL A   1      46.835  34.289  28.685  1.00  0.00     0.064 A 
ATOM     69  C   UNL A   1      47.610  34.644  29.800  1.00  0.00     0.173 A 
ATOM     70  C   UNL A   1      46.698  35.237  27.658  1.00  0.00     0.173 A 
ATOM     71  F   UNL A   1      47.766  33.781  30.817  1.00  0.00    -0.203 F 
ATOM     72  C   UNL A   1      48.175  35.912  29.909  1.00  0.00     0.198 A 
ATOM     73  C   UNL A   1      47.299  36.489  27.751  1.00  0.00     0.198 A 
ATOM     74  F   UNL A   1      45.975  34.950  26.564  1.00  0.00    -0.203 F 
ATOM     75  F   UNL A   1      48.844  36.253  31.019  1.00  0.00    -0.200 F 
ATOM     76  C   UNL A   1      48.023  36.832  28.882  1.00  0.00     0.200 A 
ATOM     77  F   UNL A   1      47.164  37.370  26.750  1.00  0.00    -0.200 F 
ATOM     78  F   UNL A   1      48.566  38.053  28.988  1.00  0.00    -0.200 F 
ENDBRANCH  54  68
BRANCH  55  79
ATOM     79  C   UNL A   1      41.746  25.727  27.781  1.00  0.00     0.064 A 
ATOM     80  C   UNL A   1      40.712  25.657  26.838  1.00  0.00     0.173 A 
ATOM     81  C   UNL A   1      42.041  24.568  28.513  1.00  0.00     0.173 A 
ATOM     82  F   UNL A   1      40.384  26.745  26.124  1.00  0.00    -0.203 F 
ATOM     83  C   UNL A   1      39.996  24.479  26.642  1.00  0.00     0.198 A 
ATOM     84  C   UNL A   1      41.343  23.382  28.296  1.00  0.00     0.198 A 
ATOM     85  F   UNL A   1      43.028  24.578  29.422  1.00  0.00    -0.203 F 
ATOM     86  F   UNL A   1      38.992  24.449  25.755  1.00  0.00    -0.200 F 
ATOM     87  C   UNL A   1      40.317  23.339  27.364  1.00  0.00     0.200 A 
ATOM     88  F   UNL A   1      41.671  22.278  28.981  1.00  0.00    -0.200 F 
ATOM     89  F   UNL A   1      39.640  22.201  27.162  1.00  0.00    -0.200 F 
ENDBRANCH  55  79
BRANCH  67  90
ATOM     90  C   UNL A   1      48.199  27.737  25.992  1.00  0.00     0.064 A 
ATOM     91  C   UNL A   1      48.313  27.627  24.600  1.00  0.00     0.173 A 
ATOM     92  C   UNL A   1      49.243  27.225  26.780  1.00  0.00     0.173 A 
ATOM     93  F   UNL A   1      47.337  28.087  23.803  1.00  0.00    -0.203 F 
ATOM     94  C   UNL A   1      49.423  27.016  24.020  1.00  0.00     0.198 A 
ATOM     95  C   UNL A   1      50.365  26.646  26.197  1.00  0.00     0.198 A 
ATOM     96  F   UNL A   1      49.184  27.311  28.118  1.00  0.00    -0.203 F 
ATOM     97  F   UNL A   1      49.495  26.887  22.688  1.00  0.00    -0.200 F 
ATOM     98  C   UNL A   1      50.452  26.537  24.817  1.00  0.00     0.200 A 
ATOM     99  F   UNL A   1      51.365  26.200  26.969  1.00  0.00    -0.200 F 
ATOM    100  F   UNL A   1      51.529  25.968  24.257  1.00  0.00    -0.200 F 
ENDBRANCH  67  90
ENDBRANCH  41  42
ENDBRANCH  33  36
ENDBRANCH  31  32
ENDBRANCH  30  31
ENDBRANCH  29  30
ENDBRANCH   1  29
TORSDOF 18
ENDMDL
MODEL 3
REMARK VINA RESULT:     -11.5      1.290      7.428
REMARK SMILES N#C/C(=C\c1ccc(Oc2ccccc2Cl)c([N+](=O)[O-])c1)C(=O)NCCCCCCNC(=O)c1ccc(-c2c3nc(c(-c4c(F)c(F)c(F)c(F)c4F)c4ccc([nH]4)c(-c4c(F)c(F)c(F)c(F)c4F)c4nc(c(-c5c(F)c(F)c(F)c(F)c5F)c5ccc2[nH]5)C=C4)C=C3)cc1
REMARK SMILES IDX 27 1 26 2 25 3 24 4 22 5 23 6 3 8 4 9 2 10 1 11 5 12 6 13
REMARK SMILES IDX 21 14 7 15 17 16 8 17 18 18 19 19 20 20 9 21 10 22 11 23
REMARK SMILES IDX 15 24 12 25 14 26 16 27 13 28 28 29 29 30 30 31 31 32 32 33
REMARK SMILES IDX 33 35 34 36 35 37 96 38 36 39 95 40 37 41 38 42 39 43 89 44
REMARK SMILES IDX 40 45 94 46 88 47 90 48 41 49 93 50 87 51 86 52 42 54 74 55
REMARK SMILES IDX 54 56 73 57 55 58 58 59 72 60 91 61 56 62 57 63 71 65 92 66
REMARK SMILES IDX 59 67 43 68 44 69 52 70 45 71 46 72 50 73 53 74 47 75 48 76
REMARK SMILES IDX 51 77 49 78 75 79 76 80 84 81 77 82 78 83 82 84 85 85 79 86
REMARK SMILES IDX 80 87 83 88 81 89 60 90 61 91 69 92 62 93 63 94 67 95 70 96
REMARK SMILES IDX 64 97 65 98 68 99 66 100
REMARK H PARENT 24 7 31 34 90 53 58 64
REMARK Flexibility Score: inf
ROOT
ATOM      1  C   UNL A   1      36.619  20.225  24.981  1.00  0.00     0.002 C 
ENDROOT
BRANCH   1   2
ATOM      2  C   UNL A   1      36.326  18.719  25.001  1.00  0.00     0.021 C 
BRANCH   2   3
ATOM      3  C   UNL A   1      35.148  18.342  24.100  1.00  0.00     0.116 C 
BRANCH   3   4
ATOM      4  N   UNL A   1      33.981  18.036  24.901  1.00  0.00    -0.351 N 
ATOM      5  C   UNL A   1      33.019  18.804  25.475  1.00  0.00     0.261 C 
ATOM      6  O   UNL A   1      32.153  18.217  26.124  1.00  0.00    -0.268 OA
ATOM      7  H   UNL A   1      33.859  17.072  25.061  1.00  0.00     0.163 HD
BRANCH   5   8
ATOM      8  C   UNL A   1      32.960  20.282  25.333  1.00  0.00     0.117 C 
ATOM      9  C   UNL A   1      32.535  21.010  24.269  1.00  0.00     0.033 C 
BRANCH   8  10
ATOM     10  C   UNL A   1      33.649  21.098  26.415  1.00  0.00     0.105 C 
ATOM     11  N   UNL A   1      34.220  21.775  27.312  1.00  0.00    -0.192 NA
ENDBRANCH   8  10
BRANCH   9  12
ATOM     12  C   UNL A   1      32.520  22.493  24.192  1.00  0.00    -0.017 A 
ATOM     13  C   UNL A   1      33.439  23.167  23.383  1.00  0.00     0.012 A 
ATOM     14  C   UNL A   1      31.575  23.250  24.886  1.00  0.00     0.098 A 
ATOM     15  C   UNL A   1      33.406  24.569  23.278  1.00  0.00     0.055 A 
ATOM     16  C   UNL A   1      31.487  24.640  24.697  1.00  0.00     0.312 A 
ATOM     17  C   UNL A   1      32.433  25.337  23.940  1.00  0.00     0.204 A 
BRANCH  16  18
ATOM     18  N   UNL A   1      30.288  25.242  25.241  1.00  0.00     0.066 N 
ATOM     19  O   UNL A   1      30.140  25.197  26.469  1.00  0.00    -0.258 OA
ATOM     20  O   UNL A   1      29.541  25.825  24.442  1.00  0.00    -0.258 OA
ENDBRANCH  16  18
BRANCH  17  21
ATOM     21  O   UNL A   1      32.594  26.691  23.726  1.00  0.00    -0.449 OA
BRANCH  21  22
ATOM     22  C   UNL A   1      32.678  27.560  24.784  1.00  0.00     0.146 A 
ATOM     23  C   UNL A   1      33.647  27.258  25.747  1.00  0.00     0.049 A 
ATOM     24  C   UNL A   1      31.857  28.682  24.945  1.00  0.00     0.083 A 
ATOM     25  C   UNL A   1      33.882  28.142  26.798  1.00  0.00     0.004 A 
ATOM     26  C   UNL A   1      32.113  29.577  25.986  1.00  0.00     0.024 A 
ATOM     27  Cl  UNL A   1      30.557  29.025  23.862  1.00  0.00    -0.080 Cl
ATOM     28  C   UNL A   1      33.136  29.316  26.901  1.00  0.00     0.002 A 
ENDBRANCH  21  22
ENDBRANCH  17  21
ENDBRANCH   9  12
ENDBRANCH   5   8
ENDBRANCH   3   4
ENDBRANCH   2   3
ENDBRANCH   1   2
BRANCH   1  29
ATOM     29  C   UNL A   1      38.112  20.579  25.001  1.00  0.00     0.002 C 
BRANCH  29  30
ATOM     30  C   UNL A   1      39.032  19.414  25.372  1.00  0.00     0.021 C 
BRANCH  30  31
ATOM     31  C   UNL A   1      40.164  19.816  26.307  1.00  0.00     0.116 C 
BRANCH  31  32
ATOM     32  N   UNL A   1      41.323  18.954  26.130  1.00  0.00    -0.352 N 
ATOM     33  C   UNL A   1      42.624  19.308  25.873  1.00  0.00     0.251 C 
ATOM     34  H   UNL A   1      41.151  17.987  26.206  1.00  0.00     0.163 HD
ATOM     35  O   UNL A   1      43.439  18.483  25.490  1.00  0.00    -0.269 OA
BRANCH  33  36
ATOM     36  C   UNL A   1      43.017  20.715  26.065  1.00  0.00     0.039 A 
ATOM     37  C   UNL A   1      43.319  21.505  24.954  1.00  0.00     0.014 A 
ATOM     38  C   UNL A   1      43.052  21.251  27.356  1.00  0.00     0.014 A 
ATOM     39  C   UNL A   1      43.605  22.858  25.134  1.00  0.00     0.010 A 
ATOM     40  C   UNL A   1      43.255  22.611  27.524  1.00  0.00     0.010 A 
ATOM     41  C   UNL A   1      43.543  23.425  26.417  1.00  0.00    -0.014 A 
BRANCH  41  42
ATOM     42  C   UNL A   1      43.801  24.866  26.654  1.00  0.00     0.031 A 
ATOM     43  C   UNL A   1      45.202  25.391  26.528  1.00  0.00     0.074 A 
ATOM     44  C   UNL A   1      42.810  25.662  27.094  1.00  0.00     0.049 A 
ATOM     45  N   UNL A   1      45.684  26.559  26.862  1.00  0.00    -0.248 NA
ATOM     46  C   UNL A   1      46.203  24.456  25.991  1.00  0.00     0.031 C 
ATOM     47  C   UNL A   1      41.419  25.254  27.288  1.00  0.00     0.029 A 
ATOM     48  N   UNL A   1      42.832  26.977  27.487  1.00  0.00    -0.354 N 
ATOM     49  C   UNL A   1      47.047  26.487  26.607  1.00  0.00     0.074 A 
ATOM     50  C   UNL A   1      47.323  25.146  26.144  1.00  0.00     0.031 C 
ATOM     51  C   UNL A   1      40.719  26.297  27.761  1.00  0.00     0.029 A 
ATOM     52  C   UNL A   1      41.622  27.429  27.951  1.00  0.00     0.049 A 
ATOM     53  H   UNL A   1      43.638  27.541  27.443  1.00  0.00     0.167 HD
ATOM     54  C   UNL A   1      47.980  27.462  26.730  1.00  0.00     0.037 A 
ATOM     55  C   UNL A   1      41.285  28.616  28.492  1.00  0.00     0.037 A 
ATOM     56  C   UNL A   1      47.687  28.798  27.174  1.00  0.00     0.049 A 
ATOM     57  C   UNL A   1      42.337  29.682  28.633  1.00  0.00     0.074 A 
ATOM     58  C   UNL A   1      48.542  29.881  27.276  1.00  0.00     0.029 A 
ATOM     59  N   UNL A   1      46.439  29.233  27.601  1.00  0.00    -0.354 N 
ATOM     60  N   UNL A   1      43.612  29.628  28.334  1.00  0.00    -0.248 NA
ATOM     61  C   UNL A   1      41.904  30.973  29.181  1.00  0.00     0.031 C 
ATOM     62  C   UNL A   1      47.827  30.951  27.823  1.00  0.00     0.029 A 
ATOM     63  C   UNL A   1      46.508  30.559  27.994  1.00  0.00     0.049 A 
ATOM     64  H   UNL A   1      45.625  28.680  27.621  1.00  0.00     0.167 HD
ATOM     65  C   UNL A   1      44.127  30.886  28.622  1.00  0.00     0.074 A 
ATOM     66  C   UNL A   1      43.024  31.681  29.121  1.00  0.00     0.031 C 
ATOM     67  C   UNL A   1      45.397  31.341  28.477  1.00  0.00     0.037 A 
BRANCH  54  68
ATOM     68  C   UNL A   1      49.401  27.101  26.402  1.00  0.00     0.064 A 
ATOM     69  C   UNL A   1      49.892  27.134  25.087  1.00  0.00     0.173 A 
ATOM     70  C   UNL A   1      50.287  26.711  27.419  1.00  0.00     0.173 A 
ATOM     71  F   UNL A   1      49.087  27.490  24.074  1.00  0.00    -0.203 F 
ATOM     72  C   UNL A   1      51.195  26.739  24.796  1.00  0.00     0.198 A 
ATOM     73  C   UNL A   1      51.602  26.356  27.129  1.00  0.00     0.198 A 
ATOM     74  F   UNL A   1      49.876  26.668  28.695  1.00  0.00    -0.203 F 
ATOM     75  F   UNL A   1      51.615  26.704  23.524  1.00  0.00    -0.200 F 
ATOM     76  C   UNL A   1      52.051  26.355  25.818  1.00  0.00     0.200 A 
ATOM     77  F   UNL A   1      52.431  26.002  28.121  1.00  0.00    -0.200 F 
ATOM     78  F   UNL A   1      53.304  25.973  25.537  1.00  0.00    -0.200 F 
ENDBRANCH  54  68
BRANCH  55  79
ATOM     79  C   UNL A   1      39.882  28.851  28.921  1.00  0.00     0.064 A 
ATOM     80  C   UNL A   1      38.919  29.308  28.012  1.00  0.00     0.173 A 
ATOM     81  C   UNL A   1      39.467  28.588  30.234  1.00  0.00     0.173 A 
ATOM     82  F   UNL A   1      39.271  29.588  26.748  1.00  0.00    -0.203 F 
ATOM     83  C   UNL A   1      37.595  29.501  28.402  1.00  0.00     0.198 A 
ATOM     84  C   UNL A   1      38.138  28.754  30.616  1.00  0.00     0.198 A 
ATOM     85  F   UNL A   1      40.348  28.140  31.141  1.00  0.00    -0.203 F 
ATOM     86  F   UNL A   1      36.701  29.967  27.520  1.00  0.00    -0.200 F 
ATOM     87  C   UNL A   1      37.203  29.216  29.701  1.00  0.00     0.200 A 
ATOM     88  F   UNL A   1      37.760  28.458  31.867  1.00  0.00    -0.200 F 
ATOM     89  F   UNL A   1      35.927  29.385  30.071  1.00  0.00    -0.200 F 
ENDBRANCH  55  79
BRANCH  67  90
ATOM     90  C   UNL A   1      45.662  32.782  28.807  1.00  0.00     0.064 A 
ATOM     91  C   UNL A   1      45.479  33.804  27.865  1.00  0.00     0.173 A 
ATOM     92  C   UNL A   1      46.032  33.148  30.110  1.00  0.00     0.173 A 
ATOM     93  F   UNL A   1      45.141  33.507  26.602  1.00  0.00    -0.203 F 
ATOM     94  C   UNL A   1      45.672  35.139  28.214  1.00  0.00     0.198 A 
ATOM     95  C   UNL A   1      46.191  34.484  30.464  1.00  0.00     0.198 A 
ATOM     96  F   UNL A   1      46.214  32.207  31.050  1.00  0.00    -0.203 F 
ATOM     97  F   UNL A   1      45.530  36.099  27.289  1.00  0.00    -0.200 F 
ATOM     98  C   UNL A   1      46.016  35.479  29.514  1.00  0.00     0.200 A 
ATOM     99  F   UNL A   1      46.506  34.809  31.725  1.00  0.00    -0.200 F 
ATOM    100  F   UNL A   1      46.181  36.765  29.853  1.00  0.00    -0.200 F 
ENDBRANCH  67  90
ENDBRANCH  41  42
ENDBRANCH  33  36
ENDBRANCH  31  32
ENDBRANCH  30  31
ENDBRANCH  29  30
ENDBRANCH   1  29
TORSDOF 18
ENDMDL
