MODEL 1
REMARK VINA RESULT:     -12.0      0.000      0.000
REMARK SMILES C=CCN(CC(=O)NCCCCCCNC(=O)c1ccc(-c2c3nc(c(-c4c(F)c(F)c(F)c(F)c4F)c4ccc([nH]4)c(-c4c(F)c(F)c(F)c(F)c4F)c4nc(c(-c5c(F)c(F)c(F)c(F)c5F)c5ccc2[nH]5)C=C4)C=C3)cc1)C(=O)[C@@H]1Oc2ccccc2O[C@H]1C
REMARK SMILES IDX 11 1 10 2 9 3 8 4 6 5 7 6 5 8 4 9 3 10 2 11 1 12 81 13 82 14
REMARK SMILES IDX 83 15 84 16 92 17 85 18 91 19 93 20 86 21 90 22 87 23 89 24
REMARK SMILES IDX 88 25 12 26 13 27 14 28 15 29 16 30 17 32 18 33 19 34 80 35
REMARK SMILES IDX 20 36 79 37 21 38 22 39 23 40 73 41 24 42 78 43 72 44 74 45
REMARK SMILES IDX 25 46 77 47 71 48 70 49 26 51 58 52 38 53 57 54 39 55 42 56
REMARK SMILES IDX 56 57 75 58 40 59 41 60 55 62 76 63 43 64 27 65 28 66 36 67
REMARK SMILES IDX 29 68 30 69 34 70 37 71 31 72 32 73 35 74 33 75 59 76 60 77
REMARK SMILES IDX 68 78 61 79 62 80 66 81 69 82 63 83 64 84 67 85 65 86 44 87
REMARK SMILES IDX 45 88 53 89 46 90 47 91 51 92 54 93 48 94 49 95 52 96 50 97
REMARK H PARENT 8 7 15 31 74 50 42 61
REMARK Flexibility Score: inf
ROOT
ATOM      1  C   UNL A   1      37.620  22.079  25.279  1.00  0.00     0.002 C 
ENDROOT
BRANCH   1   2
ATOM      2  C   UNL A   1      36.972  23.258  24.539  1.00  0.00     0.021 C 
BRANCH   2   3
ATOM      3  C   UNL A   1      35.707  22.900  23.758  1.00  0.00     0.116 C 
BRANCH   3   4
ATOM      4  N   UNL A   1      34.816  24.036  23.617  1.00  0.00    -0.355 N 
ATOM      5  C   UNL A   1      33.888  24.550  24.476  1.00  0.00     0.239 C 
ATOM      6  O   UNL A   1      33.206  25.499  24.078  1.00  0.00    -0.273 OA
ATOM      7  H   UNL A   1      34.893  24.514  22.759  1.00  0.00     0.163 HD
BRANCH   5   8
ATOM      8  C   UNL A   1      33.665  23.949  25.871  1.00  0.00     0.219 C 
BRANCH   8   9
ATOM      9  N   UNL A   1      32.595  22.948  25.903  1.00  0.00    -0.326 N 
BRANCH   9  10
ATOM     10  C   UNL A   1      31.244  23.413  25.571  1.00  0.00     0.147 C 
BRANCH  10  11
ATOM     11  C   UNL A   1      30.799  24.599  26.368  1.00  0.00    -0.014 C 
ATOM     12  C   UNL A   1      30.005  25.564  25.881  1.00  0.00     0.006 C 
ENDBRANCH  10  11
ENDBRANCH   9  10
BRANCH   9  13
ATOM     13  C   UNL A   1      32.981  21.632  25.647  1.00  0.00     0.268 C 
ATOM     14  O   UNL A   1      34.015  21.181  26.147  1.00  0.00    -0.270 OA
BRANCH  13  15
ATOM     15  C   UNL A   1      32.099  20.755  24.729  1.00  0.00     0.302 C 
ATOM     16  O   UNL A   1      31.937  19.518  25.434  1.00  0.00    -0.473 OA
ATOM     17  C   UNL A   1      32.603  20.660  23.270  1.00  0.00     0.221 C 
ATOM     18  C   UNL A   1      32.586  18.479  24.847  1.00  0.00     0.162 A 
ATOM     19  O   UNL A   1      32.331  19.390  22.649  1.00  0.00    -0.482 OA
ATOM     20  C   UNL A   1      31.983  21.739  22.381  1.00  0.00     0.057 C 
ATOM     21  C   UNL A   1      33.072  17.488  25.690  1.00  0.00     0.050 A 
ATOM     22  C   UNL A   1      32.782  18.400  23.475  1.00  0.00     0.161 A 
ATOM     23  C   UNL A   1      33.824  16.443  25.159  1.00  0.00     0.004 A 
ATOM     24  C   UNL A   1      33.460  17.319  22.927  1.00  0.00     0.050 A 
ATOM     25  C   UNL A   1      34.009  16.354  23.777  1.00  0.00     0.004 A 
ENDBRANCH  13  15
ENDBRANCH   9  13
ENDBRANCH   8   9
ENDBRANCH   5   8
ENDBRANCH   3   4
ENDBRANCH   2   3
ENDBRANCH   1   2
BRANCH   1  26
ATOM     26  C   UNL A   1      37.249  20.686  24.761  1.00  0.00     0.002 C 
BRANCH  26  27
ATOM     27  C   UNL A   1      38.302  19.596  24.984  1.00  0.00     0.021 C 
BRANCH  27  28
ATOM     28  C   UNL A   1      39.452  19.970  25.919  1.00  0.00     0.116 C 
BRANCH  28  29
ATOM     29  N   UNL A   1      40.492  18.956  25.966  1.00  0.00    -0.352 N 
ATOM     30  C   UNL A   1      41.856  19.092  26.101  1.00  0.00     0.251 C 
ATOM     31  H   UNL A   1      40.173  18.028  25.891  1.00  0.00     0.163 HD
ATOM     32  O   UNL A   1      42.588  18.126  25.948  1.00  0.00    -0.269 OA
BRANCH  30  33
ATOM     33  C   UNL A   1      42.445  20.417  26.403  1.00  0.00     0.039 A 
ATOM     34  C   UNL A   1      43.029  21.143  25.362  1.00  0.00     0.014 A 
ATOM     35  C   UNL A   1      42.436  20.939  27.698  1.00  0.00     0.014 A 
ATOM     36  C   UNL A   1      43.531  22.424  25.605  1.00  0.00     0.010 A 
ATOM     37  C   UNL A   1      42.869  22.245  27.925  1.00  0.00     0.010 A 
ATOM     38  C   UNL A   1      43.414  23.005  26.879  1.00  0.00    -0.014 A 
BRANCH  38  39
ATOM     39  C   UNL A   1      43.819  24.419  27.108  1.00  0.00     0.031 A 
ATOM     40  C   UNL A   1      42.821  25.446  27.561  1.00  0.00     0.074 A 
ATOM     41  C   UNL A   1      45.090  24.788  26.855  1.00  0.00     0.049 A 
ATOM     42  N   UNL A   1      42.999  26.721  27.808  1.00  0.00    -0.248 NA
ATOM     43  C   UNL A   1      41.434  24.989  27.735  1.00  0.00     0.031 C 
ATOM     44  C   UNL A   1      46.139  23.903  26.349  1.00  0.00     0.029 A 
ATOM     45  N   UNL A   1      45.714  26.005  26.981  1.00  0.00    -0.354 N 
ATOM     46  C   UNL A   1      41.751  27.217  28.161  1.00  0.00     0.074 A 
ATOM     47  C   UNL A   1      40.814  26.121  28.035  1.00  0.00     0.031 C 
ATOM     48  C   UNL A   1      47.283  24.594  26.239  1.00  0.00     0.029 A 
ATOM     49  C   UNL A   1      47.041  25.981  26.627  1.00  0.00     0.049 A 
ATOM     50  H   UNL A   1      45.255  26.816  27.296  1.00  0.00     0.167 HD
ATOM     51  C   UNL A   1      41.421  28.466  28.574  1.00  0.00     0.037 A 
ATOM     52  C   UNL A   1      47.961  26.963  26.612  1.00  0.00     0.037 A 
ATOM     53  C   UNL A   1      42.359  29.553  28.700  1.00  0.00     0.049 A 
ATOM     54  C   UNL A   1      47.572  28.343  27.067  1.00  0.00     0.074 A 
ATOM     55  C   UNL A   1      42.138  30.834  29.175  1.00  0.00     0.029 A 
ATOM     56  N   UNL A   1      43.697  29.491  28.335  1.00  0.00    -0.354 N 
ATOM     57  N   UNL A   1      46.409  28.779  27.486  1.00  0.00    -0.248 NA
ATOM     58  C   UNL A   1      48.627  29.364  27.056  1.00  0.00     0.031 C 
ATOM     59  C   UNL A   1      43.322  31.566  29.034  1.00  0.00     0.029 A 
ATOM     60  C   UNL A   1      44.303  30.724  28.537  1.00  0.00     0.049 A 
ATOM     61  H   UNL A   1      44.151  28.691  27.983  1.00  0.00     0.167 HD
ATOM     62  C   UNL A   1      46.595  30.117  27.806  1.00  0.00     0.074 A 
ATOM     63  C   UNL A   1      47.990  30.415  27.555  1.00  0.00     0.031 C 
ATOM     64  C   UNL A   1      45.690  31.016  28.267  1.00  0.00     0.037 A 
BRANCH  51  65
ATOM     65  C   UNL A   1      39.977  28.725  28.904  1.00  0.00     0.064 A 
ATOM     66  C   UNL A   1      39.463  28.511  30.193  1.00  0.00     0.173 A 
ATOM     67  C   UNL A   1      39.097  29.209  27.924  1.00  0.00     0.173 A 
ATOM     68  F   UNL A   1      40.256  28.042  31.168  1.00  0.00    -0.203 F 
ATOM     69  C   UNL A   1      38.115  28.726  30.474  1.00  0.00     0.198 A 
ATOM     70  C   UNL A   1      37.759  29.459  28.218  1.00  0.00     0.198 A 
ATOM     71  F   UNL A   1      39.535  29.443  26.677  1.00  0.00    -0.203 F 
ATOM     72  F   UNL A   1      37.635  28.449  31.695  1.00  0.00    -0.200 F 
ATOM     73  C   UNL A   1      37.266  29.205  29.489  1.00  0.00     0.200 A 
ATOM     74  F   UNL A   1      36.944  29.939  27.268  1.00  0.00    -0.200 F 
ATOM     75  F   UNL A   1      35.970  29.412  29.761  1.00  0.00    -0.200 F 
ENDBRANCH  51  65
BRANCH  52  76
ATOM     76  C   UNL A   1      49.349  26.661  26.173  1.00  0.00     0.064 A 
ATOM     77  C   UNL A   1      49.756  26.892  24.851  1.00  0.00     0.173 A 
ATOM     78  C   UNL A   1      50.303  26.160  27.071  1.00  0.00     0.173 A 
ATOM     79  F   UNL A   1      48.875  27.351  23.950  1.00  0.00    -0.203 F 
ATOM     80  C   UNL A   1      51.061  26.625  24.443  1.00  0.00     0.198 A 
ATOM     81  C   UNL A   1      51.615  25.923  26.670  1.00  0.00     0.198 A 
ATOM     82  F   UNL A   1      49.966  25.928  28.349  1.00  0.00    -0.203 F 
ATOM     83  F   UNL A   1      51.415  26.822  23.166  1.00  0.00    -0.200 F 
ATOM     84  C   UNL A   1      51.992  26.150  25.354  1.00  0.00     0.200 A 
ATOM     85  F   UNL A   1      52.516  25.482  27.558  1.00  0.00    -0.200 F 
ATOM     86  F   UNL A   1      53.252  25.908  24.966  1.00  0.00    -0.200 F 
ENDBRANCH  52  76
BRANCH  64  87
ATOM     87  C   UNL A   1      46.185  32.408  28.545  1.00  0.00     0.064 A 
ATOM     88  C   UNL A   1      46.712  32.769  29.794  1.00  0.00     0.173 A 
ATOM     89  C   UNL A   1      46.155  33.388  27.540  1.00  0.00     0.173 A 
ATOM     90  F   UNL A   1      46.752  31.876  30.795  1.00  0.00    -0.203 F 
ATOM     91  C   UNL A   1      47.158  34.067  30.038  1.00  0.00     0.198 A 
ATOM     92  C   UNL A   1      46.633  34.674  27.776  1.00  0.00     0.198 A 
ATOM     93  F   UNL A   1      45.668  33.097  26.325  1.00  0.00    -0.203 F 
ATOM     94  F   UNL A   1      47.601  34.403  31.257  1.00  0.00    -0.200 F 
ATOM     95  C   UNL A   1      47.124  35.016  29.027  1.00  0.00     0.200 A 
ATOM     96  F   UNL A   1      46.615  35.586  26.793  1.00  0.00    -0.200 F 
ATOM     97  F   UNL A   1      47.557  36.262  29.261  1.00  0.00    -0.200 F 
ENDBRANCH  64  87
ENDBRANCH  38  39
ENDBRANCH  30  33
ENDBRANCH  28  29
ENDBRANCH  27  28
ENDBRANCH  26  27
ENDBRANCH   1  26
TORSDOF 18
ENDMDL
MODEL 2
REMARK VINA RESULT:     -11.9      5.863     11.037
REMARK SMILES C=CCN(CC(=O)NCCCCCCNC(=O)c1ccc(-c2c3nc(c(-c4c(F)c(F)c(F)c(F)c4F)c4ccc([nH]4)c(-c4c(F)c(F)c(F)c(F)c4F)c4nc(c(-c5c(F)c(F)c(F)c(F)c5F)c5ccc2[nH]5)C=C4)C=C3)cc1)C(=O)[C@@H]1Oc2ccccc2O[C@H]1C
REMARK SMILES IDX 11 1 10 2 9 3 8 4 6 5 7 6 5 8 4 9 3 10 2 11 1 12 81 13 82 14
REMARK SMILES IDX 83 15 84 16 92 17 85 18 91 19 93 20 86 21 90 22 87 23 89 24
REMARK SMILES IDX 88 25 12 26 13 27 14 28 15 29 16 30 17 32 18 33 19 34 80 35
REMARK SMILES IDX 20 36 79 37 21 38 22 39 23 40 73 41 24 42 78 43 72 44 74 45
REMARK SMILES IDX 25 46 77 47 71 48 70 49 26 51 58 52 38 53 57 54 39 55 42 56
REMARK SMILES IDX 56 57 75 58 40 59 41 60 55 62 76 63 43 64 27 65 28 66 36 67
REMARK SMILES IDX 29 68 30 69 34 70 37 71 31 72 32 73 35 74 33 75 59 76 60 77
REMARK SMILES IDX 68 78 61 79 62 80 66 81 69 82 63 83 64 84 67 85 65 86 44 87
REMARK SMILES IDX 45 88 53 89 46 90 47 91 51 92 54 93 48 94 49 95 52 96 50 97
REMARK H PARENT 8 7 15 31 74 50 42 61
REMARK Flexibility Score: inf
ROOT
ATOM      1  C   UNL A   1      32.917  29.981  26.774  1.00  0.00     0.002 C 
ENDROOT
BRANCH   1   2
ATOM      2  C   UNL A   1      33.582  29.012  25.787  1.00  0.00     0.021 C 
BRANCH   2   3
ATOM      3  C   UNL A   1      32.724  28.653  24.573  1.00  0.00     0.116 C 
BRANCH   3   4
ATOM      4  N   UNL A   1      33.362  27.656  23.734  1.00  0.00    -0.355 N 
ATOM      5  C   UNL A   1      32.823  26.747  22.868  1.00  0.00     0.239 C 
ATOM      6  O   UNL A   1      33.596  25.957  22.319  1.00  0.00    -0.273 OA
ATOM      7  H   UNL A   1      34.344  27.629  23.801  1.00  0.00     0.163 HD
BRANCH   5   8
ATOM      8  C   UNL A   1      31.311  26.678  22.615  1.00  0.00     0.219 C 
BRANCH   8   9
ATOM      9  N   UNL A   1      30.550  26.243  23.790  1.00  0.00    -0.326 N 
BRANCH   9  10
ATOM     10  C   UNL A   1      29.220  26.836  23.973  1.00  0.00     0.147 C 
BRANCH  10  11
ATOM     11  C   UNL A   1      29.050  28.162  23.301  1.00  0.00    -0.014 C 
ATOM     12  C   UNL A   1      27.865  28.641  22.895  1.00  0.00     0.006 C 
ENDBRANCH  10  11
ENDBRANCH   9  10
BRANCH   9  13
ATOM     13  C   UNL A   1      30.832  24.961  24.262  1.00  0.00     0.268 C 
ATOM     14  O   UNL A   1      30.722  23.986  23.512  1.00  0.00    -0.270 OA
BRANCH  13  15
ATOM     15  C   UNL A   1      31.276  24.782  25.731  1.00  0.00     0.302 C 
ATOM     16  O   UNL A   1      32.556  25.420  25.817  1.00  0.00    -0.473 OA
ATOM     17  C   UNL A   1      31.194  23.325  26.243  1.00  0.00     0.221 C 
ATOM     18  C   UNL A   1      33.580  24.546  25.997  1.00  0.00     0.162 A 
ATOM     19  O   UNL A   1      32.214  22.994  27.203  1.00  0.00    -0.482 OA
ATOM     20  C   UNL A   1      29.844  23.026  26.899  1.00  0.00     0.057 C 
ATOM     21  C   UNL A   1      34.804  24.893  25.443  1.00  0.00     0.050 A 
ATOM     22  C   UNL A   1      33.427  23.349  26.684  1.00  0.00     0.161 A 
ATOM     23  C   UNL A   1      35.868  23.998  25.516  1.00  0.00     0.004 A 
ATOM     24  C   UNL A   1      34.505  22.487  26.833  1.00  0.00     0.050 A 
ATOM     25  C   UNL A   1      35.721  22.800  26.219  1.00  0.00     0.004 A 
ENDBRANCH  13  15
ENDBRANCH   9  13
ENDBRANCH   8   9
ENDBRANCH   5   8
ENDBRANCH   3   4
ENDBRANCH   2   3
ENDBRANCH   1   2
BRANCH   1  26
ATOM     26  C   UNL A   1      31.597  30.602  26.307  1.00  0.00     0.002 C 
BRANCH  26  27
ATOM     27  C   UNL A   1      31.441  32.102  26.573  1.00  0.00     0.021 C 
BRANCH  27  28
ATOM     28  C   UNL A   1      32.650  32.788  27.209  1.00  0.00     0.116 C 
BRANCH  28  29
ATOM     29  N   UNL A   1      32.383  34.168  27.582  1.00  0.00    -0.352 N 
ATOM     30  C   UNL A   1      32.948  34.944  28.569  1.00  0.00     0.251 C 
ATOM     31  H   UNL A   1      31.691  34.618  27.045  1.00  0.00     0.163 HD
ATOM     32  O   UNL A   1      32.470  36.035  28.842  1.00  0.00    -0.269 OA
BRANCH  30  33
ATOM     33  C   UNL A   1      34.119  34.448  29.327  1.00  0.00     0.039 A 
ATOM     34  C   UNL A   1      33.910  33.860  30.577  1.00  0.00     0.014 A 
ATOM     35  C   UNL A   1      35.416  34.566  28.820  1.00  0.00     0.014 A 
ATOM     36  C   UNL A   1      34.989  33.322  31.281  1.00  0.00     0.010 A 
ATOM     37  C   UNL A   1      36.482  33.963  29.488  1.00  0.00     0.010 A 
ATOM     38  C   UNL A   1      36.278  33.328  30.723  1.00  0.00    -0.014 A 
BRANCH  38  39
ATOM     39  C   UNL A   1      37.403  32.633  31.405  1.00  0.00     0.031 A 
ATOM     40  C   UNL A   1      38.088  31.458  30.767  1.00  0.00     0.074 A 
ATOM     41  C   UNL A   1      37.776  33.036  32.636  1.00  0.00     0.049 A 
ATOM     42  N   UNL A   1      39.083  30.734  31.219  1.00  0.00    -0.248 NA
ATOM     43  C   UNL A   1      37.572  31.020  29.462  1.00  0.00     0.031 C 
ATOM     44  C   UNL A   1      37.150  34.121  33.391  1.00  0.00     0.029 A 
ATOM     45  N   UNL A   1      38.766  32.577  33.471  1.00  0.00    -0.354 N 
ATOM     46  C   UNL A   1      39.307  29.756  30.259  1.00  0.00     0.074 A 
ATOM     47  C   UNL A   1      38.306  29.941  29.230  1.00  0.00     0.031 C 
ATOM     48  C   UNL A   1      37.789  34.267  34.562  1.00  0.00     0.029 A 
ATOM     49  C   UNL A   1      38.843  33.261  34.658  1.00  0.00     0.049 A 
ATOM     50  H   UNL A   1      39.363  31.830  33.239  1.00  0.00     0.167 HD
ATOM     51  C   UNL A   1      40.274  28.806  30.226  1.00  0.00     0.037 A 
ATOM     52  C   UNL A   1      39.666  33.098  35.711  1.00  0.00     0.037 A 
ATOM     53  C   UNL A   1      41.272  28.628  31.251  1.00  0.00     0.049 A 
ATOM     54  C   UNL A   1      40.727  32.033  35.657  1.00  0.00     0.074 A 
ATOM     55  C   UNL A   1      42.334  27.741  31.278  1.00  0.00     0.029 A 
ATOM     56  N   UNL A   1      41.321  29.342  32.441  1.00  0.00    -0.354 N 
ATOM     57  N   UNL A   1      40.989  31.173  34.703  1.00  0.00    -0.248 NA
ATOM     58  C   UNL A   1      41.613  31.923  36.823  1.00  0.00     0.031 C 
ATOM     59  C   UNL A   1      42.984  27.871  32.511  1.00  0.00     0.029 A 
ATOM     60  C   UNL A   1      42.372  28.887  33.225  1.00  0.00     0.049 A 
ATOM     61  H   UNL A   1      40.701  30.064  32.692  1.00  0.00     0.167 HD
ATOM     62  C   UNL A   1      42.079  30.434  35.143  1.00  0.00     0.074 A 
ATOM     63  C   UNL A   1      42.443  30.963  36.441  1.00  0.00     0.031 C 
ATOM     64  C   UNL A   1      42.718  29.409  34.525  1.00  0.00     0.037 A 
BRANCH  51  65
ATOM     65  C   UNL A   1      40.288  27.874  29.046  1.00  0.00     0.064 A 
ATOM     66  C   UNL A   1      39.549  26.679  29.037  1.00  0.00     0.173 A 
ATOM     67  C   UNL A   1      41.036  28.185  27.901  1.00  0.00     0.173 A 
ATOM     68  F   UNL A   1      38.820  26.327  30.107  1.00  0.00    -0.203 F 
ATOM     69  C   UNL A   1      39.598  25.812  27.948  1.00  0.00     0.198 A 
ATOM     70  C   UNL A   1      41.053  27.334  26.798  1.00  0.00     0.198 A 
ATOM     71  F   UNL A   1      41.753  29.318  27.848  1.00  0.00    -0.203 F 
ATOM     72  F   UNL A   1      38.938  24.646  27.992  1.00  0.00    -0.200 F 
ATOM     73  C   UNL A   1      40.345  26.142  26.827  1.00  0.00     0.200 A 
ATOM     74  F   UNL A   1      41.762  27.663  25.709  1.00  0.00    -0.200 F 
ATOM     75  F   UNL A   1      40.390  25.308  25.780  1.00  0.00    -0.200 F 
ENDBRANCH  51  65
BRANCH  52  76
ATOM     76  C   UNL A   1      39.530  33.988  36.893  1.00  0.00     0.064 A 
ATOM     77  C   UNL A   1      38.776  33.598  38.010  1.00  0.00     0.173 A 
ATOM     78  C   UNL A   1      40.172  35.235  36.943  1.00  0.00     0.173 A 
ATOM     79  F   UNL A   1      38.127  32.425  38.003  1.00  0.00    -0.203 F 
ATOM     80  C   UNL A   1      38.662  34.426  39.125  1.00  0.00     0.198 A 
ATOM     81  C   UNL A   1      40.082  36.047  38.070  1.00  0.00     0.198 A 
ATOM     82  F   UNL A   1      40.911  35.651  35.904  1.00  0.00    -0.203 F 
ATOM     83  F   UNL A   1      37.906  34.045  40.164  1.00  0.00    -0.200 F 
ATOM     84  C   UNL A   1      39.322  35.645  39.159  1.00  0.00     0.200 A 
ATOM     85  F   UNL A   1      40.737  37.215  38.106  1.00  0.00    -0.200 F 
ATOM     86  F   UNL A   1      39.225  36.433  40.238  1.00  0.00    -0.200 F 
ENDBRANCH  52  76
BRANCH  64  87
ATOM     87  C   UNL A   1      43.891  28.801  35.241  1.00  0.00     0.064 A 
ATOM     88  C   UNL A   1      43.733  27.754  36.162  1.00  0.00     0.173 A 
ATOM     89  C   UNL A   1      45.195  29.255  34.986  1.00  0.00     0.173 A 
ATOM     90  F   UNL A   1      42.508  27.291  36.455  1.00  0.00    -0.203 F 
ATOM     91  C   UNL A   1      44.831  27.209  36.825  1.00  0.00     0.198 A 
ATOM     92  C   UNL A   1      46.293  28.684  35.623  1.00  0.00     0.198 A 
ATOM     93  F   UNL A   1      45.406  30.249  34.110  1.00  0.00    -0.203 F 
ATOM     94  F   UNL A   1      44.648  26.251  37.744  1.00  0.00    -0.200 F 
ATOM     95  C   UNL A   1      46.110  27.670  36.550  1.00  0.00     0.200 A 
ATOM     96  F   UNL A   1      47.530  29.120  35.344  1.00  0.00    -0.200 F 
ATOM     97  F   UNL A   1      47.165  27.141  37.185  1.00  0.00    -0.200 F 
ENDBRANCH  64  87
ENDBRANCH  38  39
ENDBRANCH  30  33
ENDBRANCH  28  29
ENDBRANCH  27  28
ENDBRANCH  26  27
ENDBRANCH   1  26
TORSDOF 18
ENDMDL
MODEL 3
REMARK VINA RESULT:     -11.9      5.752     10.953
REMARK SMILES C=CCN(CC(=O)NCCCCCCNC(=O)c1ccc(-c2c3nc(c(-c4c(F)c(F)c(F)c(F)c4F)c4ccc([nH]4)c(-c4c(F)c(F)c(F)c(F)c4F)c4nc(c(-c5c(F)c(F)c(F)c(F)c5F)c5ccc2[nH]5)C=C4)C=C3)cc1)C(=O)[C@@H]1Oc2ccccc2O[C@H]1C
REMARK SMILES IDX 11 1 10 2 9 3 8 4 6 5 7 6 5 8 4 9 3 10 2 11 1 12 81 13 82 14
REMARK SMILES IDX 83 15 84 16 92 17 85 18 91 19 93 20 86 21 90 22 87 23 89 24
REMARK SMILES IDX 88 25 12 26 13 27 14 28 15 29 16 30 17 32 18 33 19 34 80 35
REMARK SMILES IDX 20 36 79 37 21 38 22 39 23 40 73 41 24 42 78 43 72 44 74 45
REMARK SMILES IDX 25 46 77 47 71 48 70 49 26 51 58 52 38 53 57 54 39 55 42 56
REMARK SMILES IDX 56 57 75 58 40 59 41 60 55 62 76 63 43 64 27 65 28 66 36 67
REMARK SMILES IDX 29 68 30 69 34 70 37 71 31 72 32 73 35 74 33 75 59 76 60 77
REMARK SMILES IDX 68 78 61 79 62 80 66 81 69 82 63 83 64 84 67 85 65 86 44 87
REMARK SMILES IDX 45 88 53 89 46 90 47 91 51 92 54 93 48 94 49 95 52 96 50 97
REMARK H PARENT 8 7 15 31 74 50 42 61
REMARK Flexibility Score: inf
ROOT
ATOM      1  C   UNL A   1      31.773  30.037  24.914  1.00  0.00     0.002 C 
ENDROOT
BRANCH   1   2
ATOM      2  C   UNL A   1      30.487  29.685  24.153  1.00  0.00     0.021 C 
BRANCH   2   3
ATOM      3  C   UNL A   1      30.682  28.708  22.993  1.00  0.00     0.116 C 
BRANCH   3   4
ATOM      4  N   UNL A   1      32.066  28.644  22.564  1.00  0.00    -0.355 N 
ATOM      5  C   UNL A   1      32.842  27.574  22.223  1.00  0.00     0.239 C 
ATOM      6  O   UNL A   1      34.027  27.792  21.954  1.00  0.00    -0.273 OA
ATOM      7  H   UNL A   1      32.521  29.516  22.511  1.00  0.00     0.163 HD
BRANCH   5   8
ATOM      8  C   UNL A   1      32.281  26.145  22.214  1.00  0.00     0.219 C 
BRANCH   8   9
ATOM      9  N   UNL A   1      32.529  25.421  23.465  1.00  0.00    -0.326 N 
BRANCH   9  10
ATOM     10  C   UNL A   1      31.398  25.293  24.390  1.00  0.00     0.147 C 
BRANCH  10  11
ATOM     11  C   UNL A   1      31.470  26.216  25.566  1.00  0.00    -0.014 C 
ATOM     12  C   UNL A   1      32.620  26.608  26.132  1.00  0.00     0.006 C 
ENDBRANCH  10  11
ENDBRANCH   9  10
BRANCH   9  13
ATOM     13  C   UNL A   1      33.532  24.451  23.422  1.00  0.00     0.268 C 
ATOM     14  O   UNL A   1      34.398  24.494  22.544  1.00  0.00    -0.270 OA
BRANCH  13  15
ATOM     15  C   UNL A   1      33.536  23.328  24.483  1.00  0.00     0.302 C 
ATOM     16  O   UNL A   1      34.532  23.716  25.437  1.00  0.00    -0.473 OA
ATOM     17  C   UNL A   1      33.660  21.903  23.894  1.00  0.00     0.221 C 
ATOM     18  C   UNL A   1      35.632  22.920  25.416  1.00  0.00     0.162 A 
ATOM     19  O   UNL A   1      34.387  20.992  24.739  1.00  0.00    -0.482 OA
ATOM     20  C   UNL A   1      32.290  21.275  23.627  1.00  0.00     0.057 C 
ATOM     21  C   UNL A   1      36.844  23.519  25.732  1.00  0.00     0.050 A 
ATOM     22  C   UNL A   1      35.574  21.574  25.080  1.00  0.00     0.161 A 
ATOM     23  C   UNL A   1      38.020  22.779  25.641  1.00  0.00     0.004 A 
ATOM     24  C   UNL A   1      36.732  20.807  25.066  1.00  0.00     0.050 A 
ATOM     25  C   UNL A   1      37.962  21.422  25.318  1.00  0.00     0.004 A 
ENDBRANCH  13  15
ENDBRANCH   9  13
ENDBRANCH   8   9
ENDBRANCH   5   8
ENDBRANCH   3   4
ENDBRANCH   2   3
ENDBRANCH   1   2
BRANCH   1  26
ATOM     26  C   UNL A   1      31.580  30.523  26.354  1.00  0.00     0.002 C 
BRANCH  26  27
ATOM     27  C   UNL A   1      31.485  32.041  26.532  1.00  0.00     0.021 C 
BRANCH  27  28
ATOM     28  C   UNL A   1      32.657  32.693  27.265  1.00  0.00     0.116 C 
BRANCH  28  29
ATOM     29  N   UNL A   1      32.401  34.080  27.616  1.00  0.00    -0.352 N 
ATOM     30  C   UNL A   1      32.979  34.870  28.585  1.00  0.00     0.251 C 
ATOM     31  H   UNL A   1      31.706  34.525  27.078  1.00  0.00     0.163 HD
ATOM     32  O   UNL A   1      32.509  35.968  28.844  1.00  0.00    -0.269 OA
BRANCH  30  33
ATOM     33  C   UNL A   1      34.155  34.381  29.339  1.00  0.00     0.039 A 
ATOM     34  C   UNL A   1      33.951  33.782  30.585  1.00  0.00     0.014 A 
ATOM     35  C   UNL A   1      35.451  34.517  28.835  1.00  0.00     0.014 A 
ATOM     36  C   UNL A   1      35.036  33.250  31.286  1.00  0.00     0.010 A 
ATOM     37  C   UNL A   1      36.523  33.921  29.499  1.00  0.00     0.010 A 
ATOM     38  C   UNL A   1      36.326  33.274  30.729  1.00  0.00    -0.014 A 
BRANCH  38  39
ATOM     39  C   UNL A   1      37.458  32.586  31.407  1.00  0.00     0.031 A 
ATOM     40  C   UNL A   1      38.147  31.415  30.767  1.00  0.00     0.074 A 
ATOM     41  C   UNL A   1      37.833  32.993  32.635  1.00  0.00     0.049 A 
ATOM     42  N   UNL A   1      39.148  30.698  31.214  1.00  0.00    -0.248 NA
ATOM     43  C   UNL A   1      37.627  30.973  29.464  1.00  0.00     0.031 C 
ATOM     44  C   UNL A   1      37.205  34.074  33.393  1.00  0.00     0.029 A 
ATOM     45  N   UNL A   1      38.830  32.541  33.466  1.00  0.00    -0.354 N 
ATOM     46  C   UNL A   1      39.374  29.720  30.254  1.00  0.00     0.074 A 
ATOM     47  C   UNL A   1      38.367  29.898  29.230  1.00  0.00     0.031 C 
ATOM     48  C   UNL A   1      37.848  34.225  34.561  1.00  0.00     0.029 A 
ATOM     49  C   UNL A   1      38.908  33.226  34.653  1.00  0.00     0.049 A 
ATOM     50  H   UNL A   1      39.430  31.797  33.232  1.00  0.00     0.167 HD
ATOM     51  C   UNL A   1      40.346  28.776  30.218  1.00  0.00     0.037 A 
ATOM     52  C   UNL A   1      39.737  33.068  35.702  1.00  0.00     0.037 A 
ATOM     53  C   UNL A   1      41.349  28.605  31.239  1.00  0.00     0.049 A 
ATOM     54  C   UNL A   1      40.804  32.010  35.645  1.00  0.00     0.074 A 
ATOM     55  C   UNL A   1      42.417  27.724  31.261  1.00  0.00     0.029 A 
ATOM     56  N   UNL A   1      41.399  29.320  32.428  1.00  0.00    -0.354 N 
ATOM     57  N   UNL A   1      41.066  31.151  34.690  1.00  0.00    -0.248 NA
ATOM     58  C   UNL A   1      41.695  31.906  36.807  1.00  0.00     0.031 C 
ATOM     59  C   UNL A   1      43.072  27.859  32.491  1.00  0.00     0.029 A 
ATOM     60  C   UNL A   1      42.456  28.872  33.208  1.00  0.00     0.049 A 
ATOM     61  H   UNL A   1      40.776  30.038  32.681  1.00  0.00     0.167 HD
ATOM     62  C   UNL A   1      42.162  30.418  35.125  1.00  0.00     0.074 A 
ATOM     63  C   UNL A   1      42.530  30.951  36.421  1.00  0.00     0.031 C 
ATOM     64  C   UNL A   1      42.805  29.397  34.505  1.00  0.00     0.037 A 
BRANCH  51  65
ATOM     65  C   UNL A   1      40.360  27.843  29.038  1.00  0.00     0.064 A 
ATOM     66  C   UNL A   1      41.093  28.131  27.875  1.00  0.00     0.173 A 
ATOM     67  C   UNL A   1      39.644  26.637  29.074  1.00  0.00     0.173 A 
ATOM     68  F   UNL A   1      41.791  29.273  27.782  1.00  0.00    -0.203 F 
ATOM     69  C   UNL A   1      41.070  27.271  26.779  1.00  0.00     0.198 A 
ATOM     70  C   UNL A   1      39.653  25.762  27.991  1.00  0.00     0.198 A 
ATOM     71  F   UNL A   1      38.933  26.304  30.162  1.00  0.00    -0.203 F 
ATOM     72  F   UNL A   1      41.723  27.602  25.656  1.00  0.00    -0.200 F 
ATOM     73  C   UNL A   1      40.354  26.086  26.840  1.00  0.00     0.200 A 
ATOM     74  F   UNL A   1      38.974  24.608  28.058  1.00  0.00    -0.200 F 
ATOM     75  F   UNL A   1      40.333  25.259  25.785  1.00  0.00    -0.200 F 
ENDBRANCH  51  65
BRANCH  52  76
ATOM     76  C   UNL A   1      39.600  33.959  36.885  1.00  0.00     0.064 A 
ATOM     77  C   UNL A   1      40.226  35.213  36.922  1.00  0.00     0.173 A 
ATOM     78  C   UNL A   1      38.819  33.586  37.989  1.00  0.00     0.173 A 
ATOM     79  F   UNL A   1      40.998  35.606  35.899  1.00  0.00    -0.203 F 
ATOM     80  C   UNL A   1      40.084  36.055  38.023  1.00  0.00     0.198 A 
ATOM     81  C   UNL A   1      38.654  34.441  39.075  1.00  0.00     0.198 A 
ATOM     82  F   UNL A   1      38.194  32.399  38.000  1.00  0.00    -0.203 F 
ATOM     83  F   UNL A   1      40.721  37.234  38.049  1.00  0.00    -0.200 F 
ATOM     84  C   UNL A   1      39.291  35.673  39.095  1.00  0.00     0.200 A 
ATOM     85  F   UNL A   1      37.871  34.076  40.100  1.00  0.00    -0.200 F 
ATOM     86  F   UNL A   1      39.141  36.490  40.146  1.00  0.00    -0.200 F 
ENDBRANCH  52  76
BRANCH  64  87
ATOM     87  C   UNL A   1      43.985  28.796  35.217  1.00  0.00     0.064 A 
ATOM     88  C   UNL A   1      43.844  27.713  36.097  1.00  0.00     0.173 A 
ATOM     89  C   UNL A   1      45.279  29.296  34.997  1.00  0.00     0.173 A 
ATOM     90  F   UNL A   1      42.629  27.206  36.356  1.00  0.00    -0.203 F 
ATOM     91  C   UNL A   1      44.947  27.175  36.757  1.00  0.00     0.198 A 
ATOM     92  C   UNL A   1      46.384  28.733  35.630  1.00  0.00     0.198 A 
ATOM     93  F   UNL A   1      45.474  30.326  34.160  1.00  0.00    -0.203 F 
ATOM     94  F   UNL A   1      44.779  26.180  37.639  1.00  0.00    -0.200 F 
ATOM     95  C   UNL A   1      46.217  27.681  36.517  1.00  0.00     0.200 A 
ATOM     96  F   UNL A   1      47.612  29.212  35.385  1.00  0.00    -0.200 F 
ATOM     97  F   UNL A   1      47.277  27.159  37.149  1.00  0.00    -0.200 F 
ENDBRANCH  64  87
ENDBRANCH  38  39
ENDBRANCH  30  33
ENDBRANCH  28  29
ENDBRANCH  27  28
ENDBRANCH  26  27
ENDBRANCH   1  26
TORSDOF 18
ENDMDL
