MODEL 1
REMARK VINA RESULT:     -13.2      0.000      0.000
REMARK SMILES O=C(NCCCCCCNC(=O)[C@@H](Cc1ccccc1)N1C(=O)/C(=C/c2ccc3ncccc3c2)SC1=S)c1ccc(-c2c3nc(c(-c4c(F)c(F)c(F)c(F)c4F)c4ccc([nH]4)c(-c4c(F)c(F)c(F)c(F)c4F)c4nc(c(-c5c(F)c(F)c(F)c(F)c5F)c5ccc2[nH]5)C=C4)C=C3)cc1
REMARK SMILES IDX 6 1 5 2 4 3 3 4 1 5 2 6 39 8 40 9 101 10 41 11 100 12 42 13
REMARK SMILES IDX 43 14 44 15 94 16 45 17 99 18 93 19 95 20 46 21 98 22 92 23
REMARK SMILES IDX 91 24 47 26 79 27 59 28 78 29 60 30 63 31 77 32 96 33 61 34
REMARK SMILES IDX 62 35 76 37 97 38 64 39 48 40 49 41 57 42 50 43 51 44 55 45
REMARK SMILES IDX 58 46 52 47 53 48 56 49 54 50 80 51 81 52 89 53 82 54 83 55
REMARK SMILES IDX 87 56 90 57 84 58 85 59 88 60 86 61 65 62 66 63 74 64 67 65
REMARK SMILES IDX 68 66 72 67 75 68 69 69 70 70 73 71 71 72 7 73 8 74 9 75
REMARK SMILES IDX 10 76 11 77 12 79 13 80 14 81 15 82 16 83 20 84 17 85 19 86
REMARK SMILES IDX 18 87 21 88 22 89 37 90 23 91 24 92 36 93 38 94 25 95 26 96
REMARK SMILES IDX 27 97 35 98 28 99 34 100 29 101 33 102 30 103 32 104 31 105
REMARK H PARENT 3 7 95 25 63 36 10 78
REMARK Flexibility Score: inf
ROOT
ATOM      1  C   UNL A   1      32.189  30.537  27.109  1.00  0.00     0.002 C 
ENDROOT
BRANCH   1   2
ATOM      2  C   UNL A   1      31.725  31.997  27.155  1.00  0.00     0.021 C 
BRANCH   2   3
ATOM      3  C   UNL A   1      32.795  33.060  26.920  1.00  0.00     0.116 C 
BRANCH   3   4
ATOM      4  N   UNL A   1      32.518  34.299  27.626  1.00  0.00    -0.352 N 
ATOM      5  O   UNL A   1      32.523  35.792  29.304  1.00  0.00    -0.269 OA
ATOM      6  C   UNL A   1      33.036  34.803  28.790  1.00  0.00     0.251 C 
ATOM      7  H   UNL A   1      31.846  34.874  27.196  1.00  0.00     0.163 HD
BRANCH   6   8
ATOM      8  C   UNL A   1      34.196  34.164  29.444  1.00  0.00     0.039 A 
ATOM      9  C   UNL A   1      34.035  33.163  30.406  1.00  0.00     0.014 A 
ATOM     10  C   UNL A   1      35.480  34.527  29.024  1.00  0.00     0.014 A 
ATOM     11  C   UNL A   1      35.153  32.605  31.025  1.00  0.00     0.010 A 
ATOM     12  C   UNL A   1      36.598  33.918  29.595  1.00  0.00     0.010 A 
ATOM     13  C   UNL A   1      36.445  32.969  30.617  1.00  0.00    -0.014 A 
BRANCH  13  14
ATOM     14  C   UNL A   1      37.639  32.328  31.227  1.00  0.00     0.031 A 
ATOM     15  C   UNL A   1      38.375  31.238  30.502  1.00  0.00     0.074 A 
ATOM     16  C   UNL A   1      38.035  32.704  32.457  1.00  0.00     0.049 A 
ATOM     17  N   UNL A   1      39.384  30.507  30.906  1.00  0.00    -0.248 NA
ATOM     18  C   UNL A   1      37.909  30.920  29.145  1.00  0.00     0.031 C 
ATOM     19  C   UNL A   1      37.397  33.746  33.263  1.00  0.00     0.029 A 
ATOM     20  N   UNL A   1      39.058  32.248  33.249  1.00  0.00    -0.354 N 
ATOM     21  C   UNL A   1      39.661  29.632  29.865  1.00  0.00     0.074 A 
ATOM     22  C   UNL A   1      38.692  29.900  28.822  1.00  0.00     0.031 C 
ATOM     23  C   UNL A   1      38.048  33.858  34.430  1.00  0.00     0.029 A 
ATOM     24  C   UNL A   1      39.107  32.855  34.480  1.00  0.00     0.049 A 
ATOM     25  H   UNL A   1      39.693  31.552  32.964  1.00  0.00     0.167 HD
ATOM     26  C   UNL A   1      40.637  28.696  29.785  1.00  0.00     0.037 A 
ATOM     27  C   UNL A   1      39.896  32.610  35.544  1.00  0.00     0.037 A 
ATOM     28  C   UNL A   1      41.595  28.434  30.831  1.00  0.00     0.049 A 
ATOM     29  C   UNL A   1      40.939  31.532  35.452  1.00  0.00     0.074 A 
ATOM     30  C   UNL A   1      42.644  27.532  30.834  1.00  0.00     0.029 A 
ATOM     31  N   UNL A   1      41.608  29.064  32.068  1.00  0.00    -0.354 N 
ATOM     32  N   UNL A   1      41.220  30.736  34.449  1.00  0.00    -0.248 NA
ATOM     33  C   UNL A   1      41.776  31.318  36.640  1.00  0.00     0.031 C 
ATOM     34  C   UNL A   1      43.251  27.568  32.094  1.00  0.00     0.029 A 
ATOM     35  C   UNL A   1      42.629  28.549  32.852  1.00  0.00     0.049 A 
ATOM     36  H   UNL A   1      40.985  29.773  32.348  1.00  0.00     0.167 HD
ATOM     37  C   UNL A   1      42.286  29.953  34.870  1.00  0.00     0.074 A 
ATOM     38  C   UNL A   1      42.604  30.372  36.219  1.00  0.00     0.031 C 
ATOM     39  C   UNL A   1      42.945  28.981  34.192  1.00  0.00     0.037 A 
BRANCH  26  40
ATOM     40  C   UNL A   1      40.697  27.858  28.537  1.00  0.00     0.064 A 
ATOM     41  C   UNL A   1      41.446  28.250  27.415  1.00  0.00     0.173 A 
ATOM     42  C   UNL A   1      40.008  26.638  28.467  1.00  0.00     0.173 A 
ATOM     43  F   UNL A   1      42.119  29.410  27.424  1.00  0.00    -0.203 F 
ATOM     44  C   UNL A   1      41.467  27.472  26.260  1.00  0.00     0.198 A 
ATOM     45  C   UNL A   1      40.060  25.846  27.323  1.00  0.00     0.198 A 
ATOM     46  F   UNL A   1      39.286  26.208  29.513  1.00  0.00    -0.203 F 
ATOM     47  F   UNL A   1      42.138  27.899  25.180  1.00  0.00    -0.200 F 
ATOM     48  C   UNL A   1      40.779  26.270  26.216  1.00  0.00     0.200 A 
ATOM     49  F   UNL A   1      39.410  24.674  27.290  1.00  0.00    -0.200 F 
ATOM     50  F   UNL A   1      40.801  25.522  25.103  1.00  0.00    -0.200 F 
ENDBRANCH  26  40
BRANCH  27  51
ATOM     51  C   UNL A   1      39.718  33.409  36.784  1.00  0.00     0.064 A 
ATOM     52  C   UNL A   1      40.453  34.582  36.999  1.00  0.00     0.173 A 
ATOM     53  C   UNL A   1      38.787  33.032  37.764  1.00  0.00     0.173 A 
ATOM     54  F   UNL A   1      41.367  34.974  36.100  1.00  0.00    -0.203 F 
ATOM     55  C   UNL A   1      40.272  35.343  38.152  1.00  0.00     0.198 A 
ATOM     56  C   UNL A   1      38.584  33.810  38.902  1.00  0.00     0.198 A 
ATOM     57  F   UNL A   1      38.053  31.922  37.602  1.00  0.00    -0.203 F 
ATOM     58  F   UNL A   1      41.013  36.441  38.350  1.00  0.00    -0.200 F 
ATOM     59  C   UNL A   1      39.331  34.962  39.098  1.00  0.00     0.200 A 
ATOM     60  F   UNL A   1      37.661  33.449  39.802  1.00  0.00    -0.200 F 
ATOM     61  F   UNL A   1      39.147  35.703  40.199  1.00  0.00    -0.200 F 
ENDBRANCH  27  51
BRANCH  39  62
ATOM     62  C   UNL A   1      44.119  28.334  34.872  1.00  0.00     0.064 A 
ATOM     63  C   UNL A   1      43.999  27.131  35.582  1.00  0.00     0.173 A 
ATOM     64  C   UNL A   1      45.397  28.904  34.758  1.00  0.00     0.173 A 
ATOM     65  F   UNL A   1      42.798  26.553  35.734  1.00  0.00    -0.203 F 
ATOM     66  C   UNL A   1      45.112  26.532  36.169  1.00  0.00     0.198 A 
ATOM     67  C   UNL A   1      46.512  28.286  35.317  1.00  0.00     0.198 A 
ATOM     68  F   UNL A   1      45.569  30.052  34.085  1.00  0.00    -0.203 F 
ATOM     69  F   UNL A   1      44.967  25.406  36.880  1.00  0.00    -0.200 F 
ATOM     70  C   UNL A   1      46.368  27.104  36.027  1.00  0.00     0.200 A 
ATOM     71  F   UNL A   1      47.726  28.832  35.163  1.00  0.00    -0.200 F 
ATOM     72  F   UNL A   1      47.440  26.518  36.579  1.00  0.00    -0.200 F 
ENDBRANCH  39  62
ENDBRANCH  13  14
ENDBRANCH   6   8
ENDBRANCH   3   4
ENDBRANCH   2   3
ENDBRANCH   1   2
BRANCH   1  73
ATOM     73  C   UNL A   1      33.696  30.265  27.232  1.00  0.00     0.002 C 
BRANCH  73  74
ATOM     74  C   UNL A   1      34.174  28.871  26.845  1.00  0.00     0.021 C 
BRANCH  74  75
ATOM     75  C   UNL A   1      33.332  28.157  25.805  1.00  0.00     0.116 C 
BRANCH  75  76
ATOM     76  N   UNL A   1      33.463  28.627  24.454  1.00  0.00    -0.354 N 
ATOM     77  C   UNL A   1      32.690  28.324  23.374  1.00  0.00     0.243 C 
ATOM     78  H   UNL A   1      34.208  29.250  24.286  1.00  0.00     0.163 HD
ATOM     79  O   UNL A   1      32.899  29.000  22.359  1.00  0.00    -0.273 OA
BRANCH  77  80
ATOM     80  C   UNL A   1      31.559  27.247  23.357  1.00  0.00     0.185 C 
BRANCH  80  81
ATOM     81  C   UNL A   1      30.168  27.650  22.773  1.00  0.00     0.071 C 
BRANCH  81  82
ATOM     82  C   UNL A   1      29.501  28.957  23.125  1.00  0.00    -0.045 A 
ATOM     83  C   UNL A   1      28.278  29.318  22.547  1.00  0.00     0.004 A 
ATOM     84  C   UNL A   1      30.112  29.854  24.016  1.00  0.00     0.004 A 
ATOM     85  C   UNL A   1      27.760  30.603  22.725  1.00  0.00     0.000 A 
ATOM     86  C   UNL A   1      29.578  31.131  24.213  1.00  0.00     0.000 A 
ATOM     87  C   UNL A   1      28.424  31.518  23.537  1.00  0.00     0.000 A 
ENDBRANCH  81  82
ENDBRANCH  80  81
BRANCH  80  88
ATOM     88  N   UNL A   1      32.019  25.832  23.225  1.00  0.00    -0.280 N 
ATOM     89  C   UNL A   1      32.037  24.974  24.303  1.00  0.00     0.266 C 
ATOM     90  C   UNL A   1      32.432  25.254  22.032  1.00  0.00     0.149 C 
ATOM     91  O   UNL A   1      31.710  25.187  25.455  1.00  0.00    -0.268 OA
ATOM     92  C   UNL A   1      32.563  23.643  23.950  1.00  0.00     0.081 C 
ATOM     93  S   UNL A   1      32.939  23.576  22.296  1.00  0.00    -0.054 SA
ATOM     94  S   UNL A   1      32.526  25.927  20.506  1.00  0.00    -0.052 S 
ATOM     95  C   UNL A   1      32.689  22.744  24.934  1.00  0.00     0.029 C 
BRANCH  95  96
ATOM     96  C   UNL A   1      33.287  21.419  24.895  1.00  0.00    -0.024 A 
ATOM     97  C   UNL A   1      34.656  21.279  25.133  1.00  0.00     0.010 A 
ATOM     98  C   UNL A   1      32.546  20.315  24.479  1.00  0.00     0.018 A 
ATOM     99  C   UNL A   1      35.261  20.028  24.998  1.00  0.00     0.029 A 
ATOM    100  C   UNL A   1      33.157  19.064  24.355  1.00  0.00     0.001 A 
ATOM    101  C   UNL A   1      34.533  18.908  24.625  1.00  0.00     0.070 A 
ATOM    102  C   UNL A   1      32.422  17.942  23.962  1.00  0.00     0.012 A 
ATOM    103  N   UNL A   1      35.148  17.719  24.528  1.00  0.00    -0.256 NA
ATOM    104  C   UNL A   1      33.052  16.711  23.873  1.00  0.00     0.021 A 
ATOM    105  C   UNL A   1      34.402  16.651  24.166  1.00  0.00     0.112 A 
ENDBRANCH  95  96
ENDBRANCH  80  88
ENDBRANCH  77  80
ENDBRANCH  75  76
ENDBRANCH  74  75
ENDBRANCH  73  74
ENDBRANCH   1  73
TORSDOF 17
ENDMDL
MODEL 2
REMARK VINA RESULT:     -13.1      0.409      6.809
REMARK SMILES O=C(NCCCCCCNC(=O)[C@@H](Cc1ccccc1)N1C(=O)/C(=C/c2ccc3ncccc3c2)SC1=S)c1ccc(-c2c3nc(c(-c4c(F)c(F)c(F)c(F)c4F)c4ccc([nH]4)c(-c4c(F)c(F)c(F)c(F)c4F)c4nc(c(-c5c(F)c(F)c(F)c(F)c5F)c5ccc2[nH]5)C=C4)C=C3)cc1
REMARK SMILES IDX 6 1 5 2 4 3 3 4 1 5 2 6 39 8 40 9 101 10 41 11 100 12 42 13
REMARK SMILES IDX 43 14 44 15 94 16 45 17 99 18 93 19 95 20 46 21 98 22 92 23
REMARK SMILES IDX 91 24 47 26 79 27 59 28 78 29 60 30 63 31 77 32 96 33 61 34
REMARK SMILES IDX 62 35 76 37 97 38 64 39 48 40 49 41 57 42 50 43 51 44 55 45
REMARK SMILES IDX 58 46 52 47 53 48 56 49 54 50 80 51 81 52 89 53 82 54 83 55
REMARK SMILES IDX 87 56 90 57 84 58 85 59 88 60 86 61 65 62 66 63 74 64 67 65
REMARK SMILES IDX 68 66 72 67 75 68 69 69 70 70 73 71 71 72 7 73 8 74 9 75
REMARK SMILES IDX 10 76 11 77 12 79 13 80 14 81 15 82 16 83 20 84 17 85 19 86
REMARK SMILES IDX 18 87 21 88 22 89 37 90 23 91 24 92 36 93 38 94 25 95 26 96
REMARK SMILES IDX 27 97 35 98 28 99 34 100 29 101 33 102 30 103 32 104 31 105
REMARK H PARENT 3 7 95 25 63 36 10 78
REMARK Flexibility Score: inf
ROOT
ATOM      1  C   UNL A   1      31.777  30.593  26.975  1.00  0.00     0.002 C 
ENDROOT
BRANCH   1   2
ATOM      2  C   UNL A   1      31.499  32.099  26.910  1.00  0.00     0.021 C 
BRANCH   2   3
ATOM      3  C   UNL A   1      32.720  33.014  26.845  1.00  0.00     0.116 C 
BRANCH   3   4
ATOM      4  N   UNL A   1      32.536  34.245  27.593  1.00  0.00    -0.352 N 
ATOM      5  O   UNL A   1      32.696  35.693  29.302  1.00  0.00    -0.269 OA
ATOM      6  C   UNL A   1      33.137  34.696  28.739  1.00  0.00     0.251 C 
ATOM      7  H   UNL A   1      31.869  34.860  27.213  1.00  0.00     0.163 HD
BRANCH   6   8
ATOM      8  C   UNL A   1      34.300  33.990  29.315  1.00  0.00     0.039 A 
ATOM      9  C   UNL A   1      35.610  34.389  29.036  1.00  0.00     0.014 A 
ATOM     10  C   UNL A   1      34.064  32.949  30.219  1.00  0.00     0.014 A 
ATOM     11  C   UNL A   1      36.683  33.678  29.574  1.00  0.00     0.010 A 
ATOM     12  C   UNL A   1      35.139  32.284  30.811  1.00  0.00     0.010 A 
ATOM     13  C   UNL A   1      36.458  32.627  30.475  1.00  0.00    -0.014 A 
BRANCH  13  14
ATOM     14  C   UNL A   1      37.599  31.912  31.102  1.00  0.00     0.031 A 
ATOM     15  C   UNL A   1      38.066  32.278  32.481  1.00  0.00     0.074 A 
ATOM     16  C   UNL A   1      38.240  30.954  30.407  1.00  0.00     0.049 A 
ATOM     17  N   UNL A   1      39.092  31.825  33.158  1.00  0.00    -0.248 NA
ATOM     18  C   UNL A   1      37.283  33.300  33.191  1.00  0.00     0.031 C 
ATOM     19  C   UNL A   1      37.884  30.514  29.058  1.00  0.00     0.029 A 
ATOM     20  N   UNL A   1      39.331  30.188  30.732  1.00  0.00    -0.354 N 
ATOM     21  C   UNL A   1      39.088  32.516  34.362  1.00  0.00     0.074 A 
ATOM     22  C   UNL A   1      37.978  33.445  34.310  1.00  0.00     0.031 C 
ATOM     23  C   UNL A   1      38.732  29.549  28.673  1.00  0.00     0.029 A 
ATOM     24  C   UNL A   1      39.728  29.347  29.721  1.00  0.00     0.049 A 
ATOM     25  H   UNL A   1      39.786  30.237  31.603  1.00  0.00     0.167 HD
ATOM     26  C   UNL A   1      39.931  32.383  35.415  1.00  0.00     0.037 A 
ATOM     27  C   UNL A   1      40.793  28.527  29.634  1.00  0.00     0.037 A 
ATOM     28  C   UNL A   1      41.036  31.458  35.455  1.00  0.00     0.049 A 
ATOM     29  C   UNL A   1      41.744  28.433  30.793  1.00  0.00     0.074 A 
ATOM     30  C   UNL A   1      41.927  31.222  36.487  1.00  0.00     0.029 A 
ATOM     31  N   UNL A   1      41.412  30.627  34.408  1.00  0.00    -0.354 N 
ATOM     32  N   UNL A   1      41.711  29.061  31.943  1.00  0.00    -0.248 NA
ATOM     33  C   UNL A   1      42.881  27.515  30.643  1.00  0.00     0.031 C 
ATOM     34  C   UNL A   1      42.879  30.299  36.043  1.00  0.00     0.029 A 
ATOM     35  C   UNL A   1      42.538  29.900  34.760  1.00  0.00     0.049 A 
ATOM     36  H   UNL A   1      40.946  30.563  33.543  1.00  0.00     0.167 HD
ATOM     37  C   UNL A   1      42.798  28.591  32.667  1.00  0.00     0.074 A 
ATOM     38  C   UNL A   1      43.469  27.621  31.827  1.00  0.00     0.031 C 
ATOM     39  C   UNL A   1      43.194  28.928  33.919  1.00  0.00     0.037 A 
BRANCH  26  40
ATOM     40  C   UNL A   1      39.712  33.286  36.598  1.00  0.00     0.064 A 
ATOM     41  C   UNL A   1      40.389  34.508  36.736  1.00  0.00     0.173 A 
ATOM     42  C   UNL A   1      38.799  32.930  37.603  1.00  0.00     0.173 A 
ATOM     43  F   UNL A   1      41.279  34.895  35.809  1.00  0.00    -0.203 F 
ATOM     44  C   UNL A   1      40.191  35.316  37.853  1.00  0.00     0.198 A 
ATOM     45  C   UNL A   1      38.577  33.758  38.700  1.00  0.00     0.198 A 
ATOM     46  F   UNL A   1      38.115  31.779  37.519  1.00  0.00    -0.203 F 
ATOM     47  F   UNL A   1      40.896  36.448  37.991  1.00  0.00    -0.200 F 
ATOM     48  C   UNL A   1      39.282  34.944  38.830  1.00  0.00     0.200 A 
ATOM     49  F   UNL A   1      37.683  33.404  39.635  1.00  0.00    -0.200 F 
ATOM     50  F   UNL A   1      39.092  35.724  39.904  1.00  0.00    -0.200 F 
ENDBRANCH  26  40
BRANCH  27  51
ATOM     51  C   UNL A   1      41.005  27.736  28.394  1.00  0.00     0.064 A 
ATOM     52  C   UNL A   1      41.837  28.207  27.370  1.00  0.00     0.173 A 
ATOM     53  C   UNL A   1      40.405  26.478  28.223  1.00  0.00     0.173 A 
ATOM     54  F   UNL A   1      42.418  29.410  27.480  1.00  0.00    -0.203 F 
ATOM     55  C   UNL A   1      42.052  27.455  26.216  1.00  0.00     0.198 A 
ATOM     56  C   UNL A   1      40.646  25.715  27.083  1.00  0.00     0.198 A 
ATOM     57  F   UNL A   1      39.606  25.979  29.176  1.00  0.00    -0.203 F 
ATOM     58  F   UNL A   1      42.824  27.945  25.237  1.00  0.00    -0.200 F 
ATOM     59  C   UNL A   1      41.466  26.207  26.077  1.00  0.00     0.200 A 
ATOM     60  F   UNL A   1      40.093  24.501  26.963  1.00  0.00    -0.200 F 
ATOM     61  F   UNL A   1      41.686  25.479  24.974  1.00  0.00    -0.200 F 
ENDBRANCH  27  51
BRANCH  39  62
ATOM     62  C   UNL A   1      44.382  28.204  34.490  1.00  0.00     0.064 A 
ATOM     63  C   UNL A   1      44.256  26.982  35.166  1.00  0.00     0.173 A 
ATOM     64  C   UNL A   1      45.674  28.721  34.302  1.00  0.00     0.173 A 
ATOM     65  F   UNL A   1      43.043  26.454  35.386  1.00  0.00    -0.203 F 
ATOM     66  C   UNL A   1      45.379  26.314  35.651  1.00  0.00     0.198 A 
ATOM     67  C   UNL A   1      46.796  28.033  34.757  1.00  0.00     0.198 A 
ATOM     68  F   UNL A   1      45.852  29.884  33.658  1.00  0.00    -0.203 F 
ATOM     69  F   UNL A   1      45.232  25.170  36.333  1.00  0.00    -0.200 F 
ATOM     70  C   UNL A   1      46.647  26.834  35.437  1.00  0.00     0.200 A 
ATOM     71  F   UNL A   1      48.020  28.530  34.534  1.00  0.00    -0.200 F 
ATOM     72  F   UNL A   1      47.726  26.181  35.889  1.00  0.00    -0.200 F 
ENDBRANCH  39  62
ENDBRANCH  13  14
ENDBRANCH   6   8
ENDBRANCH   3   4
ENDBRANCH   2   3
ENDBRANCH   1   2
BRANCH   1  73
ATOM     73  C   UNL A   1      33.143  30.143  27.513  1.00  0.00     0.002 C 
BRANCH  73  74
ATOM     74  C   UNL A   1      34.009  29.311  26.576  1.00  0.00     0.021 C 
BRANCH  74  75
ATOM     75  C   UNL A   1      33.256  28.500  25.540  1.00  0.00     0.116 C 
BRANCH  75  76
ATOM     76  N   UNL A   1      33.601  28.751  24.168  1.00  0.00    -0.354 N 
ATOM     77  C   UNL A   1      32.976  28.303  23.043  1.00  0.00     0.243 C 
ATOM     78  H   UNL A   1      34.390  29.322  24.021  1.00  0.00     0.163 HD
ATOM     79  O   UNL A   1      33.360  28.809  21.980  1.00  0.00    -0.273 OA
BRANCH  77  80
ATOM     80  C   UNL A   1      31.811  27.265  23.020  1.00  0.00     0.185 C 
BRANCH  80  81
ATOM     81  C   UNL A   1      30.456  27.694  22.373  1.00  0.00     0.071 C 
BRANCH  81  82
ATOM     82  C   UNL A   1      29.635  28.837  22.918  1.00  0.00    -0.045 A 
ATOM     83  C   UNL A   1      28.258  28.911  22.679  1.00  0.00     0.004 A 
ATOM     84  C   UNL A   1      30.245  29.869  23.648  1.00  0.00     0.004 A 
ATOM     85  C   UNL A   1      27.538  30.060  23.017  1.00  0.00     0.000 A 
ATOM     86  C   UNL A   1      29.518  31.008  24.009  1.00  0.00     0.000 A 
ATOM     87  C   UNL A   1      28.175  31.119  23.659  1.00  0.00     0.000 A 
ENDBRANCH  81  82
ENDBRANCH  80  81
BRANCH  80  88
ATOM     88  N   UNL A   1      32.225  25.831  22.952  1.00  0.00    -0.280 N 
ATOM     89  C   UNL A   1      32.283  25.040  24.078  1.00  0.00     0.266 C 
ATOM     90  C   UNL A   1      32.555  25.170  21.776  1.00  0.00     0.149 C 
ATOM     91  O   UNL A   1      32.027  25.333  25.231  1.00  0.00    -0.268 OA
ATOM     92  C   UNL A   1      32.753  23.676  23.781  1.00  0.00     0.081 C 
ATOM     93  S   UNL A   1      33.033  23.497  22.116  1.00  0.00    -0.054 SA
ATOM     94  S   UNL A   1      32.579  25.745  20.208  1.00  0.00    -0.052 S 
ATOM     95  C   UNL A   1      32.911  22.835  24.811  1.00  0.00     0.029 C 
BRANCH  95  96
ATOM     96  C   UNL A   1      33.472  21.493  24.821  1.00  0.00    -0.024 A 
ATOM     97  C   UNL A   1      34.832  21.322  25.088  1.00  0.00     0.010 A 
ATOM     98  C   UNL A   1      32.707  20.399  24.425  1.00  0.00     0.018 A 
ATOM     99  C   UNL A   1      35.404  20.051  25.001  1.00  0.00     0.029 A 
ATOM    100  C   UNL A   1      33.284  19.128  24.349  1.00  0.00     0.001 A 
ATOM    101  C   UNL A   1      34.651  18.941  24.648  1.00  0.00     0.070 A 
ATOM    102  C   UNL A   1      32.524  18.016  23.976  1.00  0.00     0.012 A 
ATOM    103  N   UNL A   1      35.233  17.733  24.598  1.00  0.00    -0.256 NA
ATOM    104  C   UNL A   1      33.120  16.765  23.935  1.00  0.00     0.021 A 
ATOM    105  C   UNL A   1      34.463  16.676  24.254  1.00  0.00     0.112 A 
ENDBRANCH  95  96
ENDBRANCH  80  88
ENDBRANCH  77  80
ENDBRANCH  75  76
ENDBRANCH  74  75
ENDBRANCH  73  74
ENDBRANCH   1  73
TORSDOF 17
ENDMDL
MODEL 3
REMARK VINA RESULT:     -13.0      5.118     11.287
REMARK SMILES O=C(NCCCCCCNC(=O)[C@@H](Cc1ccccc1)N1C(=O)/C(=C/c2ccc3ncccc3c2)SC1=S)c1ccc(-c2c3nc(c(-c4c(F)c(F)c(F)c(F)c4F)c4ccc([nH]4)c(-c4c(F)c(F)c(F)c(F)c4F)c4nc(c(-c5c(F)c(F)c(F)c(F)c5F)c5ccc2[nH]5)C=C4)C=C3)cc1
REMARK SMILES IDX 6 1 5 2 4 3 3 4 1 5 2 6 39 8 40 9 101 10 41 11 100 12 42 13
REMARK SMILES IDX 43 14 44 15 94 16 45 17 99 18 93 19 95 20 46 21 98 22 92 23
REMARK SMILES IDX 91 24 47 26 79 27 59 28 78 29 60 30 63 31 77 32 96 33 61 34
REMARK SMILES IDX 62 35 76 37 97 38 64 39 48 40 49 41 57 42 50 43 51 44 55 45
REMARK SMILES IDX 58 46 52 47 53 48 56 49 54 50 80 51 81 52 89 53 82 54 83 55
REMARK SMILES IDX 87 56 90 57 84 58 85 59 88 60 86 61 65 62 66 63 74 64 67 65
REMARK SMILES IDX 68 66 72 67 75 68 69 69 70 70 73 71 71 72 7 73 8 74 9 75
REMARK SMILES IDX 10 76 11 77 12 79 13 80 14 81 15 82 16 83 20 84 17 85 19 86
REMARK SMILES IDX 18 87 21 88 22 89 37 90 23 91 24 92 36 93 38 94 25 95 26 96
REMARK SMILES IDX 27 97 35 98 28 99 34 100 29 101 33 102 30 103 32 104 31 105
REMARK H PARENT 3 7 95 25 63 36 10 78
REMARK Flexibility Score: inf
ROOT
ATOM      1  C   UNL A   1      39.181  22.215  26.132  1.00  0.00     0.002 C 
ENDROOT
BRANCH   1   2
ATOM      2  C   UNL A   1      39.369  20.894  25.377  1.00  0.00     0.021 C 
BRANCH   2   3
ATOM      3  C   UNL A   1      39.380  19.622  26.223  1.00  0.00     0.116 C 
BRANCH   3   4
ATOM      4  N   UNL A   1      40.590  18.840  26.041  1.00  0.00    -0.352 N 
ATOM      5  O   UNL A   1      42.762  18.412  25.662  1.00  0.00    -0.269 OA
ATOM      6  C   UNL A   1      41.906  19.219  26.011  1.00  0.00     0.251 C 
ATOM      7  H   UNL A   1      40.440  17.876  25.921  1.00  0.00     0.163 HD
BRANCH   6   8
ATOM      8  C   UNL A   1      42.310  20.592  26.380  1.00  0.00     0.039 A 
ATOM      9  C   UNL A   1      42.331  21.016  27.711  1.00  0.00     0.014 A 
ATOM     10  C   UNL A   1      42.751  21.449  25.367  1.00  0.00     0.014 A 
ATOM     11  C   UNL A   1      42.689  22.329  28.018  1.00  0.00     0.010 A 
ATOM     12  C   UNL A   1      43.174  22.741  25.683  1.00  0.00     0.010 A 
ATOM     13  C   UNL A   1      43.124  23.200  27.008  1.00  0.00    -0.014 A 
BRANCH  13  14
ATOM     14  C   UNL A   1      43.569  24.578  27.340  1.00  0.00     0.031 A 
ATOM     15  C   UNL A   1      42.593  25.591  27.866  1.00  0.00     0.074 A 
ATOM     16  C   UNL A   1      44.852  24.926  27.128  1.00  0.00     0.049 A 
ATOM     17  N   UNL A   1      42.777  26.860  28.133  1.00  0.00    -0.248 NA
ATOM     18  C   UNL A   1      41.224  25.117  28.115  1.00  0.00     0.031 C 
ATOM     19  C   UNL A   1      45.892  24.034  26.616  1.00  0.00     0.029 A 
ATOM     20  N   UNL A   1      45.497  26.125  27.305  1.00  0.00    -0.354 N 
ATOM     21  C   UNL A   1      41.547  27.340  28.562  1.00  0.00     0.074 A 
ATOM     22  C   UNL A   1      40.615  26.234  28.488  1.00  0.00     0.031 C 
ATOM     23  C   UNL A   1      47.047  24.710  26.529  1.00  0.00     0.029 A 
ATOM     24  C   UNL A   1      46.815  26.097  26.919  1.00  0.00     0.049 A 
ATOM     25  H   UNL A   1      45.058  26.926  27.671  1.00  0.00     0.167 HD
ATOM     26  C   UNL A   1      41.228  28.588  28.984  1.00  0.00     0.037 A 
ATOM     27  C   UNL A   1      47.727  27.085  26.855  1.00  0.00     0.037 A 
ATOM     28  C   UNL A   1      42.163  29.683  29.051  1.00  0.00     0.049 A 
ATOM     29  C   UNL A   1      47.338  28.473  27.279  1.00  0.00     0.074 A 
ATOM     30  C   UNL A   1      41.947  30.975  29.496  1.00  0.00     0.029 A 
ATOM     31  N   UNL A   1      43.488  29.619  28.643  1.00  0.00    -0.354 N 
ATOM     32  N   UNL A   1      46.184  28.910  27.721  1.00  0.00    -0.248 NA
ATOM     33  C   UNL A   1      48.378  29.507  27.197  1.00  0.00     0.031 C 
ATOM     34  C   UNL A   1      43.121  31.710  29.298  1.00  0.00     0.029 A 
ATOM     35  C   UNL A   1      44.093  30.856  28.800  1.00  0.00     0.049 A 
ATOM     36  H   UNL A   1      43.934  28.813  28.295  1.00  0.00     0.167 HD
ATOM     37  C   UNL A   1      46.366  30.256  28.003  1.00  0.00     0.074 A 
ATOM     38  C   UNL A   1      47.745  30.565  27.685  1.00  0.00     0.031 C 
ATOM     39  C   UNL A   1      45.472  31.151  28.490  1.00  0.00     0.037 A 
BRANCH  26  40
ATOM     40  C   UNL A   1      39.798  28.844  29.374  1.00  0.00     0.064 A 
ATOM     41  C   UNL A   1      38.841  29.281  28.443  1.00  0.00     0.173 A 
ATOM     42  C   UNL A   1      39.373  28.635  30.695  1.00  0.00     0.173 A 
ATOM     43  F   UNL A   1      39.192  29.505  27.168  1.00  0.00    -0.203 F 
ATOM     44  C   UNL A   1      37.528  29.538  28.831  1.00  0.00     0.198 A 
ATOM     45  C   UNL A   1      38.051  28.858  31.071  1.00  0.00     0.198 A 
ATOM     46  F   UNL A   1      40.241  28.206  31.625  1.00  0.00    -0.203 F 
ATOM     47  F   UNL A   1      36.650  30.015  27.938  1.00  0.00    -0.200 F 
ATOM     48  C   UNL A   1      37.133  29.321  30.142  1.00  0.00     0.200 A 
ATOM     49  F   UNL A   1      37.668  28.629  32.335  1.00  0.00    -0.200 F 
ATOM     50  F   UNL A   1      35.869  29.568  30.513  1.00  0.00    -0.200 F 
ENDBRANCH  26  40
BRANCH  27  51
ATOM     51  C   UNL A   1      49.098  26.783  26.366  1.00  0.00     0.064 A 
ATOM     52  C   UNL A   1      49.420  26.893  25.007  1.00  0.00     0.173 A 
ATOM     53  C   UNL A   1      50.120  26.409  27.252  1.00  0.00     0.173 A 
ATOM     54  F   UNL A   1      48.473  27.230  24.120  1.00  0.00    -0.203 F 
ATOM     55  C   UNL A   1      50.710  26.630  24.551  1.00  0.00     0.198 A 
ATOM     56  C   UNL A   1      51.416  26.176  26.799  1.00  0.00     0.198 A 
ATOM     57  F   UNL A   1      49.865  26.296  28.564  1.00  0.00    -0.203 F 
ATOM     58  F   UNL A   1      50.983  26.707  23.242  1.00  0.00    -0.200 F 
ATOM     59  C   UNL A   1      51.709  26.281  25.447  1.00  0.00     0.200 A 
ATOM     60  F   UNL A   1      52.382  25.859  27.672  1.00  0.00    -0.200 F 
ATOM     61  F   UNL A   1      52.953  26.043  25.009  1.00  0.00    -0.200 F 
ENDBRANCH  27  51
BRANCH  39  62
ATOM     62  C   UNL A   1      45.963  32.544  28.768  1.00  0.00     0.064 A 
ATOM     63  C   UNL A   1      46.550  32.898  29.991  1.00  0.00     0.173 A 
ATOM     64  C   UNL A   1      45.895  33.524  27.765  1.00  0.00     0.173 A 
ATOM     65  F   UNL A   1      46.625  32.004  30.988  1.00  0.00    -0.203 F 
ATOM     66  C   UNL A   1      47.033  34.187  30.207  1.00  0.00     0.198 A 
ATOM     67  C   UNL A   1      46.410  34.801  27.971  1.00  0.00     0.198 A 
ATOM     68  F   UNL A   1      45.348  33.238  26.573  1.00  0.00    -0.203 F 
ATOM     69  F   UNL A   1      47.550  34.516  31.398  1.00  0.00    -0.200 F 
ATOM     70  C   UNL A   1      46.973  35.133  29.194  1.00  0.00     0.200 A 
ATOM     71  F   UNL A   1      46.365  35.707  26.986  1.00  0.00    -0.200 F 
ATOM     72  F   UNL A   1      47.453  36.368  29.398  1.00  0.00    -0.200 F 
ENDBRANCH  39  62
ENDBRANCH  13  14
ENDBRANCH   6   8
ENDBRANCH   3   4
ENDBRANCH   2   3
ENDBRANCH   1   2
BRANCH   1  73
ATOM     73  C   UNL A   1      37.897  23.012  25.865  1.00  0.00     0.002 C 
BRANCH  73  74
ATOM     74  C   UNL A   1      37.071  22.596  24.654  1.00  0.00     0.021 C 
BRANCH  74  75
ATOM     75  C   UNL A   1      35.845  21.756  24.959  1.00  0.00     0.116 C 
BRANCH  75  76
ATOM     76  N   UNL A   1      35.223  21.984  26.233  1.00  0.00    -0.354 N 
ATOM     77  C   UNL A   1      33.894  22.051  26.526  1.00  0.00     0.243 C 
ATOM     78  H   UNL A   1      35.835  22.108  26.994  1.00  0.00     0.163 HD
ATOM     79  O   UNL A   1      33.612  22.077  27.731  1.00  0.00    -0.273 OA
BRANCH  77  80
ATOM     80  C   UNL A   1      32.744  22.044  25.469  1.00  0.00     0.185 C 
BRANCH  80  81
ATOM     81  C   UNL A   1      32.021  20.691  25.177  1.00  0.00     0.071 C 
BRANCH  81  82
ATOM     82  C   UNL A   1      32.680  19.587  24.387  1.00  0.00    -0.045 A 
ATOM     83  C   UNL A   1      32.155  19.172  23.157  1.00  0.00     0.004 A 
ATOM     84  C   UNL A   1      33.816  18.931  24.886  1.00  0.00     0.004 A 
ATOM     85  C   UNL A   1      32.649  18.029  22.522  1.00  0.00     0.000 A 
ATOM     86  C   UNL A   1      34.326  17.802  24.237  1.00  0.00     0.000 A 
ATOM     87  C   UNL A   1      33.718  17.330  23.077  1.00  0.00     0.000 A 
ENDBRANCH  81  82
ENDBRANCH  80  81
BRANCH  80  88
ATOM     88  N   UNL A   1      31.975  23.319  25.345  1.00  0.00    -0.280 N 
ATOM     89  C   UNL A   1      32.352  24.309  24.465  1.00  0.00     0.266 C 
ATOM     90  C   UNL A   1      30.822  23.607  26.064  1.00  0.00     0.149 C 
ATOM     91  O   UNL A   1      33.292  24.328  23.694  1.00  0.00    -0.268 OA
ATOM     92  C   UNL A   1      31.473  25.489  24.540  1.00  0.00     0.081 C 
ATOM     93  S   UNL A   1      30.231  25.231  25.668  1.00  0.00    -0.054 SA
ATOM     94  S   UNL A   1      30.017  22.676  27.194  1.00  0.00    -0.052 S 
ATOM     95  C   UNL A   1      31.782  26.543  23.775  1.00  0.00     0.029 C 
BRANCH  95  96
ATOM     96  C   UNL A   1      31.172  27.863  23.742  1.00  0.00    -0.024 A 
ATOM     97  C   UNL A   1      31.605  28.839  24.642  1.00  0.00     0.010 A 
ATOM     98  C   UNL A   1      30.068  28.118  22.932  1.00  0.00     0.018 A 
ATOM     99  C   UNL A   1      30.960  30.077  24.690  1.00  0.00     0.029 A 
ATOM    100  C   UNL A   1      29.433  29.362  22.980  1.00  0.00     0.001 A 
ATOM    101  C   UNL A   1      29.885  30.365  23.864  1.00  0.00     0.070 A 
ATOM    102  C   UNL A   1      28.338  29.641  22.156  1.00  0.00     0.012 A 
ATOM    103  N   UNL A   1      29.306  31.575  23.925  1.00  0.00    -0.256 NA
ATOM    104  C   UNL A   1      27.746  30.893  22.210  1.00  0.00     0.021 A 
ATOM    105  C   UNL A   1      28.263  31.817  23.100  1.00  0.00     0.112 A 
ENDBRANCH  95  96
ENDBRANCH  80  88
ENDBRANCH  77  80
ENDBRANCH  75  76
ENDBRANCH  74  75
ENDBRANCH  73  74
ENDBRANCH   1  73
TORSDOF 17
ENDMDL
