MODEL 1
REMARK VINA RESULT:     -12.4      0.000      0.000
REMARK SMILES CC(=O)N[C@@]1(C(=O)NCCCCCCNC(=O)c2ccc(-c3c4nc(c(-c5c(F)c(F)c(F)c(F)c5F)c5ccc([nH]5)c(-c5c(F)c(F)c(F)c(F)c5F)c5nc(c(-c6c(F)c(F)c(F)c(F)c6F)c6ccc3[nH]6)C=C5)C=C4)cc2)CCCc2ccccc21
REMARK SMILES IDX 12 1 11 2 10 3 9 4 8 5 6 6 7 7 5 9 81 10 89 11 82 12 84 13
REMARK SMILES IDX 88 14 83 15 85 16 87 17 86 18 4 19 1 20 2 21 3 22 13 24
REMARK SMILES IDX 14 25 15 26 16 27 17 29 18 30 19 31 80 32 20 33 79 34 21 35
REMARK SMILES IDX 22 36 23 37 73 38 24 39 78 40 72 41 74 42 25 43 77 44 71 45
REMARK SMILES IDX 70 46 26 48 58 49 38 50 57 51 39 52 42 53 56 54 75 55 40 56
REMARK SMILES IDX 41 57 55 59 76 60 43 61 27 62 28 63 36 64 29 65 30 66 34 67
REMARK SMILES IDX 37 68 31 69 32 70 35 71 33 72 59 73 60 74 68 75 61 76 62 77
REMARK SMILES IDX 66 78 69 79 63 80 64 81 67 82 65 83 44 84 45 85 53 86 46 87
REMARK SMILES IDX 47 88 51 89 54 90 48 91 49 92 52 93 50 94
REMARK H PARENT 8 8 4 23 15 28 74 47 42 58
REMARK Flexibility Score: inf
ROOT
ATOM      1  C   UNL A   1      32.154  27.385  26.375  1.00  0.00     0.002 C 
ENDROOT
BRANCH   1   2
ATOM      2  C   UNL A   1      33.555  27.060  25.853  1.00  0.00     0.002 C 
BRANCH   2   3
ATOM      3  C   UNL A   1      33.647  26.878  24.339  1.00  0.00     0.021 C 
BRANCH   3   4
ATOM      4  C   UNL A   1      32.540  26.021  23.726  1.00  0.00     0.116 C 
BRANCH   4   5
ATOM      5  N   UNL A   1      33.032  24.888  22.951  1.00  0.00    -0.354 N 
ATOM      6  C   UNL A   1      33.506  23.643  23.288  1.00  0.00     0.250 C 
ATOM      7  O   UNL A   1      33.771  22.904  22.333  1.00  0.00    -0.272 OA
ATOM      8  H   UNL A   1      33.023  25.049  21.979  1.00  0.00     0.163 HD
BRANCH   6   9
ATOM      9  C   UNL A   1      33.586  23.114  24.782  1.00  0.00     0.144 C 
ATOM     10  C   UNL A   1      34.867  23.626  25.504  1.00  0.00     0.044 C 
ATOM     11  C   UNL A   1      33.608  21.552  24.725  1.00  0.00    -0.010 A 
ATOM     12  C   UNL A   1      36.153  22.906  25.141  1.00  0.00     0.008 C 
ATOM     13  C   UNL A   1      34.796  20.814  24.945  1.00  0.00    -0.042 A 
ATOM     14  C   UNL A   1      32.475  20.816  24.319  1.00  0.00     0.007 A 
ATOM     15  C   UNL A   1      36.050  21.440  25.491  1.00  0.00     0.036 C 
ATOM     16  C   UNL A   1      34.833  19.424  24.712  1.00  0.00     0.004 A 
ATOM     17  C   UNL A   1      32.529  19.440  24.068  1.00  0.00     0.000 A 
ATOM     18  C   UNL A   1      33.713  18.747  24.250  1.00  0.00     0.000 A 
BRANCH   9  19
ATOM     19  N   UNL A   1      32.436  23.620  25.562  1.00  0.00    -0.338 N 
ATOM     20  C   UNL A   1      32.979  22.577  27.785  1.00  0.00     0.114 C 
ATOM     21  C   UNL A   1      32.065  23.337  26.848  1.00  0.00     0.217 C 
ATOM     22  O   UNL A   1      30.986  23.775  27.250  1.00  0.00    -0.275 OA
ATOM     23  H   UNL A   1      31.851  24.254  25.086  1.00  0.00     0.164 HD
ENDBRANCH   9  19
ENDBRANCH   6   9
ENDBRANCH   4   5
ENDBRANCH   3   4
ENDBRANCH   2   3
ENDBRANCH   1   2
BRANCH   1  24
ATOM     24  C   UNL A   1      31.832  28.877  26.516  1.00  0.00     0.021 C 
BRANCH  24  25
ATOM     25  C   UNL A   1      32.858  29.834  25.910  1.00  0.00     0.116 C 
BRANCH  25  26
ATOM     26  N   UNL A   1      32.640  31.213  26.311  1.00  0.00    -0.352 N 
ATOM     27  C   UNL A   1      33.283  31.970  27.253  1.00  0.00     0.251 C 
ATOM     28  H   UNL A   1      31.915  31.675  25.832  1.00  0.00     0.163 HD
ATOM     29  O   UNL A   1      32.834  33.081  27.546  1.00  0.00    -0.269 OA
BRANCH  27  30
ATOM     30  C   UNL A   1      34.494  31.473  27.943  1.00  0.00     0.039 A 
ATOM     31  C   UNL A   1      35.563  32.356  28.119  1.00  0.00     0.014 A 
ATOM     32  C   UNL A   1      34.611  30.147  28.371  1.00  0.00     0.014 A 
ATOM     33  C   UNL A   1      36.727  31.923  28.758  1.00  0.00     0.010 A 
ATOM     34  C   UNL A   1      35.748  29.734  29.068  1.00  0.00     0.010 A 
ATOM     35  C   UNL A   1      36.822  30.615  29.260  1.00  0.00    -0.014 A 
BRANCH  35  36
ATOM     36  C   UNL A   1      38.043  30.180  29.988  1.00  0.00     0.031 A 
ATOM     37  C   UNL A   1      38.295  30.623  31.402  1.00  0.00     0.074 A 
ATOM     38  C   UNL A   1      38.939  29.394  29.362  1.00  0.00     0.049 A 
ATOM     39  N   UNL A   1      39.280  30.304  32.206  1.00  0.00    -0.248 NA
ATOM     40  C   UNL A   1      37.329  31.565  31.986  1.00  0.00     0.031 C 
ATOM     41  C   UNL A   1      38.845  28.950  27.970  1.00  0.00     0.029 A 
ATOM     42  N   UNL A   1      40.103  28.824  29.813  1.00  0.00    -0.354 N 
ATOM     43  C   UNL A   1      39.055  31.008  33.381  1.00  0.00     0.074 A 
ATOM     44  C   UNL A   1      37.872  31.813  33.170  1.00  0.00     0.031 C 
ATOM     45  C   UNL A   1      39.884  28.149  27.692  1.00  0.00     0.029 A 
ATOM     46  C   UNL A   1      40.731  28.040  28.877  1.00  0.00     0.049 A 
ATOM     47  H   UNL A   1      40.454  28.963  30.722  1.00  0.00     0.167 HD
ATOM     48  C   UNL A   1      39.756  30.968  34.541  1.00  0.00     0.037 A 
ATOM     49  C   UNL A   1      41.856  27.307  28.967  1.00  0.00     0.037 A 
ATOM     50  C   UNL A   1      40.922  30.150  34.758  1.00  0.00     0.049 A 
ATOM     51  C   UNL A   1      42.596  27.253  30.275  1.00  0.00     0.074 A 
ATOM     52  C   UNL A   1      41.666  29.993  35.916  1.00  0.00     0.029 A 
ATOM     53  N   UNL A   1      41.517  29.351  33.793  1.00  0.00    -0.354 N 
ATOM     54  N   UNL A   1      42.324  27.856  31.407  1.00  0.00    -0.248 NA
ATOM     55  C   UNL A   1      43.792  26.399  30.322  1.00  0.00     0.031 C 
ATOM     56  C   UNL A   1      42.734  29.134  35.638  1.00  0.00     0.029 A 
ATOM     57  C   UNL A   1      42.629  28.713  34.323  1.00  0.00     0.049 A 
ATOM     58  H   UNL A   1      41.197  29.251  32.867  1.00  0.00     0.167 HD
ATOM     59  C   UNL A   1      43.297  27.440  32.304  1.00  0.00     0.074 A 
ATOM     60  C   UNL A   1      44.151  26.511  31.591  1.00  0.00     0.031 C 
ATOM     61  C   UNL A   1      43.472  27.796  33.600  1.00  0.00     0.037 A 
BRANCH  48  62
ATOM     62  C   UNL A   1      39.274  31.830  35.673  1.00  0.00     0.064 A 
ATOM     63  C   UNL A   1      38.364  31.349  36.627  1.00  0.00     0.173 A 
ATOM     64  C   UNL A   1      39.757  33.139  35.828  1.00  0.00     0.173 A 
ATOM     65  F   UNL A   1      37.866  30.109  36.519  1.00  0.00    -0.203 F 
ATOM     66  C   UNL A   1      37.933  32.156  37.679  1.00  0.00     0.198 A 
ATOM     67  C   UNL A   1      39.346  33.932  36.898  1.00  0.00     0.198 A 
ATOM     68  F   UNL A   1      40.633  33.646  34.949  1.00  0.00    -0.203 F 
ATOM     69  F   UNL A   1      37.028  31.690  38.550  1.00  0.00    -0.200 F 
ATOM     70  C   UNL A   1      38.429  33.442  37.816  1.00  0.00     0.200 A 
ATOM     71  F   UNL A   1      39.837  35.171  37.038  1.00  0.00    -0.200 F 
ATOM     72  F   UNL A   1      38.020  34.215  38.832  1.00  0.00    -0.200 F 
ENDBRANCH  48  62
BRANCH  49  73
ATOM     73  C   UNL A   1      42.326  26.523  27.795  1.00  0.00     0.064 A 
ATOM     74  C   UNL A   1      41.830  25.237  27.543  1.00  0.00     0.173 A 
ATOM     75  C   UNL A   1      43.279  27.041  26.907  1.00  0.00     0.173 A 
ATOM     76  F   UNL A   1      40.930  24.691  28.376  1.00  0.00    -0.203 F 
ATOM     77  C   UNL A   1      42.287  24.487  26.461  1.00  0.00     0.198 A 
ATOM     78  C   UNL A   1      43.715  26.303  25.809  1.00  0.00     0.198 A 
ATOM     79  F   UNL A   1      43.779  28.270  27.100  1.00  0.00    -0.203 F 
ATOM     80  F   UNL A   1      41.832  23.241  26.272  1.00  0.00    -0.200 F 
ATOM     81  C   UNL A   1      43.226  25.023  25.592  1.00  0.00     0.200 A 
ATOM     82  F   UNL A   1      44.610  26.828  24.963  1.00  0.00    -0.200 F 
ATOM     83  F   UNL A   1      43.663  24.304  24.550  1.00  0.00    -0.200 F 
ENDBRANCH  49  73
BRANCH  61  84
ATOM     84  C   UNL A   1      44.617  27.158  34.334  1.00  0.00     0.064 A 
ATOM     85  C   UNL A   1      45.888  27.755  34.375  1.00  0.00     0.173 A 
ATOM     86  C   UNL A   1      44.443  25.938  35.003  1.00  0.00     0.173 A 
ATOM     87  F   UNL A   1      46.109  28.914  33.738  1.00  0.00    -0.203 F 
ATOM     88  C   UNL A   1      46.950  27.131  35.023  1.00  0.00     0.198 A 
ATOM     89  C   UNL A   1      45.500  25.333  35.678  1.00  0.00     0.198 A 
ATOM     90  F   UNL A   1      43.248  25.330  35.001  1.00  0.00    -0.203 F 
ATOM     91  F   UNL A   1      48.169  27.687  34.994  1.00  0.00    -0.200 F 
ATOM     92  C   UNL A   1      46.754  25.924  35.678  1.00  0.00     0.200 A 
ATOM     93  F   UNL A   1      45.307  24.173  36.320  1.00  0.00    -0.200 F 
ATOM     94  F   UNL A   1      47.780  25.322  36.296  1.00  0.00    -0.200 F 
ENDBRANCH  61  84
ENDBRANCH  35  36
ENDBRANCH  27  30
ENDBRANCH  25  26
ENDBRANCH  24  25
ENDBRANCH   1  24
TORSDOF 14
ENDMDL
MODEL 2
REMARK VINA RESULT:     -12.1      4.034      8.918
REMARK SMILES CC(=O)N[C@@]1(C(=O)NCCCCCCNC(=O)c2ccc(-c3c4nc(c(-c5c(F)c(F)c(F)c(F)c5F)c5ccc([nH]5)c(-c5c(F)c(F)c(F)c(F)c5F)c5nc(c(-c6c(F)c(F)c(F)c(F)c6F)c6ccc3[nH]6)C=C5)C=C4)cc2)CCCc2ccccc21
REMARK SMILES IDX 12 1 11 2 10 3 9 4 8 5 6 6 7 7 5 9 81 10 89 11 82 12 84 13
REMARK SMILES IDX 88 14 83 15 85 16 87 17 86 18 4 19 1 20 2 21 3 22 13 24
REMARK SMILES IDX 14 25 15 26 16 27 17 29 18 30 19 31 80 32 20 33 79 34 21 35
REMARK SMILES IDX 22 36 23 37 73 38 24 39 78 40 72 41 74 42 25 43 77 44 71 45
REMARK SMILES IDX 70 46 26 48 58 49 38 50 57 51 39 52 42 53 56 54 75 55 40 56
REMARK SMILES IDX 41 57 55 59 76 60 43 61 27 62 28 63 36 64 29 65 30 66 34 67
REMARK SMILES IDX 37 68 31 69 32 70 35 71 33 72 59 73 60 74 68 75 61 76 62 77
REMARK SMILES IDX 66 78 69 79 63 80 64 81 67 82 65 83 44 84 45 85 53 86 46 87
REMARK SMILES IDX 47 88 51 89 54 90 48 91 49 92 52 93 50 94
REMARK H PARENT 8 8 4 23 15 28 74 47 42 58
REMARK Flexibility Score: inf
ROOT
ATOM      1  C   UNL A   1      34.878  21.683  25.264  1.00  0.00     0.002 C 
ENDROOT
BRANCH   1   2
ATOM      2  C   UNL A   1      34.010  21.881  24.020  1.00  0.00     0.002 C 
BRANCH   2   3
ATOM      3  C   UNL A   1      32.627  21.238  24.097  1.00  0.00     0.021 C 
BRANCH   3   4
ATOM      4  C   UNL A   1      31.475  22.213  24.336  1.00  0.00     0.116 C 
BRANCH   4   5
ATOM      5  N   UNL A   1      31.514  22.864  25.641  1.00  0.00    -0.354 N 
ATOM      6  C   UNL A   1      31.461  24.174  26.049  1.00  0.00     0.250 C 
ATOM      7  O   UNL A   1      31.449  24.344  27.274  1.00  0.00    -0.272 OA
ATOM      8  H   UNL A   1      31.597  22.228  26.389  1.00  0.00     0.163 HD
BRANCH   6   9
ATOM      9  C   UNL A   1      31.286  25.394  25.050  1.00  0.00     0.144 C 
ATOM     10  C   UNL A   1      32.048  25.155  23.712  1.00  0.00     0.044 C 
ATOM     11  C   UNL A   1      31.859  26.665  25.757  1.00  0.00    -0.010 A 
ATOM     12  C   UNL A   1      33.550  25.370  23.770  1.00  0.00     0.008 C 
ATOM     13  C   UNL A   1      33.111  27.218  25.397  1.00  0.00    -0.042 A 
ATOM     14  C   UNL A   1      31.215  27.236  26.875  1.00  0.00     0.007 A 
ATOM     15  C   UNL A   1      33.861  26.794  24.164  1.00  0.00     0.036 C 
ATOM     16  C   UNL A   1      33.689  28.249  26.165  1.00  0.00     0.004 A 
ATOM     17  C   UNL A   1      31.809  28.244  27.643  1.00  0.00     0.000 A 
ATOM     18  C   UNL A   1      33.054  28.740  27.297  1.00  0.00     0.000 A 
BRANCH   9  19
ATOM     19  N   UNL A   1      29.859  25.558  24.694  1.00  0.00    -0.338 N 
ATOM     20  C   UNL A   1      30.053  27.585  23.217  1.00  0.00     0.114 C 
ATOM     21  C   UNL A   1      29.250  26.554  23.981  1.00  0.00     0.217 C 
ATOM     22  O   UNL A   1      28.019  26.554  23.921  1.00  0.00    -0.275 OA
ATOM     23  H   UNL A   1      29.261  24.847  25.018  1.00  0.00     0.164 HD
ENDBRANCH   9  19
ENDBRANCH   6   9
ENDBRANCH   4   5
ENDBRANCH   3   4
ENDBRANCH   2   3
ENDBRANCH   1   2
BRANCH   1  24
ATOM     24  C   UNL A   1      35.178  22.953  26.069  1.00  0.00     0.021 C 
BRANCH  24  25
ATOM     25  C   UNL A   1      36.537  23.599  25.800  1.00  0.00     0.116 C 
BRANCH  25  26
ATOM     26  N   UNL A   1      37.637  22.661  25.937  1.00  0.00    -0.352 N 
ATOM     27  C   UNL A   1      38.925  22.867  26.352  1.00  0.00     0.251 C 
ATOM     28  H   UNL A   1      37.423  21.732  25.693  1.00  0.00     0.163 HD
ATOM     29  O   UNL A   1      39.748  21.954  26.247  1.00  0.00    -0.269 OA
BRANCH  27  30
ATOM     30  C   UNL A   1      39.356  24.171  26.902  1.00  0.00     0.039 A 
ATOM     31  C   UNL A   1      39.066  24.451  28.241  1.00  0.00     0.014 A 
ATOM     32  C   UNL A   1      39.992  25.135  26.114  1.00  0.00     0.014 A 
ATOM     33  C   UNL A   1      39.448  25.674  28.797  1.00  0.00     0.010 A 
ATOM     34  C   UNL A   1      40.433  26.329  26.688  1.00  0.00     0.010 A 
ATOM     35  C   UNL A   1      40.157  26.615  28.032  1.00  0.00    -0.014 A 
BRANCH  35  36
ATOM     36  C   UNL A   1      40.609  27.890  28.648  1.00  0.00     0.031 A 
ATOM     37  C   UNL A   1      42.054  28.105  29.002  1.00  0.00     0.074 A 
ATOM     38  C   UNL A   1      39.705  28.855  28.906  1.00  0.00     0.049 A 
ATOM     39  N   UNL A   1      42.634  29.170  29.500  1.00  0.00    -0.248 NA
ATOM     40  C   UNL A   1      42.966  26.972  28.789  1.00  0.00     0.031 C 
ATOM     41  C   UNL A   1      38.264  28.744  28.673  1.00  0.00     0.029 A 
ATOM     42  N   UNL A   1      39.862  30.119  29.416  1.00  0.00    -0.354 N 
ATOM     43  C   UNL A   1      43.971  28.831  29.666  1.00  0.00     0.074 A 
ATOM     44  C   UNL A   1      44.108  27.448  29.267  1.00  0.00     0.031 C 
ATOM     45  C   UNL A   1      37.675  29.903  29.004  1.00  0.00     0.029 A 
ATOM     46  C   UNL A   1      38.691  30.831  29.494  1.00  0.00     0.049 A 
ATOM     47  H   UNL A   1      40.733  30.481  29.699  1.00  0.00     0.167 HD
ATOM     48  C   UNL A   1      44.996  29.611  30.087  1.00  0.00     0.037 A 
ATOM     49  C   UNL A   1      38.462  32.093  29.902  1.00  0.00     0.037 A 
ATOM     50  C   UNL A   1      44.863  30.995  30.465  1.00  0.00     0.049 A 
ATOM     51  C   UNL A   1      39.623  32.947  30.334  1.00  0.00     0.074 A 
ATOM     52  C   UNL A   1      45.852  31.886  30.847  1.00  0.00     0.029 A 
ATOM     53  N   UNL A   1      43.664  31.690  30.509  1.00  0.00    -0.354 N 
ATOM     54  N   UNL A   1      40.896  32.642  30.403  1.00  0.00    -0.248 NA
ATOM     55  C   UNL A   1      39.314  34.329  30.726  1.00  0.00     0.031 C 
ATOM     56  C   UNL A   1      45.245  33.106  31.163  1.00  0.00     0.029 A 
ATOM     57  C   UNL A   1      43.884  32.993  30.930  1.00  0.00     0.049 A 
ATOM     58  H   UNL A   1      42.785  31.313  30.276  1.00  0.00     0.167 HD
ATOM     59  C   UNL A   1      41.542  33.796  30.824  1.00  0.00     0.074 A 
ATOM     60  C   UNL A   1      40.522  34.815  30.968  1.00  0.00     0.031 C 
ATOM     61  C   UNL A   1      42.859  33.995  31.073  1.00  0.00     0.037 A 
BRANCH  48  62
ATOM     62  C   UNL A   1      46.360  28.985  30.156  1.00  0.00     0.064 A 
ATOM     63  C   UNL A   1      47.231  28.998  29.055  1.00  0.00     0.173 A 
ATOM     64  C   UNL A   1      46.818  28.400  31.347  1.00  0.00     0.173 A 
ATOM     65  F   UNL A   1      46.839  29.536  27.891  1.00  0.00    -0.203 F 
ATOM     66  C   UNL A   1      48.498  28.424  29.135  1.00  0.00     0.198 A 
ATOM     67  C   UNL A   1      48.097  27.853  31.431  1.00  0.00     0.198 A 
ATOM     68  F   UNL A   1      46.030  28.367  32.431  1.00  0.00    -0.203 F 
ATOM     69  F   UNL A   1      49.293  28.406  28.056  1.00  0.00    -0.200 F 
ATOM     70  C   UNL A   1      48.932  27.859  30.324  1.00  0.00     0.200 A 
ATOM     71  F   UNL A   1      48.520  27.320  32.586  1.00  0.00    -0.200 F 
ATOM     72  F   UNL A   1      50.153  27.312  30.402  1.00  0.00    -0.200 F 
ENDBRANCH  48  62
BRANCH  49  73
ATOM     73  C   UNL A   1      37.082  32.642  29.877  1.00  0.00     0.064 A 
ATOM     74  C   UNL A   1      36.227  32.492  30.978  1.00  0.00     0.173 A 
ATOM     75  C   UNL A   1      36.588  33.322  28.755  1.00  0.00     0.173 A 
ATOM     76  F   UNL A   1      36.648  31.832  32.068  1.00  0.00    -0.203 F 
ATOM     77  C   UNL A   1      34.923  32.982  30.949  1.00  0.00     0.198 A 
ATOM     78  C   UNL A   1      35.294  33.835  28.737  1.00  0.00     0.198 A 
ATOM     79  F   UNL A   1      37.369  33.497  27.679  1.00  0.00    -0.203 F 
ATOM     80  F   UNL A   1      34.112  32.782  31.997  1.00  0.00    -0.200 F 
ATOM     81  C   UNL A   1      34.459  33.657  29.830  1.00  0.00     0.200 A 
ATOM     82  F   UNL A   1      34.854  34.501  27.662  1.00  0.00    -0.200 F 
ATOM     83  F   UNL A   1      33.206  34.130  29.804  1.00  0.00    -0.200 F 
ENDBRANCH  49  73
BRANCH  61  84
ATOM     84  C   UNL A   1      43.271  35.373  31.503  1.00  0.00     0.064 A 
ATOM     85  C   UNL A   1      43.684  36.341  30.573  1.00  0.00     0.173 A 
ATOM     86  C   UNL A   1      43.253  35.732  32.859  1.00  0.00     0.173 A 
ATOM     87  F   UNL A   1      43.733  36.043  29.266  1.00  0.00    -0.203 F 
ATOM     88  C   UNL A   1      44.103  37.601  30.991  1.00  0.00     0.198 A 
ATOM     89  C   UNL A   1      43.642  37.004  33.269  1.00  0.00     0.198 A 
ATOM     90  F   UNL A   1      42.860  34.847  33.787  1.00  0.00    -0.203 F 
ATOM     91  F   UNL A   1      44.554  38.487  30.092  1.00  0.00    -0.200 F 
ATOM     92  C   UNL A   1      44.077  37.933  32.337  1.00  0.00     0.200 A 
ATOM     93  F   UNL A   1      43.606  37.327  34.569  1.00  0.00    -0.200 F 
ATOM     94  F   UNL A   1      44.486  39.145  32.737  1.00  0.00    -0.200 F 
ENDBRANCH  61  84
ENDBRANCH  35  36
ENDBRANCH  27  30
ENDBRANCH  25  26
ENDBRANCH  24  25
ENDBRANCH   1  24
TORSDOF 14
ENDMDL
MODEL 3
REMARK VINA RESULT:     -12.1      0.609      1.801
REMARK SMILES CC(=O)N[C@@]1(C(=O)NCCCCCCNC(=O)c2ccc(-c3c4nc(c(-c5c(F)c(F)c(F)c(F)c5F)c5ccc([nH]5)c(-c5c(F)c(F)c(F)c(F)c5F)c5nc(c(-c6c(F)c(F)c(F)c(F)c6F)c6ccc3[nH]6)C=C5)C=C4)cc2)CCCc2ccccc21
REMARK SMILES IDX 12 1 11 2 10 3 9 4 8 5 6 6 7 7 5 9 81 10 89 11 82 12 84 13
REMARK SMILES IDX 88 14 83 15 85 16 87 17 86 18 4 19 1 20 2 21 3 22 13 24
REMARK SMILES IDX 14 25 15 26 16 27 17 29 18 30 19 31 80 32 20 33 79 34 21 35
REMARK SMILES IDX 22 36 23 37 73 38 24 39 78 40 72 41 74 42 25 43 77 44 71 45
REMARK SMILES IDX 70 46 26 48 58 49 38 50 57 51 39 52 42 53 56 54 75 55 40 56
REMARK SMILES IDX 41 57 55 59 76 60 43 61 27 62 28 63 36 64 29 65 30 66 34 67
REMARK SMILES IDX 37 68 31 69 32 70 35 71 33 72 59 73 60 74 68 75 61 76 62 77
REMARK SMILES IDX 66 78 69 79 63 80 64 81 67 82 65 83 44 84 45 85 53 86 46 87
REMARK SMILES IDX 47 88 51 89 54 90 48 91 49 92 52 93 50 94
REMARK H PARENT 8 8 4 23 15 28 74 47 42 58
REMARK Flexibility Score: inf
ROOT
ATOM      1  C   UNL A   1      32.754  26.603  25.574  1.00  0.00     0.002 C 
ENDROOT
BRANCH   1   2
ATOM      2  C   UNL A   1      33.531  26.483  24.261  1.00  0.00     0.002 C 
BRANCH   2   3
ATOM      3  C   UNL A   1      32.671  26.189  23.034  1.00  0.00     0.021 C 
BRANCH   3   4
ATOM      4  C   UNL A   1      31.587  25.132  23.244  1.00  0.00     0.116 C 
BRANCH   4   5
ATOM      5  N   UNL A   1      31.883  23.850  22.614  1.00  0.00    -0.354 N 
ATOM      6  C   UNL A   1      32.519  22.709  23.040  1.00  0.00     0.250 C 
ATOM      7  O   UNL A   1      32.517  21.774  22.231  1.00  0.00    -0.272 OA
ATOM      8  H   UNL A   1      31.558  23.790  21.686  1.00  0.00     0.163 HD
BRANCH   6   9
ATOM      9  C   UNL A   1      33.100  22.526  24.504  1.00  0.00     0.144 C 
ATOM     10  C   UNL A   1      34.439  23.299  24.691  1.00  0.00     0.044 C 
ATOM     11  C   UNL A   1      33.343  20.998  24.725  1.00  0.00    -0.010 A 
ATOM     12  C   UNL A   1      35.664  22.639  24.084  1.00  0.00     0.008 C 
ATOM     13  C   UNL A   1      34.643  20.438  24.696  1.00  0.00    -0.042 A 
ATOM     14  C   UNL A   1      32.268  20.091  24.828  1.00  0.00     0.007 A 
ATOM     15  C   UNL A   1      35.889  21.281  24.706  1.00  0.00     0.036 C 
ATOM     16  C   UNL A   1      34.824  19.041  24.716  1.00  0.00     0.004 A 
ATOM     17  C   UNL A   1      32.459  18.704  24.824  1.00  0.00     0.000 A 
ATOM     18  C   UNL A   1      33.737  18.179  24.752  1.00  0.00     0.000 A 
BRANCH   9  19
ATOM     19  N   UNL A   1      32.154  23.082  25.497  1.00  0.00    -0.338 N 
ATOM     20  C   UNL A   1      33.334  22.372  27.602  1.00  0.00     0.114 C 
ATOM     21  C   UNL A   1      32.152  22.958  26.860  1.00  0.00     0.217 C 
ATOM     22  O   UNL A   1      31.183  23.399  27.481  1.00  0.00    -0.275 OA
ATOM     23  H   UNL A   1      31.419  23.620  25.123  1.00  0.00     0.164 HD
ENDBRANCH   9  19
ENDBRANCH   6   9
ENDBRANCH   4   5
ENDBRANCH   3   4
ENDBRANCH   2   3
ENDBRANCH   1   2
BRANCH   1  24
ATOM     24  C   UNL A   1      32.328  28.024  25.960  1.00  0.00     0.021 C 
BRANCH  24  25
ATOM     25  C   UNL A   1      33.322  29.130  25.609  1.00  0.00     0.116 C 
BRANCH  25  26
ATOM     26  N   UNL A   1      32.853  30.447  26.003  1.00  0.00    -0.352 N 
ATOM     27  C   UNL A   1      33.317  31.295  26.972  1.00  0.00     0.251 C 
ATOM     28  H   UNL A   1      32.079  30.781  25.496  1.00  0.00     0.163 HD
ATOM     29  O   UNL A   1      32.673  32.310  27.248  1.00  0.00    -0.269 OA
BRANCH  27  30
ATOM     30  C   UNL A   1      34.567  31.008  27.710  1.00  0.00     0.039 A 
ATOM     31  C   UNL A   1      34.718  29.744  28.288  1.00  0.00     0.014 A 
ATOM     32  C   UNL A   1      35.564  31.973  27.885  1.00  0.00     0.014 A 
ATOM     33  C   UNL A   1      35.879  29.435  29.000  1.00  0.00     0.010 A 
ATOM     34  C   UNL A   1      36.752  31.643  28.539  1.00  0.00     0.010 A 
ATOM     35  C   UNL A   1      36.918  30.374  29.112  1.00  0.00    -0.014 A 
BRANCH  35  36
ATOM     36  C   UNL A   1      38.173  30.018  29.824  1.00  0.00     0.031 A 
ATOM     37  C   UNL A   1      38.447  30.534  31.209  1.00  0.00     0.074 A 
ATOM     38  C   UNL A   1      39.081  29.237  29.208  1.00  0.00     0.049 A 
ATOM     39  N   UNL A   1      39.464  30.287  31.998  1.00  0.00    -0.248 NA
ATOM     40  C   UNL A   1      37.462  31.465  31.778  1.00  0.00     0.031 C 
ATOM     41  C   UNL A   1      38.966  28.727  27.840  1.00  0.00     0.029 A 
ATOM     42  N   UNL A   1      40.277  28.730  29.651  1.00  0.00    -0.354 N 
ATOM     43  C   UNL A   1      39.245  31.036  33.147  1.00  0.00     0.074 A 
ATOM     44  C   UNL A   1      38.027  31.787  32.934  1.00  0.00     0.031 C 
ATOM     45  C   UNL A   1      40.027  27.952  27.569  1.00  0.00     0.029 A 
ATOM     46  C   UNL A   1      40.909  27.928  28.733  1.00  0.00     0.049 A 
ATOM     47  H   UNL A   1      40.647  28.924  30.542  1.00  0.00     0.167 HD
ATOM     48  C   UNL A   1      39.977  31.074  34.286  1.00  0.00     0.037 A 
ATOM     49  C   UNL A   1      42.062  27.241  28.823  1.00  0.00     0.037 A 
ATOM     50  C   UNL A   1      41.179  30.310  34.506  1.00  0.00     0.049 A 
ATOM     51  C   UNL A   1      42.839  27.274  30.111  1.00  0.00     0.074 A 
ATOM     52  C   UNL A   1      41.959  30.233  35.648  1.00  0.00     0.029 A 
ATOM     53  N   UNL A   1      41.777  29.489  33.561  1.00  0.00    -0.354 N 
ATOM     54  N   UNL A   1      42.575  27.917  31.221  1.00  0.00    -0.248 NA
ATOM     55  C   UNL A   1      44.067  26.467  30.161  1.00  0.00     0.031 C 
ATOM     56  C   UNL A   1      43.051  29.401  35.379  1.00  0.00     0.029 A 
ATOM     57  C   UNL A   1      42.926  28.917  34.086  1.00  0.00     0.049 A 
ATOM     58  H   UNL A   1      41.437  29.336  32.650  1.00  0.00     0.167 HD
ATOM     59  C   UNL A   1      43.587  27.578  32.108  1.00  0.00     0.074 A 
ATOM     60  C   UNL A   1      44.456  26.650  31.414  1.00  0.00     0.031 C 
ATOM     61  C   UNL A   1      43.783  27.999  33.382  1.00  0.00     0.037 A 
BRANCH  48  62
ATOM     62  C   UNL A   1      39.495  31.969  35.392  1.00  0.00     0.064 A 
ATOM     63  C   UNL A   1      39.909  33.306  35.488  1.00  0.00     0.173 A 
ATOM     64  C   UNL A   1      38.578  31.497  36.344  1.00  0.00     0.173 A 
ATOM     65  F   UNL A   1      40.791  33.805  34.609  1.00  0.00    -0.203 F 
ATOM     66  C   UNL A   1      39.446  34.130  36.513  1.00  0.00     0.198 A 
ATOM     67  C   UNL A   1      38.095  32.332  37.349  1.00  0.00     0.198 A 
ATOM     68  F   UNL A   1      38.143  30.229  36.294  1.00  0.00    -0.203 F 
ATOM     69  F   UNL A   1      39.893  35.389  36.611  1.00  0.00    -0.200 F 
ATOM     70  C   UNL A   1      38.535  33.644  37.437  1.00  0.00     0.200 A 
ATOM     71  F   UNL A   1      37.202  31.865  38.234  1.00  0.00    -0.200 F 
ATOM     72  F   UNL A   1      38.085  34.439  38.418  1.00  0.00    -0.200 F 
ENDBRANCH  48  62
BRANCH  49  73
ATOM     73  C   UNL A   1      42.529  26.423  27.674  1.00  0.00     0.064 A 
ATOM     74  C   UNL A   1      42.066  25.113  27.487  1.00  0.00     0.173 A 
ATOM     75  C   UNL A   1      43.447  26.929  26.743  1.00  0.00     0.173 A 
ATOM     76  F   UNL A   1      41.202  24.577  28.363  1.00  0.00    -0.203 F 
ATOM     77  C   UNL A   1      42.522  24.332  26.427  1.00  0.00     0.198 A 
ATOM     78  C   UNL A   1      43.881  26.158  25.668  1.00  0.00     0.198 A 
ATOM     79  F   UNL A   1      43.915  28.179  26.874  1.00  0.00    -0.203 F 
ATOM     80  F   UNL A   1      42.100  23.066  26.300  1.00  0.00    -0.200 F 
ATOM     81  C   UNL A   1      43.425  24.857  25.515  1.00  0.00     0.200 A 
ATOM     82  F   UNL A   1      44.741  26.673  24.780  1.00  0.00    -0.200 F 
ATOM     83  F   UNL A   1      43.861  24.107  24.495  1.00  0.00    -0.200 F 
ENDBRANCH  49  73
BRANCH  61  84
ATOM     84  C   UNL A   1      44.971  27.437  34.110  1.00  0.00     0.064 A 
ATOM     85  C   UNL A   1      44.885  26.246  34.848  1.00  0.00     0.173 A 
ATOM     86  C   UNL A   1      46.208  28.096  34.068  1.00  0.00     0.173 A 
ATOM     87  F   UNL A   1      43.720  25.586  34.931  1.00  0.00    -0.203 F 
ATOM     88  C   UNL A   1      45.984  25.761  35.552  1.00  0.00     0.198 A 
ATOM     89  C   UNL A   1      47.313  27.589  34.747  1.00  0.00     0.198 A 
ATOM     90  F   UNL A   1      46.346  29.233  33.371  1.00  0.00    -0.203 F 
ATOM     91  F   UNL A   1      45.861  24.658  36.303  1.00  0.00    -0.200 F 
ATOM     92  C   UNL A   1      47.197  26.430  35.497  1.00  0.00     0.200 A 
ATOM     93  F   UNL A   1      48.489  28.231  34.684  1.00  0.00    -0.200 F 
ATOM     94  F   UNL A   1      48.252  25.963  36.180  1.00  0.00    -0.200 F 
ENDBRANCH  61  84
ENDBRANCH  35  36
ENDBRANCH  27  30
ENDBRANCH  25  26
ENDBRANCH  24  25
ENDBRANCH   1  24
TORSDOF 14
ENDMDL
