MODEL 1
REMARK VINA RESULT:     -12.3      0.000      0.000
REMARK SMILES O=C(Cc1ccccc1[N+](=O)[O-])N[C@@H]1C=C[C@H](C(=O)NCCCCCCNC(=O)c2ccc(-c3c4nc(c(-c5c(F)c(F)c(F)c(F)c5F)c5ccc([nH]5)c(-c5c(F)c(F)c(F)c(F)c5F)c5nc(c(-c6c(F)c(F)c(F)c(F)c6F)c6ccc3[nH]6)C=C5)C=C4)cc2)C1
REMARK SMILES IDX 22 1 21 2 20 3 18 4 19 5 17 7 14 8 15 9 93 10 16 11 13 12
REMARK SMILES IDX 1 13 2 14 3 16 4 17 5 18 9 19 6 20 8 21 7 22 10 23 11 24
REMARK SMILES IDX 12 25 23 26 24 27 25 28 26 29 27 30 28 31 29 33 30 34 31 35
REMARK SMILES IDX 92 36 32 37 91 38 33 39 34 40 35 41 85 42 36 43 90 44 84 45
REMARK SMILES IDX 86 46 37 47 89 48 83 49 82 50 38 52 70 53 50 54 69 55 51 56
REMARK SMILES IDX 54 57 68 58 87 59 52 60 53 61 67 63 88 64 55 65 39 66 40 67
REMARK SMILES IDX 48 68 41 69 42 70 46 71 49 72 43 73 44 74 47 75 45 76 71 77
REMARK SMILES IDX 72 78 80 79 73 80 74 81 78 82 81 83 75 84 76 85 79 86 77 87
REMARK SMILES IDX 56 88 57 89 65 90 58 91 59 92 63 93 66 94 60 95 61 96 64 97
REMARK SMILES IDX 62 98
REMARK H PARENT 20 6 13 15 27 32 86 51 54 62
REMARK Flexibility Score: inf
ROOT
ATOM      1  C   UNL A   1      32.908  28.899  27.400  1.00  0.00     0.021 C 
ENDROOT
BRANCH   1   2
ATOM      2  C   UNL A   1      31.496  28.342  27.574  1.00  0.00     0.116 C 
BRANCH   2   3
ATOM      3  N   UNL A   1      31.398  26.946  27.205  1.00  0.00    -0.356 N 
ATOM      4  C   UNL A   1      31.208  26.383  25.975  1.00  0.00     0.227 C 
ATOM      5  O   UNL A   1      31.320  25.158  25.878  1.00  0.00    -0.274 OA
ATOM      6  H   UNL A   1      31.482  26.308  27.951  1.00  0.00     0.163 HD
BRANCH   4   7
ATOM      7  C   UNL A   1      30.947  27.301  24.774  1.00  0.00     0.103 C 
ATOM      8  C   UNL A   1      31.246  26.247  22.574  1.00  0.00     0.106 C 
ATOM      9  C   UNL A   1      32.396  27.133  22.922  1.00  0.00    -0.006 C 
ATOM     10  C   UNL A   1      30.188  26.626  23.622  1.00  0.00     0.047 C 
ATOM     11  C   UNL A   1      32.228  27.721  24.112  1.00  0.00    -0.016 C 
BRANCH   8  12
ATOM     12  N   UNL A   1      31.727  24.881  22.495  1.00  0.00    -0.350 N 
ATOM     13  O   UNL A   1      33.296  25.028  20.804  1.00  0.00    -0.275 OA
ATOM     14  C   UNL A   1      32.747  24.404  21.703  1.00  0.00     0.225 C 
ATOM     15  H   UNL A   1      31.274  24.222  23.070  1.00  0.00     0.164 HD
BRANCH  14  16
ATOM     16  C   UNL A   1      33.197  23.000  22.047  1.00  0.00     0.142 C 
BRANCH  16  17
ATOM     17  C   UNL A   1      33.940  22.783  23.357  1.00  0.00     0.039 A 
ATOM     18  C   UNL A   1      35.244  23.319  23.415  1.00  0.00     0.011 A 
ATOM     19  C   UNL A   1      33.470  22.155  24.527  1.00  0.00     0.273 A 
ATOM     20  C   UNL A   1      36.046  23.187  24.556  1.00  0.00     0.001 A 
ATOM     21  C   UNL A   1      34.282  21.990  25.663  1.00  0.00     0.086 A 
ATOM     22  C   UNL A   1      35.572  22.506  25.672  1.00  0.00     0.007 A 
BRANCH  19  23
ATOM     23  N   UNL A   1      32.104  21.680  24.677  1.00  0.00     0.063 N 
ATOM     24  O   UNL A   1      31.957  20.503  25.034  1.00  0.00    -0.258 OA
ATOM     25  O   UNL A   1      31.199  22.502  24.496  1.00  0.00    -0.258 OA
ENDBRANCH  19  23
ENDBRANCH  16  17
ENDBRANCH  14  16
ENDBRANCH   8  12
ENDBRANCH   4   7
ENDBRANCH   2   3
ENDBRANCH   1   2
BRANCH   1  26
ATOM     26  C   UNL A   1      33.012  30.182  26.565  1.00  0.00     0.002 C 
BRANCH  26  27
ATOM     27  C   UNL A   1      31.683  30.813  26.140  1.00  0.00     0.002 C 
BRANCH  27  28
ATOM     28  C   UNL A   1      31.430  32.230  26.660  1.00  0.00     0.021 C 
BRANCH  28  29
ATOM     29  C   UNL A   1      32.624  32.894  27.338  1.00  0.00     0.116 C 
BRANCH  29  30
ATOM     30  N   UNL A   1      32.371  34.284  27.686  1.00  0.00    -0.352 N 
ATOM     31  C   UNL A   1      32.972  35.072  28.639  1.00  0.00     0.251 C 
ATOM     32  H   UNL A   1      31.665  34.726  27.161  1.00  0.00     0.163 HD
ATOM     33  O   UNL A   1      32.521  36.180  28.901  1.00  0.00    -0.269 OA
BRANCH  31  34
ATOM     34  C   UNL A   1      34.154  34.568  29.374  1.00  0.00     0.039 A 
ATOM     35  C   UNL A   1      33.963  33.947  30.611  1.00  0.00     0.014 A 
ATOM     36  C   UNL A   1      35.443  34.707  28.852  1.00  0.00     0.014 A 
ATOM     37  C   UNL A   1      35.056  33.400  31.289  1.00  0.00     0.010 A 
ATOM     38  C   UNL A   1      36.519  34.097  29.490  1.00  0.00     0.010 A 
ATOM     39  C   UNL A   1      36.337  33.433  30.713  1.00  0.00    -0.014 A 
BRANCH  39  40
ATOM     40  C   UNL A   1      37.493  32.766  31.367  1.00  0.00     0.031 A 
ATOM     41  C   UNL A   1      38.184  31.612  30.695  1.00  0.00     0.074 A 
ATOM     42  C   UNL A   1      37.879  33.158  32.598  1.00  0.00     0.049 A 
ATOM     43  N   UNL A   1      39.156  30.855  31.141  1.00  0.00    -0.248 NA
ATOM     44  C   UNL A   1      37.700  31.240  29.357  1.00  0.00     0.031 C 
ATOM     45  C   UNL A   1      37.263  34.236  33.373  1.00  0.00     0.029 A 
ATOM     46  N   UNL A   1      38.872  32.685  33.420  1.00  0.00    -0.354 N 
ATOM     47  C   UNL A   1      39.391  29.916  30.145  1.00  0.00     0.074 A 
ATOM     48  C   UNL A   1      38.424  30.161  29.097  1.00  0.00     0.031 C 
ATOM     49  C   UNL A   1      37.905  34.357  34.545  1.00  0.00     0.029 A 
ATOM     50  C   UNL A   1      38.944  33.337  34.627  1.00  0.00     0.049 A 
ATOM     51  H   UNL A   1      39.475  31.948  33.168  1.00  0.00     0.167 HD
ATOM     52  C   UNL A   1      40.342  28.951  30.100  1.00  0.00     0.037 A 
ATOM     53  C   UNL A   1      39.751  33.127  35.686  1.00  0.00     0.037 A 
ATOM     54  C   UNL A   1      41.312  28.720  31.139  1.00  0.00     0.049 A 
ATOM     55  C   UNL A   1      40.782  32.033  35.619  1.00  0.00     0.074 A 
ATOM     56  C   UNL A   1      42.347  27.802  31.163  1.00  0.00     0.029 A 
ATOM     57  N   UNL A   1      41.360  29.410  32.341  1.00  0.00    -0.354 N 
ATOM     58  N   UNL A   1      41.038  31.195  34.645  1.00  0.00    -0.248 NA
ATOM     59  C   UNL A   1      41.641  31.860  36.799  1.00  0.00     0.031 C 
ATOM     60  C   UNL A   1      42.986  27.896  32.403  1.00  0.00     0.029 A 
ATOM     61  C   UNL A   1      42.393  28.918  33.126  1.00  0.00     0.049 A 
ATOM     62  H   UNL A   1      40.753  30.140  32.600  1.00  0.00     0.167 HD
ATOM     63  C   UNL A   1      42.108  30.422  35.077  1.00  0.00     0.074 A 
ATOM     64  C   UNL A   1      42.460  30.898  36.398  1.00  0.00     0.031 C 
ATOM     65  C   UNL A   1      42.742  29.410  34.434  1.00  0.00     0.037 A 
BRANCH  52  66
ATOM     66  C   UNL A   1      40.379  28.067  28.885  1.00  0.00     0.064 A 
ATOM     67  C   UNL A   1      41.140  28.399  27.753  1.00  0.00     0.173 A 
ATOM     68  C   UNL A   1      39.683  26.848  28.870  1.00  0.00     0.173 A 
ATOM     69  F   UNL A   1      41.818  29.556  27.712  1.00  0.00    -0.203 F 
ATOM     70  C   UNL A   1      41.179  27.561  26.642  1.00  0.00     0.198 A 
ATOM     71  C   UNL A   1      39.751  25.995  27.771  1.00  0.00     0.198 A 
ATOM     72  F   UNL A   1      38.946  26.475  29.927  1.00  0.00    -0.203 F 
ATOM     73  F   UNL A   1      41.872  27.924  25.554  1.00  0.00    -0.200 F 
ATOM     74  C   UNL A   1      40.491  26.356  26.655  1.00  0.00     0.200 A 
ATOM     75  F   UNL A   1      39.100  24.825  27.791  1.00  0.00    -0.200 F 
ATOM     76  F   UNL A   1      40.538  25.545  25.589  1.00  0.00    -0.200 F 
ENDBRANCH  52  66
BRANCH  53  77
ATOM     77  C   UNL A   1      39.626  33.983  36.897  1.00  0.00     0.064 A 
ATOM     78  C   UNL A   1      38.827  33.588  37.980  1.00  0.00     0.173 A 
ATOM     79  C   UNL A   1      40.288  35.215  36.992  1.00  0.00     0.173 A 
ATOM     80  F   UNL A   1      38.156  32.428  37.928  1.00  0.00    -0.203 F 
ATOM     81  C   UNL A   1      38.676  34.404  39.099  1.00  0.00     0.198 A 
ATOM     82  C   UNL A   1      40.163  36.016  38.127  1.00  0.00     0.198 A 
ATOM     83  F   UNL A   1      41.069  35.640  35.987  1.00  0.00    -0.203 F 
ATOM     84  F   UNL A   1      37.864  34.026  40.095  1.00  0.00    -0.200 F 
ATOM     85  C   UNL A   1      39.348  35.614  39.175  1.00  0.00     0.200 A 
ATOM     86  F   UNL A   1      40.828  37.176  38.202  1.00  0.00    -0.200 F 
ATOM     87  F   UNL A   1      39.205  36.397  40.253  1.00  0.00    -0.200 F 
ENDBRANCH  53  77
BRANCH  65  88
ATOM     88  C   UNL A   1      43.918  28.780  35.126  1.00  0.00     0.064 A 
ATOM     89  C   UNL A   1      43.775  27.665  35.965  1.00  0.00     0.173 A 
ATOM     90  C   UNL A   1      45.213  29.277  34.911  1.00  0.00     0.173 A 
ATOM     91  F   UNL A   1      42.558  27.160  36.216  1.00  0.00    -0.203 F 
ATOM     92  C   UNL A   1      44.882  27.086  36.582  1.00  0.00     0.198 A 
ATOM     93  C   UNL A   1      46.320  28.674  35.501  1.00  0.00     0.198 A 
ATOM     94  F   UNL A   1      45.407  30.337  34.112  1.00  0.00    -0.203 F 
ATOM     95  F   UNL A   1      44.716  26.054  37.419  1.00  0.00    -0.200 F 
ATOM     96  C   UNL A   1      46.154  27.586  36.343  1.00  0.00     0.200 A 
ATOM     97  F   UNL A   1      47.550  29.149  35.254  1.00  0.00    -0.200 F 
ATOM     98  F   UNL A   1      47.218  27.021  36.928  1.00  0.00    -0.200 F 
ENDBRANCH  65  88
ENDBRANCH  39  40
ENDBRANCH  31  34
ENDBRANCH  29  30
ENDBRANCH  28  29
ENDBRANCH  27  28
ENDBRANCH  26  27
ENDBRANCH   1  26
TORSDOF 17
ENDMDL
MODEL 2
REMARK VINA RESULT:     -12.1      5.355     10.983
REMARK SMILES O=C(Cc1ccccc1[N+](=O)[O-])N[C@@H]1C=C[C@H](C(=O)NCCCCCCNC(=O)c2ccc(-c3c4nc(c(-c5c(F)c(F)c(F)c(F)c5F)c5ccc([nH]5)c(-c5c(F)c(F)c(F)c(F)c5F)c5nc(c(-c6c(F)c(F)c(F)c(F)c6F)c6ccc3[nH]6)C=C5)C=C4)cc2)C1
REMARK SMILES IDX 22 1 21 2 20 3 18 4 19 5 17 7 14 8 15 9 93 10 16 11 13 12
REMARK SMILES IDX 1 13 2 14 3 16 4 17 5 18 9 19 6 20 8 21 7 22 10 23 11 24
REMARK SMILES IDX 12 25 23 26 24 27 25 28 26 29 27 30 28 31 29 33 30 34 31 35
REMARK SMILES IDX 92 36 32 37 91 38 33 39 34 40 35 41 85 42 36 43 90 44 84 45
REMARK SMILES IDX 86 46 37 47 89 48 83 49 82 50 38 52 70 53 50 54 69 55 51 56
REMARK SMILES IDX 54 57 68 58 87 59 52 60 53 61 67 63 88 64 55 65 39 66 40 67
REMARK SMILES IDX 48 68 41 69 42 70 46 71 49 72 43 73 44 74 47 75 45 76 71 77
REMARK SMILES IDX 72 78 80 79 73 80 74 81 78 82 81 83 75 84 76 85 79 86 77 87
REMARK SMILES IDX 56 88 57 89 65 90 58 91 59 92 63 93 66 94 60 95 61 96 64 97
REMARK SMILES IDX 62 98
REMARK H PARENT 20 6 13 15 27 32 86 51 54 62
REMARK Flexibility Score: inf
ROOT
ATOM      1  C   UNL A   1      37.039  23.081  25.904  1.00  0.00     0.021 C 
ENDROOT
BRANCH   1   2
ATOM      2  C   UNL A   1      35.767  23.893  25.666  1.00  0.00     0.116 C 
BRANCH   2   3
ATOM      3  N   UNL A   1      34.589  23.256  26.215  1.00  0.00    -0.356 N 
ATOM      4  C   UNL A   1      33.694  22.417  25.614  1.00  0.00     0.227 C 
ATOM      5  O   UNL A   1      32.853  21.865  26.327  1.00  0.00    -0.274 OA
ATOM      6  H   UNL A   1      34.406  23.457  27.162  1.00  0.00     0.163 HD
BRANCH   4   7
ATOM      7  C   UNL A   1      33.831  22.144  24.111  1.00  0.00     0.103 C 
ATOM      8  C   UNL A   1      32.810  23.835  22.648  1.00  0.00     0.106 C 
ATOM      9  C   UNL A   1      31.975  22.600  22.731  1.00  0.00    -0.006 C 
ATOM     10  C   UNL A   1      34.144  23.393  23.273  1.00  0.00     0.047 C 
ATOM     11  C   UNL A   1      32.537  21.672  23.514  1.00  0.00    -0.016 C 
BRANCH   8  12
ATOM     12  N   UNL A   1      32.067  24.933  23.235  1.00  0.00    -0.350 N 
ATOM     13  O   UNL A   1      32.846  26.737  22.016  1.00  0.00    -0.275 OA
ATOM     14  C   UNL A   1      32.072  26.249  22.831  1.00  0.00     0.225 C 
ATOM     15  H   UNL A   1      31.496  24.714  24.007  1.00  0.00     0.164 HD
BRANCH  14  16
ATOM     16  C   UNL A   1      30.986  27.096  23.458  1.00  0.00     0.142 C 
BRANCH  16  17
ATOM     17  C   UNL A   1      31.309  27.846  24.742  1.00  0.00     0.039 A 
ATOM     18  C   UNL A   1      31.477  29.241  24.608  1.00  0.00     0.011 A 
ATOM     19  C   UNL A   1      31.413  27.326  26.047  1.00  0.00     0.273 A 
ATOM     20  C   UNL A   1      31.784  30.055  25.705  1.00  0.00     0.001 A 
ATOM     21  C   UNL A   1      31.755  28.134  27.147  1.00  0.00     0.086 A 
ATOM     22  C   UNL A   1      31.942  29.499  26.970  1.00  0.00     0.007 A 
BRANCH  19  23
ATOM     23  N   UNL A   1      31.126  25.939  26.372  1.00  0.00     0.063 N 
ATOM     24  O   UNL A   1      29.934  25.634  26.521  1.00  0.00    -0.258 OA
ATOM     25  O   UNL A   1      32.084  25.160  26.414  1.00  0.00    -0.258 OA
ENDBRANCH  19  23
ENDBRANCH  16  17
ENDBRANCH  14  16
ENDBRANCH   8  12
ENDBRANCH   4   7
ENDBRANCH   2   3
ENDBRANCH   1   2
BRANCH   1  26
ATOM     26  C   UNL A   1      37.471  22.177  24.741  1.00  0.00     0.002 C 
BRANCH  26  27
ATOM     27  C   UNL A   1      36.951  20.737  24.785  1.00  0.00     0.002 C 
BRANCH  27  28
ATOM     28  C   UNL A   1      38.014  19.659  25.001  1.00  0.00     0.021 C 
BRANCH  28  29
ATOM     29  C   UNL A   1      39.257  20.116  25.756  1.00  0.00     0.116 C 
BRANCH  29  30
ATOM     30  N   UNL A   1      40.252  19.063  25.891  1.00  0.00    -0.352 N 
ATOM     31  C   UNL A   1      41.604  19.159  26.120  1.00  0.00     0.251 C 
ATOM     32  H   UNL A   1      39.905  18.145  25.806  1.00  0.00     0.163 HD
ATOM     33  O   UNL A   1      42.317  18.166  26.048  1.00  0.00    -0.269 OA
BRANCH  31  34
ATOM     34  C   UNL A   1      42.209  20.475  26.427  1.00  0.00     0.039 A 
ATOM     35  C   UNL A   1      42.718  21.244  25.376  1.00  0.00     0.014 A 
ATOM     36  C   UNL A   1      42.277  20.951  27.739  1.00  0.00     0.014 A 
ATOM     37  C   UNL A   1      43.228  22.519  25.633  1.00  0.00     0.010 A 
ATOM     38  C   UNL A   1      42.714  22.250  27.983  1.00  0.00     0.010 A 
ATOM     39  C   UNL A   1      43.191  23.049  26.933  1.00  0.00    -0.014 A 
BRANCH  39  40
ATOM     40  C   UNL A   1      43.630  24.442  27.211  1.00  0.00     0.031 A 
ATOM     41  C   UNL A   1      42.644  25.468  27.695  1.00  0.00     0.074 A 
ATOM     42  C   UNL A   1      44.906  24.799  26.961  1.00  0.00     0.049 A 
ATOM     43  N   UNL A   1      42.820  26.747  27.917  1.00  0.00    -0.248 NA
ATOM     44  C   UNL A   1      41.270  25.002  27.937  1.00  0.00     0.031 C 
ATOM     45  C   UNL A   1      45.948  23.909  26.449  1.00  0.00     0.029 A 
ATOM     46  N   UNL A   1      45.540  26.011  27.091  1.00  0.00    -0.354 N 
ATOM     47  C   UNL A   1      41.581  27.236  28.312  1.00  0.00     0.074 A 
ATOM     48  C   UNL A   1      40.650  26.131  28.246  1.00  0.00     0.031 C 
ATOM     49  C   UNL A   1      47.095  24.596  26.329  1.00  0.00     0.029 A 
ATOM     50  C   UNL A   1      46.860  25.985  26.709  1.00  0.00     0.049 A 
ATOM     51  H   UNL A   1      45.092  26.821  27.425  1.00  0.00     0.167 HD
ATOM     52  C   UNL A   1      41.257  28.489  28.714  1.00  0.00     0.037 A 
ATOM     53  C   UNL A   1      47.774  26.973  26.660  1.00  0.00     0.037 A 
ATOM     54  C   UNL A   1      42.190  29.583  28.792  1.00  0.00     0.049 A 
ATOM     55  C   UNL A   1      47.380  28.360  27.090  1.00  0.00     0.074 A 
ATOM     56  C   UNL A   1      41.970  30.875  29.236  1.00  0.00     0.029 A 
ATOM     57  N   UNL A   1      43.522  29.513  28.409  1.00  0.00    -0.354 N 
ATOM     58  N   UNL A   1      46.224  28.796  27.525  1.00  0.00    -0.248 NA
ATOM     59  C   UNL A   1      48.423  29.394  27.027  1.00  0.00     0.031 C 
ATOM     60  C   UNL A   1      43.151  31.603  29.068  1.00  0.00     0.029 A 
ATOM     61  C   UNL A   1      44.128  30.749  28.583  1.00  0.00     0.049 A 
ATOM     62  H   UNL A   1      43.970  28.708  28.065  1.00  0.00     0.167 HD
ATOM     63  C   UNL A   1      46.408  30.140  27.822  1.00  0.00     0.074 A 
ATOM     64  C   UNL A   1      47.791  30.446  27.527  1.00  0.00     0.031 C 
ATOM     65  C   UNL A   1      45.510  31.038  28.298  1.00  0.00     0.037 A 
BRANCH  52  66
ATOM     66  C   UNL A   1      39.828  28.748  29.100  1.00  0.00     0.064 A 
ATOM     67  C   UNL A   1      39.378  28.581  30.419  1.00  0.00     0.173 A 
ATOM     68  C   UNL A   1      38.906  29.213  28.149  1.00  0.00     0.173 A 
ATOM     69  F   UNL A   1      40.215  28.132  31.366  1.00  0.00    -0.203 F 
ATOM     70  C   UNL A   1      38.054  28.842  30.766  1.00  0.00     0.198 A 
ATOM     71  C   UNL A   1      37.592  29.506  28.506  1.00  0.00     0.198 A 
ATOM     72  F   UNL A   1      39.283  29.398  26.875  1.00  0.00    -0.203 F 
ATOM     73  F   UNL A   1      37.636  28.628  32.021  1.00  0.00    -0.200 F 
ATOM     74  C   UNL A   1      37.165  29.312  29.810  1.00  0.00     0.200 A 
ATOM     75  F   UNL A   1      36.738  29.975  27.586  1.00  0.00    -0.200 F 
ATOM     76  F   UNL A   1      35.894  29.572  30.147  1.00  0.00    -0.200 F 
ENDBRANCH  52  66
BRANCH  53  77
ATOM     77  C   UNL A   1      49.159  26.682  26.200  1.00  0.00     0.064 A 
ATOM     78  C   UNL A   1      49.530  26.876  24.862  1.00  0.00     0.173 A 
ATOM     79  C   UNL A   1      50.134  26.193  27.081  1.00  0.00     0.173 A 
ATOM     80  F   UNL A   1      48.627  27.321  23.975  1.00  0.00    -0.203 F 
ATOM     81  C   UNL A   1      50.814  26.568  24.418  1.00  0.00     0.198 A 
ATOM     82  C   UNL A   1      51.429  25.918  26.643  1.00  0.00     0.198 A 
ATOM     83  F   UNL A   1      49.835  25.995  28.374  1.00  0.00    -0.203 F 
ATOM     84  F   UNL A   1      51.124  26.712  23.122  1.00  0.00    -0.200 F 
ATOM     85  C   UNL A   1      51.764  26.096  25.309  1.00  0.00     0.200 A 
ATOM     86  F   UNL A   1      52.348  25.478  27.512  1.00  0.00    -0.200 F 
ATOM     87  F   UNL A   1      53.000  25.803  24.883  1.00  0.00    -0.200 F 
ENDBRANCH  53  77
BRANCH  65  88
ATOM     88  C   UNL A   1      46.006  32.428  28.582  1.00  0.00     0.064 A 
ATOM     89  C   UNL A   1      46.556  32.780  29.824  1.00  0.00     0.173 A 
ATOM     90  C   UNL A   1      45.966  33.410  27.581  1.00  0.00     0.173 A 
ATOM     91  F   UNL A   1      46.604  31.883  30.820  1.00  0.00    -0.203 F 
ATOM     92  C   UNL A   1      47.025  34.071  30.059  1.00  0.00     0.198 A 
ATOM     93  C   UNL A   1      46.468  34.688  27.808  1.00  0.00     0.198 A 
ATOM     94  F   UNL A   1      45.457  33.124  26.373  1.00  0.00    -0.203 F 
ATOM     95  F   UNL A   1      47.500  34.398  31.268  1.00  0.00    -0.200 F 
ATOM     96  C   UNL A   1      46.989  35.020  29.049  1.00  0.00     0.200 A 
ATOM     97  F   UNL A   1      46.448  35.599  26.824  1.00  0.00    -0.200 F 
ATOM     98  F   UNL A   1      47.451  36.257  29.273  1.00  0.00    -0.200 F 
ENDBRANCH  65  88
ENDBRANCH  39  40
ENDBRANCH  31  34
ENDBRANCH  29  30
ENDBRANCH  28  29
ENDBRANCH  27  28
ENDBRANCH  26  27
ENDBRANCH   1  26
TORSDOF 17
ENDMDL
MODEL 3
REMARK VINA RESULT:     -12.1      0.519      7.178
REMARK SMILES O=C(Cc1ccccc1[N+](=O)[O-])N[C@@H]1C=C[C@H](C(=O)NCCCCCCNC(=O)c2ccc(-c3c4nc(c(-c5c(F)c(F)c(F)c(F)c5F)c5ccc([nH]5)c(-c5c(F)c(F)c(F)c(F)c5F)c5nc(c(-c6c(F)c(F)c(F)c(F)c6F)c6ccc3[nH]6)C=C5)C=C4)cc2)C1
REMARK SMILES IDX 22 1 21 2 20 3 18 4 19 5 17 7 14 8 15 9 93 10 16 11 13 12
REMARK SMILES IDX 1 13 2 14 3 16 4 17 5 18 9 19 6 20 8 21 7 22 10 23 11 24
REMARK SMILES IDX 12 25 23 26 24 27 25 28 26 29 27 30 28 31 29 33 30 34 31 35
REMARK SMILES IDX 92 36 32 37 91 38 33 39 34 40 35 41 85 42 36 43 90 44 84 45
REMARK SMILES IDX 86 46 37 47 89 48 83 49 82 50 38 52 70 53 50 54 69 55 51 56
REMARK SMILES IDX 54 57 68 58 87 59 52 60 53 61 67 63 88 64 55 65 39 66 40 67
REMARK SMILES IDX 48 68 41 69 42 70 46 71 49 72 43 73 44 74 47 75 45 76 71 77
REMARK SMILES IDX 72 78 80 79 73 80 74 81 78 82 81 83 75 84 76 85 79 86 77 87
REMARK SMILES IDX 56 88 57 89 65 90 58 91 59 92 63 93 66 94 60 95 61 96 64 97
REMARK SMILES IDX 62 98
REMARK H PARENT 20 6 13 15 27 32 86 51 54 62
REMARK Flexibility Score: inf
ROOT
ATOM      1  C   UNL A   1      32.949  28.951  27.248  1.00  0.00     0.021 C 
ENDROOT
BRANCH   1   2
ATOM      2  C   UNL A   1      31.577  28.337  27.520  1.00  0.00     0.116 C 
BRANCH   2   3
ATOM      3  N   UNL A   1      31.542  26.913  27.263  1.00  0.00    -0.356 N 
ATOM      4  C   UNL A   1      31.279  26.246  26.100  1.00  0.00     0.227 C 
ATOM      5  O   UNL A   1      31.466  25.027  26.080  1.00  0.00    -0.274 OA
ATOM      6  H   UNL A   1      31.737  26.341  28.041  1.00  0.00     0.163 HD
BRANCH   4   7
ATOM      7  C   UNL A   1      30.847  27.051  24.868  1.00  0.00     0.103 C 
ATOM      8  C   UNL A   1      31.027  25.854  22.728  1.00  0.00     0.106 C 
ATOM      9  C   UNL A   1      32.136  26.838  22.904  1.00  0.00    -0.006 C 
ATOM     10  C   UNL A   1      30.040  26.242  23.841  1.00  0.00     0.047 C 
ATOM     11  C   UNL A   1      32.031  27.503  24.061  1.00  0.00    -0.016 C 
BRANCH   8  12
ATOM     12  N   UNL A   1      31.596  24.520  22.700  1.00  0.00    -0.350 N 
ATOM     13  O   UNL A   1      33.245  24.743  21.095  1.00  0.00    -0.275 OA
ATOM     14  C   UNL A   1      32.687  24.098  21.974  1.00  0.00     0.225 C 
ATOM     15  H   UNL A   1      31.154  23.842  23.261  1.00  0.00     0.164 HD
BRANCH  14  16
ATOM     16  C   UNL A   1      33.205  22.732  22.368  1.00  0.00     0.142 C 
BRANCH  16  17
ATOM     17  C   UNL A   1      33.921  22.590  23.702  1.00  0.00     0.039 A 
ATOM     18  C   UNL A   1      35.195  23.193  23.779  1.00  0.00     0.011 A 
ATOM     19  C   UNL A   1      33.451  21.973  24.878  1.00  0.00     0.273 A 
ATOM     20  C   UNL A   1      35.970  23.135  24.944  1.00  0.00     0.001 A 
ATOM     21  C   UNL A   1      34.238  21.882  26.040  1.00  0.00     0.086 A 
ATOM     22  C   UNL A   1      35.500  22.463  26.067  1.00  0.00     0.007 A 
BRANCH  19  23
ATOM     23  N   UNL A   1      32.106  21.433  25.006  1.00  0.00     0.063 N 
ATOM     24  O   UNL A   1      31.172  22.248  24.986  1.00  0.00    -0.258 OA
ATOM     25  O   UNL A   1      31.996  20.204  25.061  1.00  0.00    -0.258 OA
ENDBRANCH  19  23
ENDBRANCH  16  17
ENDBRANCH  14  16
ENDBRANCH   8  12
ENDBRANCH   4   7
ENDBRANCH   2   3
ENDBRANCH   1   2
BRANCH   1  26
ATOM     26  C   UNL A   1      32.953  30.173  26.320  1.00  0.00     0.002 C 
BRANCH  26  27
ATOM     27  C   UNL A   1      31.590  30.827  26.071  1.00  0.00     0.002 C 
BRANCH  27  28
ATOM     28  C   UNL A   1      31.387  32.195  26.725  1.00  0.00     0.021 C 
BRANCH  28  29
ATOM     29  C   UNL A   1      32.666  32.899  27.167  1.00  0.00     0.116 C 
BRANCH  29  30
ATOM     30  N   UNL A   1      32.426  34.253  27.641  1.00  0.00    -0.352 N 
ATOM     31  C   UNL A   1      33.024  34.938  28.672  1.00  0.00     0.251 C 
ATOM     32  H   UNL A   1      31.734  34.753  27.151  1.00  0.00     0.163 HD
ATOM     33  O   UNL A   1      32.585  36.023  29.032  1.00  0.00    -0.269 OA
BRANCH  31  34
ATOM     34  C   UNL A   1      34.189  34.350  29.373  1.00  0.00     0.039 A 
ATOM     35  C   UNL A   1      33.964  33.537  30.487  1.00  0.00     0.014 A 
ATOM     36  C   UNL A   1      35.493  34.596  28.938  1.00  0.00     0.014 A 
ATOM     37  C   UNL A   1      35.042  32.913  31.119  1.00  0.00     0.010 A 
ATOM     38  C   UNL A   1      36.559  33.915  29.521  1.00  0.00     0.010 A 
ATOM     39  C   UNL A   1      36.344  33.063  30.615  1.00  0.00    -0.014 A 
BRANCH  39  40
ATOM     40  C   UNL A   1      37.491  32.326  31.208  1.00  0.00     0.031 A 
ATOM     41  C   UNL A   1      38.026  32.712  32.559  1.00  0.00     0.074 A 
ATOM     42  C   UNL A   1      38.093  31.351  30.499  1.00  0.00     0.049 A 
ATOM     43  N   UNL A   1      39.064  32.241  33.205  1.00  0.00    -0.248 NA
ATOM     44  C   UNL A   1      37.319  33.790  33.267  1.00  0.00     0.031 C 
ATOM     45  C   UNL A   1      37.696  30.912  29.160  1.00  0.00     0.029 A 
ATOM     46  N   UNL A   1      39.177  30.562  30.798  1.00  0.00    -0.354 N 
ATOM     47  C   UNL A   1      39.137  32.970  34.385  1.00  0.00     0.074 A 
ATOM     48  C   UNL A   1      38.076  33.952  34.342  1.00  0.00     0.031 C 
ATOM     49  C   UNL A   1      38.508  29.919  28.764  1.00  0.00     0.029 A 
ATOM     50  C   UNL A   1      39.512  29.683  29.796  1.00  0.00     0.049 A 
ATOM     51  H   UNL A   1      39.667  30.620  31.650  1.00  0.00     0.167 HD
ATOM     52  C   UNL A   1      39.999  32.817  35.420  1.00  0.00     0.037 A 
ATOM     53  C   UNL A   1      40.522  28.796  29.714  1.00  0.00     0.037 A 
ATOM     54  C   UNL A   1      41.045  31.828  35.465  1.00  0.00     0.049 A 
ATOM     55  C   UNL A   1      41.479  28.664  30.868  1.00  0.00     0.074 A 
ATOM     56  C   UNL A   1      41.936  31.561  36.490  1.00  0.00     0.029 A 
ATOM     57  N   UNL A   1      41.345  30.948  34.436  1.00  0.00    -0.354 N 
ATOM     58  N   UNL A   1      41.498  29.313  32.007  1.00  0.00    -0.248 NA
ATOM     59  C   UNL A   1      42.553  27.671  30.728  1.00  0.00     0.031 C 
ATOM     60  C   UNL A   1      42.811  30.560  36.059  1.00  0.00     0.029 A 
ATOM     61  C   UNL A   1      42.425  30.154  34.793  1.00  0.00     0.049 A 
ATOM     62  H   UNL A   1      40.863  30.894  33.579  1.00  0.00     0.167 HD
ATOM     63  C   UNL A   1      42.559  28.783  32.731  1.00  0.00     0.074 A 
ATOM     64  C   UNL A   1      43.152  27.752  31.907  1.00  0.00     0.031 C 
ATOM     65  C   UNL A   1      42.998  29.121  33.968  1.00  0.00     0.037 A 
BRANCH  52  66
ATOM     66  C   UNL A   1      39.851  33.746  36.592  1.00  0.00     0.064 A 
ATOM     67  C   UNL A   1      40.532  34.971  36.654  1.00  0.00     0.173 A 
ATOM     68  C   UNL A   1      38.980  33.429  37.646  1.00  0.00     0.173 A 
ATOM     69  F   UNL A   1      41.383  35.320  35.677  1.00  0.00    -0.203 F 
ATOM     70  C   UNL A   1      40.371  35.830  37.738  1.00  0.00     0.198 A 
ATOM     71  C   UNL A   1      38.794  34.305  38.713  1.00  0.00     0.198 A 
ATOM     72  F   UNL A   1      38.296  32.274  37.636  1.00  0.00    -0.203 F 
ATOM     73  F   UNL A   1      41.071  36.971  37.798  1.00  0.00    -0.200 F 
ATOM     74  C   UNL A   1      39.496  35.499  38.763  1.00  0.00     0.200 A 
ATOM     75  F   UNL A   1      37.936  33.992  39.693  1.00  0.00    -0.200 F 
ATOM     76  F   UNL A   1      39.333  36.331  39.801  1.00  0.00    -0.200 F 
ENDBRANCH  52  66
BRANCH  53  77
ATOM     77  C   UNL A   1      40.672  27.949  28.500  1.00  0.00     0.064 A 
ATOM     78  C   UNL A   1      40.060  26.690  28.419  1.00  0.00     0.173 A 
ATOM     79  C   UNL A   1      41.437  28.372  27.404  1.00  0.00     0.173 A 
ATOM     80  F   UNL A   1      39.335  26.231  29.450  1.00  0.00    -0.203 F 
ATOM     81  C   UNL A   1      40.229  25.878  27.301  1.00  0.00     0.198 A 
ATOM     82  C   UNL A   1      41.578  27.573  26.271  1.00  0.00     0.198 A 
ATOM     83  F   UNL A   1      42.040  29.571  27.426  1.00  0.00    -0.203 F 
ATOM     84  F   UNL A   1      39.677  24.656  27.274  1.00  0.00    -0.200 F 
ATOM     85  C   UNL A   1      40.982  26.321  26.225  1.00  0.00     0.200 A 
ATOM     86  F   UNL A   1      42.292  28.013  25.228  1.00  0.00    -0.200 F 
ATOM     87  F   UNL A   1      41.142  25.540  25.147  1.00  0.00    -0.200 F 
ENDBRANCH  53  77
BRANCH  65  88
ATOM     88  C   UNL A   1      44.147  28.334  34.534  1.00  0.00     0.064 A 
ATOM     89  C   UNL A   1      45.477  28.757  34.392  1.00  0.00     0.173 A 
ATOM     90  C   UNL A   1      43.906  27.160  35.265  1.00  0.00     0.173 A 
ATOM     91  F   UNL A   1      45.762  29.863  33.690  1.00  0.00    -0.203 F 
ATOM     92  C   UNL A   1      46.524  28.020  34.941  1.00  0.00     0.198 A 
ATOM     93  C   UNL A   1      44.952  26.446  35.841  1.00  0.00     0.198 A 
ATOM     94  F   UNL A   1      42.652  26.716  35.437  1.00  0.00    -0.203 F 
ATOM     95  F   UNL A   1      47.790  28.416  34.749  1.00  0.00    -0.200 F 
ATOM     96  C   UNL A   1      46.261  26.871  35.671  1.00  0.00     0.200 A 
ATOM     97  F   UNL A   1      44.694  25.345  36.562  1.00  0.00    -0.200 F 
ATOM     98  F   UNL A   1      47.269  26.170  36.207  1.00  0.00    -0.200 F 
ENDBRANCH  65  88
ENDBRANCH  39  40
ENDBRANCH  31  34
ENDBRANCH  29  30
ENDBRANCH  28  29
ENDBRANCH  27  28
ENDBRANCH  26  27
ENDBRANCH   1  26
TORSDOF 17
ENDMDL
