MODEL 1
REMARK VINA RESULT:     -11.6      0.000      0.000
REMARK SMILES COc1cc(NS(=O)(=O)c2cc(C(=O)NCCCCCCNC(=O)c3ccc(-c4c5nc(c(-c6c(F)c(F)c(F)c(F)c6F)c6ccc([nH]6)c(-c6c(F)c(F)c(F)c(F)c6F)c6nc(c(-c7c(F)c(F)c(F)c(F)c7F)c7ccc4[nH]7)C=C6)C=C5)cc3)cc(C)c2C)ccc1N1CCCC1=O
REMARK SMILES IDX 17 1 16 2 15 3 13 4 14 5 12 7 10 8 11 9 91 10 89 11 92 12
REMARK SMILES IDX 88 13 90 14 7 15 8 16 9 17 6 18 5 20 3 21 4 22 95 23 94 24
REMARK SMILES IDX 93 25 2 26 1 27 96 28 97 29 100 30 98 31 99 32 101 33 18 34
REMARK SMILES IDX 19 35 20 36 21 37 22 38 23 39 24 41 25 42 26 43 87 44 27 45
REMARK SMILES IDX 86 46 28 47 29 48 30 49 80 50 31 51 85 52 79 53 81 54 32 55
REMARK SMILES IDX 84 56 78 57 77 58 33 60 65 61 45 62 64 63 46 64 49 65 63 66
REMARK SMILES IDX 82 67 47 68 48 69 62 71 83 72 50 73 34 74 35 75 43 76 36 77
REMARK SMILES IDX 37 78 41 79 44 80 38 81 39 82 42 83 40 84 66 85 67 86 75 87
REMARK SMILES IDX 68 88 69 89 73 90 76 91 70 92 71 93 74 94 72 95 51 96 52 97
REMARK SMILES IDX 60 98 53 99 54 100 58 101 61 102 55 103 56 104 59 105 57 106
REMARK H PARENT 15 6 6 19 22 40 81 59 49 70
REMARK Flexibility Score: inf
ROOT
ATOM      1  C   UNL A   1      35.750  30.712  27.638  1.00  0.00     0.021 C 
ENDROOT
BRANCH   1   2
ATOM      2  C   UNL A   1      35.149  29.322  27.441  1.00  0.00     0.116 C 
BRANCH   2   3
ATOM      3  N   UNL A   1      33.737  29.224  27.759  1.00  0.00    -0.352 N 
ATOM      4  C   UNL A   1      32.711  28.561  27.120  1.00  0.00     0.251 C 
ATOM      5  O   UNL A   1      31.580  28.634  27.595  1.00  0.00    -0.269 OA
ATOM      6  H   UNL A   1      33.465  29.716  28.568  1.00  0.00     0.163 HD
BRANCH   4   7
ATOM      7  C   UNL A   1      32.912  27.836  25.833  1.00  0.00     0.041 A 
ATOM      8  C   UNL A   1      32.198  25.993  24.389  1.00  0.00     0.091 A 
ATOM      9  C   UNL A   1      32.252  26.616  25.659  1.00  0.00     0.036 A 
ATOM     10  C   UNL A   1      32.883  26.556  23.282  1.00  0.00    -0.028 A 
ATOM     11  C   UNL A   1      33.602  27.764  23.494  1.00  0.00    -0.046 A 
ATOM     12  C   UNL A   1      32.788  26.032  21.871  1.00  0.00     0.046 C 
ATOM     13  C   UNL A   1      33.647  28.353  24.773  1.00  0.00     0.017 A 
ATOM     14  C   UNL A   1      34.210  28.579  22.375  1.00  0.00     0.044 C 
BRANCH   8  15
ATOM     15  S   UNL A   1      31.091  24.589  24.285  1.00  0.00     0.262 S 
ATOM     16  O   UNL A   1      30.059  24.909  23.320  1.00  0.00    -0.201 OA
ATOM     17  O   UNL A   1      30.685  24.188  25.616  1.00  0.00    -0.201 OA
BRANCH  15  18
ATOM     18  N   UNL A   1      31.937  23.258  23.618  1.00  0.00    -0.279 N 
ATOM     19  H   UNL A   1      31.484  22.717  22.933  1.00  0.00     0.180 HD
BRANCH  18  20
ATOM     20  C   UNL A   1      33.273  22.887  24.002  1.00  0.00     0.053 A 
ATOM     21  C   UNL A   1      34.901  22.132  25.642  1.00  0.00     0.144 A 
ATOM     22  C   UNL A   1      33.600  22.495  25.295  1.00  0.00     0.075 A 
ATOM     23  C   UNL A   1      35.949  22.362  24.751  1.00  0.00     0.086 A 
ATOM     24  C   UNL A   1      35.660  22.929  23.506  1.00  0.00     0.032 A 
ATOM     25  C   UNL A   1      34.327  23.157  23.123  1.00  0.00     0.029 A 
BRANCH  21  26
ATOM     26  O   UNL A   1      35.045  21.485  26.840  1.00  0.00    -0.494 OA
ATOM     27  C   UNL A   1      33.865  21.495  27.625  1.00  0.00     0.278 C 
ENDBRANCH  21  26
BRANCH  23  28
ATOM     28  N   UNL A   1      37.289  22.108  25.100  1.00  0.00    -0.309 N 
ATOM     29  C   UNL A   1      38.015  23.058  25.906  1.00  0.00     0.126 C 
ATOM     30  C   UNL A   1      37.852  20.833  25.139  1.00  0.00     0.227 C 
ATOM     31  C   UNL A   1      39.362  22.398  26.126  1.00  0.00     0.032 C 
ATOM     32  C   UNL A   1      39.080  20.907  26.012  1.00  0.00     0.102 C 
ATOM     33  O   UNL A   1      37.444  19.809  24.616  1.00  0.00    -0.275 OA
ENDBRANCH  23  28
ENDBRANCH  18  20
ENDBRANCH  15  18
ENDBRANCH   8  15
ENDBRANCH   4   7
ENDBRANCH   2   3
ENDBRANCH   1   2
BRANCH   1  34
ATOM     34  C   UNL A   1      34.800  31.849  28.009  1.00  0.00     0.002 C 
BRANCH  34  35
ATOM     35  C   UNL A   1      35.382  33.262  28.002  1.00  0.00     0.002 C 
BRANCH  35  36
ATOM     36  C   UNL A   1      34.387  34.422  27.938  1.00  0.00     0.021 C 
BRANCH  36  37
ATOM     37  C   UNL A   1      33.018  34.188  28.573  1.00  0.00     0.116 C 
BRANCH  37  38
ATOM     38  N   UNL A   1      32.715  35.115  29.647  1.00  0.00    -0.352 N 
ATOM     39  C   UNL A   1      33.276  35.249  30.892  1.00  0.00     0.251 C 
ATOM     40  H   UNL A   1      31.988  35.750  29.451  1.00  0.00     0.163 HD
ATOM     41  O   UNL A   1      32.787  36.042  31.694  1.00  0.00    -0.269 OA
BRANCH  39  42
ATOM     42  C   UNL A   1      34.445  34.436  31.302  1.00  0.00     0.039 A 
ATOM     43  C   UNL A   1      35.725  34.966  31.104  1.00  0.00     0.014 A 
ATOM     44  C   UNL A   1      34.307  33.149  31.832  1.00  0.00     0.014 A 
ATOM     45  C   UNL A   1      36.855  34.238  31.487  1.00  0.00     0.010 A 
ATOM     46  C   UNL A   1      35.432  32.449  32.274  1.00  0.00     0.010 A 
ATOM     47  C   UNL A   1      36.718  32.985  32.105  1.00  0.00    -0.014 A 
BRANCH  47  48
ATOM     48  C   UNL A   1      37.911  32.235  32.579  1.00  0.00     0.031 A 
ATOM     49  C   UNL A   1      38.575  32.592  33.881  1.00  0.00     0.074 A 
ATOM     50  C   UNL A   1      38.428  31.256  31.811  1.00  0.00     0.049 A 
ATOM     51  N   UNL A   1      39.640  32.073  34.438  1.00  0.00    -0.248 NA
ATOM     52  C   UNL A   1      37.976  33.694  34.648  1.00  0.00     0.031 C 
ATOM     53  C   UNL A   1      37.911  30.845  30.505  1.00  0.00     0.029 A 
ATOM     54  N   UNL A   1      39.510  30.434  32.013  1.00  0.00    -0.354 N 
ATOM     55  C   UNL A   1      39.846  32.790  35.608  1.00  0.00     0.074 A 
ATOM     56  C   UNL A   1      38.823  33.813  35.660  1.00  0.00     0.031 C 
ATOM     57  C   UNL A   1      38.661  29.837  30.031  1.00  0.00     0.029 A 
ATOM     58  C   UNL A   1      39.729  29.549  30.984  1.00  0.00     0.049 A 
ATOM     59  H   UNL A   1      40.073  30.472  32.819  1.00  0.00     0.167 HD
ATOM     60  C   UNL A   1      40.789  32.601  36.563  1.00  0.00     0.037 A 
ATOM     61  C   UNL A   1      40.685  28.615  30.825  1.00  0.00     0.037 A 
ATOM     62  C   UNL A   1      41.789  31.565  36.527  1.00  0.00     0.049 A 
ATOM     63  C   UNL A   1      41.711  28.416  31.906  1.00  0.00     0.074 A 
ATOM     64  C   UNL A   1      42.743  31.252  37.480  1.00  0.00     0.029 A 
ATOM     65  N   UNL A   1      41.964  30.673  35.479  1.00  0.00    -0.354 N 
ATOM     66  N   UNL A   1      41.849  29.053  33.043  1.00  0.00    -0.248 NA
ATOM     67  C   UNL A   1      42.709  27.360  31.688  1.00  0.00     0.031 C 
ATOM     68  C   UNL A   1      43.523  30.199  36.990  1.00  0.00     0.029 A 
ATOM     69  C   UNL A   1      43.024  29.823  35.753  1.00  0.00     0.049 A 
ATOM     70  H   UNL A   1      41.416  30.648  34.661  1.00  0.00     0.167 HD
ATOM     71  C   UNL A   1      42.927  28.461  33.686  1.00  0.00     0.074 A 
ATOM     72  C   UNL A   1      43.398  27.401  32.819  1.00  0.00     0.031 C 
ATOM     73  C   UNL A   1      43.480  28.768  34.884  1.00  0.00     0.037 A 
BRANCH  60  74
ATOM     74  C   UNL A   1      40.785  33.534  37.740  1.00  0.00     0.064 A 
ATOM     75  C   UNL A   1      39.924  33.337  38.831  1.00  0.00     0.173 A 
ATOM     76  C   UNL A   1      41.685  34.607  37.801  1.00  0.00     0.173 A 
ATOM     77  F   UNL A   1      39.036  32.331  38.817  1.00  0.00    -0.203 F 
ATOM     78  C   UNL A   1      39.946  34.196  39.927  1.00  0.00     0.198 A 
ATOM     79  C   UNL A   1      41.725  35.447  38.911  1.00  0.00     0.198 A 
ATOM     80  F   UNL A   1      42.535  34.837  36.789  1.00  0.00    -0.203 F 
ATOM     81  F   UNL A   1      39.084  34.015  40.936  1.00  0.00    -0.200 F 
ATOM     82  C   UNL A   1      40.853  35.245  39.969  1.00  0.00     0.200 A 
ATOM     83  F   UNL A   1      42.610  36.454  38.957  1.00  0.00    -0.200 F 
ATOM     84  F   UNL A   1      40.879  36.066  41.028  1.00  0.00    -0.200 F 
ENDBRANCH  60  74
BRANCH  61  85
ATOM     85  C   UNL A   1      40.703  27.774  29.599  1.00  0.00     0.064 A 
ATOM     86  C   UNL A   1      41.623  28.020  28.570  1.00  0.00     0.173 A 
ATOM     87  C   UNL A   1      39.800  26.715  29.428  1.00  0.00     0.173 A 
ATOM     88  F   UNL A   1      42.492  29.036  28.679  1.00  0.00    -0.203 F 
ATOM     89  C   UNL A   1      41.625  27.254  27.407  1.00  0.00     0.198 A 
ATOM     90  C   UNL A   1      39.821  25.931  28.276  1.00  0.00     0.198 A 
ATOM     91  F   UNL A   1      38.904  26.436  30.385  1.00  0.00    -0.203 F 
ATOM     92  F   UNL A   1      42.483  27.541  26.420  1.00  0.00    -0.200 F 
ATOM     93  C   UNL A   1      40.727  26.205  27.264  1.00  0.00     0.200 A 
ATOM     94  F   UNL A   1      38.961  24.910  28.148  1.00  0.00    -0.200 F 
ATOM     95  F   UNL A   1      40.730  25.467  26.146  1.00  0.00    -0.200 F 
ENDBRANCH  61  85
BRANCH  73  96
ATOM     96  C   UNL A   1      44.635  27.928  35.344  1.00  0.00     0.064 A 
ATOM     97  C   UNL A   1      45.963  28.283  35.058  1.00  0.00     0.173 A 
ATOM     98  C   UNL A   1      44.414  26.770  36.105  1.00  0.00     0.173 A 
ATOM     99  F   UNL A   1      46.226  29.373  34.321  1.00  0.00    -0.203 F 
ATOM    100  C   UNL A   1      47.023  27.493  35.492  1.00  0.00     0.198 A 
ATOM    101  C   UNL A   1      45.478  25.999  36.562  1.00  0.00     0.198 A 
ATOM    102  F   UNL A   1      43.164  26.392  36.412  1.00  0.00    -0.203 F 
ATOM    103  F   UNL A   1      48.280  27.824  35.165  1.00  0.00    -0.200 F 
ATOM    104  C   UNL A   1      46.781  26.356  36.249  1.00  0.00     0.200 A 
ATOM    105  F   UNL A   1      45.243  24.908  37.304  1.00  0.00    -0.200 F 
ATOM    106  F   UNL A   1      47.803  25.599  36.670  1.00  0.00    -0.200 F 
ENDBRANCH  73  96
ENDBRANCH  47  48
ENDBRANCH  39  42
ENDBRANCH  37  38
ENDBRANCH  36  37
ENDBRANCH  35  36
ENDBRANCH  34  35
ENDBRANCH   1  34
TORSDOF 18
ENDMDL
MODEL 2
REMARK VINA RESULT:     -11.5      0.452      6.866
REMARK SMILES COc1cc(NS(=O)(=O)c2cc(C(=O)NCCCCCCNC(=O)c3ccc(-c4c5nc(c(-c6c(F)c(F)c(F)c(F)c6F)c6ccc([nH]6)c(-c6c(F)c(F)c(F)c(F)c6F)c6nc(c(-c7c(F)c(F)c(F)c(F)c7F)c7ccc4[nH]7)C=C6)C=C5)cc3)cc(C)c2C)ccc1N1CCCC1=O
REMARK SMILES IDX 17 1 16 2 15 3 13 4 14 5 12 7 10 8 11 9 91 10 89 11 92 12
REMARK SMILES IDX 88 13 90 14 7 15 8 16 9 17 6 18 5 20 3 21 4 22 95 23 94 24
REMARK SMILES IDX 93 25 2 26 1 27 96 28 97 29 100 30 98 31 99 32 101 33 18 34
REMARK SMILES IDX 19 35 20 36 21 37 22 38 23 39 24 41 25 42 26 43 87 44 27 45
REMARK SMILES IDX 86 46 28 47 29 48 30 49 80 50 31 51 85 52 79 53 81 54 32 55
REMARK SMILES IDX 84 56 78 57 77 58 33 60 65 61 45 62 64 63 46 64 49 65 63 66
REMARK SMILES IDX 82 67 47 68 48 69 62 71 83 72 50 73 34 74 35 75 43 76 36 77
REMARK SMILES IDX 37 78 41 79 44 80 38 81 39 82 42 83 40 84 66 85 67 86 75 87
REMARK SMILES IDX 68 88 69 89 73 90 76 91 70 92 71 93 74 94 72 95 51 96 52 97
REMARK SMILES IDX 60 98 53 99 54 100 58 101 61 102 55 103 56 104 59 105 57 106
REMARK H PARENT 15 6 6 19 22 40 81 59 49 70
REMARK Flexibility Score: inf
ROOT
ATOM      1  C   UNL A   1      35.712  30.707  27.727  1.00  0.00     0.021 C 
ENDROOT
BRANCH   1   2
ATOM      2  C   UNL A   1      35.112  29.329  27.458  1.00  0.00     0.116 C 
BRANCH   2   3
ATOM      3  N   UNL A   1      33.703  29.211  27.785  1.00  0.00    -0.352 N 
ATOM      4  C   UNL A   1      32.679  28.547  27.142  1.00  0.00     0.251 C 
ATOM      5  O   UNL A   1      31.551  28.599  27.626  1.00  0.00    -0.269 OA
ATOM      6  H   UNL A   1      33.433  29.685  28.605  1.00  0.00     0.163 HD
BRANCH   4   7
ATOM      7  C   UNL A   1      32.878  27.848  25.840  1.00  0.00     0.041 A 
ATOM      8  C   UNL A   1      32.176  26.022  24.370  1.00  0.00     0.091 A 
ATOM      9  C   UNL A   1      32.233  26.623  25.650  1.00  0.00     0.036 A 
ATOM     10  C   UNL A   1      32.842  26.614  23.267  1.00  0.00    -0.028 A 
ATOM     11  C   UNL A   1      33.546  27.829  23.494  1.00  0.00    -0.046 A 
ATOM     12  C   UNL A   1      32.741  26.114  21.847  1.00  0.00     0.046 C 
ATOM     13  C   UNL A   1      33.596  28.395  24.783  1.00  0.00     0.017 A 
ATOM     14  C   UNL A   1      34.133  28.671  22.384  1.00  0.00     0.044 C 
BRANCH   8  15
ATOM     15  S   UNL A   1      31.087  24.605  24.251  1.00  0.00     0.262 S 
ATOM     16  O   UNL A   1      30.084  24.900  23.248  1.00  0.00    -0.201 OA
ATOM     17  O   UNL A   1      30.641  24.219  25.574  1.00  0.00    -0.201 OA
BRANCH  15  18
ATOM     18  N   UNL A   1      31.968  23.274  23.632  1.00  0.00    -0.279 N 
ATOM     19  H   UNL A   1      31.529  22.697  22.967  1.00  0.00     0.180 HD
BRANCH  18  20
ATOM     20  C   UNL A   1      33.313  22.951  24.030  1.00  0.00     0.053 A 
ATOM     21  C   UNL A   1      34.971  22.370  25.709  1.00  0.00     0.144 A 
ATOM     22  C   UNL A   1      33.662  22.687  25.349  1.00  0.00     0.075 A 
ATOM     23  C   UNL A   1      36.004  22.520  24.784  1.00  0.00     0.086 A 
ATOM     24  C   UNL A   1      35.691  22.963  23.496  1.00  0.00     0.032 A 
ATOM     25  C   UNL A   1      34.351  23.144  23.113  1.00  0.00     0.029 A 
BRANCH  21  26
ATOM     26  O   UNL A   1      35.138  21.840  26.961  1.00  0.00    -0.494 OA
ATOM     27  C   UNL A   1      33.913  21.525  27.602  1.00  0.00     0.278 C 
ENDBRANCH  21  26
BRANCH  23  28
ATOM     28  N   UNL A   1      37.350  22.312  25.136  1.00  0.00    -0.309 N 
ATOM     29  C   UNL A   1      38.039  23.277  25.957  1.00  0.00     0.126 C 
ATOM     30  C   UNL A   1      37.960  21.058  25.160  1.00  0.00     0.227 C 
ATOM     31  C   UNL A   1      39.408  22.664  26.174  1.00  0.00     0.032 C 
ATOM     32  C   UNL A   1      39.182  21.165  26.039  1.00  0.00     0.102 C 
ATOM     33  O   UNL A   1      37.592  20.027  24.622  1.00  0.00    -0.275 OA
ENDBRANCH  23  28
ENDBRANCH  18  20
ENDBRANCH  15  18
ENDBRANCH   8  15
ENDBRANCH   4   7
ENDBRANCH   2   3
ENDBRANCH   1   2
BRANCH   1  34
ATOM     34  C   UNL A   1      34.749  31.854  28.030  1.00  0.00     0.002 C 
BRANCH  34  35
ATOM     35  C   UNL A   1      35.340  33.263  28.047  1.00  0.00     0.002 C 
BRANCH  35  36
ATOM     36  C   UNL A   1      34.356  34.430  27.942  1.00  0.00     0.021 C 
BRANCH  36  37
ATOM     37  C   UNL A   1      32.956  34.200  28.509  1.00  0.00     0.116 C 
BRANCH  37  38
ATOM     38  N   UNL A   1      32.598  35.137  29.556  1.00  0.00    -0.352 N 
ATOM     39  C   UNL A   1      33.129  35.316  30.810  1.00  0.00     0.251 C 
ATOM     40  H   UNL A   1      31.853  35.741  29.332  1.00  0.00     0.163 HD
ATOM     41  O   UNL A   1      32.595  36.107  31.585  1.00  0.00    -0.269 OA
BRANCH  39  42
ATOM     42  C   UNL A   1      34.317  34.554  31.260  1.00  0.00     0.039 A 
ATOM     43  C   UNL A   1      35.578  35.146  31.117  1.00  0.00     0.014 A 
ATOM     44  C   UNL A   1      34.219  33.258  31.774  1.00  0.00     0.014 A 
ATOM     45  C   UNL A   1      36.724  34.467  31.539  1.00  0.00     0.010 A 
ATOM     46  C   UNL A   1      35.357  32.606  32.255  1.00  0.00     0.010 A 
ATOM     47  C   UNL A   1      36.622  33.203  32.142  1.00  0.00    -0.014 A 
BRANCH  47  48
ATOM     48  C   UNL A   1      37.828  32.505  32.657  1.00  0.00     0.031 A 
ATOM     49  C   UNL A   1      38.478  31.406  31.861  1.00  0.00     0.074 A 
ATOM     50  C   UNL A   1      38.316  32.830  33.871  1.00  0.00     0.049 A 
ATOM     51  N   UNL A   1      39.514  30.664  32.164  1.00  0.00    -0.248 NA
ATOM     52  C   UNL A   1      37.870  31.082  30.563  1.00  0.00     0.031 C 
ATOM     53  C   UNL A   1      37.751  33.841  34.765  1.00  0.00     0.029 A 
ATOM     54  N   UNL A   1      39.394  32.338  34.566  1.00  0.00    -0.354 N 
ATOM     55  C   UNL A   1      39.673  29.781  31.106  1.00  0.00     0.074 A 
ATOM     56  C   UNL A   1      38.599  30.047  30.171  1.00  0.00     0.031 C 
ATOM     57  C   UNL A   1      38.495  33.909  35.880  1.00  0.00     0.029 A 
ATOM     58  C   UNL A   1      39.573  32.928  35.795  1.00  0.00     0.049 A 
ATOM     59  H   UNL A   1      39.984  31.632  34.217  1.00  0.00     0.167 HD
ATOM     60  C   UNL A   1      40.638  28.847  30.918  1.00  0.00     0.037 A 
ATOM     61  C   UNL A   1      40.498  32.701  36.745  1.00  0.00     0.037 A 
ATOM     62  C   UNL A   1      41.723  28.603  31.832  1.00  0.00     0.049 A 
ATOM     63  C   UNL A   1      41.566  31.669  36.506  1.00  0.00     0.074 A 
ATOM     64  C   UNL A   1      42.785  27.726  31.696  1.00  0.00     0.029 A 
ATOM     65  N   UNL A   1      41.883  29.237  33.055  1.00  0.00    -0.354 N 
ATOM     66  N   UNL A   1      41.747  30.892  35.466  1.00  0.00    -0.248 NA
ATOM     67  C   UNL A   1      42.566  31.490  37.568  1.00  0.00     0.031 C 
ATOM     68  C   UNL A   1      43.565  27.798  32.856  1.00  0.00     0.029 A 
ATOM     69  C   UNL A   1      43.017  28.756  33.693  1.00  0.00     0.049 A 
ATOM     70  H   UNL A   1      41.282  29.927  33.417  1.00  0.00     0.167 HD
ATOM     71  C   UNL A   1      42.891  30.153  35.735  1.00  0.00     0.074 A 
ATOM     72  C   UNL A   1      43.372  30.587  37.030  1.00  0.00     0.031 C 
ATOM     73  C   UNL A   1      43.488  29.200  34.980  1.00  0.00     0.037 A 
BRANCH  60  74
ATOM     74  C   UNL A   1      40.569  28.017  29.669  1.00  0.00     0.064 A 
ATOM     75  C   UNL A   1      39.704  26.916  29.563  1.00  0.00     0.173 A 
ATOM     76  C   UNL A   1      41.341  28.354  28.547  1.00  0.00     0.173 A 
ATOM     77  F   UNL A   1      38.953  26.546  30.611  1.00  0.00    -0.203 F 
ATOM     78  C   UNL A   1      39.633  26.170  28.390  1.00  0.00     0.198 A 
ATOM     79  C   UNL A   1      41.246  27.622  27.366  1.00  0.00     0.198 A 
ATOM     80  F   UNL A   1      42.180  29.399  28.592  1.00  0.00    -0.203 F 
ATOM     81  F   UNL A   1      38.833  25.097  28.327  1.00  0.00    -0.200 F 
ATOM     82  C   UNL A   1      40.399  26.528  27.290  1.00  0.00     0.200 A 
ATOM     83  F   UNL A   1      41.978  27.976  26.299  1.00  0.00    -0.200 F 
ATOM     84  F   UNL A   1      40.323  25.813  26.159  1.00  0.00    -0.200 F 
ENDBRANCH  60  74
BRANCH  61  85
ATOM     85  C   UNL A   1      40.473  33.486  38.007  1.00  0.00     0.064 A 
ATOM     86  C   UNL A   1      41.353  34.559  38.206  1.00  0.00     0.173 A 
ATOM     87  C   UNL A   1      39.576  33.178  39.040  1.00  0.00     0.173 A 
ATOM     88  F   UNL A   1      42.244  34.878  37.255  1.00  0.00    -0.203 F 
ATOM     89  C   UNL A   1      41.354  35.279  39.398  1.00  0.00     0.198 A 
ATOM     90  C   UNL A   1      39.558  33.917  40.222  1.00  0.00     0.198 A 
ATOM     91  F   UNL A   1      38.710  32.164  38.897  1.00  0.00    -0.203 F 
ATOM     92  F   UNL A   1      42.238  36.268  39.580  1.00  0.00    -0.200 F 
ATOM     93  C   UNL A   1      40.452  34.961  40.403  1.00  0.00     0.200 A 
ATOM     94  F   UNL A   1      38.676  33.615  41.184  1.00  0.00    -0.200 F 
ATOM     95  F   UNL A   1      40.450  35.655  41.548  1.00  0.00    -0.200 F 
ENDBRANCH  61  85
BRANCH  73  96
ATOM     96  C   UNL A   1      44.745  28.583  35.519  1.00  0.00     0.064 A 
ATOM     97  C   UNL A   1      44.713  27.450  36.347  1.00  0.00     0.173 A 
ATOM     98  C   UNL A   1      45.999  29.113  35.179  1.00  0.00     0.173 A 
ATOM     99  F   UNL A   1      43.538  26.915  36.712  1.00  0.00    -0.203 F 
ATOM    100  C   UNL A   1      45.888  26.890  36.838  1.00  0.00     0.198 A 
ATOM    101  C   UNL A   1      47.173  28.532  35.649  1.00  0.00     0.198 A 
ATOM    102  F   UNL A   1      46.085  30.190  34.385  1.00  0.00    -0.203 F 
ATOM    103  F   UNL A   1      45.831  25.839  37.668  1.00  0.00    -0.200 F 
ATOM    104  C   UNL A   1      47.117  27.426  36.484  1.00  0.00     0.200 A 
ATOM    105  F   UNL A   1      48.361  29.044  35.296  1.00  0.00    -0.200 F 
ATOM    106  F   UNL A   1      48.248  26.883  36.954  1.00  0.00    -0.200 F 
ENDBRANCH  73  96
ENDBRANCH  47  48
ENDBRANCH  39  42
ENDBRANCH  37  38
ENDBRANCH  36  37
ENDBRANCH  35  36
ENDBRANCH  34  35
ENDBRANCH   1  34
TORSDOF 18
ENDMDL
MODEL 3
REMARK VINA RESULT:     -11.5      4.915     10.289
REMARK SMILES COc1cc(NS(=O)(=O)c2cc(C(=O)NCCCCCCNC(=O)c3ccc(-c4c5nc(c(-c6c(F)c(F)c(F)c(F)c6F)c6ccc([nH]6)c(-c6c(F)c(F)c(F)c(F)c6F)c6nc(c(-c7c(F)c(F)c(F)c(F)c7F)c7ccc4[nH]7)C=C6)C=C5)cc3)cc(C)c2C)ccc1N1CCCC1=O
REMARK SMILES IDX 17 1 16 2 15 3 13 4 14 5 12 7 10 8 11 9 91 10 89 11 92 12
REMARK SMILES IDX 88 13 90 14 7 15 8 16 9 17 6 18 5 20 3 21 4 22 95 23 94 24
REMARK SMILES IDX 93 25 2 26 1 27 96 28 97 29 100 30 98 31 99 32 101 33 18 34
REMARK SMILES IDX 19 35 20 36 21 37 22 38 23 39 24 41 25 42 26 43 87 44 27 45
REMARK SMILES IDX 86 46 28 47 29 48 30 49 80 50 31 51 85 52 79 53 81 54 32 55
REMARK SMILES IDX 84 56 78 57 77 58 33 60 65 61 45 62 64 63 46 64 49 65 63 66
REMARK SMILES IDX 82 67 47 68 48 69 62 71 83 72 50 73 34 74 35 75 43 76 36 77
REMARK SMILES IDX 37 78 41 79 44 80 38 81 39 82 42 83 40 84 66 85 67 86 75 87
REMARK SMILES IDX 68 88 69 89 73 90 76 91 70 92 71 93 74 94 72 95 51 96 52 97
REMARK SMILES IDX 60 98 53 99 54 100 58 101 61 102 55 103 56 104 59 105 57 106
REMARK H PARENT 15 6 6 19 22 40 81 59 49 70
REMARK Flexibility Score: inf
ROOT
ATOM      1  C   UNL A   1      37.006  23.826  26.122  1.00  0.00     0.021 C 
ENDROOT
BRANCH   1   2
ATOM      2  C   UNL A   1      36.075  22.620  26.223  1.00  0.00     0.116 C 
BRANCH   2   3
ATOM      3  N   UNL A   1      35.071  22.719  27.266  1.00  0.00    -0.352 N 
ATOM      4  C   UNL A   1      33.832  22.127  27.386  1.00  0.00     0.251 C 
ATOM      5  O   UNL A   1      33.157  22.375  28.382  1.00  0.00    -0.269 OA
ATOM      6  H   UNL A   1      35.317  23.309  28.015  1.00  0.00     0.163 HD
BRANCH   4   7
ATOM      7  C   UNL A   1      33.250  21.272  26.311  1.00  0.00     0.041 A 
ATOM      8  C   UNL A   1      32.520  21.130  23.980  1.00  0.00     0.091 A 
ATOM      9  C   UNL A   1      32.852  21.894  25.124  1.00  0.00     0.036 A 
ATOM     10  C   UNL A   1      32.508  19.713  24.039  1.00  0.00    -0.028 A 
ATOM     11  C   UNL A   1      32.855  19.100  25.274  1.00  0.00    -0.046 A 
ATOM     12  C   UNL A   1      32.284  18.817  22.846  1.00  0.00     0.046 C 
ATOM     13  C   UNL A   1      33.167  19.887  26.400  1.00  0.00     0.017 A 
ATOM     14  C   UNL A   1      33.075  17.612  25.432  1.00  0.00     0.044 C 
BRANCH   8  15
ATOM     15  S   UNL A   1      32.300  22.081  22.478  1.00  0.00     0.262 S 
ATOM     16  O   UNL A   1      31.824  21.180  21.448  1.00  0.00    -0.201 OA
ATOM     17  O   UNL A   1      33.493  22.858  22.212  1.00  0.00    -0.201 OA
BRANCH  15  18
ATOM     18  N   UNL A   1      31.034  23.210  22.712  1.00  0.00    -0.279 N 
ATOM     19  H   UNL A   1      30.140  22.981  22.370  1.00  0.00     0.180 HD
BRANCH  18  20
ATOM     20  C   UNL A   1      31.202  24.472  23.382  1.00  0.00     0.053 A 
ATOM     21  C   UNL A   1      32.540  26.398  24.023  1.00  0.00     0.144 A 
ATOM     22  C   UNL A   1      32.403  25.172  23.373  1.00  0.00     0.075 A 
ATOM     23  C   UNL A   1      31.536  26.848  24.879  1.00  0.00     0.086 A 
ATOM     24  C   UNL A   1      30.391  26.062  25.043  1.00  0.00     0.032 A 
ATOM     25  C   UNL A   1      30.212  24.900  24.272  1.00  0.00     0.029 A 
BRANCH  21  26
ATOM     26  O   UNL A   1      33.652  27.128  23.699  1.00  0.00    -0.494 OA
ATOM     27  C   UNL A   1      33.609  27.657  22.384  1.00  0.00     0.278 C 
ENDBRANCH  21  26
BRANCH  23  28
ATOM     28  N   UNL A   1      31.679  28.026  25.635  1.00  0.00    -0.309 N 
ATOM     29  C   UNL A   1      32.587  28.059  26.755  1.00  0.00     0.126 C 
ATOM     30  C   UNL A   1      31.385  29.300  25.149  1.00  0.00     0.227 C 
ATOM     31  C   UNL A   1      32.516  29.492  27.243  1.00  0.00     0.032 C 
ATOM     32  C   UNL A   1      32.117  30.295  26.013  1.00  0.00     0.102 C 
ATOM     33  O   UNL A   1      30.701  29.602  24.184  1.00  0.00    -0.275 OA
ENDBRANCH  23  28
ENDBRANCH  18  20
ENDBRANCH  15  18
ENDBRANCH   8  15
ENDBRANCH   4   7
ENDBRANCH   2   3
ENDBRANCH   1   2
BRANCH   1  34
ATOM     34  C   UNL A   1      38.474  23.564  25.791  1.00  0.00     0.002 C 
BRANCH  34  35
ATOM     35  C   UNL A   1      39.127  22.360  26.470  1.00  0.00     0.002 C 
BRANCH  35  36
ATOM     36  C   UNL A   1      39.305  21.098  25.623  1.00  0.00     0.021 C 
BRANCH  36  37
ATOM     37  C   UNL A   1      39.629  19.809  26.375  1.00  0.00     0.116 C 
BRANCH  37  38
ATOM     38  N   UNL A   1      40.848  19.166  25.919  1.00  0.00    -0.352 N 
ATOM     39  C   UNL A   1      42.132  19.646  25.845  1.00  0.00     0.251 C 
ATOM     40  H   UNL A   1      40.735  18.237  25.613  1.00  0.00     0.163 HD
ATOM     41  O   UNL A   1      43.005  18.958  25.321  1.00  0.00    -0.269 OA
BRANCH  39  42
ATOM     42  C   UNL A   1      42.484  20.990  26.360  1.00  0.00     0.039 A 
ATOM     43  C   UNL A   1      42.821  21.987  25.436  1.00  0.00     0.014 A 
ATOM     44  C   UNL A   1      42.532  21.274  27.728  1.00  0.00     0.014 A 
ATOM     45  C   UNL A   1      43.147  23.272  25.877  1.00  0.00     0.010 A 
ATOM     46  C   UNL A   1      42.794  22.574  28.165  1.00  0.00     0.010 A 
ATOM     47  C   UNL A   1      43.106  23.587  27.245  1.00  0.00    -0.014 A 
BRANCH  47  48
ATOM     48  C   UNL A   1      43.383  24.969  27.717  1.00  0.00     0.031 A 
ATOM     49  C   UNL A   1      44.795  25.432  27.950  1.00  0.00     0.074 A 
ATOM     50  C   UNL A   1      42.354  25.799  27.982  1.00  0.00     0.049 A 
ATOM     51  N   UNL A   1      45.227  26.587  28.391  1.00  0.00    -0.248 NA
ATOM     52  C   UNL A   1      45.863  24.461  27.673  1.00  0.00     0.031 C 
ATOM     53  C   UNL A   1      40.938  25.458  27.847  1.00  0.00     0.029 A 
ATOM     54  N   UNL A   1      42.342  27.098  28.429  1.00  0.00    -0.354 N 
ATOM     55  C   UNL A   1      46.609  26.478  28.457  1.00  0.00     0.074 A 
ATOM     56  C   UNL A   1      46.943  25.128  28.055  1.00  0.00     0.031 C 
ATOM     57  C   UNL A   1      40.194  26.524  28.183  1.00  0.00     0.029 A 
ATOM     58  C   UNL A   1      41.077  27.614  28.586  1.00  0.00     0.049 A 
ATOM     59  H   UNL A   1      43.160  27.612  28.617  1.00  0.00     0.167 HD
ATOM     60  C   UNL A   1      47.518  27.422  28.800  1.00  0.00     0.037 A 
ATOM     61  C   UNL A   1      40.677  28.827  29.011  1.00  0.00     0.037 A 
ATOM     62  C   UNL A   1      47.189  28.774  29.171  1.00  0.00     0.049 A 
ATOM     63  C   UNL A   1      41.707  29.861  29.373  1.00  0.00     0.074 A 
ATOM     64  C   UNL A   1      48.044  29.821  29.469  1.00  0.00     0.029 A 
ATOM     65  N   UNL A   1      45.897  29.265  29.295  1.00  0.00    -0.354 N 
ATOM     66  N   UNL A   1      43.014  29.767  29.358  1.00  0.00    -0.248 NA
ATOM     67  C   UNL A   1      41.206  31.176  29.798  1.00  0.00     0.031 C 
ATOM     68  C   UNL A   1      47.271  30.934  29.816  1.00  0.00     0.029 A 
ATOM     69  C   UNL A   1      45.934  30.596  29.686  1.00  0.00     0.049 A 
ATOM     70  H   UNL A   1      45.077  28.748  29.130  1.00  0.00     0.167 HD
ATOM     71  C   UNL A   1      43.492  31.011  29.746  1.00  0.00     0.074 A 
ATOM     72  C   UNL A   1      42.333  31.850  29.973  1.00  0.00     0.031 C 
ATOM     73  C   UNL A   1      44.773  31.421  29.903  1.00  0.00     0.037 A 
BRANCH  60  74
ATOM     74  C   UNL A   1      48.968  27.030  28.787  1.00  0.00     0.064 A 
ATOM     75  C   UNL A   1      49.594  26.487  29.921  1.00  0.00     0.173 A 
ATOM     76  C   UNL A   1      49.728  27.151  27.615  1.00  0.00     0.173 A 
ATOM     77  F   UNL A   1      48.914  26.361  31.070  1.00  0.00    -0.203 F 
ATOM     78  C   UNL A   1      50.932  26.106  29.887  1.00  0.00     0.198 A 
ATOM     79  C   UNL A   1      51.058  26.742  27.576  1.00  0.00     0.198 A 
ATOM     80  F   UNL A   1      49.178  27.658  26.501  1.00  0.00    -0.203 F 
ATOM     81  F   UNL A   1      51.520  25.632  30.994  1.00  0.00    -0.200 F 
ATOM     82  C   UNL A   1      51.661  26.226  28.713  1.00  0.00     0.200 A 
ATOM     83  F   UNL A   1      51.759  26.847  26.438  1.00  0.00    -0.200 F 
ATOM     84  F   UNL A   1      52.947  25.851  28.681  1.00  0.00    -0.200 F 
ENDBRANCH  60  74
BRANCH  61  85
ATOM     85  C   UNL A   1      39.226  29.141  29.093  1.00  0.00     0.064 A 
ATOM     86  C   UNL A   1      38.544  29.077  30.316  1.00  0.00     0.173 A 
ATOM     87  C   UNL A   1      38.492  29.504  27.955  1.00  0.00     0.173 A 
ATOM     88  F   UNL A   1      39.198  28.713  31.429  1.00  0.00    -0.203 F 
ATOM     89  C   UNL A   1      37.178  29.341  30.394  1.00  0.00     0.198 A 
ATOM     90  C   UNL A   1      37.133  29.796  28.038  1.00  0.00     0.198 A 
ATOM     91  F   UNL A   1      39.100  29.585  26.762  1.00  0.00    -0.203 F 
ATOM     92  F   UNL A   1      36.541  29.226  31.566  1.00  0.00    -0.200 F 
ATOM     93  C   UNL A   1      36.475  29.707  29.255  1.00  0.00     0.200 A 
ATOM     94  F   UNL A   1      36.460  30.162  26.938  1.00  0.00    -0.200 F 
ATOM     95  F   UNL A   1      35.163  29.964  29.330  1.00  0.00    -0.200 F 
ENDBRANCH  61  85
BRANCH  73  96
ATOM     96  C   UNL A   1      44.993  32.849  30.310  1.00  0.00     0.064 A 
ATOM     97  C   UNL A   1      45.106  33.222  31.658  1.00  0.00     0.173 A 
ATOM     98  C   UNL A   1      45.121  33.853  29.338  1.00  0.00     0.173 A 
ATOM     99  F   UNL A   1      44.977  32.301  32.625  1.00  0.00    -0.203 F 
ATOM    100  C   UNL A   1      45.311  34.550  32.019  1.00  0.00     0.198 A 
ATOM    101  C   UNL A   1      45.354  35.176  29.701  1.00  0.00     0.198 A 
ATOM    102  F   UNL A   1      45.027  33.549  28.035  1.00  0.00    -0.203 F 
ATOM    103  F   UNL A   1      45.366  34.890  33.314  1.00  0.00    -0.200 F 
ATOM    104  C   UNL A   1      45.441  35.525  31.041  1.00  0.00     0.200 A 
ATOM    105  F   UNL A   1      45.492  36.116  28.755  1.00  0.00    -0.200 F 
ATOM    106  F   UNL A   1      45.641  36.803  31.389  1.00  0.00    -0.200 F 
ENDBRANCH  73  96
ENDBRANCH  47  48
ENDBRANCH  39  42
ENDBRANCH  37  38
ENDBRANCH  36  37
ENDBRANCH  35  36
ENDBRANCH  34  35
ENDBRANCH   1  34
TORSDOF 18
ENDMDL
