MODEL 1
REMARK VINA RESULT:     -12.3      0.000      0.000
REMARK SMILES O=C(Cc1cn2ccsc2n1)N[C@@H]1C=C[C@H](C(=O)NCCCCCCNC(=O)c2ccc(-c3c4nc(c(-c5c(F)c(F)c(F)c(F)c5F)c5ccc([nH]5)c(-c5c(F)c(F)c(F)c(F)c5F)c5nc(c(-c6c(F)c(F)c(F)c(F)c6F)c6ccc3[nH]6)C=C5)C=C4)cc2)C1
REMARK SMILES IDX 22 1 21 2 20 3 19 4 17 5 18 6 16 8 13 9 14 10 92 11 15 12
REMARK SMILES IDX 12 13 1 14 2 15 3 17 4 18 5 19 11 20 6 21 10 22 7 23 9 24
REMARK SMILES IDX 8 25 23 26 24 27 25 28 26 29 27 30 28 32 29 33 30 34 91 35
REMARK SMILES IDX 31 36 90 37 32 38 33 39 34 40 84 41 35 42 89 43 83 44 85 45
REMARK SMILES IDX 36 46 88 47 82 48 81 49 37 51 69 52 49 53 68 54 50 55 53 56
REMARK SMILES IDX 67 57 86 58 51 59 52 60 66 62 87 63 54 64 38 65 39 66 47 67
REMARK SMILES IDX 40 68 41 69 45 70 48 71 42 72 43 73 46 74 44 75 70 76 71 77
REMARK SMILES IDX 79 78 72 79 73 80 77 81 80 82 74 83 75 84 78 85 76 86 55 87
REMARK SMILES IDX 56 88 64 89 57 90 58 91 62 92 65 93 59 94 60 95 63 96 61 97
REMARK H PARENT 19 7 12 16 26 31 85 50 53 61
REMARK Flexibility Score: inf
ROOT
ATOM      1  C   UNL A   1      32.996  30.171  26.791  1.00  0.00     0.002 C 
ENDROOT
BRANCH   1   2
ATOM      2  C   UNL A   1      32.896  28.754  27.366  1.00  0.00     0.021 C 
BRANCH   2   3
ATOM      3  C   UNL A   1      31.464  28.312  27.670  1.00  0.00     0.116 C 
BRANCH   3   4
ATOM      4  N   UNL A   1      31.208  26.985  27.143  1.00  0.00    -0.356 N 
ATOM      5  C   UNL A   1      30.815  26.521  25.932  1.00  0.00     0.227 C 
ATOM      6  O   UNL A   1      30.602  25.302  25.868  1.00  0.00    -0.274 OA
ATOM      7  H   UNL A   1      31.349  26.271  27.804  1.00  0.00     0.163 HD
BRANCH   5   8
ATOM      8  C   UNL A   1      30.640  27.377  24.664  1.00  0.00     0.103 C 
ATOM      9  C   UNL A   1      31.301  26.358  22.513  1.00  0.00     0.106 C 
ATOM     10  C   UNL A   1      32.210  27.467  22.914  1.00  0.00    -0.006 C 
ATOM     11  C   UNL A   1      30.139  26.482  23.509  1.00  0.00     0.047 C 
ATOM     12  C   UNL A   1      31.807  28.066  24.039  1.00  0.00    -0.016 C 
BRANCH   9  13
ATOM     13  N   UNL A   1      31.982  25.092  22.616  1.00  0.00    -0.350 N 
ATOM     14  O   UNL A   1      33.205  25.369  20.692  1.00  0.00    -0.275 OA
ATOM     15  C   UNL A   1      32.842  24.658  21.628  1.00  0.00     0.226 C 
ATOM     16  H   UNL A   1      31.830  24.525  23.407  1.00  0.00     0.164 HD
BRANCH  15  17
ATOM     17  C   UNL A   1      33.237  23.198  21.707  1.00  0.00     0.157 C 
BRANCH  17  18
ATOM     18  C   UNL A   1      33.505  22.738  23.092  1.00  0.00     0.070 A 
ATOM     19  C   UNL A   1      33.059  21.575  23.714  1.00  0.00     0.118 A 
ATOM     20  N   UNL A   1      34.227  23.533  23.976  1.00  0.00    -0.223 NA
ATOM     21  N   UNL A   1      33.517  21.673  24.991  1.00  0.00    -0.297 N 
ATOM     22  C   UNL A   1      34.202  22.846  25.085  1.00  0.00     0.193 A 
ATOM     23  C   UNL A   1      33.450  20.927  26.144  1.00  0.00     0.104 A 
ATOM     24  S   UNL A   1      34.827  23.077  26.688  1.00  0.00    -0.105 S 
ATOM     25  C   UNL A   1      34.098  21.528  27.157  1.00  0.00     0.087 A 
ENDBRANCH  17  18
ENDBRANCH  15  17
ENDBRANCH   9  13
ENDBRANCH   5   8
ENDBRANCH   3   4
ENDBRANCH   2   3
ENDBRANCH   1   2
BRANCH   1  26
ATOM     26  C   UNL A   1      31.660  30.787  26.358  1.00  0.00     0.002 C 
BRANCH  26  27
ATOM     27  C   UNL A   1      31.487  32.268  26.703  1.00  0.00     0.021 C 
BRANCH  27  28
ATOM     28  C   UNL A   1      32.731  32.925  27.293  1.00  0.00     0.116 C 
BRANCH  28  29
ATOM     29  N   UNL A   1      32.488  34.309  27.666  1.00  0.00    -0.352 N 
ATOM     30  C   UNL A   1      33.042  35.045  28.681  1.00  0.00     0.251 C 
ATOM     31  H   UNL A   1      31.830  34.786  27.110  1.00  0.00     0.163 HD
ATOM     32  O   UNL A   1      32.562  36.134  28.991  1.00  0.00    -0.269 OA
BRANCH  30  33
ATOM     33  C   UNL A   1      34.211  34.522  29.414  1.00  0.00     0.039 A 
ATOM     34  C   UNL A   1      34.015  33.930  30.665  1.00  0.00     0.014 A 
ATOM     35  C   UNL A   1      35.497  34.619  28.875  1.00  0.00     0.014 A 
ATOM     36  C   UNL A   1      35.102  33.381  31.347  1.00  0.00     0.010 A 
ATOM     37  C   UNL A   1      36.565  34.005  29.520  1.00  0.00     0.010 A 
ATOM     38  C   UNL A   1      36.380  33.382  30.763  1.00  0.00    -0.014 A 
BRANCH  38  39
ATOM     39  C   UNL A   1      37.530  32.724  31.433  1.00  0.00     0.031 A 
ATOM     40  C   UNL A   1      38.242  31.582  30.765  1.00  0.00     0.074 A 
ATOM     41  C   UNL A   1      37.888  33.115  32.670  1.00  0.00     0.049 A 
ATOM     42  N   UNL A   1      39.222  30.838  31.218  1.00  0.00    -0.248 NA
ATOM     43  C   UNL A   1      37.777  31.205  29.421  1.00  0.00     0.031 C 
ATOM     44  C   UNL A   1      37.243  34.181  33.439  1.00  0.00     0.029 A 
ATOM     45  N   UNL A   1      38.875  32.655  33.505  1.00  0.00    -0.354 N 
ATOM     46  C   UNL A   1      39.479  29.905  30.223  1.00  0.00     0.074 A 
ATOM     47  C   UNL A   1      38.518  30.138  29.167  1.00  0.00     0.031 C 
ATOM     48  C   UNL A   1      37.866  34.308  34.621  1.00  0.00     0.029 A 
ATOM     49  C   UNL A   1      38.922  33.306  34.715  1.00  0.00     0.049 A 
ATOM     50  H   UNL A   1      39.491  31.927  33.262  1.00  0.00     0.167 HD
ATOM     51  C   UNL A   1      40.445  28.956  30.184  1.00  0.00     0.037 A 
ATOM     52  C   UNL A   1      39.719  33.109  35.781  1.00  0.00     0.037 A 
ATOM     53  C   UNL A   1      41.408  28.740  31.233  1.00  0.00     0.049 A 
ATOM     54  C   UNL A   1      40.770  32.033  35.720  1.00  0.00     0.074 A 
ATOM     55  C   UNL A   1      42.461  27.842  31.267  1.00  0.00     0.029 A 
ATOM     56  N   UNL A   1      41.430  29.427  32.439  1.00  0.00    -0.354 N 
ATOM     57  N   UNL A   1      41.052  31.204  34.745  1.00  0.00    -0.248 NA
ATOM     58  C   UNL A   1      41.620  31.871  36.909  1.00  0.00     0.031 C 
ATOM     59  C   UNL A   1      43.083  27.944  32.516  1.00  0.00     0.029 A 
ATOM     60  C   UNL A   1      42.461  28.951  33.235  1.00  0.00     0.049 A 
ATOM     61  H   UNL A   1      40.806  30.145  32.693  1.00  0.00     0.167 HD
ATOM     62  C   UNL A   1      42.128  30.446  35.187  1.00  0.00     0.074 A 
ATOM     63  C   UNL A   1      42.458  30.924  36.513  1.00  0.00     0.031 C 
ATOM     64  C   UNL A   1      42.784  29.444  34.551  1.00  0.00     0.037 A 
BRANCH  51  65
ATOM     65  C   UNL A   1      40.509  28.075  28.968  1.00  0.00     0.064 A 
ATOM     66  C   UNL A   1      39.784  26.876  28.887  1.00  0.00     0.173 A 
ATOM     67  C   UNL A   1      41.270  28.456  27.853  1.00  0.00     0.173 A 
ATOM     68  F   UNL A   1      39.046  26.460  29.928  1.00  0.00    -0.203 F 
ATOM     69  C   UNL A   1      39.845  26.075  27.749  1.00  0.00     0.198 A 
ATOM     70  C   UNL A   1      41.302  27.670  26.703  1.00  0.00     0.198 A 
ATOM     71  F   UNL A   1      41.977  29.595  27.873  1.00  0.00    -0.203 F 
ATOM     72  F   UNL A   1      39.187  24.909  27.716  1.00  0.00    -0.200 F 
ATOM     73  C   UNL A   1      40.597  26.477  26.656  1.00  0.00     0.200 A 
ATOM     74  F   UNL A   1      42.016  28.068  25.642  1.00  0.00    -0.200 F 
ATOM     75  F   UNL A   1      40.647  25.711  25.557  1.00  0.00    -0.200 F 
ENDBRANCH  51  65
BRANCH  52  76
ATOM     76  C   UNL A   1      39.567  33.960  36.991  1.00  0.00     0.064 A 
ATOM     77  C   UNL A   1      38.808  33.527  38.087  1.00  0.00     0.173 A 
ATOM     78  C   UNL A   1      40.170  35.225  37.075  1.00  0.00     0.173 A 
ATOM     79  F   UNL A   1      38.196  32.334  38.047  1.00  0.00    -0.203 F 
ATOM     80  C   UNL A   1      38.637  34.333  39.210  1.00  0.00     0.198 A 
ATOM     81  C   UNL A   1      40.025  36.016  38.213  1.00  0.00     0.198 A 
ATOM     82  F   UNL A   1      40.913  35.685  36.059  1.00  0.00    -0.203 F 
ATOM     83  F   UNL A   1      37.864  33.914  40.221  1.00  0.00    -0.200 F 
ATOM     84  C   UNL A   1      39.251  35.575  39.274  1.00  0.00     0.200 A 
ATOM     85  F   UNL A   1      40.637  37.207  38.280  1.00  0.00    -0.200 F 
ATOM     86  F   UNL A   1      39.092  36.347  40.358  1.00  0.00    -0.200 F 
ENDBRANCH  52  76
BRANCH  64  87
ATOM     87  C   UNL A   1      43.952  28.824  35.262  1.00  0.00     0.064 A 
ATOM     88  C   UNL A   1      43.800  27.724  36.120  1.00  0.00     0.173 A 
ATOM     89  C   UNL A   1      45.251  29.316  35.052  1.00  0.00     0.173 A 
ATOM     90  F   UNL A   1      42.579  27.225  36.366  1.00  0.00    -0.203 F 
ATOM     91  C   UNL A   1      44.898  27.160  36.762  1.00  0.00     0.198 A 
ATOM     92  C   UNL A   1      46.350  28.727  35.668  1.00  0.00     0.198 A 
ATOM     93  F   UNL A   1      45.453  30.362  34.236  1.00  0.00    -0.203 F 
ATOM     94  F   UNL A   1      44.722  26.144  37.619  1.00  0.00    -0.200 F 
ATOM     95  C   UNL A   1      46.172  27.655  36.529  1.00  0.00     0.200 A 
ATOM     96  F   UNL A   1      47.582  29.196  35.430  1.00  0.00    -0.200 F 
ATOM     97  F   UNL A   1      47.230  27.104  37.142  1.00  0.00    -0.200 F 
ENDBRANCH  64  87
ENDBRANCH  38  39
ENDBRANCH  30  33
ENDBRANCH  28  29
ENDBRANCH  27  28
ENDBRANCH  26  27
ENDBRANCH   1  26
TORSDOF 16
ENDMDL
MODEL 2
REMARK VINA RESULT:     -12.2      5.340     10.517
REMARK SMILES O=C(Cc1cn2ccsc2n1)N[C@@H]1C=C[C@H](C(=O)NCCCCCCNC(=O)c2ccc(-c3c4nc(c(-c5c(F)c(F)c(F)c(F)c5F)c5ccc([nH]5)c(-c5c(F)c(F)c(F)c(F)c5F)c5nc(c(-c6c(F)c(F)c(F)c(F)c6F)c6ccc3[nH]6)C=C5)C=C4)cc2)C1
REMARK SMILES IDX 22 1 21 2 20 3 19 4 17 5 18 6 16 8 13 9 14 10 92 11 15 12
REMARK SMILES IDX 12 13 1 14 2 15 3 17 4 18 5 19 11 20 6 21 10 22 7 23 9 24
REMARK SMILES IDX 8 25 23 26 24 27 25 28 26 29 27 30 28 32 29 33 30 34 91 35
REMARK SMILES IDX 31 36 90 37 32 38 33 39 34 40 84 41 35 42 89 43 83 44 85 45
REMARK SMILES IDX 36 46 88 47 82 48 81 49 37 51 69 52 49 53 68 54 50 55 53 56
REMARK SMILES IDX 67 57 86 58 51 59 52 60 66 62 87 63 54 64 38 65 39 66 47 67
REMARK SMILES IDX 40 68 41 69 45 70 48 71 42 72 43 73 46 74 44 75 70 76 71 77
REMARK SMILES IDX 79 78 72 79 73 80 77 81 80 82 74 83 75 84 78 85 76 86 55 87
REMARK SMILES IDX 56 88 64 89 57 90 58 91 62 92 65 93 59 94 60 95 63 96 61 97
REMARK H PARENT 19 7 12 16 26 31 85 50 53 61
REMARK Flexibility Score: inf
ROOT
ATOM      1  C   UNL A   1      37.732  22.464  25.106  1.00  0.00     0.002 C 
ENDROOT
BRANCH   1   2
ATOM      2  C   UNL A   1      36.725  23.372  25.820  1.00  0.00     0.021 C 
BRANCH   2   3
ATOM      3  C   UNL A   1      35.724  22.616  26.694  1.00  0.00     0.116 C 
BRANCH   3   4
ATOM      4  N   UNL A   1      34.372  23.086  26.461  1.00  0.00    -0.356 N 
ATOM      5  C   UNL A   1      33.525  23.009  25.408  1.00  0.00     0.227 C 
ATOM      6  O   UNL A   1      32.455  23.620  25.533  1.00  0.00    -0.274 OA
ATOM      7  H   UNL A   1      33.989  23.562  27.232  1.00  0.00     0.163 HD
BRANCH   5   8
ATOM      8  C   UNL A   1      33.785  22.219  24.111  1.00  0.00     0.103 C 
ATOM      9  C   UNL A   1      32.891  23.167  22.012  1.00  0.00     0.106 C 
ATOM     10  C   UNL A   1      32.185  21.918  22.413  1.00  0.00    -0.006 C 
ATOM     11  C   UNL A   1      34.094  23.207  22.965  1.00  0.00     0.047 C 
ATOM     12  C   UNL A   1      32.719  21.367  23.507  1.00  0.00    -0.016 C 
BRANCH   9  13
ATOM     13  N   UNL A   1      32.022  24.305  22.173  1.00  0.00    -0.350 N 
ATOM     14  O   UNL A   1      33.251  25.685  20.809  1.00  0.00    -0.275 OA
ATOM     15  C   UNL A   1      32.327  25.525  21.605  1.00  0.00     0.226 C 
ATOM     16  H   UNL A   1      31.195  24.211  22.699  1.00  0.00     0.164 HD
BRANCH  15  17
ATOM     17  C   UNL A   1      31.509  26.697  22.107  1.00  0.00     0.157 C 
BRANCH  17  18
ATOM     18  C   UNL A   1      31.979  27.222  23.413  1.00  0.00     0.070 A 
ATOM     19  C   UNL A   1      33.239  27.719  23.738  1.00  0.00     0.118 A 
ATOM     20  N   UNL A   1      31.149  27.191  24.529  1.00  0.00    -0.223 NA
ATOM     21  N   UNL A   1      33.166  27.989  25.069  1.00  0.00    -0.297 N 
ATOM     22  C   UNL A   1      31.910  27.662  25.479  1.00  0.00     0.193 A 
ATOM     23  C   UNL A   1      34.007  28.471  26.044  1.00  0.00     0.104 A 
ATOM     24  S   UNL A   1      31.710  27.962  27.178  1.00  0.00    -0.105 S 
ATOM     25  C   UNL A   1      33.392  28.524  27.240  1.00  0.00     0.087 A 
ENDBRANCH  17  18
ENDBRANCH  15  17
ENDBRANCH   9  13
ENDBRANCH   5   8
ENDBRANCH   3   4
ENDBRANCH   2   3
ENDBRANCH   1   2
BRANCH   1  26
ATOM     26  C   UNL A   1      37.183  21.093  24.691  1.00  0.00     0.002 C 
BRANCH  26  27
ATOM     27  C   UNL A   1      38.134  19.917  24.925  1.00  0.00     0.021 C 
BRANCH  27  28
ATOM     28  C   UNL A   1      39.198  20.171  25.988  1.00  0.00     0.116 C 
BRANCH  28  29
ATOM     29  N   UNL A   1      40.245  19.163  25.958  1.00  0.00    -0.352 N 
ATOM     30  C   UNL A   1      41.604  19.318  26.062  1.00  0.00     0.251 C 
ATOM     31  H   UNL A   1      39.935  18.235  25.848  1.00  0.00     0.163 HD
ATOM     32  O   UNL A   1      42.357  18.383  25.796  1.00  0.00    -0.269 OA
BRANCH  30  33
ATOM     33  C   UNL A   1      42.164  20.618  26.477  1.00  0.00     0.039 A 
ATOM     34  C   UNL A   1      42.639  21.494  25.498  1.00  0.00     0.014 A 
ATOM     35  C   UNL A   1      42.229  20.970  27.829  1.00  0.00     0.014 A 
ATOM     36  C   UNL A   1      43.122  22.750  25.871  1.00  0.00     0.010 A 
ATOM     37  C   UNL A   1      42.640  22.249  28.191  1.00  0.00     0.010 A 
ATOM     38  C   UNL A   1      43.093  23.151  27.217  1.00  0.00    -0.014 A 
BRANCH  38  39
ATOM     39  C   UNL A   1      43.518  24.514  27.621  1.00  0.00     0.031 A 
ATOM     40  C   UNL A   1      42.492  25.557  27.966  1.00  0.00     0.074 A 
ATOM     41  C   UNL A   1      44.827  24.830  27.613  1.00  0.00     0.049 A 
ATOM     42  N   UNL A   1      42.665  26.819  28.276  1.00  0.00    -0.248 NA
ATOM     43  C   UNL A   1      41.083  25.136  27.934  1.00  0.00     0.031 C 
ATOM     44  C   UNL A   1      45.914  23.917  27.251  1.00  0.00     0.029 A 
ATOM     45  N   UNL A   1      45.468  26.007  27.906  1.00  0.00    -0.354 N 
ATOM     46  C   UNL A   1      41.392  27.339  28.463  1.00  0.00     0.074 A 
ATOM     47  C   UNL A   1      40.454  26.275  28.177  1.00  0.00     0.031 C 
ATOM     48  C   UNL A   1      47.085  24.561  27.367  1.00  0.00     0.029 A 
ATOM     49  C   UNL A   1      46.834  25.942  27.765  1.00  0.00     0.049 A 
ATOM     50  H   UNL A   1      44.995  26.823  28.189  1.00  0.00     0.167 HD
ATOM     51  C   UNL A   1      41.039  28.586  28.860  1.00  0.00     0.037 A 
ATOM     52  C   UNL A   1      47.773  26.891  27.928  1.00  0.00     0.037 A 
ATOM     53  C   UNL A   1      41.979  29.635  29.157  1.00  0.00     0.049 A 
ATOM     54  C   UNL A   1      47.353  28.274  28.348  1.00  0.00     0.074 A 
ATOM     55  C   UNL A   1      41.726  30.915  29.620  1.00  0.00     0.029 A 
ATOM     56  N   UNL A   1      43.355  29.527  29.013  1.00  0.00    -0.354 N 
ATOM     57  N   UNL A   1      46.151  28.735  28.592  1.00  0.00    -0.248 NA
ATOM     58  C   UNL A   1      48.422  29.266  28.523  1.00  0.00     0.031 C 
ATOM     59  C   UNL A   1      42.942  31.600  29.699  1.00  0.00     0.029 A 
ATOM     60  C   UNL A   1      43.961  30.728  29.350  1.00  0.00     0.049 A 
ATOM     61  H   UNL A   1      43.831  28.719  28.715  1.00  0.00     0.167 HD
ATOM     62  C   UNL A   1      46.320  30.058  28.979  1.00  0.00     0.074 A 
ATOM     63  C   UNL A   1      47.744  30.320  28.952  1.00  0.00     0.031 C 
ATOM     64  C   UNL A   1      45.381  30.973  29.326  1.00  0.00     0.037 A 
BRANCH  51  65
ATOM     65  C   UNL A   1      39.572  28.885  28.994  1.00  0.00     0.064 A 
ATOM     66  C   UNL A   1      38.904  28.763  30.222  1.00  0.00     0.173 A 
ATOM     67  C   UNL A   1      38.835  29.339  27.891  1.00  0.00     0.173 A 
ATOM     68  F   UNL A   1      39.559  28.325  31.308  1.00  0.00    -0.203 F 
ATOM     69  C   UNL A   1      37.546  29.054  30.333  1.00  0.00     0.198 A 
ATOM     70  C   UNL A   1      37.485  29.661  28.012  1.00  0.00     0.198 A 
ATOM     71  F   UNL A   1      39.424  29.480  26.694  1.00  0.00    -0.203 F 
ATOM     72  F   UNL A   1      36.919  28.880  31.504  1.00  0.00    -0.200 F 
ATOM     73  C   UNL A   1      36.840  29.510  29.231  1.00  0.00     0.200 A 
ATOM     74  F   UNL A   1      36.808  30.118  26.950  1.00  0.00    -0.200 F 
ATOM     75  F   UNL A   1      35.536  29.800  29.341  1.00  0.00    -0.200 F 
ENDBRANCH  51  65
BRANCH  52  76
ATOM     76  C   UNL A   1      49.208  26.563  27.711  1.00  0.00     0.064 A 
ATOM     77  C   UNL A   1      50.056  26.286  28.792  1.00  0.00     0.173 A 
ATOM     78  C   UNL A   1      49.761  26.525  26.422  1.00  0.00     0.173 A 
ATOM     79  F   UNL A   1      49.578  26.329  30.045  1.00  0.00    -0.203 F 
ATOM     80  C   UNL A   1      51.407  26.009  28.596  1.00  0.00     0.198 A 
ATOM     81  C   UNL A   1      51.105  26.214  26.225  1.00  0.00     0.198 A 
ATOM     82  F   UNL A   1      48.993  26.774  25.352  1.00  0.00    -0.203 F 
ATOM     83  F   UNL A   1      52.205  25.798  29.652  1.00  0.00    -0.200 F 
ATOM     84  C   UNL A   1      51.929  25.966  27.312  1.00  0.00     0.200 A 
ATOM     85  F   UNL A   1      51.602  26.154  24.981  1.00  0.00    -0.200 F 
ATOM     86  F   UNL A   1      53.227  25.693  27.124  1.00  0.00    -0.200 F 
ENDBRANCH  52  76
BRANCH  64  87
ATOM     87  C   UNL A   1      45.864  32.331  29.746  1.00  0.00     0.064 A 
ATOM     88  C   UNL A   1      46.209  32.618  31.076  1.00  0.00     0.173 A 
ATOM     89  C   UNL A   1      46.020  33.352  28.794  1.00  0.00     0.173 A 
ATOM     90  F   UNL A   1      46.065  31.683  32.026  1.00  0.00    -0.203 F 
ATOM     91  C   UNL A   1      46.663  33.882  31.441  1.00  0.00     0.198 A 
ATOM     92  C   UNL A   1      46.508  34.603  29.157  1.00  0.00     0.198 A 
ATOM     93  F   UNL A   1      45.712  33.129  27.507  1.00  0.00    -0.203 F 
ATOM     94  F   UNL A   1      46.935  34.149  32.726  1.00  0.00    -0.200 F 
ATOM     95  C   UNL A   1      46.821  34.870  30.481  1.00  0.00     0.200 A 
ATOM     96  F   UNL A   1      46.676  35.552  28.226  1.00  0.00    -0.200 F 
ATOM     97  F   UNL A   1      47.267  36.084  30.833  1.00  0.00    -0.200 F 
ENDBRANCH  64  87
ENDBRANCH  38  39
ENDBRANCH  30  33
ENDBRANCH  28  29
ENDBRANCH  27  28
ENDBRANCH  26  27
ENDBRANCH   1  26
TORSDOF 16
ENDMDL
MODEL 3
REMARK VINA RESULT:     -12.2      6.436     10.996
REMARK SMILES O=C(Cc1cn2ccsc2n1)N[C@@H]1C=C[C@H](C(=O)NCCCCCCNC(=O)c2ccc(-c3c4nc(c(-c5c(F)c(F)c(F)c(F)c5F)c5ccc([nH]5)c(-c5c(F)c(F)c(F)c(F)c5F)c5nc(c(-c6c(F)c(F)c(F)c(F)c6F)c6ccc3[nH]6)C=C5)C=C4)cc2)C1
REMARK SMILES IDX 22 1 21 2 20 3 19 4 17 5 18 6 16 8 13 9 14 10 92 11 15 12
REMARK SMILES IDX 12 13 1 14 2 15 3 17 4 18 5 19 11 20 6 21 10 22 7 23 9 24
REMARK SMILES IDX 8 25 23 26 24 27 25 28 26 29 27 30 28 32 29 33 30 34 91 35
REMARK SMILES IDX 31 36 90 37 32 38 33 39 34 40 84 41 35 42 89 43 83 44 85 45
REMARK SMILES IDX 36 46 88 47 82 48 81 49 37 51 69 52 49 53 68 54 50 55 53 56
REMARK SMILES IDX 67 57 86 58 51 59 52 60 66 62 87 63 54 64 38 65 39 66 47 67
REMARK SMILES IDX 40 68 41 69 45 70 48 71 42 72 43 73 46 74 44 75 70 76 71 77
REMARK SMILES IDX 79 78 72 79 73 80 77 81 80 82 74 83 75 84 78 85 76 86 55 87
REMARK SMILES IDX 56 88 64 89 57 90 58 91 62 92 65 93 59 94 60 95 63 96 61 97
REMARK H PARENT 19 7 12 16 26 31 85 50 53 61
REMARK Flexibility Score: inf
ROOT
ATOM      1  C   UNL A   1      42.044  21.407  27.104  1.00  0.00     0.002 C 
ENDROOT
BRANCH   1   2
ATOM      2  C   UNL A   1      41.105  22.068  26.090  1.00  0.00     0.021 C 
BRANCH   2   3
ATOM      3  C   UNL A   1      39.761  22.496  26.681  1.00  0.00     0.116 C 
BRANCH   3   4
ATOM      4  N   UNL A   1      38.690  21.639  26.212  1.00  0.00    -0.356 N 
ATOM      5  C   UNL A   1      37.560  21.862  25.498  1.00  0.00     0.227 C 
ATOM      6  O   UNL A   1      36.813  20.884  25.357  1.00  0.00    -0.274 OA
ATOM      7  H   UNL A   1      38.809  20.696  26.464  1.00  0.00     0.163 HD
BRANCH   5   8
ATOM      8  C   UNL A   1      37.164  23.203  24.853  1.00  0.00     0.103 C 
ATOM      9  C   UNL A   1      34.753  23.632  24.526  1.00  0.00     0.106 C 
ATOM     10  C   UNL A   1      35.470  23.433  23.236  1.00  0.00    -0.006 C 
ATOM     11  C   UNL A   1      35.897  23.748  25.545  1.00  0.00     0.047 C 
ATOM     12  C   UNL A   1      36.786  23.276  23.411  1.00  0.00    -0.016 C 
BRANCH   9  13
ATOM     13  N   UNL A   1      33.888  22.511  24.795  1.00  0.00    -0.350 N 
ATOM     14  O   UNL A   1      31.942  23.671  24.418  1.00  0.00    -0.275 OA
ATOM     15  C   UNL A   1      32.515  22.650  24.794  1.00  0.00     0.226 C 
ATOM     16  H   UNL A   1      34.284  21.629  24.982  1.00  0.00     0.164 HD
BRANCH  15  17
ATOM     17  C   UNL A   1      31.746  21.491  25.394  1.00  0.00     0.157 C 
BRANCH  17  18
ATOM     18  C   UNL A   1      32.263  20.164  24.972  1.00  0.00     0.070 A 
ATOM     19  C   UNL A   1      32.490  19.701  23.679  1.00  0.00     0.118 A 
ATOM     20  N   UNL A   1      32.515  19.171  25.913  1.00  0.00    -0.223 NA
ATOM     21  N   UNL A   1      32.884  18.409  23.844  1.00  0.00    -0.297 N 
ATOM     22  C   UNL A   1      32.883  18.155  25.182  1.00  0.00     0.193 A 
ATOM     23  C   UNL A   1      33.247  17.358  23.036  1.00  0.00     0.104 A 
ATOM     24  S   UNL A   1      33.365  16.519  25.506  1.00  0.00    -0.105 S 
ATOM     25  C   UNL A   1      33.540  16.261  23.759  1.00  0.00     0.087 A 
ENDBRANCH  17  18
ENDBRANCH  15  17
ENDBRANCH   9  13
ENDBRANCH   5   8
ENDBRANCH   3   4
ENDBRANCH   2   3
ENDBRANCH   1   2
BRANCH   1  26
ATOM     26  C   UNL A   1      41.855  19.894  27.267  1.00  0.00     0.002 C 
BRANCH  26  27
ATOM     27  C   UNL A   1      42.267  19.055  26.055  1.00  0.00     0.021 C 
BRANCH  27  28
ATOM     28  C   UNL A   1      43.718  18.586  26.079  1.00  0.00     0.116 C 
BRANCH  28  29
ATOM     29  N   UNL A   1      44.298  18.548  24.746  1.00  0.00    -0.352 N 
ATOM     30  C   UNL A   1      44.682  19.586  23.936  1.00  0.00     0.251 C 
ATOM     31  H   UNL A   1      44.434  17.649  24.371  1.00  0.00     0.163 HD
ATOM     32  O   UNL A   1      44.950  19.383  22.753  1.00  0.00    -0.269 OA
BRANCH  30  33
ATOM     33  C   UNL A   1      44.760  20.954  24.483  1.00  0.00     0.039 A 
ATOM     34  C   UNL A   1      45.430  21.163  25.691  1.00  0.00     0.014 A 
ATOM     35  C   UNL A   1      44.168  22.028  23.811  1.00  0.00     0.014 A 
ATOM     36  C   UNL A   1      45.559  22.460  26.193  1.00  0.00     0.010 A 
ATOM     37  C   UNL A   1      44.362  23.325  24.274  1.00  0.00     0.010 A 
ATOM     38  C   UNL A   1      45.057  23.555  25.470  1.00  0.00    -0.014 A 
BRANCH  38  39
ATOM     39  C   UNL A   1      45.263  24.946  25.943  1.00  0.00     0.031 A 
ATOM     40  C   UNL A   1      46.629  25.571  25.886  1.00  0.00     0.074 A 
ATOM     41  C   UNL A   1      44.232  25.621  26.486  1.00  0.00     0.049 A 
ATOM     42  N   UNL A   1      47.020  26.747  26.313  1.00  0.00    -0.248 NA
ATOM     43  C   UNL A   1      47.705  24.760  25.296  1.00  0.00     0.031 C 
ATOM     44  C   UNL A   1      42.871  25.104  26.639  1.00  0.00     0.029 A 
ATOM     45  N   UNL A   1      44.168  26.884  27.019  1.00  0.00    -0.354 N 
ATOM     46  C   UNL A   1      48.382  26.809  26.052  1.00  0.00     0.074 A 
ATOM     47  C   UNL A   1      48.762  25.534  25.484  1.00  0.00     0.031 C 
ATOM     48  C   UNL A   1      42.103  26.048  27.204  1.00  0.00     0.029 A 
ATOM     49  C   UNL A   1      42.923  27.219  27.495  1.00  0.00     0.049 A 
ATOM     50  H   UNL A   1      44.941  27.493  27.059  1.00  0.00     0.167 HD
ATOM     51  C   UNL A   1      49.234  27.845  26.248  1.00  0.00     0.037 A 
ATOM     52  C   UNL A   1      42.497  28.339  28.108  1.00  0.00     0.037 A 
ATOM     53  C   UNL A   1      48.845  29.116  26.801  1.00  0.00     0.049 A 
ATOM     54  C   UNL A   1      43.468  29.466  28.333  1.00  0.00     0.074 A 
ATOM     55  C   UNL A   1      49.619  30.248  26.989  1.00  0.00     0.029 A 
ATOM     56  N   UNL A   1      47.572  29.421  27.262  1.00  0.00    -0.354 N 
ATOM     57  N   UNL A   1      44.737  29.541  28.017  1.00  0.00    -0.248 NA
ATOM     58  C   UNL A   1      42.943  30.669  28.995  1.00  0.00     0.031 C 
ATOM     59  C   UNL A   1      48.830  31.217  27.617  1.00  0.00     0.029 A 
ATOM     60  C   UNL A   1      47.548  30.715  27.761  1.00  0.00     0.049 A 
ATOM     61  H   UNL A   1      46.801  28.810  27.240  1.00  0.00     0.167 HD
ATOM     62  C   UNL A   1      45.156  30.805  28.410  1.00  0.00     0.074 A 
ATOM     63  C   UNL A   1      43.999  31.469  28.975  1.00  0.00     0.031 C 
ATOM     64  C   UNL A   1      46.386  31.366  28.313  1.00  0.00     0.037 A 
BRANCH  51  65
ATOM     65  C   UNL A   1      50.673  27.646  25.864  1.00  0.00     0.064 A 
ATOM     66  C   UNL A   1      51.638  27.246  26.801  1.00  0.00     0.173 A 
ATOM     67  C   UNL A   1      51.084  27.816  24.534  1.00  0.00     0.173 A 
ATOM     68  F   UNL A   1      51.301  27.077  28.089  1.00  0.00    -0.203 F 
ATOM     69  C   UNL A   1      52.967  27.056  26.428  1.00  0.00     0.198 A 
ATOM     70  C   UNL A   1      52.407  27.592  24.157  1.00  0.00     0.198 A 
ATOM     71  F   UNL A   1      50.203  28.191  23.595  1.00  0.00    -0.203 F 
ATOM     72  F   UNL A   1      53.880  26.725  27.351  1.00  0.00    -0.200 F 
ATOM     73  C   UNL A   1      53.348  27.221  25.105  1.00  0.00     0.200 A 
ATOM     74  F   UNL A   1      52.770  27.736  22.875  1.00  0.00    -0.200 F 
ATOM     75  F   UNL A   1      54.624  27.028  24.745  1.00  0.00    -0.200 F 
ENDBRANCH  51  65
BRANCH  52  76
ATOM     76  C   UNL A   1      41.077  28.457  28.536  1.00  0.00     0.064 A 
ATOM     77  C   UNL A   1      40.672  28.044  29.812  1.00  0.00     0.173 A 
ATOM     78  C   UNL A   1      40.096  28.979  27.678  1.00  0.00     0.173 A 
ATOM     79  F   UNL A   1      41.568  27.521  30.662  1.00  0.00    -0.203 F 
ATOM     80  C   UNL A   1      39.338  28.124  30.207  1.00  0.00     0.198 A 
ATOM     81  C   UNL A   1      38.769  29.089  28.086  1.00  0.00     0.198 A 
ATOM     82  F   UNL A   1      40.431  29.396  26.449  1.00  0.00    -0.203 F 
ATOM     83  F   UNL A   1      38.971  27.674  31.415  1.00  0.00    -0.200 F 
ATOM     84  C   UNL A   1      38.389  28.653  29.346  1.00  0.00     0.200 A 
ATOM     85  F   UNL A   1      37.857  29.620  27.258  1.00  0.00    -0.200 F 
ATOM     86  F   UNL A   1      37.107  28.736  29.728  1.00  0.00    -0.200 F 
ENDBRANCH  52  76
BRANCH  64  87
ATOM     87  C   UNL A   1      46.538  32.782  28.787  1.00  0.00     0.064 A 
ATOM     88  C   UNL A   1      46.914  33.087  30.105  1.00  0.00     0.173 A 
ATOM     89  C   UNL A   1      46.340  33.852  27.899  1.00  0.00     0.173 A 
ATOM     90  F   UNL A   1      47.101  32.103  30.997  1.00  0.00    -0.203 F 
ATOM     91  C   UNL A   1      47.058  34.407  30.521  1.00  0.00     0.198 A 
ATOM     92  C   UNL A   1      46.519  35.169  28.309  1.00  0.00     0.198 A 
ATOM     93  F   UNL A   1      45.986  33.617  26.626  1.00  0.00    -0.203 F 
ATOM     94  F   UNL A   1      47.365  34.676  31.797  1.00  0.00    -0.200 F 
ATOM     95  C   UNL A   1      46.870  35.446  29.622  1.00  0.00     0.200 A 
ATOM     96  F   UNL A   1      46.353  36.171  27.435  1.00  0.00    -0.200 F 
ATOM     97  F   UNL A   1      47.017  36.717  30.022  1.00  0.00    -0.200 F 
ENDBRANCH  64  87
ENDBRANCH  38  39
ENDBRANCH  30  33
ENDBRANCH  28  29
ENDBRANCH  27  28
ENDBRANCH  26  27
ENDBRANCH   1  26
TORSDOF 16
ENDMDL
