MODEL 1
REMARK VINA RESULT:     -13.4      0.000      0.000
REMARK SMILES O=C(CCC(=O)/[NH+]=C1\S[C@H]2CS(=O)(=O)C[C@@H]2N1c1ccc2c(c1)OCO2)NCCCCCCNC(=O)c1ccc(-c2c3nc(c(-c4c(F)c(F)c(F)c(F)c4F)c4ccc([nH]4)c(-c4c(F)c(F)c(F)c(F)c4F)c4nc(c(-c5c(F)c(F)c(F)c(F)c5F)c5ccc2[nH]5)C=C4)C=C3)cc1
REMARK SMILES IDX 30 1 29 2 28 3 27 4 2 5 1 6 3 8 4 9 5 10 6 11 7 12 8 13 9 15
REMARK SMILES IDX 17 16 10 17 16 18 11 19 15 20 12 21 13 22 14 23 18 24 19 25
REMARK SMILES IDX 23 26 20 27 22 28 21 29 24 30 26 31 25 32 31 33 32 34 33 35
REMARK SMILES IDX 34 36 35 37 36 39 37 40 38 41 99 42 39 43 98 44 40 45 41 46
REMARK SMILES IDX 42 47 92 48 43 49 97 50 91 51 93 52 44 53 96 54 90 55 89 56
REMARK SMILES IDX 45 58 77 59 57 60 76 61 58 62 61 63 75 64 94 65 59 66 60 67
REMARK SMILES IDX 74 69 95 70 62 71 46 72 47 73 55 74 48 75 49 76 53 77 56 78
REMARK SMILES IDX 50 79 51 80 54 81 52 82 78 83 79 84 87 85 80 86 81 87 85 88
REMARK SMILES IDX 88 89 82 90 83 91 86 92 84 93 63 94 64 95 72 96 65 97 66 98
REMARK SMILES IDX 70 99 73 100 67 101 68 102 71 103 69 104
REMARK H PARENT 27 7 7 14 34 38 93 57 61 68
REMARK Flexibility Score: inf
ROOT
ATOM      1  C   UNL A   1      31.782  29.167  26.751  1.00  0.00     0.002 C 
ENDROOT
BRANCH   1   2
ATOM      2  C   UNL A   1      32.136  27.897  25.974  1.00  0.00     0.021 C 
BRANCH   2   3
ATOM      3  C   UNL A   1      31.043  27.430  25.012  1.00  0.00     0.116 C 
BRANCH   3   4
ATOM      4  N   UNL A   1      31.530  27.195  23.663  1.00  0.00    -0.356 N 
ATOM      5  C   UNL A   1      31.527  26.072  22.902  1.00  0.00     0.220 C 
ATOM      6  O   UNL A   1      32.081  26.099  21.801  1.00  0.00    -0.275 OA
ATOM      7  H   UNL A   1      31.927  27.983  23.228  1.00  0.00     0.163 HD
BRANCH   5   8
ATOM      8  C   UNL A   1      30.831  24.831  23.391  1.00  0.00     0.112 C 
BRANCH   8   9
ATOM      9  C   UNL A   1      31.673  23.621  23.766  1.00  0.00     0.138 C 
BRANCH   9  10
ATOM     10  C   UNL A   1      32.778  23.655  24.820  1.00  0.00     0.308 C 
ATOM     11  O   UNL A   1      32.708  24.504  25.709  1.00  0.00    -0.247 OA
ATOM     12  N   UNL A   1      33.847  22.805  24.756  1.00  0.00    -0.204 N 
ATOM     13  C   UNL A   1      33.744  21.527  24.889  1.00  0.00     0.319 C 
ATOM     14  H   UNL A   1      34.740  23.188  24.600  1.00  0.00     0.316 HD
ATOM     15  S   UNL A   1      32.199  20.649  25.093  1.00  0.00    -0.029 SA
ATOM     16  N   UNL A   1      34.790  20.608  24.799  1.00  0.00    -0.216 N 
ATOM     17  C   UNL A   1      33.062  19.067  25.131  1.00  0.00     0.120 C 
ATOM     18  C   UNL A   1      34.335  19.314  24.313  1.00  0.00     0.212 C 
ATOM     19  C   UNL A   1      32.451  17.835  24.519  1.00  0.00     0.156 C 
ATOM     20  C   UNL A   1      35.154  18.061  24.516  1.00  0.00     0.188 C 
ATOM     21  S   UNL A   1      33.901  16.773  24.395  1.00  0.00     0.155 S 
ATOM     22  O   UNL A   1      33.974  15.961  25.590  1.00  0.00    -0.229 OA
ATOM     23  O   UNL A   1      33.946  16.204  23.065  1.00  0.00    -0.229 OA
BRANCH  16  24
ATOM     24  C   UNL A   1      36.127  20.866  25.113  1.00  0.00     0.132 A 
ATOM     25  C   UNL A   1      36.568  22.156  25.499  1.00  0.00     0.056 A 
ATOM     26  C   UNL A   1      37.075  19.828  25.056  1.00  0.00     0.102 A 
ATOM     27  C   UNL A   1      37.903  22.408  25.841  1.00  0.00     0.055 A 
ATOM     28  C   UNL A   1      38.386  20.101  25.393  1.00  0.00     0.170 A 
ATOM     29  C   UNL A   1      38.785  21.354  25.786  1.00  0.00     0.166 A 
ATOM     30  O   UNL A   1      39.411  19.205  25.405  1.00  0.00    -0.453 OA
ATOM     31  O   UNL A   1      40.099  21.397  26.127  1.00  0.00    -0.454 OA
ATOM     32  C   UNL A   1      40.461  20.006  25.991  1.00  0.00     0.468 C 
ENDBRANCH  16  24
ENDBRANCH   9  10
ENDBRANCH   8   9
ENDBRANCH   5   8
ENDBRANCH   3   4
ENDBRANCH   2   3
ENDBRANCH   1   2
BRANCH   1  33
ATOM     33  C   UNL A   1      31.890  30.468  25.959  1.00  0.00     0.002 C 
BRANCH  33  34
ATOM     34  C   UNL A   1      31.558  31.715  26.768  1.00  0.00     0.021 C 
BRANCH  34  35
ATOM     35  C   UNL A   1      32.781  32.475  27.263  1.00  0.00     0.116 C 
BRANCH  35  36
ATOM     36  N   UNL A   1      32.492  33.878  27.526  1.00  0.00    -0.352 N 
ATOM     37  C   UNL A   1      33.046  34.679  28.495  1.00  0.00     0.251 C 
ATOM     38  H   UNL A   1      31.821  34.301  26.942  1.00  0.00     0.163 HD
ATOM     39  O   UNL A   1      32.602  35.791  28.747  1.00  0.00    -0.269 OA
BRANCH  37  40
ATOM     40  C   UNL A   1      34.199  34.150  29.248  1.00  0.00     0.039 A 
ATOM     41  C   UNL A   1      33.982  33.324  30.350  1.00  0.00     0.014 A 
ATOM     42  C   UNL A   1      35.495  34.402  28.785  1.00  0.00     0.014 A 
ATOM     43  C   UNL A   1      35.071  32.697  30.957  1.00  0.00     0.010 A 
ATOM     44  C   UNL A   1      36.563  33.705  29.332  1.00  0.00     0.010 A 
ATOM     45  C   UNL A   1      36.365  32.855  30.430  1.00  0.00    -0.014 A 
BRANCH  45  46
ATOM     46  C   UNL A   1      37.529  32.153  31.026  1.00  0.00     0.031 A 
ATOM     47  C   UNL A   1      38.006  32.534  32.399  1.00  0.00     0.074 A 
ATOM     48  C   UNL A   1      38.190  31.220  30.312  1.00  0.00     0.049 A 
ATOM     49  N   UNL A   1      39.031  32.082  33.077  1.00  0.00    -0.248 NA
ATOM     50  C   UNL A   1      37.248  33.589  33.094  1.00  0.00     0.031 C 
ATOM     51  C   UNL A   1      37.856  30.802  28.950  1.00  0.00     0.029 A 
ATOM     52  N   UNL A   1      39.287  30.459  30.633  1.00  0.00    -0.354 N 
ATOM     53  C   UNL A   1      39.047  32.805  34.263  1.00  0.00     0.074 A 
ATOM     54  C   UNL A   1      37.972  33.770  34.187  1.00  0.00     0.031 C 
ATOM     55  C   UNL A   1      38.708  29.838  28.564  1.00  0.00     0.029 A 
ATOM     56  C   UNL A   1      39.672  29.598  29.633  1.00  0.00     0.049 A 
ATOM     57  H   UNL A   1      39.753  30.524  31.496  1.00  0.00     0.167 HD
ATOM     58  C   UNL A   1      39.865  32.658  35.331  1.00  0.00     0.037 A 
ATOM     59  C   UNL A   1      40.692  28.719  29.586  1.00  0.00     0.037 A 
ATOM     60  C   UNL A   1      40.916  31.678  35.410  1.00  0.00     0.049 A 
ATOM     61  C   UNL A   1      41.596  28.584  30.784  1.00  0.00     0.074 A 
ATOM     62  C   UNL A   1      41.759  31.402  36.471  1.00  0.00     0.029 A 
ATOM     63  N   UNL A   1      41.271  30.818  34.381  1.00  0.00    -0.354 N 
ATOM     64  N   UNL A   1      41.551  29.216  31.932  1.00  0.00    -0.248 NA
ATOM     65  C   UNL A   1      42.690  27.609  30.679  1.00  0.00     0.031 C 
ATOM     66  C   UNL A   1      42.663  30.416  36.065  1.00  0.00     0.029 A 
ATOM     67  C   UNL A   1      42.341  30.030  34.773  1.00  0.00     0.049 A 
ATOM     68  H   UNL A   1      40.828  30.773  33.504  1.00  0.00     0.167 HD
ATOM     69  C   UNL A   1      42.584  28.692  32.697  1.00  0.00     0.074 A 
ATOM     70  C   UNL A   1      43.230  27.680  31.887  1.00  0.00     0.031 C 
ATOM     71  C   UNL A   1      42.965  29.020  33.957  1.00  0.00     0.037 A 
BRANCH  58  72
ATOM     72  C   UNL A   1      39.656  33.578  36.499  1.00  0.00     0.064 A 
ATOM     73  C   UNL A   1      40.266  34.841  36.565  1.00  0.00     0.173 A 
ATOM     74  C   UNL A   1      38.811  33.205  37.556  1.00  0.00     0.173 A 
ATOM     75  F   UNL A   1      41.094  35.244  35.589  1.00  0.00    -0.203 F 
ATOM     76  C   UNL A   1      40.064  35.680  37.658  1.00  0.00     0.198 A 
ATOM     77  C   UNL A   1      38.583  34.061  38.630  1.00  0.00     0.198 A 
ATOM     78  F   UNL A   1      38.199  32.011  37.543  1.00  0.00    -0.203 F 
ATOM     79  F   UNL A   1      40.701  36.857  37.723  1.00  0.00    -0.200 F 
ATOM     80  C   UNL A   1      39.217  35.293  38.685  1.00  0.00     0.200 A 
ATOM     81  F   UNL A   1      37.752  33.692  39.614  1.00  0.00    -0.200 F 
ATOM     82  F   UNL A   1      39.015  36.105  39.731  1.00  0.00    -0.200 F 
ENDBRANCH  58  72
BRANCH  59  83
ATOM     83  C   UNL A   1      40.899  27.878  28.377  1.00  0.00     0.064 A 
ATOM     84  C   UNL A   1      41.668  28.344  27.300  1.00  0.00     0.173 A 
ATOM     85  C   UNL A   1      40.324  26.604  28.263  1.00  0.00     0.173 A 
ATOM     86  F   UNL A   1      42.223  29.564  27.351  1.00  0.00    -0.203 F 
ATOM     87  C   UNL A   1      41.832  27.577  26.147  1.00  0.00     0.198 A 
ATOM     88  C   UNL A   1      40.515  25.826  27.123  1.00  0.00     0.198 A 
ATOM     89  F   UNL A   1      39.584  26.109  29.266  1.00  0.00    -0.203 F 
ATOM     90  F   UNL A   1      42.528  28.068  25.113  1.00  0.00    -0.200 F 
ATOM     91  C   UNL A   1      41.260  26.317  26.062  1.00  0.00     0.200 A 
ATOM     92  F   UNL A   1      39.975  24.601  27.052  1.00  0.00    -0.200 F 
ATOM     93  F   UNL A   1      41.420  25.580  24.955  1.00  0.00    -0.200 F 
ENDBRANCH  59  83
BRANCH  71  94
ATOM     94  C   UNL A   1      44.105  28.247  34.556  1.00  0.00     0.064 A 
ATOM     95  C   UNL A   1      43.904  27.031  35.226  1.00  0.00     0.173 A 
ATOM     96  C   UNL A   1      45.423  28.709  34.418  1.00  0.00     0.173 A 
ATOM     97  F   UNL A   1      42.662  26.552  35.397  1.00  0.00    -0.203 F 
ATOM     98  C   UNL A   1      44.976  26.322  35.760  1.00  0.00     0.198 A 
ATOM     99  C   UNL A   1      46.496  27.980  34.922  1.00  0.00     0.198 A 
ATOM    100  F   UNL A   1      45.672  29.861  33.778  1.00  0.00    -0.203 F 
ATOM    101  F   UNL A   1      44.755  25.190  36.443  1.00  0.00    -0.200 F 
ATOM    102  C   UNL A   1      46.271  26.793  35.600  1.00  0.00     0.200 A 
ATOM    103  F   UNL A   1      47.748  28.427  34.750  1.00  0.00    -0.200 F 
ATOM    104  F   UNL A   1      47.303  26.104  36.107  1.00  0.00    -0.200 F 
ENDBRANCH  71  94
ENDBRANCH  45  46
ENDBRANCH  37  40
ENDBRANCH  35  36
ENDBRANCH  34  35
ENDBRANCH  33  34
ENDBRANCH   1  33
TORSDOF 16
ENDMDL
MODEL 2
REMARK VINA RESULT:     -13.4      0.688      6.966
REMARK SMILES O=C(CCC(=O)/[NH+]=C1\S[C@H]2CS(=O)(=O)C[C@@H]2N1c1ccc2c(c1)OCO2)NCCCCCCNC(=O)c1ccc(-c2c3nc(c(-c4c(F)c(F)c(F)c(F)c4F)c4ccc([nH]4)c(-c4c(F)c(F)c(F)c(F)c4F)c4nc(c(-c5c(F)c(F)c(F)c(F)c5F)c5ccc2[nH]5)C=C4)C=C3)cc1
REMARK SMILES IDX 30 1 29 2 28 3 27 4 2 5 1 6 3 8 4 9 5 10 6 11 7 12 8 13 9 15
REMARK SMILES IDX 17 16 10 17 16 18 11 19 15 20 12 21 13 22 14 23 18 24 19 25
REMARK SMILES IDX 23 26 20 27 22 28 21 29 24 30 26 31 25 32 31 33 32 34 33 35
REMARK SMILES IDX 34 36 35 37 36 39 37 40 38 41 99 42 39 43 98 44 40 45 41 46
REMARK SMILES IDX 42 47 92 48 43 49 97 50 91 51 93 52 44 53 96 54 90 55 89 56
REMARK SMILES IDX 45 58 77 59 57 60 76 61 58 62 61 63 75 64 94 65 59 66 60 67
REMARK SMILES IDX 74 69 95 70 62 71 46 72 47 73 55 74 48 75 49 76 53 77 56 78
REMARK SMILES IDX 50 79 51 80 54 81 52 82 78 83 79 84 87 85 80 86 81 87 85 88
REMARK SMILES IDX 88 89 82 90 83 91 86 92 84 93 63 94 64 95 72 96 65 97 66 98
REMARK SMILES IDX 70 99 73 100 67 101 68 102 71 103 69 104
REMARK H PARENT 27 7 7 14 34 38 93 57 61 68
REMARK Flexibility Score: inf
ROOT
ATOM      1  C   UNL A   1      31.768  29.240  27.237  1.00  0.00     0.002 C 
ENDROOT
BRANCH   1   2
ATOM      2  C   UNL A   1      32.124  27.852  26.699  1.00  0.00     0.021 C 
BRANCH   2   3
ATOM      3  C   UNL A   1      31.452  27.509  25.368  1.00  0.00     0.116 C 
BRANCH   3   4
ATOM      4  N   UNL A   1      32.402  27.252  24.298  1.00  0.00    -0.356 N 
ATOM      5  C   UNL A   1      32.532  26.191  23.463  1.00  0.00     0.220 C 
ATOM      6  O   UNL A   1      33.482  26.166  22.677  1.00  0.00    -0.275 OA
ATOM      7  H   UNL A   1      33.060  27.970  24.153  1.00  0.00     0.163 HD
BRANCH   5   8
ATOM      8  C   UNL A   1      31.512  25.085  23.484  1.00  0.00     0.112 C 
BRANCH   8   9
ATOM      9  C   UNL A   1      31.736  23.902  24.412  1.00  0.00     0.138 C 
BRANCH   9  10
ATOM     10  C   UNL A   1      32.900  23.810  25.397  1.00  0.00     0.308 C 
ATOM     11  O   UNL A   1      32.902  24.568  26.367  1.00  0.00    -0.247 OA
ATOM     12  N   UNL A   1      33.942  22.950  25.186  1.00  0.00    -0.204 N 
ATOM     13  C   UNL A   1      33.815  21.668  25.200  1.00  0.00     0.319 C 
ATOM     14  H   UNL A   1      34.834  23.330  25.015  1.00  0.00     0.316 HD
ATOM     15  S   UNL A   1      32.264  20.804  25.409  1.00  0.00    -0.029 SA
ATOM     16  N   UNL A   1      34.832  20.742  24.958  1.00  0.00    -0.216 N 
ATOM     17  C   UNL A   1      33.088  19.209  25.239  1.00  0.00     0.120 C 
ATOM     18  C   UNL A   1      34.317  19.512  24.375  1.00  0.00     0.212 C 
ATOM     19  C   UNL A   1      32.412  18.056  24.548  1.00  0.00     0.156 C 
ATOM     20  C   UNL A   1      35.115  18.229  24.405  1.00  0.00     0.188 C 
ATOM     21  S   UNL A   1      33.825  16.984  24.235  1.00  0.00     0.155 S 
ATOM     22  O   UNL A   1      33.947  16.057  25.338  1.00  0.00    -0.229 OA
ATOM     23  O   UNL A   1      33.780  16.548  22.855  1.00  0.00    -0.229 OA
BRANCH  16  24
ATOM     24  C   UNL A   1      36.190  20.942  25.215  1.00  0.00     0.132 A 
ATOM     25  C   UNL A   1      36.706  22.217  25.559  1.00  0.00     0.056 A 
ATOM     26  C   UNL A   1      37.086  19.860  25.141  1.00  0.00     0.102 A 
ATOM     27  C   UNL A   1      38.063  22.411  25.844  1.00  0.00     0.055 A 
ATOM     28  C   UNL A   1      38.420  20.077  25.422  1.00  0.00     0.170 A 
ATOM     29  C   UNL A   1      38.892  21.316  25.776  1.00  0.00     0.166 A 
ATOM     30  O   UNL A   1      39.402  19.134  25.413  1.00  0.00    -0.453 OA
ATOM     31  O   UNL A   1      40.219  21.303  26.065  1.00  0.00    -0.454 OA
ATOM     32  C   UNL A   1      40.510  19.895  25.942  1.00  0.00     0.468 C 
ENDBRANCH  16  24
ENDBRANCH   9  10
ENDBRANCH   8   9
ENDBRANCH   5   8
ENDBRANCH   3   4
ENDBRANCH   2   3
ENDBRANCH   1   2
BRANCH   1  33
ATOM     33  C   UNL A   1      32.118  30.405  26.315  1.00  0.00     0.002 C 
BRANCH  33  34
ATOM     34  C   UNL A   1      31.700  31.767  26.855  1.00  0.00     0.021 C 
BRANCH  34  35
ATOM     35  C   UNL A   1      32.850  32.586  27.426  1.00  0.00     0.116 C 
BRANCH  35  36
ATOM     36  N   UNL A   1      32.494  33.985  27.614  1.00  0.00    -0.352 N 
ATOM     37  C   UNL A   1      32.983  34.853  28.561  1.00  0.00     0.251 C 
ATOM     38  H   UNL A   1      31.825  34.352  26.991  1.00  0.00     0.163 HD
ATOM     39  O   UNL A   1      32.485  35.955  28.746  1.00  0.00    -0.269 OA
BRANCH  37  40
ATOM     40  C   UNL A   1      34.133  34.409  29.372  1.00  0.00     0.039 A 
ATOM     41  C   UNL A   1      33.911  33.792  30.602  1.00  0.00     0.014 A 
ATOM     42  C   UNL A   1      35.425  34.524  28.848  1.00  0.00     0.014 A 
ATOM     43  C   UNL A   1      34.990  33.229  31.286  1.00  0.00     0.010 A 
ATOM     44  C   UNL A   1      36.479  33.884  29.486  1.00  0.00     0.010 A 
ATOM     45  C   UNL A   1      36.275  33.241  30.716  1.00  0.00    -0.014 A 
BRANCH  45  46
ATOM     46  C   UNL A   1      37.426  32.600  31.401  1.00  0.00     0.031 A 
ATOM     47  C   UNL A   1      38.136  31.449  30.745  1.00  0.00     0.074 A 
ATOM     48  C   UNL A   1      37.792  33.012  32.631  1.00  0.00     0.049 A 
ATOM     49  N   UNL A   1      39.126  30.720  31.194  1.00  0.00    -0.248 NA
ATOM     50  C   UNL A   1      37.646  31.039  29.417  1.00  0.00     0.031 C 
ATOM     51  C   UNL A   1      37.148  34.082  33.392  1.00  0.00     0.029 A 
ATOM     52  N   UNL A   1      38.795  32.572  33.460  1.00  0.00    -0.354 N 
ATOM     53  C   UNL A   1      39.364  29.764  30.215  1.00  0.00     0.074 A 
ATOM     54  C   UNL A   1      38.375  29.961  29.178  1.00  0.00     0.031 C 
ATOM     55  C   UNL A   1      37.791  34.239  34.561  1.00  0.00     0.029 A 
ATOM     56  C   UNL A   1      38.865  33.254  34.650  1.00  0.00     0.049 A 
ATOM     57  H   UNL A   1      39.406  31.838  33.223  1.00  0.00     0.167 HD
ATOM     58  C   UNL A   1      40.338  28.824  30.170  1.00  0.00     0.037 A 
ATOM     59  C   UNL A   1      39.700  33.097  35.696  1.00  0.00     0.037 A 
ATOM     60  C   UNL A   1      41.335  28.650  31.193  1.00  0.00     0.049 A 
ATOM     61  C   UNL A   1      40.767  32.036  35.626  1.00  0.00     0.074 A 
ATOM     62  C   UNL A   1      42.404  27.773  31.215  1.00  0.00     0.029 A 
ATOM     63  N   UNL A   1      41.379  29.366  32.381  1.00  0.00    -0.354 N 
ATOM     64  N   UNL A   1      41.034  31.192  34.659  1.00  0.00    -0.248 NA
ATOM     65  C   UNL A   1      41.651  31.911  36.793  1.00  0.00     0.031 C 
ATOM     66  C   UNL A   1      43.060  27.916  32.441  1.00  0.00     0.029 A 
ATOM     67  C   UNL A   1      42.441  28.928  33.156  1.00  0.00     0.049 A 
ATOM     68  H   UNL A   1      40.750  30.079  32.635  1.00  0.00     0.167 HD
ATOM     69  C   UNL A   1      42.136  30.461  35.084  1.00  0.00     0.074 A 
ATOM     70  C   UNL A   1      42.495  30.971  36.391  1.00  0.00     0.031 C 
ATOM     71  C   UNL A   1      42.790  29.456  34.450  1.00  0.00     0.037 A 
BRANCH  58  72
ATOM     72  C   UNL A   1      40.372  27.913  28.977  1.00  0.00     0.064 A 
ATOM     73  C   UNL A   1      41.120  28.223  27.830  1.00  0.00     0.173 A 
ATOM     74  C   UNL A   1      39.670  26.698  28.990  1.00  0.00     0.173 A 
ATOM     75  F   UNL A   1      41.799  29.378  27.758  1.00  0.00    -0.203 F 
ATOM     76  C   UNL A   1      41.137  27.369  26.731  1.00  0.00     0.198 A 
ATOM     77  C   UNL A   1      39.718  25.829  27.904  1.00  0.00     0.198 A 
ATOM     78  F   UNL A   1      38.943  26.349  30.062  1.00  0.00    -0.203 F 
ATOM     79  F   UNL A   1      41.813  27.714  25.627  1.00  0.00    -0.200 F 
ATOM     80  C   UNL A   1      40.444  26.169  26.772  1.00  0.00     0.200 A 
ATOM     81  F   UNL A   1      39.061  24.663  27.952  1.00  0.00    -0.200 F 
ATOM     82  F   UNL A   1      40.469  25.342  25.718  1.00  0.00    -0.200 F 
ENDBRANCH  58  72
BRANCH  59  83
ATOM     83  C   UNL A   1      39.581  33.982  36.886  1.00  0.00     0.064 A 
ATOM     84  C   UNL A   1      38.831  33.587  38.004  1.00  0.00     0.173 A 
ATOM     85  C   UNL A   1      40.199  35.240  36.929  1.00  0.00     0.173 A 
ATOM     86  F   UNL A   1      38.204  32.401  38.005  1.00  0.00    -0.203 F 
ATOM     87  C   UNL A   1      38.682  34.428  39.105  1.00  0.00     0.198 A 
ATOM     88  C   UNL A   1      40.075  36.067  38.044  1.00  0.00     0.198 A 
ATOM     89  F   UNL A   1      40.932  35.664  35.889  1.00  0.00    -0.203 F 
ATOM     90  F   UNL A   1      37.917  34.046  40.138  1.00  0.00    -0.200 F 
ATOM     91  C   UNL A   1      39.309  35.664  39.127  1.00  0.00     0.200 A 
ATOM     92  F   UNL A   1      40.697  37.254  38.068  1.00  0.00    -0.200 F 
ATOM     93  F   UNL A   1      39.168  36.471  40.187  1.00  0.00    -0.200 F 
ENDBRANCH  59  83
BRANCH  71  94
ATOM     94  C   UNL A   1      43.990  28.871  35.140  1.00  0.00     0.064 A 
ATOM     95  C   UNL A   1      43.881  27.782  36.018  1.00  0.00     0.173 A 
ATOM     96  C   UNL A   1      45.272  29.381  34.883  1.00  0.00     0.173 A 
ATOM     97  F   UNL A   1      42.677  27.267  36.309  1.00  0.00    -0.203 F 
ATOM     98  C   UNL A   1      45.008  27.246  36.635  1.00  0.00     0.198 A 
ATOM     99  C   UNL A   1      46.399  28.819  35.473  1.00  0.00     0.198 A 
ATOM    100  F   UNL A   1      45.433  30.415  34.044  1.00  0.00    -0.203 F 
ATOM    101  F   UNL A   1      44.874  26.241  37.512  1.00  0.00    -0.200 F 
ATOM    102  C   UNL A   1      46.266  27.758  36.356  1.00  0.00     0.200 A 
ATOM    103  F   UNL A   1      47.616  29.304  35.187  1.00  0.00    -0.200 F 
ATOM    104  F   UNL A   1      47.350  27.234  36.943  1.00  0.00    -0.200 F 
ENDBRANCH  71  94
ENDBRANCH  45  46
ENDBRANCH  37  40
ENDBRANCH  35  36
ENDBRANCH  34  35
ENDBRANCH  33  34
ENDBRANCH   1  33
TORSDOF 16
ENDMDL
MODEL 3
REMARK VINA RESULT:     -12.6      0.604      2.028
REMARK SMILES O=C(CCC(=O)/[NH+]=C1\S[C@H]2CS(=O)(=O)C[C@@H]2N1c1ccc2c(c1)OCO2)NCCCCCCNC(=O)c1ccc(-c2c3nc(c(-c4c(F)c(F)c(F)c(F)c4F)c4ccc([nH]4)c(-c4c(F)c(F)c(F)c(F)c4F)c4nc(c(-c5c(F)c(F)c(F)c(F)c5F)c5ccc2[nH]5)C=C4)C=C3)cc1
REMARK SMILES IDX 30 1 29 2 28 3 27 4 2 5 1 6 3 8 4 9 5 10 6 11 7 12 8 13 9 15
REMARK SMILES IDX 17 16 10 17 16 18 11 19 15 20 12 21 13 22 14 23 18 24 19 25
REMARK SMILES IDX 23 26 20 27 22 28 21 29 24 30 26 31 25 32 31 33 32 34 33 35
REMARK SMILES IDX 34 36 35 37 36 39 37 40 38 41 99 42 39 43 98 44 40 45 41 46
REMARK SMILES IDX 42 47 92 48 43 49 97 50 91 51 93 52 44 53 96 54 90 55 89 56
REMARK SMILES IDX 45 58 77 59 57 60 76 61 58 62 61 63 75 64 94 65 59 66 60 67
REMARK SMILES IDX 74 69 95 70 62 71 46 72 47 73 55 74 48 75 49 76 53 77 56 78
REMARK SMILES IDX 50 79 51 80 54 81 52 82 78 83 79 84 87 85 80 86 81 87 85 88
REMARK SMILES IDX 88 89 82 90 83 91 86 92 84 93 63 94 64 95 72 96 65 97 66 98
REMARK SMILES IDX 70 99 73 100 67 101 68 102 71 103 69 104
REMARK H PARENT 27 7 7 14 34 38 93 57 61 68
REMARK Flexibility Score: inf
ROOT
ATOM      1  C   UNL A   1      31.873  29.414  27.070  1.00  0.00     0.002 C 
ENDROOT
BRANCH   1   2
ATOM      2  C   UNL A   1      32.413  28.125  26.446  1.00  0.00     0.021 C 
BRANCH   2   3
ATOM      3  C   UNL A   1      31.670  27.686  25.183  1.00  0.00     0.116 C 
BRANCH   3   4
ATOM      4  N   UNL A   1      32.501  27.714  23.991  1.00  0.00    -0.356 N 
ATOM      5  C   UNL A   1      32.784  26.745  23.084  1.00  0.00     0.220 C 
ATOM      6  O   UNL A   1      33.595  26.989  22.188  1.00  0.00    -0.275 OA
ATOM      7  H   UNL A   1      32.930  28.581  23.811  1.00  0.00     0.163 HD
BRANCH   5   8
ATOM      8  C   UNL A   1      32.091  25.413  23.163  1.00  0.00     0.112 C 
BRANCH   8   9
ATOM      9  C   UNL A   1      32.932  24.162  23.367  1.00  0.00     0.138 C 
BRANCH   9  10
ATOM     10  C   UNL A   1      33.990  24.025  24.460  1.00  0.00     0.308 C 
ATOM     11  O   UNL A   1      34.101  24.938  25.279  1.00  0.00    -0.247 OA
ATOM     12  N   UNL A   1      34.831  22.948  24.504  1.00  0.00    -0.204 N 
ATOM     13  C   UNL A   1      34.428  21.745  24.728  1.00  0.00     0.319 C 
ATOM     14  H   UNL A   1      35.792  23.100  24.356  1.00  0.00     0.316 HD
ATOM     15  S   UNL A   1      32.716  21.269  24.932  1.00  0.00    -0.029 SA
ATOM     16  N   UNL A   1      35.231  20.603  24.750  1.00  0.00    -0.216 N 
ATOM     17  C   UNL A   1      33.183  19.538  25.123  1.00  0.00     0.120 C 
ATOM     18  C   UNL A   1      34.496  19.415  24.342  1.00  0.00     0.212 C 
ATOM     19  C   UNL A   1      32.314  18.436  24.580  1.00  0.00     0.156 C 
ATOM     20  C   UNL A   1      34.993  18.027  24.672  1.00  0.00     0.188 C 
ATOM     21  S   UNL A   1      33.476  17.060  24.596  1.00  0.00     0.155 S 
ATOM     22  O   UNL A   1      33.330  16.354  25.850  1.00  0.00    -0.229 OA
ATOM     23  O   UNL A   1      33.417  16.388  23.315  1.00  0.00    -0.229 OA
BRANCH  16  24
ATOM     24  C   UNL A   1      36.584  20.569  25.098  1.00  0.00     0.132 A 
ATOM     25  C   UNL A   1      37.385  19.422  24.869  1.00  0.00     0.056 A 
ATOM     26  C   UNL A   1      37.187  21.695  25.687  1.00  0.00     0.102 A 
ATOM     27  C   UNL A   1      38.748  19.398  25.192  1.00  0.00     0.055 A 
ATOM     28  C   UNL A   1      38.530  21.646  26.001  1.00  0.00     0.170 A 
ATOM     29  C   UNL A   1      39.291  20.533  25.749  1.00  0.00     0.166 A 
ATOM     30  O   UNL A   1      39.258  22.654  26.554  1.00  0.00    -0.453 OA
ATOM     31  O   UNL A   1      40.597  20.710  26.079  1.00  0.00    -0.454 OA
ATOM     32  C   UNL A   1      40.588  22.096  26.483  1.00  0.00     0.468 C 
ENDBRANCH  16  24
ENDBRANCH   9  10
ENDBRANCH   8   9
ENDBRANCH   5   8
ENDBRANCH   3   4
ENDBRANCH   2   3
ENDBRANCH   1   2
BRANCH   1  33
ATOM     33  C   UNL A   1      31.898  30.640  26.162  1.00  0.00     0.002 C 
BRANCH  33  34
ATOM     34  C   UNL A   1      31.567  31.945  26.875  1.00  0.00     0.021 C 
BRANCH  34  35
ATOM     35  C   UNL A   1      32.789  32.741  27.309  1.00  0.00     0.116 C 
BRANCH  35  36
ATOM     36  N   UNL A   1      32.468  34.128  27.614  1.00  0.00    -0.352 N 
ATOM     37  C   UNL A   1      32.997  34.909  28.614  1.00  0.00     0.251 C 
ATOM     38  H   UNL A   1      31.792  34.555  27.040  1.00  0.00     0.163 HD
ATOM     39  O   UNL A   1      32.527  36.002  28.897  1.00  0.00    -0.269 OA
BRANCH  37  40
ATOM     40  C   UNL A   1      34.156  34.381  29.358  1.00  0.00     0.039 A 
ATOM     41  C   UNL A   1      33.947  33.574  30.475  1.00  0.00     0.014 A 
ATOM     42  C   UNL A   1      35.447  34.616  28.872  1.00  0.00     0.014 A 
ATOM     43  C   UNL A   1      35.040  32.946  31.075  1.00  0.00     0.010 A 
ATOM     44  C   UNL A   1      36.518  33.918  29.415  1.00  0.00     0.010 A 
ATOM     45  C   UNL A   1      36.327  33.085  30.528  1.00  0.00    -0.014 A 
BRANCH  45  46
ATOM     46  C   UNL A   1      37.495  32.382  31.117  1.00  0.00     0.031 A 
ATOM     47  C   UNL A   1      37.957  32.738  32.503  1.00  0.00     0.074 A 
ATOM     48  C   UNL A   1      38.169  31.471  30.389  1.00  0.00     0.049 A 
ATOM     49  N   UNL A   1      38.981  32.282  33.178  1.00  0.00    -0.248 NA
ATOM     50  C   UNL A   1      37.184  33.771  33.213  1.00  0.00     0.031 C 
ATOM     51  C   UNL A   1      37.850  31.079  29.016  1.00  0.00     0.029 A 
ATOM     52  N   UNL A   1      39.271  30.714  30.702  1.00  0.00    -0.354 N 
ATOM     53  C   UNL A   1      38.982  32.980  34.379  1.00  0.00     0.074 A 
ATOM     54  C   UNL A   1      37.898  33.936  34.316  1.00  0.00     0.031 C 
ATOM     55  C   UNL A   1      38.714  30.131  28.616  1.00  0.00     0.029 A 
ATOM     56  C   UNL A   1      39.672  29.879  29.688  1.00  0.00     0.049 A 
ATOM     57  H   UNL A   1      39.731  30.765  31.571  1.00  0.00     0.167 HD
ATOM     58  C   UNL A   1      39.793  32.818  35.450  1.00  0.00     0.037 A 
ATOM     59  C   UNL A   1      40.701  29.011  29.630  1.00  0.00     0.037 A 
ATOM     60  C   UNL A   1      40.853  31.847  35.517  1.00  0.00     0.049 A 
ATOM     61  C   UNL A   1      41.598  28.859  30.831  1.00  0.00     0.074 A 
ATOM     62  C   UNL A   1      41.691  31.557  36.578  1.00  0.00     0.029 A 
ATOM     63  N   UNL A   1      41.224  31.012  34.472  1.00  0.00    -0.354 N 
ATOM     64  N   UNL A   1      41.538  29.466  31.992  1.00  0.00    -0.248 NA
ATOM     65  C   UNL A   1      42.702  27.897  30.714  1.00  0.00     0.031 C 
ATOM     66  C   UNL A   1      42.608  30.588  36.157  1.00  0.00     0.029 A 
ATOM     67  C   UNL A   1      42.300  30.227  34.856  1.00  0.00     0.049 A 
ATOM     68  H   UNL A   1      40.788  30.982  33.591  1.00  0.00     0.167 HD
ATOM     69  C   UNL A   1      42.571  28.936  32.754  1.00  0.00     0.074 A 
ATOM     70  C   UNL A   1      43.233  27.947  31.928  1.00  0.00     0.031 C 
ATOM     71  C   UNL A   1      42.939  29.240  34.023  1.00  0.00     0.037 A 
BRANCH  58  72
ATOM     72  C   UNL A   1      39.567  33.711  36.636  1.00  0.00     0.064 A 
ATOM     73  C   UNL A   1      38.759  33.317  37.716  1.00  0.00     0.173 A 
ATOM     74  C   UNL A   1      40.189  34.967  36.710  1.00  0.00     0.173 A 
ATOM     75  F   UNL A   1      38.130  32.132  37.692  1.00  0.00    -0.203 F 
ATOM     76  C   UNL A   1      38.557  34.160  38.806  1.00  0.00     0.198 A 
ATOM     77  C   UNL A   1      40.013  35.791  37.817  1.00  0.00     0.198 A 
ATOM     78  F   UNL A   1      40.975  35.392  35.709  1.00  0.00    -0.203 F 
ATOM     79  F   UNL A   1      37.737  33.784  39.797  1.00  0.00    -0.200 F 
ATOM     80  C   UNL A   1      39.191  35.392  38.860  1.00  0.00     0.200 A 
ATOM     81  F   UNL A   1      40.638  36.975  37.875  1.00  0.00    -0.200 F 
ATOM     82  F   UNL A   1      39.003  36.197  39.914  1.00  0.00    -0.200 F 
ENDBRANCH  58  72
BRANCH  59  83
ATOM     83  C   UNL A   1      40.925  28.197  28.405  1.00  0.00     0.064 A 
ATOM     84  C   UNL A   1      40.142  27.063  28.141  1.00  0.00     0.173 A 
ATOM     85  C   UNL A   1      41.931  28.522  27.482  1.00  0.00     0.173 A 
ATOM     86  F   UNL A   1      39.180  26.699  29.002  1.00  0.00    -0.203 F 
ATOM     87  C   UNL A   1      40.373  26.274  27.016  1.00  0.00     0.198 A 
ATOM     88  C   UNL A   1      42.140  27.749  26.342  1.00  0.00     0.198 A 
ATOM     89  F   UNL A   1      42.704  29.598  27.684  1.00  0.00    -0.203 F 
ATOM     90  F   UNL A   1      39.644  25.167  26.816  1.00  0.00    -0.200 F 
ATOM     91  C   UNL A   1      41.368  26.620  26.115  1.00  0.00     0.200 A 
ATOM     92  F   UNL A   1      43.091  28.098  25.464  1.00  0.00    -0.200 F 
ATOM     93  F   UNL A   1      41.588  25.862  25.032  1.00  0.00    -0.200 F 
ENDBRANCH  59  83
BRANCH  71  94
ATOM     94  C   UNL A   1      44.082  28.466  34.614  1.00  0.00     0.064 A 
ATOM     95  C   UNL A   1      45.404  28.934  34.552  1.00  0.00     0.173 A 
ATOM     96  C   UNL A   1      43.845  27.260  35.292  1.00  0.00     0.173 A 
ATOM     97  F   UNL A   1      45.686  30.075  33.904  1.00  0.00    -0.203 F 
ATOM     98  C   UNL A   1      46.447  28.208  35.120  1.00  0.00     0.198 A 
ATOM     99  C   UNL A   1      44.886  26.556  35.889  1.00  0.00     0.198 A 
ATOM    100  F   UNL A   1      42.599  26.772  35.388  1.00  0.00    -0.203 F 
ATOM    101  F   UNL A   1      47.708  28.647  35.002  1.00  0.00    -0.200 F 
ATOM    102  C   UNL A   1      46.186  27.025  35.795  1.00  0.00     0.200 A 
ATOM    103  F   UNL A   1      44.629  25.422  36.556  1.00  0.00    -0.200 F 
ATOM    104  F   UNL A   1      47.191  26.333  36.349  1.00  0.00    -0.200 F 
ENDBRANCH  71  94
ENDBRANCH  45  46
ENDBRANCH  37  40
ENDBRANCH  35  36
ENDBRANCH  34  35
ENDBRANCH  33  34
ENDBRANCH   1  33
TORSDOF 16
ENDMDL
