MODEL 1
REMARK VINA RESULT:     -12.1      0.000      0.000
REMARK SMILES CC1=C(C)C[C@@H](C(=O)N[C@@H](C)CCc2ccccc2)[C@H](C(=O)NCCCCCCNC(=O)c2ccc(-c3c4nc(c(-c5c(F)c(F)c(F)c(F)c5F)c5ccc([nH]5)c(-c5c(F)c(F)c(F)c(F)c5F)c5nc(c(-c6c(F)c(F)c(F)c(F)c6F)c6ccc3[nH]6)C=C5)C=C4)cc2)C1
REMARK SMILES IDX 25 1 24 2 23 3 21 4 22 5 20 7 1 8 2 9 3 10 96 11 4 12 5 13
REMARK SMILES IDX 6 14 7 15 8 16 9 17 10 19 11 20 12 21 13 22 14 23 15 24
REMARK SMILES IDX 19 25 16 26 18 27 17 28 26 29 27 30 28 31 29 32 30 33 31 34
REMARK SMILES IDX 32 36 33 37 34 38 95 39 35 40 94 41 36 42 37 43 38 44 88 45
REMARK SMILES IDX 39 46 93 47 87 48 89 49 40 50 92 51 86 52 85 53 41 55 73 56
REMARK SMILES IDX 53 57 72 58 54 59 57 60 71 61 90 62 55 63 56 64 70 66 91 67
REMARK SMILES IDX 58 68 42 69 43 70 51 71 44 72 45 73 49 74 52 75 46 76 47 77
REMARK SMILES IDX 50 78 48 79 74 80 75 81 83 82 76 83 77 84 81 85 84 86 78 87
REMARK SMILES IDX 79 88 82 89 80 90 59 91 60 92 68 93 61 94 62 95 66 96 69 97
REMARK SMILES IDX 63 98 64 99 67 100 65 101
REMARK H PARENT 23 6 9 18 30 35 89 54 57 65
REMARK Flexibility Score: inf
ROOT
ATOM      1  C   UNL A   1      33.715  27.287  24.591  1.00  0.00     0.021 C 
ENDROOT
BRANCH   1   2
ATOM      2  C   UNL A   1      33.592  25.787  24.785  1.00  0.00     0.116 C 
BRANCH   2   3
ATOM      3  N   UNL A   1      34.241  25.048  23.734  1.00  0.00    -0.356 N 
ATOM      4  C   UNL A   1      35.054  23.963  23.827  1.00  0.00     0.224 C 
ATOM      5  O   UNL A   1      35.486  23.486  22.774  1.00  0.00    -0.275 OA
ATOM      6  H   UNL A   1      34.070  25.373  22.820  1.00  0.00     0.163 HD
BRANCH   4   7
ATOM      7  C   UNL A   1      35.416  23.331  25.175  1.00  0.00     0.095 C 
ATOM      8  C   UNL A   1      38.726  24.560  26.700  1.00  0.00     0.039 C 
ATOM      9  C   UNL A   1      37.997  23.313  26.067  1.00  0.00    -0.074 C 
ATOM     10  C   UNL A   1      38.425  21.913  25.810  1.00  0.00    -0.074 C 
ATOM     11  C   UNL A   1      36.613  23.985  25.807  1.00  0.00     0.045 C 
ATOM     12  C   UNL A   1      40.210  20.735  26.162  1.00  0.00     0.039 C 
ATOM     13  C   UNL A   1      36.914  21.239  25.133  1.00  0.00     0.045 C 
ATOM     14  C   UNL A   1      35.508  21.844  25.152  1.00  0.00     0.095 C 
BRANCH  14  15
ATOM     15  C   UNL A   1      34.593  21.150  26.181  1.00  0.00     0.224 C 
ATOM     16  O   UNL A   1      34.659  21.469  27.373  1.00  0.00    -0.275 OA
ATOM     17  N   UNL A   1      33.665  20.209  25.848  1.00  0.00    -0.353 N 
ATOM     18  H   UNL A   1      33.071  19.939  26.585  1.00  0.00     0.163 HD
BRANCH  17  19
ATOM     19  C   UNL A   1      33.407  19.542  24.583  1.00  0.00     0.079 C 
ATOM     20  C   UNL A   1      33.177  18.050  24.820  1.00  0.00     0.031 C 
BRANCH  19  21
ATOM     21  C   UNL A   1      32.253  20.166  23.775  1.00  0.00     0.029 C 
BRANCH  21  22
ATOM     22  C   UNL A   1      32.487  21.606  23.291  1.00  0.00     0.037 C 
BRANCH  22  23
ATOM     23  C   UNL A   1      31.593  22.634  23.933  1.00  0.00    -0.048 A 
ATOM     24  C   UNL A   1      31.363  22.568  25.749  1.00  0.00     0.004 A 
ATOM     25  C   UNL A   1      30.855  23.997  22.990  1.00  0.00     0.004 A 
ATOM     26  C   UNL A   1      30.621  23.973  26.618  1.00  0.00     0.000 A 
ATOM     27  C   UNL A   1      29.976  25.350  23.885  1.00  0.00     0.000 A 
ATOM     28  C   UNL A   1      29.942  25.364  25.689  1.00  0.00     0.000 A 
ENDBRANCH  22  23
ENDBRANCH  21  22
ENDBRANCH  19  21
ENDBRANCH  17  19
ENDBRANCH  14  15
ENDBRANCH   4   7
ENDBRANCH   2   3
ENDBRANCH   1   2
BRANCH   1  29
ATOM     29  C   UNL A   1      32.361  27.974  24.458  1.00  0.00     0.002 C 
BRANCH  29  30
ATOM     30  C   UNL A   1      31.787  28.479  25.788  1.00  0.00     0.002 C 
BRANCH  30  31
ATOM     31  C   UNL A   1      31.790  30.003  25.952  1.00  0.00     0.021 C 
BRANCH  31  32
ATOM     32  C   UNL A   1      32.857  30.525  26.906  1.00  0.00     0.116 C 
BRANCH  32  33
ATOM     33  N   UNL A   1      32.884  31.976  26.910  1.00  0.00    -0.352 N 
ATOM     34  C   UNL A   1      33.645  32.833  27.656  1.00  0.00     0.251 C 
ATOM     35  H   UNL A   1      32.262  32.409  26.281  1.00  0.00     0.163 HD
ATOM     36  O   UNL A   1      33.322  34.013  27.753  1.00  0.00    -0.269 OA
BRANCH  34  37
ATOM     37  C   UNL A   1      34.855  32.339  28.342  1.00  0.00     0.039 A 
ATOM     38  C   UNL A   1      34.764  31.163  29.085  1.00  0.00     0.014 A 
ATOM     39  C   UNL A   1      36.057  33.053  28.299  1.00  0.00     0.014 A 
ATOM     40  C   UNL A   1      35.885  30.690  29.764  1.00  0.00     0.010 A 
ATOM     41  C   UNL A   1      37.199  32.530  28.897  1.00  0.00     0.010 A 
ATOM     42  C   UNL A   1      37.120  31.354  29.655  1.00  0.00    -0.014 A 
BRANCH  42  43
ATOM     43  C   UNL A   1      38.320  30.813  30.341  1.00  0.00     0.031 A 
ATOM     44  C   UNL A   1      38.629  31.194  31.763  1.00  0.00     0.074 A 
ATOM     45  C   UNL A   1      39.132  29.969  29.675  1.00  0.00     0.049 A 
ATOM     46  N   UNL A   1      39.610  30.792  32.531  1.00  0.00    -0.248 NA
ATOM     47  C   UNL A   1      37.733  32.171  32.403  1.00  0.00     0.031 C 
ATOM     48  C   UNL A   1      38.965  29.568  28.277  1.00  0.00     0.029 A 
ATOM     49  N   UNL A   1      40.251  29.290  30.084  1.00  0.00    -0.354 N 
ATOM     50  C   UNL A   1      39.441  31.452  33.741  1.00  0.00     0.074 A 
ATOM     51  C   UNL A   1      38.313  32.343  33.582  1.00  0.00     0.031 C 
ATOM     52  C   UNL A   1      39.919  28.679  27.957  1.00  0.00     0.029 A 
ATOM     53  C   UNL A   1      40.793  28.488  29.110  1.00  0.00     0.049 A 
ATOM     54  H   UNL A   1      40.630  29.370  30.989  1.00  0.00     0.167 HD
ATOM     55  C   UNL A   1      40.136  31.299  34.893  1.00  0.00     0.037 A 
ATOM     56  C   UNL A   1      41.878  27.692  29.140  1.00  0.00     0.037 A 
ATOM     57  C   UNL A   1      41.264  30.416  35.046  1.00  0.00     0.049 A 
ATOM     58  C   UNL A   1      42.662  27.580  30.422  1.00  0.00     0.074 A 
ATOM     59  C   UNL A   1      42.028  30.178  36.174  1.00  0.00     0.029 A 
ATOM     60  N   UNL A   1      41.795  29.630  34.033  1.00  0.00    -0.354 N 
ATOM     61  N   UNL A   1      42.448  28.157  31.580  1.00  0.00    -0.248 NA
ATOM     62  C   UNL A   1      43.831  26.692  30.403  1.00  0.00     0.031 C 
ATOM     63  C   UNL A   1      43.058  29.298  35.829  1.00  0.00     0.029 A 
ATOM     64  C   UNL A   1      42.891  28.924  34.506  1.00  0.00     0.049 A 
ATOM     65  H   UNL A   1      41.445  29.580  33.114  1.00  0.00     0.167 HD
ATOM     66  C   UNL A   1      43.433  27.677  32.433  1.00  0.00     0.074 A 
ATOM     67  C   UNL A   1      44.224  26.737  31.666  1.00  0.00     0.031 C 
ATOM     68  C   UNL A   1      43.667  27.987  33.733  1.00  0.00     0.037 A 
BRANCH  55  69
ATOM     69  C   UNL A   1      39.693  32.101  36.086  1.00  0.00     0.064 A 
ATOM     70  C   UNL A   1      40.320  33.309  36.433  1.00  0.00     0.173 A 
ATOM     71  C   UNL A   1      38.603  31.686  36.866  1.00  0.00     0.173 A 
ATOM     72  F   UNL A   1      41.374  33.749  35.728  1.00  0.00    -0.203 F 
ATOM     73  C   UNL A   1      39.892  34.053  37.529  1.00  0.00     0.198 A 
ATOM     74  C   UNL A   1      38.154  32.453  37.939  1.00  0.00     0.198 A 
ATOM     75  F   UNL A   1      37.961  30.543  36.579  1.00  0.00    -0.203 F 
ATOM     76  F   UNL A   1      40.542  35.175  37.870  1.00  0.00    -0.200 F 
ATOM     77  C   UNL A   1      38.804  33.629  38.275  1.00  0.00     0.200 A 
ATOM     78  F   UNL A   1      37.090  32.051  38.648  1.00  0.00    -0.200 F 
ATOM     79  F   UNL A   1      38.386  34.354  39.322  1.00  0.00    -0.200 F 
ENDBRANCH  55  69
BRANCH  56  80
ATOM     80  C   UNL A   1      42.297  26.943  27.924  1.00  0.00     0.064 A 
ATOM     81  C   UNL A   1      41.954  25.595  27.742  1.00  0.00     0.173 A 
ATOM     82  C   UNL A   1      43.089  27.549  26.937  1.00  0.00     0.173 A 
ATOM     83  F   UNL A   1      41.210  24.963  28.662  1.00  0.00    -0.203 F 
ATOM     84  C   UNL A   1      42.427  24.872  26.650  1.00  0.00     0.198 A 
ATOM     85  C   UNL A   1      43.524  26.837  25.822  1.00  0.00     0.198 A 
ATOM     86  F   UNL A   1      43.438  28.839  27.052  1.00  0.00    -0.203 F 
ATOM     87  F   UNL A   1      42.151  23.565  26.544  1.00  0.00    -0.200 F 
ATOM     88  C   UNL A   1      43.208  25.494  25.688  1.00  0.00     0.200 A 
ATOM     89  F   UNL A   1      44.260  27.450  24.885  1.00  0.00    -0.200 F 
ATOM     90  F   UNL A   1      43.669  24.797  24.640  1.00  0.00    -0.200 F 
ENDBRANCH  56  80
BRANCH  68  91
ATOM     91  C   UNL A   1      44.794  27.264  34.419  1.00  0.00     0.064 A 
ATOM     92  C   UNL A   1      44.603  26.038  35.074  1.00  0.00     0.173 A 
ATOM     93  C   UNL A   1      46.088  27.811  34.420  1.00  0.00     0.173 A 
ATOM     94  F   UNL A   1      43.386  25.474  35.113  1.00  0.00    -0.203 F 
ATOM     95  C   UNL A   1      45.649  25.417  35.752  1.00  0.00     0.198 A 
ATOM     96  C   UNL A   1      47.142  27.163  35.058  1.00  0.00     0.198 A 
ATOM     97  F   UNL A   1      46.333  28.973  33.799  1.00  0.00    -0.203 F 
ATOM     98  F   UNL A   1      45.422  24.291  36.442  1.00  0.00    -0.200 F 
ATOM     99  C   UNL A   1      46.918  25.976  35.739  1.00  0.00     0.200 A 
ATOM    100  F   UNL A   1      48.371  27.694  35.024  1.00  0.00    -0.200 F 
ATOM    101  F   UNL A   1      47.924  25.378  36.393  1.00  0.00    -0.200 F 
ENDBRANCH  68  91
ENDBRANCH  42  43
ENDBRANCH  34  37
ENDBRANCH  32  33
ENDBRANCH  31  32
ENDBRANCH  30  31
ENDBRANCH  29  30
ENDBRANCH   1  29
TORSDOF 18
ENDMDL
MODEL 2
REMARK VINA RESULT:     -11.5      1.198      7.107
REMARK SMILES CC1=C(C)C[C@@H](C(=O)N[C@@H](C)CCc2ccccc2)[C@H](C(=O)NCCCCCCNC(=O)c2ccc(-c3c4nc(c(-c5c(F)c(F)c(F)c(F)c5F)c5ccc([nH]5)c(-c5c(F)c(F)c(F)c(F)c5F)c5nc(c(-c6c(F)c(F)c(F)c(F)c6F)c6ccc3[nH]6)C=C5)C=C4)cc2)C1
REMARK SMILES IDX 25 1 24 2 23 3 21 4 22 5 20 7 1 8 2 9 3 10 96 11 4 12 5 13
REMARK SMILES IDX 6 14 7 15 8 16 9 17 10 19 11 20 12 21 13 22 14 23 15 24
REMARK SMILES IDX 19 25 16 26 18 27 17 28 26 29 27 30 28 31 29 32 30 33 31 34
REMARK SMILES IDX 32 36 33 37 34 38 95 39 35 40 94 41 36 42 37 43 38 44 88 45
REMARK SMILES IDX 39 46 93 47 87 48 89 49 40 50 92 51 86 52 85 53 41 55 73 56
REMARK SMILES IDX 53 57 72 58 54 59 57 60 71 61 90 62 55 63 56 64 70 66 91 67
REMARK SMILES IDX 58 68 42 69 43 70 51 71 44 72 45 73 49 74 52 75 46 76 47 77
REMARK SMILES IDX 50 78 48 79 74 80 75 81 83 82 76 83 77 84 81 85 84 86 78 87
REMARK SMILES IDX 79 88 82 89 80 90 59 91 60 92 68 93 61 94 62 95 66 96 69 97
REMARK SMILES IDX 63 98 64 99 67 100 65 101
REMARK H PARENT 23 6 9 18 30 35 89 54 57 65
REMARK Flexibility Score: inf
ROOT
ATOM      1  C   UNL A   1      33.914  27.513  25.145  1.00  0.00     0.021 C 
ENDROOT
BRANCH   1   2
ATOM      2  C   UNL A   1      33.680  26.017  25.242  1.00  0.00     0.116 C 
BRANCH   2   3
ATOM      3  N   UNL A   1      34.238  25.306  24.121  1.00  0.00    -0.356 N 
ATOM      4  C   UNL A   1      34.995  24.177  24.115  1.00  0.00     0.224 C 
ATOM      5  O   UNL A   1      35.350  23.738  23.018  1.00  0.00    -0.275 OA
ATOM      6  H   UNL A   1      34.043  25.691  23.236  1.00  0.00     0.163 HD
BRANCH   4   7
ATOM      7  C   UNL A   1      35.384  23.452  25.408  1.00  0.00     0.095 C 
ATOM      8  C   UNL A   1      38.760  24.522  26.908  1.00  0.00     0.039 C 
ATOM      9  C   UNL A   1      37.989  23.331  26.218  1.00  0.00    -0.074 C 
ATOM     10  C   UNL A   1      38.383  21.945  25.857  1.00  0.00    -0.074 C 
ATOM     11  C   UNL A   1      36.611  24.042  26.044  1.00  0.00     0.045 C 
ATOM     12  C   UNL A   1      40.155  20.716  26.077  1.00  0.00     0.039 C 
ATOM     13  C   UNL A   1      36.841  21.342  25.184  1.00  0.00     0.045 C 
ATOM     14  C   UNL A   1      35.447  21.969  25.286  1.00  0.00     0.095 C 
BRANCH  14  15
ATOM     15  C   UNL A   1      34.550  21.223  26.294  1.00  0.00     0.224 C 
ATOM     16  O   UNL A   1      34.593  21.526  27.492  1.00  0.00    -0.275 OA
ATOM     17  N   UNL A   1      33.660  20.255  25.938  1.00  0.00    -0.353 N 
ATOM     18  H   UNL A   1      33.071  19.950  26.665  1.00  0.00     0.163 HD
BRANCH  17  19
ATOM     19  C   UNL A   1      33.440  19.599  24.660  1.00  0.00     0.079 C 
ATOM     20  C   UNL A   1      33.212  18.104  24.876  1.00  0.00     0.031 C 
BRANCH  19  21
ATOM     21  C   UNL A   1      32.303  20.225  23.828  1.00  0.00     0.029 C 
BRANCH  21  22
ATOM     22  C   UNL A   1      32.563  21.652  23.321  1.00  0.00     0.037 C 
BRANCH  22  23
ATOM     23  C   UNL A   1      31.671  22.703  23.925  1.00  0.00    -0.048 A 
ATOM     24  C   UNL A   1      31.272  22.577  25.709  1.00  0.00     0.004 A 
ATOM     25  C   UNL A   1      31.097  24.143  22.983  1.00  0.00     0.004 A 
ATOM     26  C   UNL A   1      30.530  23.987  26.571  1.00  0.00     0.000 A 
ATOM     27  C   UNL A   1      30.213  25.507  23.856  1.00  0.00     0.000 A 
ATOM     28  C   UNL A   1      30.015  25.451  25.648  1.00  0.00     0.000 A 
ENDBRANCH  22  23
ENDBRANCH  21  22
ENDBRANCH  19  21
ENDBRANCH  17  19
ENDBRANCH  14  15
ENDBRANCH   4   7
ENDBRANCH   2   3
ENDBRANCH   1   2
BRANCH   1  29
ATOM     29  C   UNL A   1      32.723  28.256  24.553  1.00  0.00     0.002 C 
BRANCH  29  30
ATOM     30  C   UNL A   1      31.741  28.794  25.602  1.00  0.00     0.002 C 
BRANCH  30  31
ATOM     31  C   UNL A   1      31.725  30.319  25.745  1.00  0.00     0.021 C 
BRANCH  31  32
ATOM     32  C   UNL A   1      32.531  30.844  26.927  1.00  0.00     0.116 C 
BRANCH  32  33
ATOM     33  N   UNL A   1      32.495  32.294  26.977  1.00  0.00    -0.352 N 
ATOM     34  C   UNL A   1      33.221  33.158  27.749  1.00  0.00     0.251 C 
ATOM     35  H   UNL A   1      31.853  32.719  26.365  1.00  0.00     0.163 HD
ATOM     36  O   UNL A   1      32.847  34.319  27.885  1.00  0.00    -0.269 OA
BRANCH  34  37
ATOM     37  C   UNL A   1      34.454  32.696  28.416  1.00  0.00     0.039 A 
ATOM     38  C   UNL A   1      35.636  33.400  28.189  1.00  0.00     0.014 A 
ATOM     39  C   UNL A   1      34.460  31.549  29.216  1.00  0.00     0.014 A 
ATOM     40  C   UNL A   1      36.819  32.968  28.787  1.00  0.00     0.010 A 
ATOM     41  C   UNL A   1      35.620  31.174  29.887  1.00  0.00     0.010 A 
ATOM     42  C   UNL A   1      36.817  31.868  29.662  1.00  0.00    -0.014 A 
BRANCH  42  43
ATOM     43  C   UNL A   1      38.073  31.447  30.333  1.00  0.00     0.031 A 
ATOM     44  C   UNL A   1      38.996  30.454  29.681  1.00  0.00     0.074 A 
ATOM     45  C   UNL A   1      38.381  31.969  31.535  1.00  0.00     0.049 A 
ATOM     46  N   UNL A   1      40.150  30.000  30.102  1.00  0.00    -0.248 NA
ATOM     47  C   UNL A   1      38.561  29.878  28.398  1.00  0.00     0.031 C 
ATOM     48  C   UNL A   1      37.540  32.899  32.290  1.00  0.00     0.029 A 
ATOM     49  N   UNL A   1      39.487  31.802  32.330  1.00  0.00    -0.354 N 
ATOM     50  C   UNL A   1      40.581  29.102  29.134  1.00  0.00     0.074 A 
ATOM     51  C   UNL A   1      39.530  29.010  28.145  1.00  0.00     0.031 C 
ATOM     52  C   UNL A   1      38.178  33.256  33.416  1.00  0.00     0.029 A 
ATOM     53  C   UNL A   1      39.448  32.541  33.487  1.00  0.00     0.049 A 
ATOM     54  H   UNL A   1      40.236  31.210  32.094  1.00  0.00     0.167 HD
ATOM     55  C   UNL A   1      41.762  28.443  29.056  1.00  0.00     0.037 A 
ATOM     56  C   UNL A   1      40.334  32.627  34.496  1.00  0.00     0.037 A 
ATOM     57  C   UNL A   1      42.803  28.531  30.047  1.00  0.00     0.049 A 
ATOM     58  C   UNL A   1      41.618  31.844  34.405  1.00  0.00     0.074 A 
ATOM     59  C   UNL A   1      44.042  27.916  30.055  1.00  0.00     0.029 A 
ATOM     60  N   UNL A   1      42.723  29.277  31.214  1.00  0.00    -0.354 N 
ATOM     61  N   UNL A   1      42.043  31.053  33.450  1.00  0.00    -0.248 NA
ATOM     62  C   UNL A   1      42.553  31.981  35.528  1.00  0.00     0.031 C 
ATOM     63  C   UNL A   1      44.685  28.238  31.254  1.00  0.00     0.029 A 
ATOM     64  C   UNL A   1      43.882  29.118  31.959  1.00  0.00     0.049 A 
ATOM     65  H   UNL A   1      41.956  29.837  31.475  1.00  0.00     0.167 HD
ATOM     66  C   UNL A   1      43.305  30.625  33.841  1.00  0.00     0.074 A 
ATOM     67  C   UNL A   1      43.588  31.272  35.105  1.00  0.00     0.031 C 
ATOM     68  C   UNL A   1      44.153  29.771  33.214  1.00  0.00     0.037 A 
BRANCH  55  69
ATOM     69  C   UNL A   1      41.996  27.573  27.851  1.00  0.00     0.064 A 
ATOM     70  C   UNL A   1      42.374  28.120  26.614  1.00  0.00     0.173 A 
ATOM     71  C   UNL A   1      41.888  26.178  27.941  1.00  0.00     0.173 A 
ATOM     72  F   UNL A   1      42.483  29.449  26.467  1.00  0.00    -0.203 F 
ATOM     73  C   UNL A   1      42.606  27.305  25.509  1.00  0.00     0.198 A 
ATOM     74  C   UNL A   1      42.158  25.363  26.843  1.00  0.00     0.198 A 
ATOM     75  F   UNL A   1      41.537  25.598  29.099  1.00  0.00    -0.203 F 
ATOM     76  F   UNL A   1      42.913  27.856  24.325  1.00  0.00    -0.200 F 
ATOM     77  C   UNL A   1      42.507  25.928  25.626  1.00  0.00     0.200 A 
ATOM     78  F   UNL A   1      42.080  24.031  26.964  1.00  0.00    -0.200 F 
ATOM     79  F   UNL A   1      42.743  25.145  24.565  1.00  0.00    -0.200 F 
ENDBRANCH  55  69
BRANCH  56  80
ATOM     80  C   UNL A   1      40.043  33.477  35.683  1.00  0.00     0.064 A 
ATOM     81  C   UNL A   1      39.284  32.995  36.759  1.00  0.00     0.173 A 
ATOM     82  C   UNL A   1      40.482  34.808  35.745  1.00  0.00     0.173 A 
ATOM     83  F   UNL A   1      38.827  31.734  36.745  1.00  0.00    -0.203 F 
ATOM     84  C   UNL A   1      38.934  33.823  37.823  1.00  0.00     0.198 A 
ATOM     85  C   UNL A   1      40.169  35.622  36.831  1.00  0.00     0.198 A 
ATOM     86  F   UNL A   1      41.222  35.321  34.750  1.00  0.00    -0.203 F 
ATOM     87  F   UNL A   1      38.140  33.358  38.797  1.00  0.00    -0.200 F 
ATOM     88  C   UNL A   1      39.380  35.135  37.861  1.00  0.00     0.200 A 
ATOM     89  F   UNL A   1      40.623  36.883  36.872  1.00  0.00    -0.200 F 
ATOM     90  F   UNL A   1      39.039  35.934  38.881  1.00  0.00    -0.200 F 
ENDBRANCH  56  80
BRANCH  68  91
ATOM     91  C   UNL A   1      45.488  29.530  33.866  1.00  0.00     0.064 A 
ATOM     92  C   UNL A   1      45.682  28.512  34.812  1.00  0.00     0.173 A 
ATOM     93  C   UNL A   1      46.590  30.337  33.539  1.00  0.00     0.173 A 
ATOM     94  F   UNL A   1      44.662  27.718  35.170  1.00  0.00    -0.203 F 
ATOM     95  C   UNL A   1      46.912  28.346  35.444  1.00  0.00     0.198 A 
ATOM     96  C   UNL A   1      47.830  30.138  34.138  1.00  0.00     0.198 A 
ATOM     97  F   UNL A   1      46.467  31.317  32.632  1.00  0.00    -0.203 F 
ATOM     98  F   UNL A   1      47.049  27.422  36.405  1.00  0.00    -0.200 F 
ATOM     99  C   UNL A   1      47.986  29.155  35.104  1.00  0.00     0.200 A 
ATOM    100  F   UNL A   1      48.872  30.905  33.790  1.00  0.00    -0.200 F 
ATOM    101  F   UNL A   1      49.168  28.995  35.715  1.00  0.00    -0.200 F 
ENDBRANCH  68  91
ENDBRANCH  42  43
ENDBRANCH  34  37
ENDBRANCH  32  33
ENDBRANCH  31  32
ENDBRANCH  30  31
ENDBRANCH  29  30
ENDBRANCH   1  29
TORSDOF 18
ENDMDL
MODEL 3
REMARK VINA RESULT:     -11.4      1.427      2.860
REMARK SMILES CC1=C(C)C[C@@H](C(=O)N[C@@H](C)CCc2ccccc2)[C@H](C(=O)NCCCCCCNC(=O)c2ccc(-c3c4nc(c(-c5c(F)c(F)c(F)c(F)c5F)c5ccc([nH]5)c(-c5c(F)c(F)c(F)c(F)c5F)c5nc(c(-c6c(F)c(F)c(F)c(F)c6F)c6ccc3[nH]6)C=C5)C=C4)cc2)C1
REMARK SMILES IDX 25 1 24 2 23 3 21 4 22 5 20 7 1 8 2 9 3 10 96 11 4 12 5 13
REMARK SMILES IDX 6 14 7 15 8 16 9 17 10 19 11 20 12 21 13 22 14 23 15 24
REMARK SMILES IDX 19 25 16 26 18 27 17 28 26 29 27 30 28 31 29 32 30 33 31 34
REMARK SMILES IDX 32 36 33 37 34 38 95 39 35 40 94 41 36 42 37 43 38 44 88 45
REMARK SMILES IDX 39 46 93 47 87 48 89 49 40 50 92 51 86 52 85 53 41 55 73 56
REMARK SMILES IDX 53 57 72 58 54 59 57 60 71 61 90 62 55 63 56 64 70 66 91 67
REMARK SMILES IDX 58 68 42 69 43 70 51 71 44 72 45 73 49 74 52 75 46 76 47 77
REMARK SMILES IDX 50 78 48 79 74 80 75 81 83 82 76 83 77 84 81 85 84 86 78 87
REMARK SMILES IDX 79 88 82 89 80 90 59 91 60 92 68 93 61 94 62 95 66 96 69 97
REMARK SMILES IDX 63 98 64 99 67 100 65 101
REMARK H PARENT 23 6 9 18 30 35 89 54 57 65
REMARK Flexibility Score: inf
ROOT
ATOM      1  C   UNL A   1      34.172  28.147  26.046  1.00  0.00     0.021 C 
ENDROOT
BRANCH   1   2
ATOM      2  C   UNL A   1      33.819  26.672  26.052  1.00  0.00     0.116 C 
BRANCH   2   3
ATOM      3  N   UNL A   1      34.025  26.059  24.766  1.00  0.00    -0.356 N 
ATOM      4  C   UNL A   1      34.316  24.764  24.472  1.00  0.00     0.224 C 
ATOM      5  O   UNL A   1      34.435  24.465  23.281  1.00  0.00    -0.275 OA
ATOM      6  H   UNL A   1      33.943  26.661  23.992  1.00  0.00     0.163 HD
BRANCH   4   7
ATOM      7  C   UNL A   1      34.475  23.698  25.562  1.00  0.00     0.095 C 
ATOM      8  C   UNL A   1      37.450  21.311  25.069  1.00  0.00     0.039 C 
ATOM      9  C   UNL A   1      35.875  21.403  25.086  1.00  0.00    -0.074 C 
ATOM     10  C   UNL A   1      34.801  20.395  24.893  1.00  0.00    -0.074 C 
ATOM     11  C   UNL A   1      35.754  22.923  25.418  1.00  0.00     0.045 C 
ATOM     12  C   UNL A   1      34.707  18.260  24.531  1.00  0.00     0.039 C 
ATOM     13  C   UNL A   1      33.357  21.417  25.153  1.00  0.00     0.045 C 
ATOM     14  C   UNL A   1      33.282  22.826  25.747  1.00  0.00     0.095 C 
BRANCH  14  15
ATOM     15  C   UNL A   1      32.736  22.817  27.190  1.00  0.00     0.224 C 
ATOM     16  O   UNL A   1      33.505  22.605  28.133  1.00  0.00    -0.275 OA
ATOM     17  N   UNL A   1      31.435  23.074  27.503  1.00  0.00    -0.353 N 
ATOM     18  H   UNL A   1      31.253  23.153  28.468  1.00  0.00     0.163 HD
BRANCH  17  19
ATOM     19  C   UNL A   1      30.274  23.251  26.648  1.00  0.00     0.079 C 
ATOM     20  C   UNL A   1      29.065  22.545  27.259  1.00  0.00     0.031 C 
BRANCH  19  21
ATOM     21  C   UNL A   1      29.959  24.725  26.325  1.00  0.00     0.029 C 
BRANCH  21  22
ATOM     22  C   UNL A   1      30.552  25.256  25.011  1.00  0.00     0.037 C 
BRANCH  22  23
ATOM     23  C   UNL A   1      29.972  26.565  24.547  1.00  0.00    -0.048 A 
ATOM     24  C   UNL A   1      31.065  28.035  24.523  1.00  0.00     0.004 A 
ATOM     25  C   UNL A   1      28.284  26.698  23.895  1.00  0.00     0.004 A 
ATOM     26  C   UNL A   1      30.551  29.529  23.636  1.00  0.00     0.000 A 
ATOM     27  C   UNL A   1      27.731  28.279  23.122  1.00  0.00     0.000 A 
ATOM     28  C   UNL A   1      28.895  29.644  22.927  1.00  0.00     0.000 A 
ENDBRANCH  22  23
ENDBRANCH  21  22
ENDBRANCH  19  21
ENDBRANCH  17  19
ENDBRANCH  14  15
ENDBRANCH   4   7
ENDBRANCH   2   3
ENDBRANCH   1   2
BRANCH   1  29
ATOM     29  C   UNL A   1      33.572  28.899  27.228  1.00  0.00     0.002 C 
BRANCH  29  30
ATOM     30  C   UNL A   1      34.092  30.333  27.383  1.00  0.00     0.002 C 
BRANCH  30  31
ATOM     31  C   UNL A   1      33.008  31.389  27.622  1.00  0.00     0.021 C 
BRANCH  31  32
ATOM     32  C   UNL A   1      33.136  32.626  26.742  1.00  0.00     0.116 C 
BRANCH  32  33
ATOM     33  N   UNL A   1      32.831  33.830  27.492  1.00  0.00    -0.352 N 
ATOM     34  C   UNL A   1      33.259  34.218  28.732  1.00  0.00     0.251 C 
ATOM     35  H   UNL A   1      32.226  34.463  27.042  1.00  0.00     0.163 HD
ATOM     36  O   UNL A   1      32.664  35.107  29.334  1.00  0.00    -0.269 OA
BRANCH  34  37
ATOM     37  C   UNL A   1      34.435  33.569  29.343  1.00  0.00     0.039 A 
ATOM     38  C   UNL A   1      35.698  33.865  28.832  1.00  0.00     0.014 A 
ATOM     39  C   UNL A   1      34.295  32.638  30.377  1.00  0.00     0.014 A 
ATOM     40  C   UNL A   1      36.822  33.246  29.375  1.00  0.00     0.010 A 
ATOM     41  C   UNL A   1      35.423  32.093  30.981  1.00  0.00     0.010 A 
ATOM     42  C   UNL A   1      36.698  32.375  30.472  1.00  0.00    -0.014 A 
BRANCH  42  43
ATOM     43  C   UNL A   1      37.907  31.759  31.075  1.00  0.00     0.031 A 
ATOM     44  C   UNL A   1      38.363  32.152  32.453  1.00  0.00     0.074 A 
ATOM     45  C   UNL A   1      38.592  30.837  30.372  1.00  0.00     0.049 A 
ATOM     46  N   UNL A   1      39.373  31.694  33.150  1.00  0.00    -0.248 NA
ATOM     47  C   UNL A   1      37.602  33.213  33.133  1.00  0.00     0.031 C 
ATOM     48  C   UNL A   1      38.278  30.412  29.007  1.00  0.00     0.029 A 
ATOM     49  N   UNL A   1      39.687  30.082  30.710  1.00  0.00    -0.354 N 
ATOM     50  C   UNL A   1      39.357  32.397  34.348  1.00  0.00     0.074 A 
ATOM     51  C   UNL A   1      38.292  33.370  34.253  1.00  0.00     0.031 C 
ATOM     52  C   UNL A   1      39.130  29.443  28.639  1.00  0.00     0.029 A 
ATOM     53  C   UNL A   1      40.081  29.214  29.722  1.00  0.00     0.049 A 
ATOM     54  H   UNL A   1      40.146  30.155  31.578  1.00  0.00     0.167 HD
ATOM     55  C   UNL A   1      40.134  32.220  35.444  1.00  0.00     0.037 A 
ATOM     56  C   UNL A   1      41.101  28.335  29.689  1.00  0.00     0.037 A 
ATOM     57  C   UNL A   1      41.199  31.255  35.532  1.00  0.00     0.049 A 
ATOM     58  C   UNL A   1      41.979  28.196  30.905  1.00  0.00     0.074 A 
ATOM     59  C   UNL A   1      42.036  30.986  36.601  1.00  0.00     0.029 A 
ATOM     60  N   UNL A   1      41.581  30.403  34.505  1.00  0.00    -0.354 N 
ATOM     61  N   UNL A   1      41.909  28.818  32.056  1.00  0.00    -0.248 NA
ATOM     62  C   UNL A   1      43.071  27.218  30.819  1.00  0.00     0.031 C 
ATOM     63  C   UNL A   1      42.962  30.019  36.201  1.00  0.00     0.029 A 
ATOM     64  C   UNL A   1      42.655  29.625  34.910  1.00  0.00     0.049 A 
ATOM     65  H   UNL A   1      41.152  30.356  33.621  1.00  0.00     0.167 HD
ATOM     66  C   UNL A   1      42.923  28.284  32.841  1.00  0.00     0.074 A 
ATOM     67  C   UNL A   1      43.572  27.265  32.043  1.00  0.00     0.031 C 
ATOM     68  C   UNL A   1      43.289  28.610  34.107  1.00  0.00     0.037 A 
BRANCH  55  69
ATOM     69  C   UNL A   1      39.856  33.086  36.642  1.00  0.00     0.064 A 
ATOM     70  C   UNL A   1      40.532  34.300  36.843  1.00  0.00     0.173 A 
ATOM     71  C   UNL A   1      38.875  32.725  37.577  1.00  0.00     0.173 A 
ATOM     72  F   UNL A   1      41.488  34.691  35.985  1.00  0.00    -0.203 F 
ATOM     73  C   UNL A   1      40.256  35.104  37.946  1.00  0.00     0.198 A 
ATOM     74  C   UNL A   1      38.574  33.549  38.659  1.00  0.00     0.198 A 
ATOM     75  F   UNL A   1      38.192  31.578  37.434  1.00  0.00    -0.203 F 
ATOM     76  F   UNL A   1      40.954  36.232  38.142  1.00  0.00    -0.200 F 
ATOM     77  C   UNL A   1      39.272  34.732  38.847  1.00  0.00     0.200 A 
ATOM     78  F   UNL A   1      37.609  33.198  39.519  1.00  0.00    -0.200 F 
ATOM     79  F   UNL A   1      38.999  35.513  39.902  1.00  0.00    -0.200 F 
ENDBRANCH  55  69
BRANCH  56  80
ATOM     80  C   UNL A   1      41.356  27.523  28.468  1.00  0.00     0.064 A 
ATOM     81  C   UNL A   1      42.288  27.929  27.502  1.00  0.00     0.173 A 
ATOM     82  C   UNL A   1      40.636  26.344  28.220  1.00  0.00     0.173 A 
ATOM     83  F   UNL A   1      42.993  29.055  27.683  1.00  0.00    -0.203 F 
ATOM     84  C   UNL A   1      42.454  27.215  26.317  1.00  0.00     0.198 A 
ATOM     85  C   UNL A   1      40.835  25.608  27.054  1.00  0.00     0.198 A 
ATOM     86  F   UNL A   1      39.739  25.901  29.114  1.00  0.00    -0.203 F 
ATOM     87  F   UNL A   1      43.293  27.671  25.376  1.00  0.00    -0.200 F 
ATOM     88  C   UNL A   1      41.731  26.054  26.095  1.00  0.00     0.200 A 
ATOM     89  F   UNL A   1      40.150  24.473  26.857  1.00  0.00    -0.200 F 
ATOM     90  F   UNL A   1      41.886  25.371  24.953  1.00  0.00    -0.200 F 
ENDBRANCH  56  80
BRANCH  68  91
ATOM     91  C   UNL A   1      44.411  27.817  34.721  1.00  0.00     0.064 A 
ATOM     92  C   UNL A   1      45.752  28.218  34.614  1.00  0.00     0.173 A 
ATOM     93  C   UNL A   1      44.138  26.633  35.425  1.00  0.00     0.173 A 
ATOM     94  F   UNL A   1      46.072  29.335  33.944  1.00  0.00    -0.203 F 
ATOM     95  C   UNL A   1      46.778  27.437  35.140  1.00  0.00     0.198 A 
ATOM     96  C   UNL A   1      45.162  25.880  35.991  1.00  0.00     0.198 A 
ATOM     97  F   UNL A   1      42.874  26.208  35.571  1.00  0.00    -0.203 F 
ATOM     98  F   UNL A   1      48.055  27.797  34.952  1.00  0.00    -0.200 F 
ATOM     99  C   UNL A   1      46.483  26.272  35.832  1.00  0.00     0.200 A 
ATOM    100  F   UNL A   1      44.872  24.768  36.679  1.00  0.00    -0.200 F 
ATOM    101  F   UNL A   1      47.471  25.520  36.336  1.00  0.00    -0.200 F 
ENDBRANCH  68  91
ENDBRANCH  42  43
ENDBRANCH  34  37
ENDBRANCH  32  33
ENDBRANCH  31  32
ENDBRANCH  30  31
ENDBRANCH  29  30
ENDBRANCH   1  29
TORSDOF 18
ENDMDL
