MODEL 1
REMARK VINA RESULT:     -11.8      0.000      0.000
REMARK SMILES Cc1nsc(NC(=O)c2ccc(N)cc2)c1C(=O)NCCCCCCNC(=O)c1ccc(-c2c3nc(c(-c4c(F)c(F)c(F)c(F)c4F)c4ccc([nH]4)c(-c4c(F)c(F)c(F)c(F)c4F)c4nc(c(-c5c(F)c(F)c(F)c(F)c5F)c5ccc2[nH]5)C=C4)C=C3)cc1
REMARK SMILES IDX 22 1 21 2 20 3 19 4 17 5 18 6 16 8 1 9 2 10 3 11 4 12 5 13
REMARK SMILES IDX 6 14 7 15 8 17 9 18 10 19 15 20 11 21 14 22 12 23 13 24
REMARK SMILES IDX 23 27 24 28 25 29 26 30 27 31 28 33 29 34 30 35 91 36 31 37
REMARK SMILES IDX 90 38 32 39 33 40 34 41 84 42 35 43 89 44 83 45 85 46 36 47
REMARK SMILES IDX 88 48 82 49 81 50 37 52 69 53 49 54 68 55 50 56 53 57 67 58
REMARK SMILES IDX 86 59 51 60 52 61 66 63 87 64 54 65 38 66 39 67 47 68 40 69
REMARK SMILES IDX 41 70 45 71 48 72 42 73 43 74 46 75 44 76 70 77 71 78 79 79
REMARK SMILES IDX 72 80 73 81 77 82 80 83 74 84 75 85 78 86 76 87 55 88 56 89
REMARK SMILES IDX 64 90 57 91 58 92 62 93 65 94 59 95 60 96 63 97 61 98
REMARK H PARENT 19 7 6 16 13 25 13 26 26 32 85 51 53 62
REMARK Flexibility Score: inf
ROOT
ATOM      1  C   UNL A   1      39.247  22.046  26.233  1.00  0.00     0.002 C 
ENDROOT
BRANCH   1   2
ATOM      2  C   UNL A   1      38.934  23.522  26.472  1.00  0.00     0.021 C 
BRANCH   2   3
ATOM      3  C   UNL A   1      37.539  24.014  26.122  1.00  0.00     0.116 C 
BRANCH   3   4
ATOM      4  N   UNL A   1      36.434  23.370  26.786  1.00  0.00    -0.352 N 
ATOM      5  C   UNL A   1      35.229  22.939  26.274  1.00  0.00     0.256 C 
ATOM      6  O   UNL A   1      34.477  22.356  27.059  1.00  0.00    -0.269 OA
ATOM      7  H   UNL A   1      36.558  23.216  27.750  1.00  0.00     0.163 HD
BRANCH   5   8
ATOM      8  C   UNL A   1      34.790  23.264  24.912  1.00  0.00     0.097 A 
ATOM      9  C   UNL A   1      36.619  22.300  23.222  1.00  0.00     0.069 C 
ATOM     10  C   UNL A   1      35.418  23.096  23.608  1.00  0.00     0.066 A 
ATOM     11  N   UNL A   1      34.829  23.731  22.592  1.00  0.00    -0.195 NA
ATOM     12  S   UNL A   1      33.437  24.414  23.130  1.00  0.00    -0.017 S 
ATOM     13  C   UNL A   1      33.488  23.718  24.680  1.00  0.00     0.129 A 
BRANCH  13  14
ATOM     14  N   UNL A   1      32.418  23.750  25.563  1.00  0.00    -0.312 N 
ATOM     15  C   UNL A   1      31.903  24.775  26.332  1.00  0.00     0.256 C 
ATOM     16  H   UNL A   1      31.942  22.893  25.656  1.00  0.00     0.171 HD
ATOM     17  O   UNL A   1      31.050  24.539  27.187  1.00  0.00    -0.269 OA
BRANCH  15  18
ATOM     18  C   UNL A   1      32.305  26.182  26.129  1.00  0.00     0.040 A 
ATOM     19  C   UNL A   1      33.652  26.560  26.123  1.00  0.00     0.016 A 
ATOM     20  C   UNL A   1      31.305  27.146  25.984  1.00  0.00     0.016 A 
ATOM     21  C   UNL A   1      33.985  27.917  26.115  1.00  0.00     0.026 A 
ATOM     22  C   UNL A   1      31.653  28.499  25.954  1.00  0.00     0.026 A 
ATOM     23  C   UNL A   1      32.989  28.897  26.064  1.00  0.00     0.031 A 
BRANCH  23  24
ATOM     24  N   UNL A   1      33.320  30.236  26.113  1.00  0.00    -0.399 N 
ATOM     25  H   UNL A   1      34.241  30.524  25.917  1.00  0.00     0.156 HD
ATOM     26  H   UNL A   1      32.635  30.905  26.343  1.00  0.00     0.156 HD
ENDBRANCH  23  24
ENDBRANCH  15  18
ENDBRANCH  13  14
ENDBRANCH   5   8
ENDBRANCH   3   4
ENDBRANCH   2   3
ENDBRANCH   1   2
BRANCH   1  27
ATOM     27  C   UNL A   1      40.521  21.466  26.862  1.00  0.00     0.002 C 
BRANCH  27  28
ATOM     28  C   UNL A   1      41.040  20.115  26.353  1.00  0.00     0.021 C 
BRANCH  28  29
ATOM     29  C   UNL A   1      42.413  19.711  26.859  1.00  0.00     0.116 C 
BRANCH  29  30
ATOM     30  N   UNL A   1      43.404  19.532  25.800  1.00  0.00    -0.352 N 
ATOM     31  C   UNL A   1      43.989  20.502  25.000  1.00  0.00     0.251 C 
ATOM     32  H   UNL A   1      43.691  18.605  25.632  1.00  0.00     0.163 HD
ATOM     33  O   UNL A   1      44.513  20.218  23.939  1.00  0.00    -0.269 OA
BRANCH  31  34
ATOM     34  C   UNL A   1      43.971  21.901  25.471  1.00  0.00     0.039 A 
ATOM     35  C   UNL A   1      43.071  22.843  24.966  1.00  0.00     0.014 A 
ATOM     36  C   UNL A   1      44.874  22.248  26.468  1.00  0.00     0.014 A 
ATOM     37  C   UNL A   1      43.045  24.116  25.534  1.00  0.00     0.010 A 
ATOM     38  C   UNL A   1      44.704  23.413  27.160  1.00  0.00     0.010 A 
ATOM     39  C   UNL A   1      43.858  24.385  26.646  1.00  0.00    -0.014 A 
BRANCH  39  40
ATOM     40  C   UNL A   1      43.788  25.651  27.361  1.00  0.00     0.031 A 
ATOM     41  C   UNL A   1      44.865  26.613  27.008  1.00  0.00     0.074 A 
ATOM     42  C   UNL A   1      42.705  26.007  28.087  1.00  0.00     0.049 A 
ATOM     43  N   UNL A   1      45.803  27.062  27.774  1.00  0.00    -0.248 NA
ATOM     44  C   UNL A   1      44.999  27.022  25.599  1.00  0.00     0.031 C 
ATOM     45  C   UNL A   1      41.433  25.288  28.249  1.00  0.00     0.029 A 
ATOM     46  N   UNL A   1      42.469  27.163  28.762  1.00  0.00    -0.354 N 
ATOM     47  C   UNL A   1      46.528  27.966  27.002  1.00  0.00     0.074 A 
ATOM     48  C   UNL A   1      46.113  27.758  25.640  1.00  0.00     0.031 C 
ATOM     49  C   UNL A   1      40.498  26.118  28.762  1.00  0.00     0.029 A 
ATOM     50  C   UNL A   1      41.143  27.362  29.132  1.00  0.00     0.049 A 
ATOM     51  H   UNL A   1      43.181  27.810  28.972  1.00  0.00     0.167 HD
ATOM     52  C   UNL A   1      47.217  28.985  27.589  1.00  0.00     0.037 A 
ATOM     53  C   UNL A   1      40.616  28.483  29.684  1.00  0.00     0.037 A 
ATOM     54  C   UNL A   1      47.408  28.728  28.997  1.00  0.00     0.049 A 
ATOM     55  C   UNL A   1      41.748  29.264  30.243  1.00  0.00     0.074 A 
ATOM     56  C   UNL A   1      48.029  27.733  29.725  1.00  0.00     0.029 A 
ATOM     57  N   UNL A   1      46.577  29.368  29.882  1.00  0.00    -0.354 N 
ATOM     58  N   UNL A   1      42.465  28.868  31.258  1.00  0.00    -0.248 NA
ATOM     59  C   UNL A   1      42.379  30.244  29.374  1.00  0.00     0.031 C 
ATOM     60  C   UNL A   1      47.177  27.513  30.849  1.00  0.00     0.029 A 
ATOM     61  C   UNL A   1      46.132  28.436  30.783  1.00  0.00     0.049 A 
ATOM     62  H   UNL A   1      46.342  30.325  29.871  1.00  0.00     0.167 HD
ATOM     63  C   UNL A   1      43.768  29.200  30.917  1.00  0.00     0.074 A 
ATOM     64  C   UNL A   1      43.644  30.114  29.783  1.00  0.00     0.031 C 
ATOM     65  C   UNL A   1      44.824  28.476  31.392  1.00  0.00     0.037 A 
BRANCH  52  66
ATOM     66  C   UNL A   1      47.359  30.373  27.005  1.00  0.00     0.064 A 
ATOM     67  C   UNL A   1      48.617  31.007  27.064  1.00  0.00     0.173 A 
ATOM     68  C   UNL A   1      46.273  31.217  26.685  1.00  0.00     0.173 A 
ATOM     69  F   UNL A   1      49.722  30.308  27.365  1.00  0.00    -0.203 F 
ATOM     70  C   UNL A   1      48.758  32.390  26.921  1.00  0.00     0.198 A 
ATOM     71  C   UNL A   1      46.425  32.589  26.489  1.00  0.00     0.198 A 
ATOM     72  F   UNL A   1      45.008  30.782  26.661  1.00  0.00    -0.203 F 
ATOM     73  F   UNL A   1      49.951  32.962  27.128  1.00  0.00    -0.200 F 
ATOM     74  C   UNL A   1      47.659  33.181  26.643  1.00  0.00     0.200 A 
ATOM     75  F   UNL A   1      45.344  33.339  26.236  1.00  0.00    -0.200 F 
ATOM     76  F   UNL A   1      47.777  34.513  26.575  1.00  0.00    -0.200 F 
ENDBRANCH  52  66
BRANCH  53  77
ATOM     77  C   UNL A   1      39.271  29.072  29.477  1.00  0.00     0.064 A 
ATOM     78  C   UNL A   1      38.789  29.343  28.185  1.00  0.00     0.173 A 
ATOM     79  C   UNL A   1      38.322  29.107  30.517  1.00  0.00     0.173 A 
ATOM     80  F   UNL A   1      39.618  29.286  27.132  1.00  0.00    -0.203 F 
ATOM     81  C   UNL A   1      37.436  29.606  27.946  1.00  0.00     0.198 A 
ATOM     82  C   UNL A   1      36.972  29.373  30.277  1.00  0.00     0.198 A 
ATOM     83  F   UNL A   1      38.668  28.786  31.773  1.00  0.00    -0.203 F 
ATOM     84  F   UNL A   1      37.003  29.797  26.691  1.00  0.00    -0.200 F 
ATOM     85  C   UNL A   1      36.527  29.609  28.990  1.00  0.00     0.200 A 
ATOM     86  F   UNL A   1      36.097  29.332  31.292  1.00  0.00    -0.200 F 
ATOM     87  F   UNL A   1      35.220  29.794  28.754  1.00  0.00    -0.200 F 
ENDBRANCH  53  77
BRANCH  65  88
ATOM     88  C   UNL A   1      44.557  27.479  32.488  1.00  0.00     0.064 A 
ATOM     89  C   UNL A   1      44.280  26.116  32.271  1.00  0.00     0.173 A 
ATOM     90  C   UNL A   1      44.738  27.892  33.814  1.00  0.00     0.173 A 
ATOM     91  F   UNL A   1      44.188  25.620  31.033  1.00  0.00    -0.203 F 
ATOM     92  C   UNL A   1      44.154  25.223  33.335  1.00  0.00     0.198 A 
ATOM     93  C   UNL A   1      44.647  26.993  34.872  1.00  0.00     0.198 A 
ATOM     94  F   UNL A   1      45.056  29.169  34.080  1.00  0.00    -0.203 F 
ATOM     95  F   UNL A   1      43.881  23.932  33.100  1.00  0.00    -0.200 F 
ATOM     96  C   UNL A   1      44.346  25.661  34.633  1.00  0.00     0.200 A 
ATOM     97  F   UNL A   1      44.882  27.412  36.122  1.00  0.00    -0.200 F 
ATOM     98  F   UNL A   1      44.266  24.797  35.655  1.00  0.00    -0.200 F 
ENDBRANCH  65  88
ENDBRANCH  39  40
ENDBRANCH  31  34
ENDBRANCH  29  30
ENDBRANCH  28  29
ENDBRANCH  27  28
ENDBRANCH   1  27
TORSDOF 16
ENDMDL
MODEL 2
REMARK VINA RESULT:     -11.8      2.367      3.401
REMARK SMILES Cc1nsc(NC(=O)c2ccc(N)cc2)c1C(=O)NCCCCCCNC(=O)c1ccc(-c2c3nc(c(-c4c(F)c(F)c(F)c(F)c4F)c4ccc([nH]4)c(-c4c(F)c(F)c(F)c(F)c4F)c4nc(c(-c5c(F)c(F)c(F)c(F)c5F)c5ccc2[nH]5)C=C4)C=C3)cc1
REMARK SMILES IDX 22 1 21 2 20 3 19 4 17 5 18 6 16 8 1 9 2 10 3 11 4 12 5 13
REMARK SMILES IDX 6 14 7 15 8 17 9 18 10 19 15 20 11 21 14 22 12 23 13 24
REMARK SMILES IDX 23 27 24 28 25 29 26 30 27 31 28 33 29 34 30 35 91 36 31 37
REMARK SMILES IDX 90 38 32 39 33 40 34 41 84 42 35 43 89 44 83 45 85 46 36 47
REMARK SMILES IDX 88 48 82 49 81 50 37 52 69 53 49 54 68 55 50 56 53 57 67 58
REMARK SMILES IDX 86 59 51 60 52 61 66 63 87 64 54 65 38 66 39 67 47 68 40 69
REMARK SMILES IDX 41 70 45 71 48 72 42 73 43 74 46 75 44 76 70 77 71 78 79 79
REMARK SMILES IDX 72 80 73 81 77 82 80 83 74 84 75 85 78 86 76 87 55 88 56 89
REMARK SMILES IDX 64 90 57 91 58 92 62 93 65 94 59 95 60 96 63 97 61 98
REMARK H PARENT 19 7 6 16 13 25 13 26 26 32 85 51 53 62
REMARK Flexibility Score: inf
ROOT
ATOM      1  C   UNL A   1      37.520  23.797  25.485  1.00  0.00     0.002 C 
ENDROOT
BRANCH   1   2
ATOM      2  C   UNL A   1      36.022  23.860  25.778  1.00  0.00     0.021 C 
BRANCH   2   3
ATOM      3  C   UNL A   1      35.353  22.605  26.315  1.00  0.00     0.116 C 
BRANCH   3   4
ATOM      4  N   UNL A   1      34.184  22.790  27.136  1.00  0.00    -0.352 N 
ATOM      5  C   UNL A   1      32.856  22.574  26.838  1.00  0.00     0.256 C 
ATOM      6  O   UNL A   1      32.051  22.755  27.755  1.00  0.00    -0.269 OA
ATOM      7  H   UNL A   1      34.360  23.120  28.047  1.00  0.00     0.163 HD
BRANCH   5   8
ATOM      8  C   UNL A   1      32.392  22.278  25.477  1.00  0.00     0.097 A 
ATOM      9  C   UNL A   1      33.481  19.954  24.740  1.00  0.00     0.069 C 
ATOM     10  C   UNL A   1      32.730  21.225  24.528  1.00  0.00     0.066 A 
ATOM     11  N   UNL A   1      32.291  21.404  23.280  1.00  0.00    -0.195 NA
ATOM     12  S   UNL A   1      31.341  22.742  23.239  1.00  0.00    -0.017 S 
ATOM     13  C   UNL A   1      31.335  23.005  24.919  1.00  0.00     0.129 A 
BRANCH  13  14
ATOM     14  N   UNL A   1      30.484  23.905  25.544  1.00  0.00    -0.312 N 
ATOM     15  C   UNL A   1      30.616  25.256  25.798  1.00  0.00     0.256 C 
ATOM     16  H   UNL A   1      29.640  23.512  25.861  1.00  0.00     0.171 HD
ATOM     17  O   UNL A   1      29.810  25.829  26.530  1.00  0.00    -0.269 OA
BRANCH  15  18
ATOM     18  C   UNL A   1      31.678  26.070  25.171  1.00  0.00     0.040 A 
ATOM     19  C   UNL A   1      32.871  26.351  25.844  1.00  0.00     0.016 A 
ATOM     20  C   UNL A   1      31.451  26.594  23.897  1.00  0.00     0.016 A 
ATOM     21  C   UNL A   1      33.768  27.273  25.298  1.00  0.00     0.026 A 
ATOM     22  C   UNL A   1      32.366  27.497  23.351  1.00  0.00     0.026 A 
ATOM     23  C   UNL A   1      33.508  27.877  24.064  1.00  0.00     0.031 A 
BRANCH  23  24
ATOM     24  N   UNL A   1      34.369  28.828  23.553  1.00  0.00    -0.399 N 
ATOM     25  H   UNL A   1      34.012  29.654  23.155  1.00  0.00     0.156 HD
ATOM     26  H   UNL A   1      35.342  28.681  23.588  1.00  0.00     0.156 HD
ENDBRANCH  23  24
ENDBRANCH  15  18
ENDBRANCH  13  14
ENDBRANCH   5   8
ENDBRANCH   3   4
ENDBRANCH   2   3
ENDBRANCH   1   2
BRANCH   1  27
ATOM     27  C   UNL A   1      38.426  23.090  26.502  1.00  0.00     0.002 C 
BRANCH  27  28
ATOM     28  C   UNL A   1      39.063  21.750  26.109  1.00  0.00     0.021 C 
BRANCH  28  29
ATOM     29  C   UNL A   1      40.313  21.370  26.883  1.00  0.00     0.116 C 
BRANCH  29  30
ATOM     30  N   UNL A   1      41.548  21.501  26.111  1.00  0.00    -0.352 N 
ATOM     31  C   UNL A   1      42.261  22.655  25.824  1.00  0.00     0.251 C 
ATOM     32  H   UNL A   1      41.919  20.664  25.749  1.00  0.00     0.163 HD
ATOM     33  O   UNL A   1      43.051  22.698  24.898  1.00  0.00    -0.269 OA
BRANCH  31  34
ATOM     34  C   UNL A   1      42.048  23.840  26.676  1.00  0.00     0.039 A 
ATOM     35  C   UNL A   1      42.535  23.912  27.984  1.00  0.00     0.014 A 
ATOM     36  C   UNL A   1      41.359  24.911  26.117  1.00  0.00     0.014 A 
ATOM     37  C   UNL A   1      42.384  25.104  28.691  1.00  0.00     0.010 A 
ATOM     38  C   UNL A   1      41.401  26.133  26.724  1.00  0.00     0.010 A 
ATOM     39  C   UNL A   1      41.827  26.218  28.041  1.00  0.00    -0.014 A 
BRANCH  39  40
ATOM     40  C   UNL A   1      41.755  27.524  28.680  1.00  0.00     0.031 A 
ATOM     41  C   UNL A   1      42.855  28.451  28.304  1.00  0.00     0.074 A 
ATOM     42  C   UNL A   1      40.656  27.934  29.352  1.00  0.00     0.049 A 
ATOM     43  N   UNL A   1      43.776  28.933  29.069  1.00  0.00    -0.248 NA
ATOM     44  C   UNL A   1      43.034  28.776  26.879  1.00  0.00     0.031 C 
ATOM     45  C   UNL A   1      39.371  27.241  29.519  1.00  0.00     0.029 A 
ATOM     46  N   UNL A   1      40.417  29.130  29.953  1.00  0.00    -0.354 N 
ATOM     47  C   UNL A   1      44.535  29.781  28.269  1.00  0.00     0.074 A 
ATOM     48  C   UNL A   1      44.156  29.500  26.909  1.00  0.00     0.031 C 
ATOM     49  C   UNL A   1      38.433  28.110  29.955  1.00  0.00     0.029 A 
ATOM     50  C   UNL A   1      39.084  29.365  30.273  1.00  0.00     0.049 A 
ATOM     51  H   UNL A   1      41.132  29.780  30.147  1.00  0.00     0.167 HD
ATOM     52  C   UNL A   1      45.221  30.824  28.816  1.00  0.00     0.037 A 
ATOM     53  C   UNL A   1      38.557  30.523  30.744  1.00  0.00     0.037 A 
ATOM     54  C   UNL A   1      45.369  30.646  30.241  1.00  0.00     0.049 A 
ATOM     55  C   UNL A   1      39.683  31.321  31.290  1.00  0.00     0.074 A 
ATOM     56  C   UNL A   1      45.955  29.688  31.044  1.00  0.00     0.029 A 
ATOM     57  N   UNL A   1      44.521  31.347  31.064  1.00  0.00    -0.354 N 
ATOM     58  N   UNL A   1      40.366  30.976  32.347  1.00  0.00    -0.248 NA
ATOM     59  C   UNL A   1      40.352  32.242  30.385  1.00  0.00     0.031 C 
ATOM     60  C   UNL A   1      45.069  29.543  32.152  1.00  0.00     0.029 A 
ATOM     61  C   UNL A   1      44.039  30.474  32.004  1.00  0.00     0.049 A 
ATOM     62  H   UNL A   1      44.300  32.304  30.992  1.00  0.00     0.167 HD
ATOM     63  C   UNL A   1      41.683  31.272  32.025  1.00  0.00     0.074 A 
ATOM     64  C   UNL A   1      41.603  32.121  30.838  1.00  0.00     0.031 C 
ATOM     65  C   UNL A   1      42.715  30.564  32.571  1.00  0.00     0.037 A 
BRANCH  52  66
ATOM     66  C   UNL A   1      45.398  32.175  28.158  1.00  0.00     0.064 A 
ATOM     67  C   UNL A   1      44.250  32.928  27.838  1.00  0.00     0.173 A 
ATOM     68  C   UNL A   1      46.595  32.612  27.550  1.00  0.00     0.173 A 
ATOM     69  F   UNL A   1      43.053  32.603  28.352  1.00  0.00    -0.203 F 
ATOM     70  C   UNL A   1      44.281  33.967  26.904  1.00  0.00     0.198 A 
ATOM     71  C   UNL A   1      46.632  33.684  26.659  1.00  0.00     0.198 A 
ATOM     72  F   UNL A   1      47.754  31.961  27.695  1.00  0.00    -0.203 F 
ATOM     73  F   UNL A   1      43.140  34.558  26.527  1.00  0.00    -0.200 F 
ATOM     74  C   UNL A   1      45.472  34.337  26.307  1.00  0.00     0.200 A 
ATOM     75  F   UNL A   1      47.795  34.016  26.081  1.00  0.00    -0.200 F 
ATOM     76  F   UNL A   1      45.495  35.283  25.360  1.00  0.00    -0.200 F 
ENDBRANCH  52  66
BRANCH  53  77
ATOM     77  C   UNL A   1      37.226  31.115  30.464  1.00  0.00     0.064 A 
ATOM     78  C   UNL A   1      36.324  31.392  31.505  1.00  0.00     0.173 A 
ATOM     79  C   UNL A   1      36.931  31.687  29.212  1.00  0.00     0.173 A 
ATOM     80  F   UNL A   1      36.556  30.923  32.740  1.00  0.00    -0.203 F 
ATOM     81  C   UNL A   1      35.209  32.215  31.310  1.00  0.00     0.198 A 
ATOM     82  C   UNL A   1      35.815  32.505  29.018  1.00  0.00     0.198 A 
ATOM     83  F   UNL A   1      37.771  31.544  28.176  1.00  0.00    -0.203 F 
ATOM     84  F   UNL A   1      34.406  32.510  32.343  1.00  0.00    -0.200 F 
ATOM     85  C   UNL A   1      34.963  32.780  30.070  1.00  0.00     0.200 A 
ATOM     86  F   UNL A   1      35.612  33.077  27.823  1.00  0.00    -0.200 F 
ATOM     87  F   UNL A   1      33.933  33.622  29.899  1.00  0.00    -0.200 F 
ENDBRANCH  53  77
BRANCH  65  88
ATOM     88  C   UNL A   1      42.404  29.635  33.714  1.00  0.00     0.064 A 
ATOM     89  C   UNL A   1      42.021  28.290  33.562  1.00  0.00     0.173 A 
ATOM     90  C   UNL A   1      42.650  30.087  35.017  1.00  0.00     0.173 A 
ATOM     91  F   UNL A   1      41.859  27.752  32.348  1.00  0.00    -0.203 F 
ATOM     92  C   UNL A   1      41.856  27.453  34.665  1.00  0.00     0.198 A 
ATOM     93  C   UNL A   1      42.520  29.241  36.114  1.00  0.00     0.198 A 
ATOM     94  F   UNL A   1      43.069  31.346  35.221  1.00  0.00    -0.203 F 
ATOM     95  F   UNL A   1      41.482  26.176  34.491  1.00  0.00    -0.200 F 
ATOM     96  C   UNL A   1      42.114  27.927  35.939  1.00  0.00     0.200 A 
ATOM     97  F   UNL A   1      42.818  29.691  37.340  1.00  0.00    -0.200 F 
ATOM     98  F   UNL A   1      41.998  27.113  36.998  1.00  0.00    -0.200 F 
ENDBRANCH  65  88
ENDBRANCH  39  40
ENDBRANCH  31  34
ENDBRANCH  29  30
ENDBRANCH  28  29
ENDBRANCH  27  28
ENDBRANCH   1  27
TORSDOF 16
ENDMDL
MODEL 3
REMARK VINA RESULT:     -11.7      2.003      6.780
REMARK SMILES Cc1nsc(NC(=O)c2ccc(N)cc2)c1C(=O)NCCCCCCNC(=O)c1ccc(-c2c3nc(c(-c4c(F)c(F)c(F)c(F)c4F)c4ccc([nH]4)c(-c4c(F)c(F)c(F)c(F)c4F)c4nc(c(-c5c(F)c(F)c(F)c(F)c5F)c5ccc2[nH]5)C=C4)C=C3)cc1
REMARK SMILES IDX 22 1 21 2 20 3 19 4 17 5 18 6 16 8 1 9 2 10 3 11 4 12 5 13
REMARK SMILES IDX 6 14 7 15 8 17 9 18 10 19 15 20 11 21 14 22 12 23 13 24
REMARK SMILES IDX 23 27 24 28 25 29 26 30 27 31 28 33 29 34 30 35 91 36 31 37
REMARK SMILES IDX 90 38 32 39 33 40 34 41 84 42 35 43 89 44 83 45 85 46 36 47
REMARK SMILES IDX 88 48 82 49 81 50 37 52 69 53 49 54 68 55 50 56 53 57 67 58
REMARK SMILES IDX 86 59 51 60 52 61 66 63 87 64 54 65 38 66 39 67 47 68 40 69
REMARK SMILES IDX 41 70 45 71 48 72 42 73 43 74 46 75 44 76 70 77 71 78 79 79
REMARK SMILES IDX 72 80 73 81 77 82 80 83 74 84 75 85 78 86 76 87 55 88 56 89
REMARK SMILES IDX 64 90 57 91 58 92 62 93 65 94 59 95 60 96 63 97 61 98
REMARK H PARENT 19 7 6 16 13 25 13 26 26 32 85 51 53 62
REMARK Flexibility Score: inf
ROOT
ATOM      1  C   UNL A   1      38.049  23.068  25.493  1.00  0.00     0.002 C 
ENDROOT
BRANCH   1   2
ATOM      2  C   UNL A   1      36.695  23.361  26.136  1.00  0.00     0.021 C 
BRANCH   2   3
ATOM      3  C   UNL A   1      35.567  23.826  25.228  1.00  0.00     0.116 C 
BRANCH   3   4
ATOM      4  N   UNL A   1      34.875  22.812  24.475  1.00  0.00    -0.352 N 
ATOM      5  C   UNL A   1      33.543  22.458  24.491  1.00  0.00     0.256 C 
ATOM      6  O   UNL A   1      33.197  21.585  23.690  1.00  0.00    -0.269 OA
ATOM      7  H   UNL A   1      35.439  22.291  23.857  1.00  0.00     0.163 HD
BRANCH   5   8
ATOM      8  C   UNL A   1      32.601  22.982  25.486  1.00  0.00     0.097 A 
ATOM      9  C   UNL A   1      33.470  22.228  27.896  1.00  0.00     0.069 C 
ATOM     10  C   UNL A   1      32.492  22.805  26.929  1.00  0.00     0.066 A 
ATOM     11  N   UNL A   1      31.358  23.238  27.484  1.00  0.00    -0.195 NA
ATOM     12  S   UNL A   1      30.463  23.999  26.338  1.00  0.00    -0.017 S 
ATOM     13  C   UNL A   1      31.650  23.940  25.121  1.00  0.00     0.129 A 
BRANCH  13  14
ATOM     14  N   UNL A   1      31.556  24.651  23.934  1.00  0.00    -0.312 N 
ATOM     15  C   UNL A   1      31.666  26.002  23.671  1.00  0.00     0.256 C 
ATOM     16  H   UNL A   1      31.381  24.095  23.141  1.00  0.00     0.171 HD
ATOM     17  O   UNL A   1      31.370  26.443  22.560  1.00  0.00    -0.269 OA
BRANCH  15  18
ATOM     18  C   UNL A   1      32.188  26.954  24.673  1.00  0.00     0.040 A 
ATOM     19  C   UNL A   1      33.559  27.064  24.926  1.00  0.00     0.016 A 
ATOM     20  C   UNL A   1      31.276  27.722  25.401  1.00  0.00     0.016 A 
ATOM     21  C   UNL A   1      33.999  27.836  26.005  1.00  0.00     0.026 A 
ATOM     22  C   UNL A   1      31.731  28.507  26.463  1.00  0.00     0.026 A 
ATOM     23  C   UNL A   1      33.088  28.536  26.801  1.00  0.00     0.031 A 
BRANCH  23  24
ATOM     24  N   UNL A   1      33.522  29.252  27.899  1.00  0.00    -0.399 N 
ATOM     25  H   UNL A   1      32.870  29.599  28.550  1.00  0.00     0.156 HD
ATOM     26  H   UNL A   1      34.484  29.415  28.032  1.00  0.00     0.156 HD
ENDBRANCH  23  24
ENDBRANCH  15  18
ENDBRANCH  13  14
ENDBRANCH   5   8
ENDBRANCH   3   4
ENDBRANCH   2   3
ENDBRANCH   1   2
BRANCH   1  27
ATOM     27  C   UNL A   1      38.957  22.028  26.162  1.00  0.00     0.002 C 
BRANCH  27  28
ATOM     28  C   UNL A   1      39.261  20.726  25.408  1.00  0.00     0.021 C 
BRANCH  28  29
ATOM     29  C   UNL A   1      39.735  19.569  26.269  1.00  0.00     0.116 C 
BRANCH  29  30
ATOM     30  N   UNL A   1      41.001  18.986  25.828  1.00  0.00    -0.352 N 
ATOM     31  C   UNL A   1      42.220  19.621  25.645  1.00  0.00     0.251 C 
ATOM     32  H   UNL A   1      40.986  18.020  25.637  1.00  0.00     0.163 HD
ATOM     33  O   UNL A   1      43.091  19.132  24.950  1.00  0.00    -0.269 OA
BRANCH  31  34
ATOM     34  C   UNL A   1      42.446  20.912  26.323  1.00  0.00     0.039 A 
ATOM     35  C   UNL A   1      42.760  22.077  25.618  1.00  0.00     0.014 A 
ATOM     36  C   UNL A   1      42.305  20.937  27.706  1.00  0.00     0.014 A 
ATOM     37  C   UNL A   1      42.856  23.278  26.318  1.00  0.00     0.010 A 
ATOM     38  C   UNL A   1      42.188  22.134  28.353  1.00  0.00     0.010 A 
ATOM     39  C   UNL A   1      42.550  23.297  27.688  1.00  0.00    -0.014 A 
BRANCH  39  40
ATOM     40  C   UNL A   1      42.510  24.537  28.450  1.00  0.00     0.031 A 
ATOM     41  C   UNL A   1      41.277  25.342  28.245  1.00  0.00     0.074 A 
ATOM     42  C   UNL A   1      43.395  24.803  29.437  1.00  0.00     0.049 A 
ATOM     43  N   UNL A   1      41.180  26.514  27.712  1.00  0.00    -0.248 NA
ATOM     44  C   UNL A   1      39.978  24.714  28.544  1.00  0.00     0.031 C 
ATOM     45  C   UNL A   1      44.465  23.944  29.964  1.00  0.00     0.029 A 
ATOM     46  N   UNL A   1      43.457  25.880  30.264  1.00  0.00    -0.354 N 
ATOM     47  C   UNL A   1      39.833  26.860  27.789  1.00  0.00     0.074 A 
ATOM     48  C   UNL A   1      39.126  25.654  28.128  1.00  0.00     0.031 C 
ATOM     49  C   UNL A   1      44.897  24.424  31.151  1.00  0.00     0.029 A 
ATOM     50  C   UNL A   1      44.272  25.711  31.379  1.00  0.00     0.049 A 
ATOM     51  H   UNL A   1      42.964  26.714  30.087  1.00  0.00     0.167 HD
ATOM     52  C   UNL A   1      39.454  28.168  27.821  1.00  0.00     0.037 A 
ATOM     53  C   UNL A   1      44.398  26.566  32.424  1.00  0.00     0.037 A 
ATOM     54  C   UNL A   1      40.523  29.022  27.364  1.00  0.00     0.049 A 
ATOM     55  C   UNL A   1      43.899  27.887  31.967  1.00  0.00     0.074 A 
ATOM     56  C   UNL A   1      41.237  29.138  26.187  1.00  0.00     0.029 A 
ATOM     57  N   UNL A   1      41.271  29.675  28.313  1.00  0.00    -0.354 N 
ATOM     58  N   UNL A   1      44.493  28.606  31.056  1.00  0.00    -0.248 NA
ATOM     59  C   UNL A   1      42.489  28.177  32.176  1.00  0.00     0.031 C 
ATOM     60  C   UNL A   1      42.579  29.402  26.595  1.00  0.00     0.029 A 
ATOM     61  C   UNL A   1      42.592  29.511  27.986  1.00  0.00     0.049 A 
ATOM     62  H   UNL A   1      40.921  30.171  29.089  1.00  0.00     0.167 HD
ATOM     63  C   UNL A   1      43.460  29.117  30.284  1.00  0.00     0.074 A 
ATOM     64  C   UNL A   1      42.248  28.883  31.067  1.00  0.00     0.031 C 
ATOM     65  C   UNL A   1      43.649  29.409  28.964  1.00  0.00     0.037 A 
BRANCH  52  66
ATOM     66  C   UNL A   1      38.295  28.705  28.632  1.00  0.00     0.064 A 
ATOM     67  C   UNL A   1      37.463  29.687  28.055  1.00  0.00     0.173 A 
ATOM     68  C   UNL A   1      38.156  28.540  30.027  1.00  0.00     0.173 A 
ATOM     69  F   UNL A   1      37.510  29.937  26.738  1.00  0.00    -0.203 F 
ATOM     70  C   UNL A   1      36.639  30.509  28.830  1.00  0.00     0.198 A 
ATOM     71  C   UNL A   1      37.292  29.326  30.790  1.00  0.00     0.198 A 
ATOM     72  F   UNL A   1      38.923  27.702  30.732  1.00  0.00    -0.203 F 
ATOM     73  F   UNL A   1      35.977  31.520  28.254  1.00  0.00    -0.200 F 
ATOM     74  C   UNL A   1      36.563  30.333  30.199  1.00  0.00     0.200 A 
ATOM     75  F   UNL A   1      37.245  29.149  32.118  1.00  0.00    -0.200 F 
ATOM     76  F   UNL A   1      35.830  31.162  30.953  1.00  0.00    -0.200 F 
ENDBRANCH  52  66
BRANCH  53  77
ATOM     77  C   UNL A   1      44.610  26.249  33.858  1.00  0.00     0.064 A 
ATOM     78  C   UNL A   1      43.557  25.773  34.658  1.00  0.00     0.173 A 
ATOM     79  C   UNL A   1      45.906  26.129  34.394  1.00  0.00     0.173 A 
ATOM     80  F   UNL A   1      42.297  25.809  34.203  1.00  0.00    -0.203 F 
ATOM     81  C   UNL A   1      43.792  25.187  35.907  1.00  0.00     0.198 A 
ATOM     82  C   UNL A   1      46.139  25.547  35.643  1.00  0.00     0.198 A 
ATOM     83  F   UNL A   1      46.983  26.483  33.676  1.00  0.00    -0.203 F 
ATOM     84  F   UNL A   1      42.768  24.685  36.613  1.00  0.00    -0.200 F 
ATOM     85  C   UNL A   1      45.083  25.063  36.392  1.00  0.00     0.200 A 
ATOM     86  F   UNL A   1      47.396  25.398  36.082  1.00  0.00    -0.200 F 
ATOM     87  F   UNL A   1      45.314  24.442  37.557  1.00  0.00    -0.200 F 
ENDBRANCH  53  77
BRANCH  65  88
ATOM     88  C   UNL A   1      45.059  29.407  28.438  1.00  0.00     0.064 A 
ATOM     89  C   UNL A   1      45.692  28.287  27.869  1.00  0.00     0.173 A 
ATOM     90  C   UNL A   1      45.741  30.629  28.372  1.00  0.00     0.173 A 
ATOM     91  F   UNL A   1      45.072  27.103  27.803  1.00  0.00    -0.203 F 
ATOM     92  C   UNL A   1      46.961  28.382  27.298  1.00  0.00     0.198 A 
ATOM     93  C   UNL A   1      46.992  30.730  27.771  1.00  0.00     0.198 A 
ATOM     94  F   UNL A   1      45.165  31.743  28.852  1.00  0.00    -0.203 F 
ATOM     95  F   UNL A   1      47.545  27.296  26.771  1.00  0.00    -0.200 F 
ATOM     96  C   UNL A   1      47.606  29.605  27.243  1.00  0.00     0.200 A 
ATOM     97  F   UNL A   1      47.589  31.925  27.677  1.00  0.00    -0.200 F 
ATOM     98  F   UNL A   1      48.807  29.708  26.657  1.00  0.00    -0.200 F 
ENDBRANCH  65  88
ENDBRANCH  39  40
ENDBRANCH  31  34
ENDBRANCH  29  30
ENDBRANCH  28  29
ENDBRANCH  27  28
ENDBRANCH   1  27
TORSDOF 16
ENDMDL
