MODEL 1
REMARK VINA RESULT:     -12.3      0.000      0.000
REMARK SMILES O=C(NCCCCCCNC(=O)c1ccc(-c2c3nc(c(-c4c(F)c(F)c(F)c(F)c4F)c4ccc([nH]4)c(-c4c(F)c(F)c(F)c(F)c4F)c4nc(c(-c5c(F)c(F)c(F)c(F)c5F)c5ccc2[nH]5)C=C4)C=C3)cc1)c1ccc(CNC(=O)c2ccccc2I)cc1
REMARK SMILES IDX 6 1 5 2 4 3 3 4 1 5 2 6 76 8 77 9 92 10 78 11 91 12 79 13
REMARK SMILES IDX 80 14 81 15 82 16 83 18 84 19 85 20 89 21 86 22 88 23 90 24
REMARK SMILES IDX 87 25 7 26 8 27 9 28 10 29 11 30 12 32 13 33 14 34 75 35
REMARK SMILES IDX 15 36 74 37 16 38 17 39 18 40 68 41 19 42 73 43 67 44 69 45
REMARK SMILES IDX 20 46 72 47 66 48 65 49 21 51 53 52 33 53 52 54 34 55 37 56
REMARK SMILES IDX 51 57 70 58 35 59 36 60 50 62 71 63 38 64 22 65 23 66 31 67
REMARK SMILES IDX 24 68 25 69 29 70 32 71 26 72 27 73 30 74 28 75 54 76 55 77
REMARK SMILES IDX 63 78 56 79 57 80 61 81 64 82 58 83 59 84 62 85 60 86 39 87
REMARK SMILES IDX 40 88 48 89 41 90 42 91 46 92 49 93 43 94 44 95 47 96 45 97
REMARK H PARENT 3 7 81 17 10 31 69 50 37 61
REMARK Flexibility Score: inf
ROOT
ATOM      1  C   UNL A   1      35.957  20.815  25.029  1.00  0.00     0.002 C 
ENDROOT
BRANCH   1   2
ATOM      2  C   UNL A   1      35.568  21.796  26.139  1.00  0.00     0.021 C 
BRANCH   2   3
ATOM      3  C   UNL A   1      34.336  21.404  26.951  1.00  0.00     0.116 C 
BRANCH   3   4
ATOM      4  N   UNL A   1      33.730  20.175  26.473  1.00  0.00    -0.352 N 
ATOM      5  O   UNL A   1      32.206  18.920  25.371  1.00  0.00    -0.269 OA
ATOM      6  C   UNL A   1      32.716  20.020  25.564  1.00  0.00     0.251 C 
ATOM      7  H   UNL A   1      34.097  19.343  26.852  1.00  0.00     0.163 HD
BRANCH   6   8
ATOM      8  C   UNL A   1      32.223  21.199  24.829  1.00  0.00     0.039 A 
ATOM      9  C   UNL A   1      32.556  21.387  23.483  1.00  0.00     0.014 A 
ATOM     10  C   UNL A   1      31.413  22.119  25.496  1.00  0.00     0.014 A 
ATOM     11  C   UNL A   1      32.120  22.532  22.819  1.00  0.00     0.006 A 
ATOM     12  C   UNL A   1      30.972  23.260  24.826  1.00  0.00     0.006 A 
ATOM     13  C   UNL A   1      31.327  23.478  23.485  1.00  0.00    -0.029 A 
BRANCH  13  14
ATOM     14  C   UNL A   1      30.815  24.685  22.744  1.00  0.00     0.152 C 
BRANCH  14  15
ATOM     15  N   UNL A   1      31.829  25.266  21.886  1.00  0.00    -0.348 N 
ATOM     16  C   UNL A   1      32.858  26.111  22.208  1.00  0.00     0.252 C 
ATOM     17  H   UNL A   1      31.771  25.016  20.936  1.00  0.00     0.164 HD
ATOM     18  O   UNL A   1      33.628  26.514  21.341  1.00  0.00    -0.269 OA
BRANCH  16  19
ATOM     19  C   UNL A   1      32.985  26.638  23.583  1.00  0.00     0.053 A 
ATOM     20  C   UNL A   1      33.840  25.916  24.431  1.00  0.00     0.015 A 
ATOM     21  C   UNL A   1      32.301  27.757  24.073  1.00  0.00     0.026 A 
ATOM     22  C   UNL A   1      34.061  26.344  25.740  1.00  0.00     0.001 A 
ATOM     23  C   UNL A   1      32.554  28.200  25.378  1.00  0.00     0.015 A 
ATOM     24  I   UNL A   1      30.821  28.781  22.996  1.00  0.00    -0.043 I 
ATOM     25  C   UNL A   1      33.436  27.498  26.205  1.00  0.00     0.001 A 
ENDBRANCH  16  19
ENDBRANCH  14  15
ENDBRANCH  13  14
ENDBRANCH   6   8
ENDBRANCH   3   4
ENDBRANCH   2   3
ENDBRANCH   1   2
BRANCH   1  26
ATOM     26  C   UNL A   1      37.423  20.861  24.588  1.00  0.00     0.002 C 
BRANCH  26  27
ATOM     27  C   UNL A   1      38.254  19.619  24.915  1.00  0.00     0.021 C 
BRANCH  27  28
ATOM     28  C   UNL A   1      39.208  19.761  26.096  1.00  0.00     0.116 C 
BRANCH  28  29
ATOM     29  N   UNL A   1      40.401  18.944  25.957  1.00  0.00    -0.352 N 
ATOM     30  C   UNL A   1      41.723  19.315  25.989  1.00  0.00     0.251 C 
ATOM     31  H   UNL A   1      40.238  17.983  25.819  1.00  0.00     0.163 HD
ATOM     32  O   UNL A   1      42.598  18.499  25.713  1.00  0.00    -0.269 OA
BRANCH  30  33
ATOM     33  C   UNL A   1      42.100  20.705  26.326  1.00  0.00     0.039 A 
ATOM     34  C   UNL A   1      42.311  21.035  27.668  1.00  0.00     0.014 A 
ATOM     35  C   UNL A   1      42.228  21.684  25.336  1.00  0.00     0.014 A 
ATOM     36  C   UNL A   1      42.709  22.329  28.012  1.00  0.00     0.010 A 
ATOM     37  C   UNL A   1      42.686  22.957  25.673  1.00  0.00     0.010 A 
ATOM     38  C   UNL A   1      42.931  23.292  27.014  1.00  0.00    -0.014 A 
BRANCH  38  39
ATOM     39  C   UNL A   1      43.420  24.652  27.354  1.00  0.00     0.031 A 
ATOM     40  C   UNL A   1      42.476  25.675  27.922  1.00  0.00     0.074 A 
ATOM     41  C   UNL A   1      44.698  24.985  27.092  1.00  0.00     0.049 A 
ATOM     42  N   UNL A   1      42.695  26.934  28.208  1.00  0.00    -0.248 NA
ATOM     43  C   UNL A   1      41.098  25.232  28.178  1.00  0.00     0.031 C 
ATOM     44  C   UNL A   1      45.701  24.095  26.504  1.00  0.00     0.029 A 
ATOM     45  N   UNL A   1      45.371  26.168  27.275  1.00  0.00    -0.354 N 
ATOM     46  C   UNL A   1      41.481  27.435  28.659  1.00  0.00     0.074 A 
ATOM     47  C   UNL A   1      40.519  26.358  28.570  1.00  0.00     0.031 C 
ATOM     48  C   UNL A   1      46.862  24.758  26.388  1.00  0.00     0.029 A 
ATOM     49  C   UNL A   1      46.680  26.127  26.860  1.00  0.00     0.049 A 
ATOM     50  H   UNL A   1      44.954  26.969  27.665  1.00  0.00     0.167 HD
ATOM     51  C   UNL A   1      41.200  28.676  29.123  1.00  0.00     0.037 A 
ATOM     52  C   UNL A   1      47.623  27.088  26.856  1.00  0.00     0.037 A 
ATOM     53  C   UNL A   1      42.166  29.737  29.243  1.00  0.00     0.049 A 
ATOM     54  C   UNL A   1      47.284  28.456  27.384  1.00  0.00     0.074 A 
ATOM     55  C   UNL A   1      41.992  31.007  29.766  1.00  0.00     0.029 A 
ATOM     56  N   UNL A   1      43.489  29.649  28.838  1.00  0.00    -0.354 N 
ATOM     57  N   UNL A   1      46.150  28.897  27.869  1.00  0.00    -0.248 NA
ATOM     58  C   UNL A   1      48.360  29.457  27.368  1.00  0.00     0.031 C 
ATOM     59  C   UNL A   1      43.199  31.700  29.641  1.00  0.00     0.029 A 
ATOM     60  C   UNL A   1      44.138  30.848  29.082  1.00  0.00     0.049 A 
ATOM     61  H   UNL A   1      43.906  28.852  28.437  1.00  0.00     0.167 HD
ATOM     62  C   UNL A   1      46.382  30.214  28.242  1.00  0.00     0.074 A 
ATOM     63  C   UNL A   1      47.770  30.497  27.938  1.00  0.00     0.031 C 
ATOM     64  C   UNL A   1      45.523  31.109  28.786  1.00  0.00     0.037 A 
BRANCH  51  65
ATOM     65  C   UNL A   1      39.788  28.958  29.543  1.00  0.00     0.064 A 
ATOM     66  C   UNL A   1      38.832  29.436  28.634  1.00  0.00     0.173 A 
ATOM     67  C   UNL A   1      39.371  28.698  30.857  1.00  0.00     0.173 A 
ATOM     68  F   UNL A   1      39.184  29.709  27.368  1.00  0.00    -0.203 F 
ATOM     69  C   UNL A   1      37.518  29.665  29.030  1.00  0.00     0.198 A 
ATOM     70  C   UNL A   1      38.050  28.903  31.243  1.00  0.00     0.198 A 
ATOM     71  F   UNL A   1      40.244  28.234  31.764  1.00  0.00    -0.203 F 
ATOM     72  F   UNL A   1      36.632  30.158  28.154  1.00  0.00    -0.200 F 
ATOM     73  C   UNL A   1      37.125  29.390  30.332  1.00  0.00     0.200 A 
ATOM     74  F   UNL A   1      37.669  28.626  32.499  1.00  0.00    -0.200 F 
ATOM     75  F   UNL A   1      35.857  29.602  30.709  1.00  0.00    -0.200 F 
ENDBRANCH  51  65
BRANCH  52  76
ATOM     76  C   UNL A   1      48.990  26.785  26.356  1.00  0.00     0.064 A 
ATOM     77  C   UNL A   1      49.964  26.252  27.212  1.00  0.00     0.173 A 
ATOM     78  C   UNL A   1      49.353  27.035  25.025  1.00  0.00     0.173 A 
ATOM     79  F   UNL A   1      49.669  26.017  28.498  1.00  0.00    -0.203 F 
ATOM     80  C   UNL A   1      51.258  26.000  26.758  1.00  0.00     0.198 A 
ATOM     81  C   UNL A   1      50.639  26.758  24.568  1.00  0.00     0.198 A 
ATOM     82  F   UNL A   1      48.455  27.541  24.168  1.00  0.00    -0.203 F 
ATOM     83  F   UNL A   1      52.183  25.533  27.608  1.00  0.00    -0.200 F 
ATOM     84  C   UNL A   1      51.593  26.248  25.436  1.00  0.00     0.200 A 
ATOM     85  F   UNL A   1      50.956  26.987  23.286  1.00  0.00    -0.200 F 
ATOM     86  F   UNL A   1      52.836  26.005  25.001  1.00  0.00    -0.200 F 
ENDBRANCH  52  76
BRANCH  64  87
ATOM     87  C   UNL A   1      46.066  32.465  29.125  1.00  0.00     0.064 A 
ATOM     88  C   UNL A   1      46.665  32.727  30.367  1.00  0.00     0.173 A 
ATOM     89  C   UNL A   1      46.021  33.504  28.183  1.00  0.00     0.173 A 
ATOM     90  F   UNL A   1      46.716  31.770  31.306  1.00  0.00    -0.203 F 
ATOM     91  C   UNL A   1      47.180  33.987  30.659  1.00  0.00     0.198 A 
ATOM     92  C   UNL A   1      46.561  34.754  28.469  1.00  0.00     0.198 A 
ATOM     93  F   UNL A   1      45.463  33.301  26.980  1.00  0.00    -0.203 F 
ATOM     94  F   UNL A   1      47.708  34.228  31.867  1.00  0.00    -0.200 F 
ATOM     95  C   UNL A   1      47.134  34.996  29.709  1.00  0.00     0.200 A 
ATOM     96  F   UNL A   1      46.526  35.724  27.547  1.00  0.00    -0.200 F 
ATOM     97  F   UNL A   1      47.636  36.206  29.991  1.00  0.00    -0.200 F 
ENDBRANCH  64  87
ENDBRANCH  38  39
ENDBRANCH  30  33
ENDBRANCH  28  29
ENDBRANCH  27  28
ENDBRANCH  26  27
ENDBRANCH   1  26
TORSDOF 16
ENDMDL
MODEL 2
REMARK VINA RESULT:     -12.3      5.417     10.919
REMARK SMILES O=C(NCCCCCCNC(=O)c1ccc(-c2c3nc(c(-c4c(F)c(F)c(F)c(F)c4F)c4ccc([nH]4)c(-c4c(F)c(F)c(F)c(F)c4F)c4nc(c(-c5c(F)c(F)c(F)c(F)c5F)c5ccc2[nH]5)C=C4)C=C3)cc1)c1ccc(CNC(=O)c2ccccc2I)cc1
REMARK SMILES IDX 6 1 5 2 4 3 3 4 1 5 2 6 76 8 77 9 92 10 78 11 91 12 79 13
REMARK SMILES IDX 80 14 81 15 82 16 83 18 84 19 85 20 89 21 86 22 88 23 90 24
REMARK SMILES IDX 87 25 7 26 8 27 9 28 10 29 11 30 12 32 13 33 14 34 75 35
REMARK SMILES IDX 15 36 74 37 16 38 17 39 18 40 68 41 19 42 73 43 67 44 69 45
REMARK SMILES IDX 20 46 72 47 66 48 65 49 21 51 53 52 33 53 52 54 34 55 37 56
REMARK SMILES IDX 51 57 70 58 35 59 36 60 50 62 71 63 38 64 22 65 23 66 31 67
REMARK SMILES IDX 24 68 25 69 29 70 32 71 26 72 27 73 30 74 28 75 54 76 55 77
REMARK SMILES IDX 63 78 56 79 57 80 61 81 64 82 58 83 59 84 62 85 60 86 39 87
REMARK SMILES IDX 40 88 48 89 41 90 42 91 46 92 49 93 43 94 44 95 47 96 45 97
REMARK H PARENT 3 7 81 17 10 31 69 50 37 61
REMARK Flexibility Score: inf
ROOT
ATOM      1  C   UNL A   1      32.675  30.130  26.311  1.00  0.00     0.002 C 
ENDROOT
BRANCH   1   2
ATOM      2  C   UNL A   1      32.950  28.947  27.244  1.00  0.00     0.021 C 
BRANCH   2   3
ATOM      3  C   UNL A   1      31.822  27.924  27.347  1.00  0.00     0.116 C 
BRANCH   3   4
ATOM      4  N   UNL A   1      31.197  27.662  26.063  1.00  0.00    -0.352 N 
ATOM      5  O   UNL A   1      30.792  26.501  24.166  1.00  0.00    -0.269 OA
ATOM      6  C   UNL A   1      31.249  26.521  25.305  1.00  0.00     0.251 C 
ATOM      7  H   UNL A   1      30.668  28.402  25.688  1.00  0.00     0.163 HD
BRANCH   6   8
ATOM      8  C   UNL A   1      31.881  25.313  25.866  1.00  0.00     0.039 A 
ATOM      9  C   UNL A   1      31.097  24.279  26.388  1.00  0.00     0.014 A 
ATOM     10  C   UNL A   1      33.273  25.217  25.861  1.00  0.00     0.014 A 
ATOM     11  C   UNL A   1      31.714  23.167  26.957  1.00  0.00     0.006 A 
ATOM     12  C   UNL A   1      33.887  24.099  26.425  1.00  0.00     0.006 A 
ATOM     13  C   UNL A   1      33.114  23.069  26.982  1.00  0.00    -0.029 A 
BRANCH  13  14
ATOM     14  C   UNL A   1      33.771  21.839  27.550  1.00  0.00     0.152 C 
BRANCH  14  15
ATOM     15  N   UNL A   1      33.500  20.660  26.753  1.00  0.00    -0.348 N 
ATOM     16  C   UNL A   1      33.985  20.317  25.518  1.00  0.00     0.252 C 
ATOM     17  H   UNL A   1      32.878  20.012  27.156  1.00  0.00     0.164 HD
ATOM     18  O   UNL A   1      33.638  19.269  24.981  1.00  0.00    -0.269 OA
BRANCH  16  19
ATOM     19  C   UNL A   1      34.844  21.258  24.769  1.00  0.00     0.053 A 
ATOM     20  C   UNL A   1      36.182  21.324  25.191  1.00  0.00     0.015 A 
ATOM     21  C   UNL A   1      34.403  22.077  23.723  1.00  0.00     0.026 A 
ATOM     22  C   UNL A   1      37.089  22.153  24.532  1.00  0.00     0.001 A 
ATOM     23  C   UNL A   1      35.328  22.882  23.043  1.00  0.00     0.015 A 
ATOM     24  I   UNL A   1      32.393  22.256  23.151  1.00  0.00    -0.043 I 
ATOM     25  C   UNL A   1      36.666  22.914  23.445  1.00  0.00     0.001 A 
ENDBRANCH  16  19
ENDBRANCH  14  15
ENDBRANCH  13  14
ENDBRANCH   6   8
ENDBRANCH   3   4
ENDBRANCH   2   3
ENDBRANCH   1   2
BRANCH   1  26
ATOM     26  C   UNL A   1      31.352  30.865  26.545  1.00  0.00     0.002 C 
BRANCH  26  27
ATOM     27  C   UNL A   1      31.431  32.394  26.535  1.00  0.00     0.021 C 
BRANCH  27  28
ATOM     28  C   UNL A   1      32.618  32.993  27.280  1.00  0.00     0.116 C 
BRANCH  28  29
ATOM     29  N   UNL A   1      32.378  34.359  27.714  1.00  0.00    -0.352 N 
ATOM     30  C   UNL A   1      33.001  35.085  28.698  1.00  0.00     0.251 C 
ATOM     31  H   UNL A   1      31.663  34.833  27.231  1.00  0.00     0.163 HD
ATOM     32  O   UNL A   1      32.567  36.187  29.018  1.00  0.00    -0.269 OA
BRANCH  30  33
ATOM     33  C   UNL A   1      34.180  34.532  29.400  1.00  0.00     0.039 A 
ATOM     34  C   UNL A   1      33.994  33.920  30.642  1.00  0.00     0.014 A 
ATOM     35  C   UNL A   1      35.463  34.629  28.853  1.00  0.00     0.014 A 
ATOM     36  C   UNL A   1      35.083  33.351  31.308  1.00  0.00     0.010 A 
ATOM     37  C   UNL A   1      36.537  34.007  29.487  1.00  0.00     0.010 A 
ATOM     38  C   UNL A   1      36.358  33.362  30.720  1.00  0.00    -0.014 A 
BRANCH  38  39
ATOM     39  C   UNL A   1      37.513  32.703  31.380  1.00  0.00     0.031 A 
ATOM     40  C   UNL A   1      38.213  31.554  30.708  1.00  0.00     0.074 A 
ATOM     41  C   UNL A   1      37.892  33.097  32.610  1.00  0.00     0.049 A 
ATOM     42  N   UNL A   1      39.187  30.802  31.156  1.00  0.00    -0.248 NA
ATOM     43  C   UNL A   1      37.740  31.186  29.365  1.00  0.00     0.031 C 
ATOM     44  C   UNL A   1      37.268  34.170  33.384  1.00  0.00     0.029 A 
ATOM     45  N   UNL A   1      38.886  32.629  33.434  1.00  0.00    -0.354 N 
ATOM     46  C   UNL A   1      39.428  29.864  30.161  1.00  0.00     0.074 A 
ATOM     47  C   UNL A   1      38.472  30.114  29.103  1.00  0.00     0.031 C 
ATOM     48  C   UNL A   1      37.901  34.290  34.562  1.00  0.00     0.029 A 
ATOM     49  C   UNL A   1      38.953  33.281  34.641  1.00  0.00     0.049 A 
ATOM     50  H   UNL A   1      39.494  31.897  33.183  1.00  0.00     0.167 HD
ATOM     51  C   UNL A   1      40.373  28.894  30.126  1.00  0.00     0.037 A 
ATOM     52  C   UNL A   1      39.768  33.081  35.696  1.00  0.00     0.037 A 
ATOM     53  C   UNL A   1      41.345  28.669  31.163  1.00  0.00     0.049 A 
ATOM     54  C   UNL A   1      40.812  32.001  35.626  1.00  0.00     0.074 A 
ATOM     55  C   UNL A   1      42.385  27.755  31.188  1.00  0.00     0.029 A 
ATOM     56  N   UNL A   1      41.398  29.367  32.360  1.00  0.00    -0.354 N 
ATOM     57  N   UNL A   1      41.073  31.164  34.652  1.00  0.00    -0.248 NA
ATOM     58  C   UNL A   1      41.681  31.843  36.801  1.00  0.00     0.031 C 
ATOM     59  C   UNL A   1      43.043  27.875  32.415  1.00  0.00     0.029 A 
ATOM     60  C   UNL A   1      42.441  28.892  33.138  1.00  0.00     0.049 A 
ATOM     61  H   UNL A   1      40.785  30.093  32.619  1.00  0.00     0.167 HD
ATOM     62  C   UNL A   1      42.150  30.401  35.083  1.00  0.00     0.074 A 
ATOM     63  C   UNL A   1      42.503  30.884  36.402  1.00  0.00     0.031 C 
ATOM     64  C   UNL A   1      42.788  29.391  34.444  1.00  0.00     0.037 A 
BRANCH  51  65
ATOM     65  C   UNL A   1      40.409  28.002  28.921  1.00  0.00     0.064 A 
ATOM     66  C   UNL A   1      41.176  28.324  27.791  1.00  0.00     0.173 A 
ATOM     67  C   UNL A   1      39.710  26.785  28.915  1.00  0.00     0.173 A 
ATOM     68  F   UNL A   1      41.854  29.480  27.745  1.00  0.00    -0.203 F 
ATOM     69  C   UNL A   1      41.224  27.472  26.691  1.00  0.00     0.198 A 
ATOM     70  C   UNL A   1      39.781  25.924  27.824  1.00  0.00     0.198 A 
ATOM     71  F   UNL A   1      38.967  26.427  29.973  1.00  0.00    -0.203 F 
ATOM     72  F   UNL A   1      41.932  27.819  25.608  1.00  0.00    -0.200 F 
ATOM     73  C   UNL A   1      40.533  26.269  26.711  1.00  0.00     0.200 A 
ATOM     74  F   UNL A   1      39.122  24.756  27.849  1.00  0.00    -0.200 F 
ATOM     75  F   UNL A   1      40.588  25.446  25.655  1.00  0.00    -0.200 F 
ENDBRANCH  51  65
BRANCH  52  76
ATOM     76  C   UNL A   1      39.644  33.940  36.902  1.00  0.00     0.064 A 
ATOM     77  C   UNL A   1      38.857  33.537  37.990  1.00  0.00     0.173 A 
ATOM     78  C   UNL A   1      40.294  35.179  36.988  1.00  0.00     0.173 A 
ATOM     79  F   UNL A   1      38.199  32.369  37.945  1.00  0.00    -0.203 F 
ATOM     80  C   UNL A   1      38.707  34.353  39.110  1.00  0.00     0.198 A 
ATOM     81  C   UNL A   1      40.164  35.981  38.119  1.00  0.00     0.198 A 
ATOM     82  F   UNL A   1      41.061  35.607  35.975  1.00  0.00    -0.203 F 
ATOM     83  F   UNL A   1      37.912  33.965  40.117  1.00  0.00    -0.200 F 
ATOM     84  C   UNL A   1      39.365  35.572  39.176  1.00  0.00     0.200 A 
ATOM     85  F   UNL A   1      40.810  37.154  38.185  1.00  0.00    -0.200 F 
ATOM     86  F   UNL A   1      39.221  36.356  40.253  1.00  0.00    -0.200 F 
ENDBRANCH  52  76
BRANCH  64  87
ATOM     87  C   UNL A   1      43.958  28.765  35.143  1.00  0.00     0.064 A 
ATOM     88  C   UNL A   1      45.262  29.253  34.972  1.00  0.00     0.173 A 
ATOM     89  C   UNL A   1      43.766  27.690  36.023  1.00  0.00     0.173 A 
ATOM     90  F   UNL A   1      45.498  30.269  34.128  1.00  0.00    -0.203 F 
ATOM     91  C   UNL A   1      46.335  28.672  35.643  1.00  0.00     0.198 A 
ATOM     92  C   UNL A   1      44.836  27.129  36.712  1.00  0.00     0.198 A 
ATOM     93  F   UNL A   1      42.537  27.192  36.223  1.00  0.00    -0.203 F 
ATOM     94  F   UNL A   1      47.578  29.125  35.432  1.00  0.00    -0.200 F 
ATOM     95  C   UNL A   1      46.121  27.615  36.516  1.00  0.00     0.200 A 
ATOM     96  F   UNL A   1      44.627  26.116  37.564  1.00  0.00    -0.200 F 
ATOM     97  F   UNL A   1      47.154  27.062  37.165  1.00  0.00    -0.200 F 
ENDBRANCH  64  87
ENDBRANCH  38  39
ENDBRANCH  30  33
ENDBRANCH  28  29
ENDBRANCH  27  28
ENDBRANCH  26  27
ENDBRANCH   1  26
TORSDOF 16
ENDMDL
MODEL 3
REMARK VINA RESULT:     -12.2      0.767      7.345
REMARK SMILES O=C(NCCCCCCNC(=O)c1ccc(-c2c3nc(c(-c4c(F)c(F)c(F)c(F)c4F)c4ccc([nH]4)c(-c4c(F)c(F)c(F)c(F)c4F)c4nc(c(-c5c(F)c(F)c(F)c(F)c5F)c5ccc2[nH]5)C=C4)C=C3)cc1)c1ccc(CNC(=O)c2ccccc2I)cc1
REMARK SMILES IDX 6 1 5 2 4 3 3 4 1 5 2 6 76 8 77 9 92 10 78 11 91 12 79 13
REMARK SMILES IDX 80 14 81 15 82 16 83 18 84 19 85 20 89 21 86 22 88 23 90 24
REMARK SMILES IDX 87 25 7 26 8 27 9 28 10 29 11 30 12 32 13 33 14 34 75 35
REMARK SMILES IDX 15 36 74 37 16 38 17 39 18 40 68 41 19 42 73 43 67 44 69 45
REMARK SMILES IDX 20 46 72 47 66 48 65 49 21 51 53 52 33 53 52 54 34 55 37 56
REMARK SMILES IDX 51 57 70 58 35 59 36 60 50 62 71 63 38 64 22 65 23 66 31 67
REMARK SMILES IDX 24 68 25 69 29 70 32 71 26 72 27 73 30 74 28 75 54 76 55 77
REMARK SMILES IDX 63 78 56 79 57 80 61 81 64 82 58 83 59 84 62 85 60 86 39 87
REMARK SMILES IDX 40 88 48 89 41 90 42 91 46 92 49 93 43 94 44 95 47 96 45 97
REMARK H PARENT 3 7 81 17 10 31 69 50 37 61
REMARK Flexibility Score: inf
ROOT
ATOM      1  C   UNL A   1      35.836  20.878  25.091  1.00  0.00     0.002 C 
ENDROOT
BRANCH   1   2
ATOM      2  C   UNL A   1      35.494  21.697  26.340  1.00  0.00     0.021 C 
BRANCH   2   3
ATOM      3  C   UNL A   1      34.170  21.339  27.010  1.00  0.00     0.116 C 
BRANCH   3   4
ATOM      4  N   UNL A   1      33.581  20.134  26.456  1.00  0.00    -0.352 N 
ATOM      5  O   UNL A   1      32.092  18.933  25.250  1.00  0.00    -0.269 OA
ATOM      6  C   UNL A   1      32.594  20.022  25.511  1.00  0.00     0.251 C 
ATOM      7  H   UNL A   1      33.937  19.285  26.805  1.00  0.00     0.163 HD
BRANCH   6   8
ATOM      8  C   UNL A   1      32.121  21.235  24.819  1.00  0.00     0.039 A 
ATOM      9  C   UNL A   1      32.506  21.495  23.499  1.00  0.00     0.014 A 
ATOM     10  C   UNL A   1      31.279  22.115  25.500  1.00  0.00     0.014 A 
ATOM     11  C   UNL A   1      32.088  22.670  22.878  1.00  0.00     0.006 A 
ATOM     12  C   UNL A   1      30.857  23.287  24.873  1.00  0.00     0.006 A 
ATOM     13  C   UNL A   1      31.262  23.576  23.560  1.00  0.00    -0.029 A 
BRANCH  13  14
ATOM     14  C   UNL A   1      30.771  24.818  22.863  1.00  0.00     0.152 C 
BRANCH  14  15
ATOM     15  N   UNL A   1      31.818  25.459  22.093  1.00  0.00    -0.348 N 
ATOM     16  C   UNL A   1      32.630  26.507  22.438  1.00  0.00     0.252 C 
ATOM     17  H   UNL A   1      31.969  25.087  21.195  1.00  0.00     0.164 HD
ATOM     18  O   UNL A   1      33.469  26.931  21.649  1.00  0.00    -0.269 OA
BRANCH  16  19
ATOM     19  C   UNL A   1      32.428  27.214  23.720  1.00  0.00     0.053 A 
ATOM     20  C   UNL A   1      31.652  28.382  23.652  1.00  0.00     0.015 A 
ATOM     21  C   UNL A   1      32.975  26.812  24.945  1.00  0.00     0.026 A 
ATOM     22  C   UNL A   1      31.369  29.109  24.808  1.00  0.00     0.001 A 
ATOM     23  C   UNL A   1      32.658  27.528  26.108  1.00  0.00     0.015 A 
ATOM     24  I   UNL A   1      34.340  25.233  25.150  1.00  0.00    -0.043 I 
ATOM     25  C   UNL A   1      31.853  28.669  26.037  1.00  0.00     0.001 A 
ENDBRANCH  16  19
ENDBRANCH  14  15
ENDBRANCH  13  14
ENDBRANCH   6   8
ENDBRANCH   3   4
ENDBRANCH   2   3
ENDBRANCH   1   2
BRANCH   1  26
ATOM     26  C   UNL A   1      37.284  20.983  24.606  1.00  0.00     0.002 C 
BRANCH  26  27
ATOM     27  C   UNL A   1      38.183  19.789  24.935  1.00  0.00     0.021 C 
BRANCH  27  28
ATOM     28  C   UNL A   1      39.205  20.025  26.042  1.00  0.00     0.116 C 
BRANCH  28  29
ATOM     29  N   UNL A   1      40.338  19.120  25.963  1.00  0.00    -0.352 N 
ATOM     30  C   UNL A   1      41.682  19.393  26.032  1.00  0.00     0.251 C 
ATOM     31  H   UNL A   1      40.109  18.170  25.842  1.00  0.00     0.163 HD
ATOM     32  O   UNL A   1      42.503  18.510  25.806  1.00  0.00    -0.269 OA
BRANCH  30  33
ATOM     33  C   UNL A   1      42.149  20.760  26.351  1.00  0.00     0.039 A 
ATOM     34  C   UNL A   1      42.412  21.640  25.297  1.00  0.00     0.014 A 
ATOM     35  C   UNL A   1      42.347  21.172  27.672  1.00  0.00     0.014 A 
ATOM     36  C   UNL A   1      42.813  22.951  25.568  1.00  0.00     0.010 A 
ATOM     37  C   UNL A   1      42.686  22.497  27.944  1.00  0.00     0.010 A 
ATOM     38  C   UNL A   1      42.922  23.399  26.895  1.00  0.00    -0.014 A 
BRANCH  38  39
ATOM     39  C   UNL A   1      43.281  24.806  27.203  1.00  0.00     0.031 A 
ATOM     40  C   UNL A   1      44.685  25.296  26.979  1.00  0.00     0.074 A 
ATOM     41  C   UNL A   1      42.359  25.625  27.744  1.00  0.00     0.049 A 
ATOM     42  N   UNL A   1      45.209  26.463  27.259  1.00  0.00    -0.248 NA
ATOM     43  C   UNL A   1      45.631  24.340  26.384  1.00  0.00     0.031 C 
ATOM     44  C   UNL A   1      40.976  25.258  28.049  1.00  0.00     0.029 A 
ATOM     45  N   UNL A   1      42.451  26.934  28.148  1.00  0.00    -0.354 N 
ATOM     46  C   UNL A   1      46.546  26.373  26.893  1.00  0.00     0.074 A 
ATOM     47  C   UNL A   1      46.763  25.027  26.409  1.00  0.00     0.031 C 
ATOM     48  C   UNL A   1      40.345  26.319  28.576  1.00  0.00     0.029 A 
ATOM     49  C   UNL A   1      41.285  27.430  28.679  1.00  0.00     0.049 A 
ATOM     50  H   UNL A   1      43.274  27.467  28.065  1.00  0.00     0.167 HD
ATOM     51  C   UNL A   1      47.499  27.335  26.939  1.00  0.00     0.037 A 
ATOM     52  C   UNL A   1      41.010  28.643  29.197  1.00  0.00     0.037 A 
ATOM     53  C   UNL A   1      47.273  28.683  27.388  1.00  0.00     0.049 A 
ATOM     54  C   UNL A   1      42.088  29.692  29.230  1.00  0.00     0.074 A 
ATOM     55  C   UNL A   1      48.160  29.746  27.407  1.00  0.00     0.029 A 
ATOM     56  N   UNL A   1      46.072  29.155  27.894  1.00  0.00    -0.354 N 
ATOM     57  N   UNL A   1      43.329  29.616  28.819  1.00  0.00    -0.248 NA
ATOM     58  C   UNL A   1      41.721  31.000  29.792  1.00  0.00     0.031 C 
ATOM     59  C   UNL A   1      47.506  30.851  27.961  1.00  0.00     0.029 A 
ATOM     60  C   UNL A   1      46.199  30.489  28.246  1.00  0.00     0.049 A 
ATOM     61  H   UNL A   1      45.249  28.622  27.989  1.00  0.00     0.167 HD
ATOM     62  C   UNL A   1      43.884  30.868  29.046  1.00  0.00     0.074 A 
ATOM     63  C   UNL A   1      42.838  31.691  29.619  1.00  0.00     0.031 C 
ATOM     64  C   UNL A   1      45.146  31.298  28.803  1.00  0.00     0.037 A 
BRANCH  51  65
ATOM     65  C   UNL A   1      48.880  26.965  26.486  1.00  0.00     0.064 A 
ATOM     66  C   UNL A   1      49.835  26.454  27.379  1.00  0.00     0.173 A 
ATOM     67  C   UNL A   1      49.239  27.073  25.134  1.00  0.00     0.173 A 
ATOM     68  F   UNL A   1      49.543  26.341  28.684  1.00  0.00    -0.203 F 
ATOM     69  C   UNL A   1      51.103  26.087  26.940  1.00  0.00     0.198 A 
ATOM     70  C   UNL A   1      50.499  26.680  24.693  1.00  0.00     0.198 A 
ATOM     71  F   UNL A   1      48.361  27.549  24.237  1.00  0.00    -0.203 F 
ATOM     72  F   UNL A   1      52.011  25.639  27.817  1.00  0.00    -0.200 F 
ATOM     73  C   UNL A   1      51.432  26.192  25.595  1.00  0.00     0.200 A 
ATOM     74  F   UNL A   1      50.812  26.771  23.392  1.00  0.00    -0.200 F 
ATOM     75  F   UNL A   1      52.650  25.829  25.172  1.00  0.00    -0.200 F 
ENDBRANCH  51  65
BRANCH  52  76
ATOM     76  C   UNL A   1      39.647  28.940  29.708  1.00  0.00     0.064 A 
ATOM     77  C   UNL A   1      39.288  28.614  31.024  1.00  0.00     0.173 A 
ATOM     78  C   UNL A   1      38.675  29.538  28.894  1.00  0.00     0.173 A 
ATOM     79  F   UNL A   1      40.177  28.020  31.833  1.00  0.00    -0.203 F 
ATOM     80  C   UNL A   1      38.000  28.857  31.499  1.00  0.00     0.198 A 
ATOM     81  C   UNL A   1      37.396  29.804  29.379  1.00  0.00     0.198 A 
ATOM     82  F   UNL A   1      38.971  29.871  27.630  1.00  0.00    -0.203 F 
ATOM     83  F   UNL A   1      37.670  28.493  32.746  1.00  0.00    -0.200 F 
ATOM     84  C   UNL A   1      37.057  29.456  30.678  1.00  0.00     0.200 A 
ATOM     85  F   UNL A   1      36.490  30.394  28.586  1.00  0.00    -0.200 F 
ATOM     86  F   UNL A   1      35.820  29.689  31.134  1.00  0.00    -0.200 F 
ENDBRANCH  52  76
BRANCH  64  87
ATOM     87  C   UNL A   1      45.457  32.730  29.117  1.00  0.00     0.064 A 
ATOM     88  C   UNL A   1      45.238  33.752  28.181  1.00  0.00     0.173 A 
ATOM     89  C   UNL A   1      45.943  33.090  30.383  1.00  0.00     0.173 A 
ATOM     90  F   UNL A   1      44.790  33.456  26.951  1.00  0.00    -0.203 F 
ATOM     91  C   UNL A   1      45.516  35.080  28.495  1.00  0.00     0.198 A 
ATOM     92  C   UNL A   1      46.194  34.420  30.702  1.00  0.00     0.198 A 
ATOM     93  F   UNL A   1      46.163  32.150  31.314  1.00  0.00    -0.203 F 
ATOM     94  F   UNL A   1      45.341  36.034  27.571  1.00  0.00    -0.200 F 
ATOM     95  C   UNL A   1      45.987  35.414  29.756  1.00  0.00     0.200 A 
ATOM     96  F   UNL A   1      46.637  34.743  31.925  1.00  0.00    -0.200 F 
ATOM     97  F   UNL A   1      46.247  36.693  30.058  1.00  0.00    -0.200 F 
ENDBRANCH  64  87
ENDBRANCH  38  39
ENDBRANCH  30  33
ENDBRANCH  28  29
ENDBRANCH  27  28
ENDBRANCH  26  27
ENDBRANCH   1  26
TORSDOF 16
ENDMDL
