MODEL 1
REMARK VINA RESULT:     -12.5      0.000      0.000
REMARK SMILES O=C(Cc1ccccc1Nc1c(F)cccc1C(F)(F)F)NCCCCCCNC(=O)c1ccc(-c2c3nc(c(-c4c(F)c(F)c(F)c(F)c4F)c4ccc([nH]4)c(-c4c(F)c(F)c(F)c(F)c4F)c4nc(c(-c5c(F)c(F)c(F)c(F)c5F)c5ccc2[nH]5)C=C4)C=C3)cc1
REMARK SMILES IDX 24 1 23 2 22 3 1 4 2 5 3 7 4 8 5 9 9 10 6 11 8 12 7 13 10 14
REMARK SMILES IDX 11 16 12 17 17 18 13 19 14 20 16 21 15 22 18 23 19 24 20 25
REMARK SMILES IDX 21 26 25 27 26 28 27 29 28 30 29 31 30 32 31 34 32 35 33 36
REMARK SMILES IDX 94 37 34 38 93 39 35 40 36 41 37 42 87 43 38 44 92 45 86 46
REMARK SMILES IDX 88 47 39 48 91 49 85 50 84 51 40 53 72 54 52 55 71 56 53 57
REMARK SMILES IDX 56 58 70 59 89 60 54 61 55 62 69 64 90 65 57 66 41 67 42 68
REMARK SMILES IDX 50 69 43 70 44 71 48 72 51 73 45 74 46 75 49 76 47 77 73 78
REMARK SMILES IDX 74 79 82 80 75 81 76 82 80 83 83 84 77 85 78 86 81 87 79 88
REMARK SMILES IDX 58 89 59 90 67 91 60 92 61 93 65 94 68 95 62 96 63 97 66 98
REMARK SMILES IDX 64 99
REMARK H PARENT 22 6 10 15 29 33 88 52 56 63
REMARK Flexibility Score: inf
ROOT
ATOM      1  C   UNL A   1      33.051  28.494  27.164  1.00  0.00     0.021 C 
ENDROOT
BRANCH   1   2
ATOM      2  C   UNL A   1      31.982  27.644  26.473  1.00  0.00     0.116 C 
BRANCH   2   3
ATOM      3  N   UNL A   1      32.110  26.230  26.774  1.00  0.00    -0.356 N 
ATOM      4  O   UNL A   1      32.564  25.582  24.626  1.00  0.00    -0.275 OA
ATOM      5  C   UNL A   1      32.388  25.290  25.804  1.00  0.00     0.224 C 
ATOM      6  H   UNL A   1      31.993  25.931  27.704  1.00  0.00     0.163 HD
BRANCH   5   7
ATOM      7  C   UNL A   1      32.487  23.875  26.320  1.00  0.00     0.137 C 
BRANCH   7   8
ATOM      8  C   UNL A   1      33.777  23.084  26.150  1.00  0.00    -0.015 A 
ATOM      9  C   UNL A   1      34.946  23.881  26.249  1.00  0.00     0.006 A 
ATOM     10  C   UNL A   1      33.930  21.709  25.853  1.00  0.00     0.042 A 
ATOM     11  C   UNL A   1      36.218  23.361  26.026  1.00  0.00     0.000 A 
ATOM     12  C   UNL A   1      35.225  21.221  25.580  1.00  0.00     0.026 A 
ATOM     13  C   UNL A   1      36.356  22.030  25.672  1.00  0.00     0.002 A 
BRANCH  10  14
ATOM     14  N   UNL A   1      32.840  20.826  25.762  1.00  0.00    -0.352 N 
ATOM     15  H   UNL A   1      32.141  20.956  26.443  1.00  0.00     0.167 HD
BRANCH  14  16
ATOM     16  C   UNL A   1      32.595  19.782  24.846  1.00  0.00     0.087 A 
ATOM     17  C   UNL A   1      32.683  18.451  25.284  1.00  0.00     0.147 A 
ATOM     18  C   UNL A   1      32.470  20.026  23.467  1.00  0.00     0.082 A 
ATOM     19  F   UNL A   1      32.734  18.188  26.599  1.00  0.00    -0.205 F 
ATOM     20  C   UNL A   1      32.737  17.383  24.394  1.00  0.00     0.041 A 
ATOM     21  C   UNL A   1      32.507  18.936  22.572  1.00  0.00     0.015 A 
ATOM     22  C   UNL A   1      32.669  17.627  23.029  1.00  0.00     0.004 A 
BRANCH  18  23
ATOM     23  C   UNL A   1      32.207  21.412  22.932  1.00  0.00     0.418 C 
ATOM     24  F   UNL A   1      31.687  21.397  21.669  1.00  0.00    -0.166 F 
ATOM     25  F   UNL A   1      31.294  22.087  23.688  1.00  0.00    -0.166 F 
ATOM     26  F   UNL A   1      33.309  22.206  22.854  1.00  0.00    -0.166 F 
ENDBRANCH  18  23
ENDBRANCH  14  16
ENDBRANCH  10  14
ENDBRANCH   7   8
ENDBRANCH   5   7
ENDBRANCH   2   3
ENDBRANCH   1   2
BRANCH   1  27
ATOM     27  C   UNL A   1      33.108  29.962  26.723  1.00  0.00     0.002 C 
BRANCH  27  28
ATOM     28  C   UNL A   1      31.774  30.546  26.266  1.00  0.00     0.002 C 
BRANCH  28  29
ATOM     29  C   UNL A   1      31.487  31.985  26.677  1.00  0.00     0.021 C 
BRANCH  29  30
ATOM     30  C   UNL A   1      32.637  32.696  27.373  1.00  0.00     0.116 C 
BRANCH  30  31
ATOM     31  N   UNL A   1      32.365  34.100  27.643  1.00  0.00    -0.352 N 
ATOM     32  C   UNL A   1      32.968  34.955  28.535  1.00  0.00     0.251 C 
ATOM     33  H   UNL A   1      31.641  34.498  27.106  1.00  0.00     0.163 HD
ATOM     34  O   UNL A   1      32.520  36.085  28.710  1.00  0.00    -0.269 OA
BRANCH  32  35
ATOM     35  C   UNL A   1      34.135  34.499  29.322  1.00  0.00     0.039 A 
ATOM     36  C   UNL A   1      33.928  33.976  30.601  1.00  0.00     0.014 A 
ATOM     37  C   UNL A   1      35.425  34.553  28.791  1.00  0.00     0.014 A 
ATOM     38  C   UNL A   1      35.001  33.428  31.308  1.00  0.00     0.010 A 
ATOM     39  C   UNL A   1      36.471  33.916  29.449  1.00  0.00     0.010 A 
ATOM     40  C   UNL A   1      36.272  33.349  30.716  1.00  0.00    -0.014 A 
BRANCH  40  41
ATOM     41  C   UNL A   1      37.409  32.680  31.402  1.00  0.00     0.031 A 
ATOM     42  C   UNL A   1      38.110  31.523  30.746  1.00  0.00     0.074 A 
ATOM     43  C   UNL A   1      37.759  33.062  32.646  1.00  0.00     0.049 A 
ATOM     44  N   UNL A   1      39.064  30.757  31.213  1.00  0.00    -0.248 NA
ATOM     45  C   UNL A   1      37.650  31.149  29.399  1.00  0.00     0.031 C 
ATOM     46  C   UNL A   1      37.115  34.128  33.417  1.00  0.00     0.029 A 
ATOM     47  N   UNL A   1      38.736  32.590  33.486  1.00  0.00    -0.354 N 
ATOM     48  C   UNL A   1      39.299  29.805  30.232  1.00  0.00     0.074 A 
ATOM     49  C   UNL A   1      38.347  30.047  29.169  1.00  0.00     0.031 C 
ATOM     50  C   UNL A   1      37.735  34.250  34.602  1.00  0.00     0.029 A 
ATOM     51  C   UNL A   1      38.792  33.248  34.691  1.00  0.00     0.049 A 
ATOM     52  H   UNL A   1      39.340  31.850  33.248  1.00  0.00     0.167 HD
ATOM     53  C   UNL A   1      40.241  28.833  30.202  1.00  0.00     0.037 A 
ATOM     54  C   UNL A   1      39.605  33.062  35.749  1.00  0.00     0.037 A 
ATOM     55  C   UNL A   1      41.212  28.620  31.242  1.00  0.00     0.049 A 
ATOM     56  C   UNL A   1      40.657  31.989  35.685  1.00  0.00     0.074 A 
ATOM     57  C   UNL A   1      42.258  27.714  31.276  1.00  0.00     0.029 A 
ATOM     58  N   UNL A   1      41.257  29.326  32.436  1.00  0.00    -0.354 N 
ATOM     59  N   UNL A   1      40.919  31.144  34.719  1.00  0.00    -0.248 NA
ATOM     60  C   UNL A   1      41.529  31.848  36.859  1.00  0.00     0.031 C 
ATOM     61  C   UNL A   1      42.908  27.841  32.507  1.00  0.00     0.029 A 
ATOM     62  C   UNL A   1      42.299  28.861  33.222  1.00  0.00     0.049 A 
ATOM     63  H   UNL A   1      40.638  30.050  32.687  1.00  0.00     0.167 HD
ATOM     64  C   UNL A   1      42.000  30.388  35.154  1.00  0.00     0.074 A 
ATOM     65  C   UNL A   1      42.355  30.888  36.467  1.00  0.00     0.031 C 
ATOM     66  C   UNL A   1      42.639  29.373  34.525  1.00  0.00     0.037 A 
BRANCH  53  67
ATOM     67  C   UNL A   1      40.272  27.934  29.000  1.00  0.00     0.064 A 
ATOM     68  C   UNL A   1      41.015  28.260  27.854  1.00  0.00     0.173 A 
ATOM     69  C   UNL A   1      39.566  26.721  28.999  1.00  0.00     0.173 A 
ATOM     70  F   UNL A   1      41.697  29.413  27.798  1.00  0.00    -0.203 F 
ATOM     71  C   UNL A   1      41.019  27.425  26.740  1.00  0.00     0.198 A 
ATOM     72  C   UNL A   1      39.600  25.872  27.895  1.00  0.00     0.198 A 
ATOM     73  F   UNL A   1      38.844  26.356  30.069  1.00  0.00    -0.203 F 
ATOM     74  F   UNL A   1      41.687  27.788  25.636  1.00  0.00    -0.200 F 
ATOM     75  C   UNL A   1      40.318  26.229  26.763  1.00  0.00     0.200 A 
ATOM     76  F   UNL A   1      38.931  24.711  27.923  1.00  0.00    -0.200 F 
ATOM     77  F   UNL A   1      40.325  25.425  25.691  1.00  0.00    -0.200 F 
ENDBRANCH  53  67
BRANCH  54  78
ATOM     78  C   UNL A   1      39.481  33.940  36.941  1.00  0.00     0.064 A 
ATOM     79  C   UNL A   1      38.758  33.522  38.067  1.00  0.00     0.173 A 
ATOM     80  C   UNL A   1      40.083  35.206  36.986  1.00  0.00     0.173 A 
ATOM     81  F   UNL A   1      38.147  32.328  38.064  1.00  0.00    -0.203 F 
ATOM     82  C   UNL A   1      38.627  34.343  39.185  1.00  0.00     0.198 A 
ATOM     83  C   UNL A   1      39.975  36.015  38.116  1.00  0.00     0.198 A 
ATOM     84  F   UNL A   1      40.791  35.651  35.938  1.00  0.00    -0.203 F 
ATOM     85  F   UNL A   1      37.897  33.933  40.232  1.00  0.00    -0.200 F 
ATOM     86  C   UNL A   1      39.241  35.585  39.212  1.00  0.00     0.200 A 
ATOM     87  F   UNL A   1      40.582  37.209  38.144  1.00  0.00    -0.200 F 
ATOM     88  F   UNL A   1      39.121  36.371  40.290  1.00  0.00    -0.200 F 
ENDBRANCH  54  78
BRANCH  66  89
ATOM     89  C   UNL A   1      43.808  28.753  35.234  1.00  0.00     0.064 A 
ATOM     90  C   UNL A   1      43.643  27.684  36.128  1.00  0.00     0.173 A 
ATOM     91  C   UNL A   1      45.111  29.208  34.986  1.00  0.00     0.173 A 
ATOM     92  F   UNL A   1      42.415  27.223  36.410  1.00  0.00    -0.203 F 
ATOM     93  C   UNL A   1      44.739  27.111  36.767  1.00  0.00     0.198 A 
ATOM     94  C   UNL A   1      46.207  28.612  35.604  1.00  0.00     0.198 A 
ATOM     95  F   UNL A   1      45.324  30.223  34.135  1.00  0.00    -0.203 F 
ATOM     96  F   UNL A   1      44.554  26.124  37.653  1.00  0.00    -0.200 F 
ATOM     97  C   UNL A   1      46.020  27.570  36.499  1.00  0.00     0.200 A 
ATOM     98  F   UNL A   1      47.446  29.048  35.333  1.00  0.00    -0.200 F 
ATOM     99  F   UNL A   1      47.075  27.013  37.110  1.00  0.00    -0.200 F 
ENDBRANCH  66  89
ENDBRANCH  40  41
ENDBRANCH  32  35
ENDBRANCH  30  31
ENDBRANCH  29  30
ENDBRANCH  28  29
ENDBRANCH  27  28
ENDBRANCH   1  27
TORSDOF 17
ENDMDL
MODEL 2
REMARK VINA RESULT:     -12.4      1.769      3.246
REMARK SMILES O=C(Cc1ccccc1Nc1c(F)cccc1C(F)(F)F)NCCCCCCNC(=O)c1ccc(-c2c3nc(c(-c4c(F)c(F)c(F)c(F)c4F)c4ccc([nH]4)c(-c4c(F)c(F)c(F)c(F)c4F)c4nc(c(-c5c(F)c(F)c(F)c(F)c5F)c5ccc2[nH]5)C=C4)C=C3)cc1
REMARK SMILES IDX 24 1 23 2 22 3 1 4 2 5 3 7 4 8 5 9 9 10 6 11 8 12 7 13 10 14
REMARK SMILES IDX 11 16 12 17 17 18 13 19 14 20 16 21 15 22 18 23 19 24 20 25
REMARK SMILES IDX 21 26 25 27 26 28 27 29 28 30 29 31 30 32 31 34 32 35 33 36
REMARK SMILES IDX 94 37 34 38 93 39 35 40 36 41 37 42 87 43 38 44 92 45 86 46
REMARK SMILES IDX 88 47 39 48 91 49 85 50 84 51 40 53 72 54 52 55 71 56 53 57
REMARK SMILES IDX 56 58 70 59 89 60 54 61 55 62 69 64 90 65 57 66 41 67 42 68
REMARK SMILES IDX 50 69 43 70 44 71 48 72 51 73 45 74 46 75 49 76 47 77 73 78
REMARK SMILES IDX 74 79 82 80 75 81 76 82 80 83 83 84 77 85 78 86 81 87 79 88
REMARK SMILES IDX 58 89 59 90 67 91 60 92 61 93 65 94 68 95 62 96 63 97 66 98
REMARK SMILES IDX 64 99
REMARK H PARENT 22 6 10 15 29 33 88 52 56 63
REMARK Flexibility Score: inf
ROOT
ATOM      1  C   UNL A   1      33.140  28.422  26.548  1.00  0.00     0.021 C 
ENDROOT
BRANCH   1   2
ATOM      2  C   UNL A   1      32.034  27.845  27.435  1.00  0.00     0.116 C 
BRANCH   2   3
ATOM      3  N   UNL A   1      31.233  26.845  26.754  1.00  0.00    -0.356 N 
ATOM      4  O   UNL A   1      32.839  25.213  26.782  1.00  0.00    -0.275 OA
ATOM      5  C   UNL A   1      31.712  25.583  26.468  1.00  0.00     0.224 C 
ATOM      6  H   UNL A   1      30.314  27.074  26.487  1.00  0.00     0.163 HD
BRANCH   5   7
ATOM      7  C   UNL A   1      30.724  24.688  25.762  1.00  0.00     0.137 C 
BRANCH   7   8
ATOM      8  C   UNL A   1      31.209  23.638  24.771  1.00  0.00    -0.015 A 
ATOM      9  C   UNL A   1      31.609  22.424  25.386  1.00  0.00     0.006 A 
ATOM     10  C   UNL A   1      31.359  23.758  23.370  1.00  0.00     0.042 A 
ATOM     11  C   UNL A   1      32.173  21.378  24.661  1.00  0.00     0.000 A 
ATOM     12  C   UNL A   1      31.982  22.704  22.669  1.00  0.00     0.026 A 
ATOM     13  C   UNL A   1      32.378  21.526  23.300  1.00  0.00     0.002 A 
BRANCH  10  14
ATOM     14  N   UNL A   1      30.967  24.905  22.659  1.00  0.00    -0.352 N 
ATOM     15  H   UNL A   1      30.718  24.748  21.719  1.00  0.00     0.167 HD
BRANCH  14  16
ATOM     16  C   UNL A   1      30.875  26.247  23.084  1.00  0.00     0.087 A 
ATOM     17  C   UNL A   1      29.616  26.781  23.400  1.00  0.00     0.147 A 
ATOM     18  C   UNL A   1      31.973  27.122  23.003  1.00  0.00     0.082 A 
ATOM     19  F   UNL A   1      28.566  25.959  23.550  1.00  0.00    -0.205 F 
ATOM     20  C   UNL A   1      29.410  28.149  23.546  1.00  0.00     0.041 A 
ATOM     21  C   UNL A   1      31.760  28.507  23.172  1.00  0.00     0.015 A 
ATOM     22  C   UNL A   1      30.484  29.020  23.412  1.00  0.00     0.004 A 
BRANCH  18  23
ATOM     23  C   UNL A   1      33.381  26.607  22.831  1.00  0.00     0.418 C 
ATOM     24  F   UNL A   1      33.552  25.931  21.657  1.00  0.00    -0.166 F 
ATOM     25  F   UNL A   1      34.294  27.620  22.798  1.00  0.00    -0.166 F 
ATOM     26  F   UNL A   1      33.791  25.747  23.802  1.00  0.00    -0.166 F 
ENDBRANCH  18  23
ENDBRANCH  14  16
ENDBRANCH  10  14
ENDBRANCH   7   8
ENDBRANCH   5   7
ENDBRANCH   2   3
ENDBRANCH   1   2
BRANCH   1  27
ATOM     27  C   UNL A   1      33.032  29.924  26.257  1.00  0.00     0.002 C 
BRANCH  27  28
ATOM     28  C   UNL A   1      31.692  30.554  26.628  1.00  0.00     0.002 C 
BRANCH  28  29
ATOM     29  C   UNL A   1      31.622  32.075  26.585  1.00  0.00     0.021 C 
BRANCH  29  30
ATOM     30  C   UNL A   1      32.737  32.791  27.329  1.00  0.00     0.116 C 
BRANCH  30  31
ATOM     31  N   UNL A   1      32.413  34.171  27.661  1.00  0.00    -0.352 N 
ATOM     32  C   UNL A   1      32.973  35.001  28.603  1.00  0.00     0.251 C 
ATOM     33  H   UNL A   1      31.684  34.569  27.132  1.00  0.00     0.163 HD
ATOM     34  O   UNL A   1      32.484  36.106  28.824  1.00  0.00    -0.269 OA
BRANCH  32  35
ATOM     35  C   UNL A   1      34.143  34.547  29.386  1.00  0.00     0.039 A 
ATOM     36  C   UNL A   1      33.940  34.006  30.658  1.00  0.00     0.014 A 
ATOM     37  C   UNL A   1      35.434  34.622  28.858  1.00  0.00     0.014 A 
ATOM     38  C   UNL A   1      35.018  33.460  31.360  1.00  0.00     0.010 A 
ATOM     39  C   UNL A   1      36.485  33.988  29.510  1.00  0.00     0.010 A 
ATOM     40  C   UNL A   1      36.290  33.402  30.769  1.00  0.00    -0.014 A 
BRANCH  40  41
ATOM     41  C   UNL A   1      37.433  32.737  31.448  1.00  0.00     0.031 A 
ATOM     42  C   UNL A   1      38.133  31.582  30.788  1.00  0.00     0.074 A 
ATOM     43  C   UNL A   1      37.789  33.120  32.690  1.00  0.00     0.049 A 
ATOM     44  N   UNL A   1      39.093  30.818  31.250  1.00  0.00    -0.248 NA
ATOM     45  C   UNL A   1      37.668  31.206  29.443  1.00  0.00     0.031 C 
ATOM     46  C   UNL A   1      37.147  34.184  33.465  1.00  0.00     0.029 A 
ATOM     47  N   UNL A   1      38.773  32.651  33.525  1.00  0.00    -0.354 N 
ATOM     48  C   UNL A   1      39.324  29.867  30.267  1.00  0.00     0.074 A 
ATOM     49  C   UNL A   1      38.366  30.107  29.210  1.00  0.00     0.031 C 
ATOM     50  C   UNL A   1      37.773  34.307  34.646  1.00  0.00     0.029 A 
ATOM     51  C   UNL A   1      38.834  33.309  34.729  1.00  0.00     0.049 A 
ATOM     52  H   UNL A   1      39.377  31.913  33.283  1.00  0.00     0.167 HD
ATOM     53  C   UNL A   1      40.270  28.898  30.231  1.00  0.00     0.037 A 
ATOM     54  C   UNL A   1      39.653  33.125  35.782  1.00  0.00     0.037 A 
ATOM     55  C   UNL A   1      41.248  28.688  31.266  1.00  0.00     0.049 A 
ATOM     56  C   UNL A   1      40.707  32.055  35.713  1.00  0.00     0.074 A 
ATOM     57  C   UNL A   1      42.296  27.785  31.294  1.00  0.00     0.029 A 
ATOM     58  N   UNL A   1      41.297  29.394  32.460  1.00  0.00    -0.354 N 
ATOM     59  N   UNL A   1      40.967  31.210  34.745  1.00  0.00    -0.248 NA
ATOM     60  C   UNL A   1      41.587  31.916  36.882  1.00  0.00     0.031 C 
ATOM     61  C   UNL A   1      42.953  27.914  32.522  1.00  0.00     0.029 A 
ATOM     62  C   UNL A   1      42.345  28.932  33.240  1.00  0.00     0.049 A 
ATOM     63  H   UNL A   1      40.677  30.117  32.714  1.00  0.00     0.167 HD
ATOM     64  C   UNL A   1      42.052  30.458  35.174  1.00  0.00     0.074 A 
ATOM     65  C   UNL A   1      42.414  30.959  36.484  1.00  0.00     0.031 C 
ATOM     66  C   UNL A   1      42.691  29.445  34.541  1.00  0.00     0.037 A 
BRANCH  53  67
ATOM     67  C   UNL A   1      40.296  27.999  29.029  1.00  0.00     0.064 A 
ATOM     68  C   UNL A   1      39.590  26.786  29.002  1.00  0.00     0.173 A 
ATOM     69  C   UNL A   1      41.020  28.362  27.883  1.00  0.00     0.173 A 
ATOM     70  F   UNL A   1      38.893  26.386  30.075  1.00  0.00    -0.203 F 
ATOM     71  C   UNL A   1      39.639  25.953  27.887  1.00  0.00     0.198 A 
ATOM     72  C   UNL A   1      41.039  27.542  26.757  1.00  0.00     0.198 A 
ATOM     73  F   UNL A   1      41.708  29.512  27.853  1.00  0.00    -0.203 F 
ATOM     74  F   UNL A   1      39.006  24.772  27.907  1.00  0.00    -0.200 F 
ATOM     75  C   UNL A   1      40.357  26.334  26.764  1.00  0.00     0.200 A 
ATOM     76  F   UNL A   1      41.724  27.917  25.668  1.00  0.00    -0.200 F 
ATOM     77  F   UNL A   1      40.401  25.532  25.690  1.00  0.00    -0.200 F 
ENDBRANCH  53  67
BRANCH  54  78
ATOM     78  C   UNL A   1      39.533  34.002  36.976  1.00  0.00     0.064 A 
ATOM     79  C   UNL A   1      38.783  33.599  38.089  1.00  0.00     0.173 A 
ATOM     80  C   UNL A   1      40.166  35.253  37.034  1.00  0.00     0.173 A 
ATOM     81  F   UNL A   1      38.142  32.421  38.073  1.00  0.00    -0.203 F 
ATOM     82  C   UNL A   1      38.656  34.420  39.208  1.00  0.00     0.198 A 
ATOM     83  C   UNL A   1      40.062  36.061  38.164  1.00  0.00     0.198 A 
ATOM     84  F   UNL A   1      40.901  35.683  35.998  1.00  0.00    -0.203 F 
ATOM     85  F   UNL A   1      37.900  34.027  40.242  1.00  0.00    -0.200 F 
ATOM     86  C   UNL A   1      39.300  35.647  39.248  1.00  0.00     0.200 A 
ATOM     87  F   UNL A   1      40.699  37.239  38.205  1.00  0.00    -0.200 F 
ATOM     88  F   UNL A   1      39.185  36.433  40.327  1.00  0.00    -0.200 F 
ENDBRANCH  54  78
BRANCH  66  89
ATOM     89  C   UNL A   1      43.866  28.828  35.243  1.00  0.00     0.064 A 
ATOM     90  C   UNL A   1      43.711  27.744  36.120  1.00  0.00     0.173 A 
ATOM     91  C   UNL A   1      45.164  29.303  35.005  1.00  0.00     0.173 A 
ATOM     92  F   UNL A   1      42.489  27.265  36.393  1.00  0.00    -0.203 F 
ATOM     93  C   UNL A   1      44.813  27.175  36.753  1.00  0.00     0.198 A 
ATOM     94  C   UNL A   1      46.266  28.711  35.617  1.00  0.00     0.198 A 
ATOM     95  F   UNL A   1      45.366  30.333  34.169  1.00  0.00    -0.203 F 
ATOM     96  F   UNL A   1      44.638  26.172  37.624  1.00  0.00    -0.200 F 
ATOM     97  C   UNL A   1      46.089  27.653  36.495  1.00  0.00     0.200 A 
ATOM     98  F   UNL A   1      47.500  29.166  35.355  1.00  0.00    -0.200 F 
ATOM     99  F   UNL A   1      47.149  27.099  37.100  1.00  0.00    -0.200 F 
ENDBRANCH  66  89
ENDBRANCH  40  41
ENDBRANCH  32  35
ENDBRANCH  30  31
ENDBRANCH  29  30
ENDBRANCH  28  29
ENDBRANCH  27  28
ENDBRANCH   1  27
TORSDOF 17
ENDMDL
MODEL 3
REMARK VINA RESULT:     -12.4      3.600      8.505
REMARK SMILES O=C(Cc1ccccc1Nc1c(F)cccc1C(F)(F)F)NCCCCCCNC(=O)c1ccc(-c2c3nc(c(-c4c(F)c(F)c(F)c(F)c4F)c4ccc([nH]4)c(-c4c(F)c(F)c(F)c(F)c4F)c4nc(c(-c5c(F)c(F)c(F)c(F)c5F)c5ccc2[nH]5)C=C4)C=C3)cc1
REMARK SMILES IDX 24 1 23 2 22 3 1 4 2 5 3 7 4 8 5 9 9 10 6 11 8 12 7 13 10 14
REMARK SMILES IDX 11 16 12 17 17 18 13 19 14 20 16 21 15 22 18 23 19 24 20 25
REMARK SMILES IDX 21 26 25 27 26 28 27 29 28 30 29 31 30 32 31 34 32 35 33 36
REMARK SMILES IDX 94 37 34 38 93 39 35 40 36 41 37 42 87 43 38 44 92 45 86 46
REMARK SMILES IDX 88 47 39 48 91 49 85 50 84 51 40 53 72 54 52 55 71 56 53 57
REMARK SMILES IDX 56 58 70 59 89 60 54 61 55 62 69 64 90 65 57 66 41 67 42 68
REMARK SMILES IDX 50 69 43 70 44 71 48 72 51 73 45 74 46 75 49 76 47 77 73 78
REMARK SMILES IDX 74 79 82 80 75 81 76 82 80 83 83 84 77 85 78 86 81 87 79 88
REMARK SMILES IDX 58 89 59 90 67 91 60 92 61 93 65 94 68 95 62 96 63 97 66 98
REMARK SMILES IDX 64 99
REMARK H PARENT 22 6 10 15 29 33 88 52 56 63
REMARK Flexibility Score: inf
ROOT
ATOM      1  C   UNL A   1      32.472  28.539  23.387  1.00  0.00     0.021 C 
ENDROOT
BRANCH   1   2
ATOM      2  C   UNL A   1      33.225  27.278  22.956  1.00  0.00     0.116 C 
BRANCH   2   3
ATOM      3  N   UNL A   1      33.881  26.611  24.065  1.00  0.00    -0.356 N 
ATOM      4  O   UNL A   1      32.393  24.876  24.198  1.00  0.00    -0.275 OA
ATOM      5  C   UNL A   1      33.398  25.442  24.616  1.00  0.00     0.224 C 
ATOM      6  H   UNL A   1      34.701  27.006  24.438  1.00  0.00     0.163 HD
BRANCH   5   7
ATOM      7  C   UNL A   1      34.227  24.903  25.756  1.00  0.00     0.137 C 
BRANCH   7   8
ATOM      8  C   UNL A   1      35.143  23.704  25.540  1.00  0.00    -0.015 A 
ATOM      9  C   UNL A   1      36.521  24.021  25.643  1.00  0.00     0.006 A 
ATOM     10  C   UNL A   1      34.785  22.378  25.200  1.00  0.00     0.042 A 
ATOM     11  C   UNL A   1      37.517  23.084  25.384  1.00  0.00     0.000 A 
ATOM     12  C   UNL A   1      35.815  21.465  24.891  1.00  0.00     0.026 A 
ATOM     13  C   UNL A   1      37.163  21.806  24.988  1.00  0.00     0.002 A 
BRANCH  10  14
ATOM     14  N   UNL A   1      33.450  21.953  25.101  1.00  0.00    -0.352 N 
ATOM     15  H   UNL A   1      32.776  22.646  25.290  1.00  0.00     0.167 HD
BRANCH  14  16
ATOM     16  C   UNL A   1      32.925  20.686  24.773  1.00  0.00     0.087 A 
ATOM     17  C   UNL A   1      33.036  19.637  25.699  1.00  0.00     0.147 A 
ATOM     18  C   UNL A   1      32.482  20.387  23.472  1.00  0.00     0.082 A 
ATOM     19  F   UNL A   1      33.390  19.905  26.965  1.00  0.00    -0.205 F 
ATOM     20  C   UNL A   1      32.806  18.311  25.344  1.00  0.00     0.041 A 
ATOM     21  C   UNL A   1      32.233  19.042  23.125  1.00  0.00     0.015 A 
ATOM     22  C   UNL A   1      32.422  18.009  24.044  1.00  0.00     0.004 A 
BRANCH  18  23
ATOM     23  C   UNL A   1      32.182  21.475  22.471  1.00  0.00     0.418 C 
ATOM     24  F   UNL A   1      31.786  20.980  21.261  1.00  0.00    -0.166 F 
ATOM     25  F   UNL A   1      31.159  22.278  22.881  1.00  0.00    -0.166 F 
ATOM     26  F   UNL A   1      33.232  22.294  22.195  1.00  0.00    -0.166 F 
ENDBRANCH  18  23
ENDBRANCH  14  16
ENDBRANCH  10  14
ENDBRANCH   7   8
ENDBRANCH   5   7
ENDBRANCH   2   3
ENDBRANCH   1   2
BRANCH   1  27
ATOM     27  C   UNL A   1      31.345  28.317  24.402  1.00  0.00     0.002 C 
BRANCH  27  28
ATOM     28  C   UNL A   1      31.582  28.952  25.770  1.00  0.00     0.002 C 
BRANCH  28  29
ATOM     29  C   UNL A   1      32.285  28.085  26.808  1.00  0.00     0.021 C 
BRANCH  29  30
ATOM     30  C   UNL A   1      33.651  28.589  27.245  1.00  0.00     0.116 C 
BRANCH  30  31
ATOM     31  N   UNL A   1      33.646  29.988  27.647  1.00  0.00    -0.352 N 
ATOM     32  C   UNL A   1      34.638  30.734  28.239  1.00  0.00     0.251 C 
ATOM     33  H   UNL A   1      32.808  30.473  27.467  1.00  0.00     0.163 HD
ATOM     34  O   UNL A   1      34.408  31.880  28.618  1.00  0.00    -0.269 OA
BRANCH  32  35
ATOM     35  C   UNL A   1      35.974  30.142  28.463  1.00  0.00     0.039 A 
ATOM     36  C   UNL A   1      36.924  30.202  27.440  1.00  0.00     0.014 A 
ATOM     37  C   UNL A   1      36.305  29.557  29.688  1.00  0.00     0.014 A 
ATOM     38  C   UNL A   1      38.228  29.759  27.677  1.00  0.00     0.010 A 
ATOM     39  C   UNL A   1      37.624  29.214  29.956  1.00  0.00     0.010 A 
ATOM     40  C   UNL A   1      38.601  29.307  28.953  1.00  0.00    -0.014 A 
BRANCH  40  41
ATOM     41  C   UNL A   1      40.003  28.925  29.263  1.00  0.00     0.031 A 
ATOM     42  C   UNL A   1      40.883  29.860  30.046  1.00  0.00     0.074 A 
ATOM     43  C   UNL A   1      40.508  27.776  28.774  1.00  0.00     0.049 A 
ATOM     44  N   UNL A   1      42.154  29.748  30.347  1.00  0.00    -0.248 NA
ATOM     45  C   UNL A   1      40.265  31.109  30.521  1.00  0.00     0.031 C 
ATOM     46  C   UNL A   1      39.777  26.814  27.947  1.00  0.00     0.029 A 
ATOM     47  N   UNL A   1      41.760  27.225  28.894  1.00  0.00    -0.354 N 
ATOM     48  C   UNL A   1      42.485  30.915  31.022  1.00  0.00     0.074 A 
ATOM     49  C   UNL A   1      41.304  31.750  31.033  1.00  0.00     0.031 C 
ATOM     50  C   UNL A   1      40.582  25.778  27.661  1.00  0.00     0.029 A 
ATOM     51  C   UNL A   1      41.895  26.019  28.250  1.00  0.00     0.049 A 
ATOM     52  H   UNL A   1      42.492  27.654  29.393  1.00  0.00     0.167 HD
ATOM     53  C   UNL A   1      43.660  31.250  31.607  1.00  0.00     0.037 A 
ATOM     54  C   UNL A   1      42.960  25.200  28.147  1.00  0.00     0.037 A 
ATOM     55  C   UNL A   1      44.821  30.400  31.629  1.00  0.00     0.049 A 
ATOM     56  C   UNL A   1      44.248  25.586  28.820  1.00  0.00     0.074 A 
ATOM     57  C   UNL A   1      46.035  30.612  32.259  1.00  0.00     0.029 A 
ATOM     58  N   UNL A   1      44.910  29.171  30.990  1.00  0.00    -0.354 N 
ATOM     59  N   UNL A   1      44.528  26.657  29.521  1.00  0.00    -0.248 NA
ATOM     60  C   UNL A   1      45.368  24.643  28.692  1.00  0.00     0.031 C 
ATOM     61  C   UNL A   1      46.874  29.532  31.966  1.00  0.00     0.029 A 
ATOM     62  C   UNL A   1      46.167  28.624  31.194  1.00  0.00     0.049 A 
ATOM     63  H   UNL A   1      44.188  28.752  30.469  1.00  0.00     0.167 HD
ATOM     64  C   UNL A   1      45.844  26.508  29.939  1.00  0.00     0.074 A 
ATOM     65  C   UNL A   1      46.301  25.233  29.426  1.00  0.00     0.031 C 
ATOM     66  C   UNL A   1      46.604  27.351  30.679  1.00  0.00     0.037 A 
BRANCH  53  67
ATOM     67  C   UNL A   1      43.742  32.590  32.279  1.00  0.00     0.064 A 
ATOM     68  C   UNL A   1      43.460  32.748  33.645  1.00  0.00     0.173 A 
ATOM     69  C   UNL A   1      44.125  33.729  31.553  1.00  0.00     0.173 A 
ATOM     70  F   UNL A   1      43.077  31.694  34.381  1.00  0.00    -0.203 F 
ATOM     71  C   UNL A   1      43.522  34.001  34.250  1.00  0.00     0.198 A 
ATOM     72  C   UNL A   1      44.219  34.975  32.171  1.00  0.00     0.198 A 
ATOM     73  F   UNL A   1      44.411  33.635  30.247  1.00  0.00    -0.203 F 
ATOM     74  F   UNL A   1      43.190  34.135  35.542  1.00  0.00    -0.200 F 
ATOM     75  C   UNL A   1      43.908  35.111  33.516  1.00  0.00     0.200 A 
ATOM     76  F   UNL A   1      44.603  36.045  31.462  1.00  0.00    -0.200 F 
ATOM     77  F   UNL A   1      43.970  36.315  34.100  1.00  0.00    -0.200 F 
ENDBRANCH  53  67
BRANCH  54  78
ATOM     78  C   UNL A   1      42.838  23.917  27.408  1.00  0.00     0.064 A 
ATOM     79  C   UNL A   1      43.212  23.828  26.060  1.00  0.00     0.173 A 
ATOM     80  C   UNL A   1      42.355  22.756  28.028  1.00  0.00     0.173 A 
ATOM     81  F   UNL A   1      43.660  24.916  25.416  1.00  0.00    -0.203 F 
ATOM     82  C   UNL A   1      43.091  22.632  25.355  1.00  0.00     0.198 A 
ATOM     83  C   UNL A   1      42.261  21.553  27.331  1.00  0.00     0.198 A 
ATOM     84  F   UNL A   1      41.990  22.786  29.318  1.00  0.00    -0.203 F 
ATOM     85  F   UNL A   1      43.418  22.586  24.057  1.00  0.00    -0.200 F 
ATOM     86  C   UNL A   1      42.622  21.494  25.993  1.00  0.00     0.200 A 
ATOM     87  F   UNL A   1      41.821  20.452  27.956  1.00  0.00    -0.200 F 
ATOM     88  F   UNL A   1      42.513  20.341  25.318  1.00  0.00    -0.200 F 
ENDBRANCH  54  78
BRANCH  66  89
ATOM     89  C   UNL A   1      48.001  26.909  31.004  1.00  0.00     0.064 A 
ATOM     90  C   UNL A   1      48.271  26.067  32.094  1.00  0.00     0.173 A 
ATOM     91  C   UNL A   1      49.076  27.300  30.192  1.00  0.00     0.173 A 
ATOM     92  F   UNL A   1      47.279  25.679  32.909  1.00  0.00    -0.203 F 
ATOM     93  C   UNL A   1      49.571  25.655  32.374  1.00  0.00     0.198 A 
ATOM     94  C   UNL A   1      50.370  26.861  30.458  1.00  0.00     0.198 A 
ATOM     95  F   UNL A   1      48.870  28.098  29.134  1.00  0.00    -0.203 F 
ATOM     96  F   UNL A   1      49.813  24.891  33.448  1.00  0.00    -0.200 F 
ATOM     97  C   UNL A   1      50.618  26.046  31.551  1.00  0.00     0.200 A 
ATOM     98  F   UNL A   1      51.379  27.228  29.654  1.00  0.00    -0.200 F 
ATOM     99  F   UNL A   1      51.868  25.643  31.819  1.00  0.00    -0.200 F 
ENDBRANCH  66  89
ENDBRANCH  40  41
ENDBRANCH  32  35
ENDBRANCH  30  31
ENDBRANCH  29  30
ENDBRANCH  28  29
ENDBRANCH  27  28
ENDBRANCH   1  27
TORSDOF 17
ENDMDL
