MODEL 1
REMARK VINA RESULT:     -11.2      0.000      0.000
REMARK SMILES O=C(NCCCCCCNC(=O)[C@@H]1C=C[C@@H]([NH+]2CC3(CC3)C2)C1)c1ccc(-c2c3nc(c(-c4c(F)c(F)c(F)c(F)c4F)c4ccc([nH]4)c(-c4c(F)c(F)c(F)c(F)c4F)c4nc(c(-c5c(F)c(F)c(F)c(F)c5F)c5ccc2[nH]5)C=C4)C=C3)cc1
REMARK SMILES IDX 6 1 5 2 4 3 3 4 1 5 2 6 24 8 25 9 86 10 26 11 85 12 27 13
REMARK SMILES IDX 28 14 29 15 79 16 30 17 84 18 78 19 80 20 31 21 83 22 77 23
REMARK SMILES IDX 76 24 32 26 64 27 44 28 63 29 45 30 48 31 62 32 81 33 46 34
REMARK SMILES IDX 47 35 61 37 82 38 49 39 33 40 34 41 42 42 35 43 36 44 40 45
REMARK SMILES IDX 43 46 37 47 38 48 41 49 39 50 65 51 66 52 74 53 67 54 68 55
REMARK SMILES IDX 72 56 75 57 69 58 70 59 73 60 71 61 50 62 51 63 59 64 52 65
REMARK SMILES IDX 53 66 57 67 60 68 54 69 55 70 58 71 56 72 7 73 8 74 9 75
REMARK SMILES IDX 10 76 11 77 12 79 13 80 14 81 23 82 15 83 16 84 17 85 18 86
REMARK SMILES IDX 22 87 19 89 20 90 21 91
REMARK H PARENT 3 7 80 25 48 36 10 78 17 88
REMARK Flexibility Score: inf
ROOT
ATOM      1  C   UNL A   1      33.680  26.680  24.691  1.00  0.00     0.002 C 
ENDROOT
BRANCH   1   2
ATOM      2  C   UNL A   1      34.021  28.102  25.133  1.00  0.00     0.021 C 
BRANCH   2   3
ATOM      3  C   UNL A   1      34.199  28.264  26.637  1.00  0.00     0.116 C 
BRANCH   3   4
ATOM      4  N   UNL A   1      33.853  29.603  27.089  1.00  0.00    -0.352 N 
ATOM      5  O   UNL A   1      34.046  31.472  28.344  1.00  0.00    -0.269 OA
ATOM      6  C   UNL A   1      34.562  30.448  27.906  1.00  0.00     0.251 C 
ATOM      7  H   UNL A   1      32.991  29.952  26.764  1.00  0.00     0.163 HD
BRANCH   6   8
ATOM      8  C   UNL A   1      35.953  30.108  28.271  1.00  0.00     0.039 A 
ATOM      9  C   UNL A   1      36.995  30.333  27.368  1.00  0.00     0.014 A 
ATOM     10  C   UNL A   1      36.217  29.564  29.530  1.00  0.00     0.014 A 
ATOM     11  C   UNL A   1      38.276  29.890  27.670  1.00  0.00     0.010 A 
ATOM     12  C   UNL A   1      37.523  29.203  29.868  1.00  0.00     0.010 A 
ATOM     13  C   UNL A   1      38.560  29.343  28.931  1.00  0.00    -0.014 A 
BRANCH  13  14
ATOM     14  C   UNL A   1      39.961  28.999  29.273  1.00  0.00     0.031 A 
ATOM     15  C   UNL A   1      40.812  29.917  30.103  1.00  0.00     0.074 A 
ATOM     16  C   UNL A   1      40.459  27.830  28.828  1.00  0.00     0.049 A 
ATOM     17  N   UNL A   1      42.053  29.763  30.491  1.00  0.00    -0.248 NA
ATOM     18  C   UNL A   1      40.195  31.173  30.551  1.00  0.00     0.031 C 
ATOM     19  C   UNL A   1      39.728  26.869  27.998  1.00  0.00     0.029 A 
ATOM     20  N   UNL A   1      41.684  27.243  29.014  1.00  0.00    -0.354 N 
ATOM     21  C   UNL A   1      42.372  30.907  31.210  1.00  0.00     0.074 A 
ATOM     22  C   UNL A   1      41.203  31.760  31.184  1.00  0.00     0.031 C 
ATOM     23  C   UNL A   1      40.504  25.800  27.775  1.00  0.00     0.029 A 
ATOM     24  C   UNL A   1      41.807  26.027  28.389  1.00  0.00     0.049 A 
ATOM     25  H   UNL A   1      42.405  27.654  29.543  1.00  0.00     0.167 HD
ATOM     26  C   UNL A   1      43.534  31.210  31.839  1.00  0.00     0.037 A 
ATOM     27  C   UNL A   1      42.860  25.195  28.296  1.00  0.00     0.037 A 
ATOM     28  C   UNL A   1      44.690  30.347  31.864  1.00  0.00     0.049 A 
ATOM     29  C   UNL A   1      44.143  25.569  28.980  1.00  0.00     0.074 A 
ATOM     30  C   UNL A   1      45.897  30.543  32.512  1.00  0.00     0.029 A 
ATOM     31  N   UNL A   1      44.786  29.131  31.202  1.00  0.00    -0.354 N 
ATOM     32  N   UNL A   1      44.416  26.630  29.700  1.00  0.00    -0.248 NA
ATOM     33  C   UNL A   1      45.263  24.631  28.839  1.00  0.00     0.031 C 
ATOM     34  C   UNL A   1      46.743  29.474  32.196  1.00  0.00     0.029 A 
ATOM     35  C   UNL A   1      46.043  28.580  31.401  1.00  0.00     0.049 A 
ATOM     36  H   UNL A   1      44.067  28.720  30.671  1.00  0.00     0.167 HD
ATOM     37  C   UNL A   1      45.732  26.482  30.112  1.00  0.00     0.074 A 
ATOM     38  C   UNL A   1      46.194  25.216  29.580  1.00  0.00     0.031 C 
ATOM     39  C   UNL A   1      46.489  27.321  30.861  1.00  0.00     0.037 A 
BRANCH  26  40
ATOM     40  C   UNL A   1      43.628  32.538  32.535  1.00  0.00     0.064 A 
ATOM     41  C   UNL A   1      43.285  32.693  33.886  1.00  0.00     0.173 A 
ATOM     42  C   UNL A   1      44.111  33.665  31.850  1.00  0.00     0.173 A 
ATOM     43  F   UNL A   1      42.808  31.652  34.587  1.00  0.00    -0.203 F 
ATOM     44  C   UNL A   1      43.394  33.930  34.518  1.00  0.00     0.198 A 
ATOM     45  C   UNL A   1      44.249  34.893  32.492  1.00  0.00     0.198 A 
ATOM     46  F   UNL A   1      44.462  33.572  30.559  1.00  0.00    -0.203 F 
ATOM     47  F   UNL A   1      43.016  34.064  35.796  1.00  0.00    -0.200 F 
ATOM     48  C   UNL A   1      43.883  35.027  33.822  1.00  0.00     0.200 A 
ATOM     49  F   UNL A   1      44.735  35.947  31.823  1.00  0.00    -0.200 F 
ATOM     50  F   UNL A   1      43.996  36.215  34.434  1.00  0.00    -0.200 F 
ENDBRANCH  26  40
BRANCH  27  51
ATOM     51  C   UNL A   1      42.737  23.939  27.514  1.00  0.00     0.064 A 
ATOM     52  C   UNL A   1      43.051  23.902  26.149  1.00  0.00     0.173 A 
ATOM     53  C   UNL A   1      42.324  22.743  28.122  1.00  0.00     0.173 A 
ATOM     54  F   UNL A   1      43.434  25.022  25.520  1.00  0.00    -0.203 F 
ATOM     55  C   UNL A   1      42.941  22.721  25.419  1.00  0.00     0.198 A 
ATOM     56  C   UNL A   1      42.248  21.556  27.400  1.00  0.00     0.198 A 
ATOM     57  F   UNL A   1      42.021  22.724  29.429  1.00  0.00    -0.203 F 
ATOM     58  F   UNL A   1      43.209  22.721  24.106  1.00  0.00    -0.200 F 
ATOM     59  C   UNL A   1      42.548  21.547  26.046  1.00  0.00     0.200 A 
ATOM     60  F   UNL A   1      41.888  20.422  28.014  1.00  0.00    -0.200 F 
ATOM     61  F   UNL A   1      42.456  20.409  25.346  1.00  0.00    -0.200 F 
ENDBRANCH  27  51
BRANCH  39  62
ATOM     62  C   UNL A   1      47.891  26.879  31.171  1.00  0.00     0.064 A 
ATOM     63  C   UNL A   1      48.982  27.285  30.387  1.00  0.00     0.173 A 
ATOM     64  C   UNL A   1      48.148  26.062  32.282  1.00  0.00     0.173 A 
ATOM     65  F   UNL A   1      48.786  28.051  29.304  1.00  0.00    -0.203 F 
ATOM     66  C   UNL A   1      50.274  26.864  30.688  1.00  0.00     0.198 A 
ATOM     67  C   UNL A   1      49.445  25.670  32.598  1.00  0.00     0.198 A 
ATOM     68  F   UNL A   1      47.140  25.650  33.066  1.00  0.00    -0.203 F 
ATOM     69  F   UNL A   1      51.294  27.219  29.894  1.00  0.00    -0.200 F 
ATOM     70  C   UNL A   1      50.506  26.064  31.796  1.00  0.00     0.200 A 
ATOM     71  F   UNL A   1      49.669  24.908  33.677  1.00  0.00    -0.200 F 
ATOM     72  F   UNL A   1      51.751  25.665  32.088  1.00  0.00    -0.200 F 
ENDBRANCH  39  62
ENDBRANCH  13  14
ENDBRANCH   6   8
ENDBRANCH   3   4
ENDBRANCH   2   3
ENDBRANCH   1   2
BRANCH   1  73
ATOM     73  C   UNL A   1      32.259  26.497  24.146  1.00  0.00     0.002 C 
BRANCH  73  74
ATOM     74  C   UNL A   1      31.142  26.641  25.188  1.00  0.00     0.021 C 
BRANCH  74  75
ATOM     75  C   UNL A   1      30.028  25.604  25.037  1.00  0.00     0.116 C 
BRANCH  75  76
ATOM     76  N   UNL A   1      29.919  24.802  26.243  1.00  0.00    -0.356 N 
ATOM     77  C   UNL A   1      30.557  23.641  26.579  1.00  0.00     0.227 C 
ATOM     78  H   UNL A   1      29.291  25.145  26.919  1.00  0.00     0.163 HD
ATOM     79  O   UNL A   1      30.185  23.038  27.586  1.00  0.00    -0.274 OA
BRANCH  77  80
ATOM     80  C   UNL A   1      31.769  23.216  25.756  1.00  0.00     0.107 C 
ATOM     81  C   UNL A   1      31.871  21.757  25.461  1.00  0.00    -0.012 C 
ATOM     82  C   UNL A   1      33.040  23.531  26.558  1.00  0.00     0.087 C 
ATOM     83  C   UNL A   1      32.981  21.217  25.971  1.00  0.00     0.033 C 
ATOM     84  C   UNL A   1      33.768  22.189  26.799  1.00  0.00     0.208 C 
BRANCH  84  85
ATOM     85  N   UNL A   1      35.212  22.073  26.567  1.00  0.00    -0.328 N 
ATOM     86  C   UNL A   1      35.593  21.314  25.365  1.00  0.00     0.275 C 
ATOM     87  C   UNL A   1      35.763  23.312  25.992  1.00  0.00     0.275 C 
ATOM     88  H   UNL A   1      35.517  21.723  27.475  1.00  0.00     0.348 HD
ATOM     89  C   UNL A   1      35.817  22.613  24.692  1.00  0.00     0.068 C 
ATOM     90  C   UNL A   1      35.229  23.098  23.399  1.00  0.00     0.020 C 
ATOM     91  C   UNL A   1      36.715  22.904  23.534  1.00  0.00     0.020 C 
ENDBRANCH  84  85
ENDBRANCH  77  80
ENDBRANCH  75  76
ENDBRANCH  74  75
ENDBRANCH  73  74
ENDBRANCH   1  73
TORSDOF 14
ENDMDL
MODEL 2
REMARK VINA RESULT:     -11.2      4.476      6.985
REMARK SMILES O=C(NCCCCCCNC(=O)[C@@H]1C=C[C@@H]([NH+]2CC3(CC3)C2)C1)c1ccc(-c2c3nc(c(-c4c(F)c(F)c(F)c(F)c4F)c4ccc([nH]4)c(-c4c(F)c(F)c(F)c(F)c4F)c4nc(c(-c5c(F)c(F)c(F)c(F)c5F)c5ccc2[nH]5)C=C4)C=C3)cc1
REMARK SMILES IDX 6 1 5 2 4 3 3 4 1 5 2 6 24 8 25 9 86 10 26 11 85 12 27 13
REMARK SMILES IDX 28 14 29 15 79 16 30 17 84 18 78 19 80 20 31 21 83 22 77 23
REMARK SMILES IDX 76 24 32 26 64 27 44 28 63 29 45 30 48 31 62 32 81 33 46 34
REMARK SMILES IDX 47 35 61 37 82 38 49 39 33 40 34 41 42 42 35 43 36 44 40 45
REMARK SMILES IDX 43 46 37 47 38 48 41 49 39 50 65 51 66 52 74 53 67 54 68 55
REMARK SMILES IDX 72 56 75 57 69 58 70 59 73 60 71 61 50 62 51 63 59 64 52 65
REMARK SMILES IDX 53 66 57 67 60 68 54 69 55 70 58 71 56 72 7 73 8 74 9 75
REMARK SMILES IDX 10 76 11 77 12 79 13 80 14 81 23 82 15 83 16 84 17 85 18 86
REMARK SMILES IDX 22 87 19 89 20 90 21 91
REMARK H PARENT 3 7 80 25 48 36 10 78 17 88
REMARK Flexibility Score: inf
ROOT
ATOM      1  C   UNL A   1      34.582  33.984  28.856  1.00  0.00     0.002 C 
ENDROOT
BRANCH   1   2
ATOM      2  C   UNL A   1      33.284  34.791  28.874  1.00  0.00     0.021 C 
BRANCH   2   3
ATOM      3  C   UNL A   1      33.395  36.137  29.578  1.00  0.00     0.116 C 
BRANCH   3   4
ATOM      4  N   UNL A   1      32.467  36.252  30.693  1.00  0.00    -0.352 N 
ATOM      5  O   UNL A   1      31.571  35.714  32.696  1.00  0.00    -0.269 OA
ATOM      6  C   UNL A   1      32.531  35.665  31.932  1.00  0.00     0.251 C 
ATOM      7  H   UNL A   1      31.686  36.830  30.537  1.00  0.00     0.163 HD
BRANCH   6   8
ATOM      8  C   UNL A   1      33.762  34.955  32.338  1.00  0.00     0.039 A 
ATOM      9  C   UNL A   1      34.998  35.604  32.294  1.00  0.00     0.014 A 
ATOM     10  C   UNL A   1      33.676  33.631  32.773  1.00  0.00     0.014 A 
ATOM     11  C   UNL A   1      36.161  34.890  32.551  1.00  0.00     0.010 A 
ATOM     12  C   UNL A   1      34.839  32.940  33.120  1.00  0.00     0.010 A 
ATOM     13  C   UNL A   1      36.094  33.558  32.990  1.00  0.00    -0.014 A 
BRANCH  13  14
ATOM     14  C   UNL A   1      37.342  32.861  33.383  1.00  0.00     0.031 A 
ATOM     15  C   UNL A   1      38.035  33.168  34.679  1.00  0.00     0.074 A 
ATOM     16  C   UNL A   1      37.843  31.929  32.549  1.00  0.00     0.049 A 
ATOM     17  N   UNL A   1      39.132  32.647  35.170  1.00  0.00    -0.248 NA
ATOM     18  C   UNL A   1      37.425  34.196  35.533  1.00  0.00     0.031 C 
ATOM     19  C   UNL A   1      37.263  31.563  31.255  1.00  0.00     0.029 A 
ATOM     20  N   UNL A   1      38.939  31.115  32.663  1.00  0.00    -0.354 N 
ATOM     21  C   UNL A   1      39.354  33.296  36.377  1.00  0.00     0.074 A 
ATOM     22  C   UNL A   1      38.293  34.267  36.534  1.00  0.00     0.031 C 
ATOM     23  C   UNL A   1      37.986  30.576  30.711  1.00  0.00     0.029 A 
ATOM     24  C   UNL A   1      39.117  30.284  31.585  1.00  0.00     0.049 A 
ATOM     25  H   UNL A   1      39.541  31.125  33.442  1.00  0.00     0.167 HD
ATOM     26  C   UNL A   1      40.351  33.090  37.273  1.00  0.00     0.037 A 
ATOM     27  C   UNL A   1      40.096  29.403  31.313  1.00  0.00     0.037 A 
ATOM     28  C   UNL A   1      41.398  32.113  37.108  1.00  0.00     0.049 A 
ATOM     29  C   UNL A   1      41.202  29.216  32.311  1.00  0.00     0.074 A 
ATOM     30  C   UNL A   1      42.426  31.796  37.980  1.00  0.00     0.029 A 
ATOM     31  N   UNL A   1      41.559  31.303  35.992  1.00  0.00    -0.354 N 
ATOM     32  N   UNL A   1      41.373  29.798  33.473  1.00  0.00    -0.248 NA
ATOM     33  C   UNL A   1      42.250  28.249  31.960  1.00  0.00     0.031 C 
ATOM     34  C   UNL A   1      43.240  30.836  37.367  1.00  0.00     0.029 A 
ATOM     35  C   UNL A   1      42.686  30.509  36.139  1.00  0.00     0.049 A 
ATOM     36  H   UNL A   1      40.960  31.294  35.212  1.00  0.00     0.167 HD
ATOM     37  C   UNL A   1      42.537  29.259  34.000  1.00  0.00     0.074 A 
ATOM     38  C   UNL A   1      43.017  28.286  33.041  1.00  0.00     0.031 C 
ATOM     39  C   UNL A   1      43.153  29.547  35.173  1.00  0.00     0.037 A 
BRANCH  26  40
ATOM     40  C   UNL A   1      40.374  33.951  38.504  1.00  0.00     0.064 A 
ATOM     41  C   UNL A   1      41.092  35.156  38.552  1.00  0.00     0.173 A 
ATOM     42  C   UNL A   1      39.630  33.589  39.638  1.00  0.00     0.173 A 
ATOM     43  F   UNL A   1      41.829  35.547  37.500  1.00  0.00    -0.203 F 
ATOM     44  C   UNL A   1      41.088  35.949  39.697  1.00  0.00     0.198 A 
ATOM     45  C   UNL A   1      39.603  34.399  40.770  1.00  0.00     0.198 A 
ATOM     46  F   UNL A   1      38.918  32.452  39.644  1.00  0.00    -0.203 F 
ATOM     47  F   UNL A   1      41.819  37.072  39.736  1.00  0.00    -0.200 F 
ATOM     48  C   UNL A   1      40.338  35.574  40.802  1.00  0.00     0.200 A 
ATOM     49  F   UNL A   1      38.866  34.042  41.831  1.00  0.00    -0.200 F 
ATOM     50  F   UNL A   1      40.329  36.342  41.901  1.00  0.00    -0.200 F 
ENDBRANCH  26  40
BRANCH  27  51
ATOM     51  C   UNL A   1      40.070  28.648  30.034  1.00  0.00     0.064 A 
ATOM     52  C   UNL A   1      40.668  29.164  28.876  1.00  0.00     0.173 A 
ATOM     53  C   UNL A   1      39.467  27.384  29.951  1.00  0.00     0.173 A 
ATOM     54  F   UNL A   1      41.243  30.375  28.902  1.00  0.00    -0.203 F 
ATOM     55  C   UNL A   1      40.648  28.451  27.680  1.00  0.00     0.198 A 
ATOM     56  C   UNL A   1      39.478  26.657  28.764  1.00  0.00     0.198 A 
ATOM     57  F   UNL A   1      38.889  26.843  31.034  1.00  0.00    -0.203 F 
ATOM     58  F   UNL A   1      41.192  28.983  26.577  1.00  0.00    -0.200 F 
ATOM     59  C   UNL A   1      40.061  27.195  27.626  1.00  0.00     0.200 A 
ATOM     60  F   UNL A   1      38.928  25.437  28.723  1.00  0.00    -0.200 F 
ATOM     61  F   UNL A   1      40.055  26.504  26.479  1.00  0.00    -0.200 F 
ENDBRANCH  27  51
BRANCH  39  62
ATOM     62  C   UNL A   1      44.402  28.778  35.493  1.00  0.00     0.064 A 
ATOM     63  C   UNL A   1      45.667  29.219  35.077  1.00  0.00     0.173 A 
ATOM     64  C   UNL A   1      44.334  27.597  36.249  1.00  0.00     0.173 A 
ATOM     65  F   UNL A   1      45.783  30.332  34.337  1.00  0.00    -0.203 F 
ATOM     66  C   UNL A   1      46.814  28.491  35.381  1.00  0.00     0.198 A 
ATOM     67  C   UNL A   1      45.486  26.890  36.579  1.00  0.00     0.198 A 
ATOM     68  F   UNL A   1      43.149  27.134  36.675  1.00  0.00    -0.203 F 
ATOM     69  F   UNL A   1      48.006  28.902  34.927  1.00  0.00    -0.200 F 
ATOM     70  C   UNL A   1      46.724  27.333  36.137  1.00  0.00     0.200 A 
ATOM     71  F   UNL A   1      45.398  25.778  37.320  1.00  0.00    -0.200 F 
ATOM     72  F   UNL A   1      47.830  26.637  36.434  1.00  0.00    -0.200 F 
ENDBRANCH  39  62
ENDBRANCH  13  14
ENDBRANCH   6   8
ENDBRANCH   3   4
ENDBRANCH   2   3
ENDBRANCH   1   2
BRANCH   1  73
ATOM     73  C   UNL A   1      34.406  32.476  29.066  1.00  0.00     0.002 C 
BRANCH  73  74
ATOM     74  C   UNL A   1      34.868  31.600  27.893  1.00  0.00     0.021 C 
BRANCH  74  75
ATOM     75  C   UNL A   1      33.730  30.841  27.211  1.00  0.00     0.116 C 
BRANCH  75  76
ATOM     76  N   UNL A   1      34.256  29.733  26.434  1.00  0.00    -0.356 N 
ATOM     77  C   UNL A   1      33.592  28.783  25.709  1.00  0.00     0.227 C 
ATOM     78  H   UNL A   1      35.237  29.654  26.428  1.00  0.00     0.163 HD
ATOM     79  O   UNL A   1      34.234  27.831  25.265  1.00  0.00    -0.274 OA
BRANCH  77  80
ATOM     80  C   UNL A   1      32.118  29.011  25.394  1.00  0.00     0.107 C 
ATOM     81  C   UNL A   1      31.211  27.859  25.669  1.00  0.00    -0.012 C 
ATOM     82  C   UNL A   1      31.972  29.257  23.885  1.00  0.00     0.087 C 
ATOM     83  C   UNL A   1      30.597  27.427  24.564  1.00  0.00     0.033 C 
ATOM     84  C   UNL A   1      31.067  28.135  23.328  1.00  0.00     0.208 C 
BRANCH  84  85
ATOM     85  N   UNL A   1      29.962  28.454  22.417  1.00  0.00    -0.328 N 
ATOM     86  C   UNL A   1      28.671  28.723  23.071  1.00  0.00     0.275 C 
ATOM     87  C   UNL A   1      30.043  29.845  21.943  1.00  0.00     0.275 C 
ATOM     88  H   UNL A   1      30.021  27.665  21.773  1.00  0.00     0.348 HD
ATOM     89  C   UNL A   1      28.946  30.165  22.880  1.00  0.00     0.068 C 
ATOM     90  C   UNL A   1      28.953  31.250  23.916  1.00  0.00     0.020 C 
ATOM     91  C   UNL A   1      27.960  31.283  22.786  1.00  0.00     0.020 C 
ENDBRANCH  84  85
ENDBRANCH  77  80
ENDBRANCH  75  76
ENDBRANCH  74  75
ENDBRANCH  73  74
ENDBRANCH   1  73
TORSDOF 14
ENDMDL
MODEL 3
REMARK VINA RESULT:     -11.1      3.954      6.057
REMARK SMILES O=C(NCCCCCCNC(=O)[C@@H]1C=C[C@@H]([NH+]2CC3(CC3)C2)C1)c1ccc(-c2c3nc(c(-c4c(F)c(F)c(F)c(F)c4F)c4ccc([nH]4)c(-c4c(F)c(F)c(F)c(F)c4F)c4nc(c(-c5c(F)c(F)c(F)c(F)c5F)c5ccc2[nH]5)C=C4)C=C3)cc1
REMARK SMILES IDX 6 1 5 2 4 3 3 4 1 5 2 6 24 8 25 9 86 10 26 11 85 12 27 13
REMARK SMILES IDX 28 14 29 15 79 16 30 17 84 18 78 19 80 20 31 21 83 22 77 23
REMARK SMILES IDX 76 24 32 26 64 27 44 28 63 29 45 30 48 31 62 32 81 33 46 34
REMARK SMILES IDX 47 35 61 37 82 38 49 39 33 40 34 41 42 42 35 43 36 44 40 45
REMARK SMILES IDX 43 46 37 47 38 48 41 49 39 50 65 51 66 52 74 53 67 54 68 55
REMARK SMILES IDX 72 56 75 57 69 58 70 59 73 60 71 61 50 62 51 63 59 64 52 65
REMARK SMILES IDX 53 66 57 67 60 68 54 69 55 70 58 71 56 72 7 73 8 74 9 75
REMARK SMILES IDX 10 76 11 77 12 79 13 80 14 81 23 82 15 83 16 84 17 85 18 86
REMARK SMILES IDX 22 87 19 89 20 90 21 91
REMARK H PARENT 3 7 80 25 48 36 10 78 17 88
REMARK Flexibility Score: inf
ROOT
ATOM      1  C   UNL A   1      31.665  30.624  26.521  1.00  0.00     0.002 C 
ENDROOT
BRANCH   1   2
ATOM      2  C   UNL A   1      31.446  32.111  26.799  1.00  0.00     0.021 C 
BRANCH   2   3
ATOM      3  C   UNL A   1      32.730  32.910  26.972  1.00  0.00     0.116 C 
BRANCH   3   4
ATOM      4  N   UNL A   1      32.495  34.193  27.617  1.00  0.00    -0.352 N 
ATOM      5  O   UNL A   1      32.636  35.731  29.266  1.00  0.00    -0.269 OA
ATOM      6  C   UNL A   1      33.080  34.712  28.745  1.00  0.00     0.251 C 
ATOM      7  H   UNL A   1      31.825  34.770  27.183  1.00  0.00     0.163 HD
BRANCH   6   8
ATOM      8  C   UNL A   1      34.242  34.023  29.344  1.00  0.00     0.039 A 
ATOM      9  C   UNL A   1      34.054  32.933  30.197  1.00  0.00     0.014 A 
ATOM     10  C   UNL A   1      35.531  34.470  29.045  1.00  0.00     0.014 A 
ATOM     11  C   UNL A   1      35.143  32.378  30.856  1.00  0.00     0.010 A 
ATOM     12  C   UNL A   1      36.634  33.850  29.638  1.00  0.00     0.010 A 
ATOM     13  C   UNL A   1      36.446  32.813  30.567  1.00  0.00    -0.014 A 
BRANCH  13  14
ATOM     14  C   UNL A   1      37.597  32.114  31.187  1.00  0.00     0.031 A 
ATOM     15  C   UNL A   1      38.056  32.444  32.578  1.00  0.00     0.074 A 
ATOM     16  C   UNL A   1      38.224  31.159  30.474  1.00  0.00     0.049 A 
ATOM     17  N   UNL A   1      39.043  31.924  33.265  1.00  0.00    -0.248 NA
ATOM     18  C   UNL A   1      37.319  33.497  33.290  1.00  0.00     0.031 C 
ATOM     19  C   UNL A   1      37.875  30.769  29.106  1.00  0.00     0.029 A 
ATOM     20  N   UNL A   1      39.273  30.337  30.795  1.00  0.00    -0.354 N 
ATOM     21  C   UNL A   1      39.058  32.598  34.479  1.00  0.00     0.074 A 
ATOM     22  C   UNL A   1      37.999  33.583  34.426  1.00  0.00     0.031 C 
ATOM     23  C   UNL A   1      38.669  29.763  28.718  1.00  0.00     0.029 A 
ATOM     24  C   UNL A   1      39.626  29.481  29.782  1.00  0.00     0.049 A 
ATOM     25  H   UNL A   1      39.729  30.360  31.667  1.00  0.00     0.167 HD
ATOM     26  C   UNL A   1      39.880  32.404  35.539  1.00  0.00     0.037 A 
ATOM     27  C   UNL A   1      40.626  28.585  29.705  1.00  0.00     0.037 A 
ATOM     28  C   UNL A   1      40.928  31.413  35.581  1.00  0.00     0.049 A 
ATOM     29  C   UNL A   1      41.537  28.410  30.885  1.00  0.00     0.074 A 
ATOM     30  C   UNL A   1      41.783  31.107  36.626  1.00  0.00     0.029 A 
ATOM     31  N   UNL A   1      41.271  30.577  34.527  1.00  0.00    -0.354 N 
ATOM     32  N   UNL A   1      41.510  29.017  32.046  1.00  0.00    -0.248 NA
ATOM     33  C   UNL A   1      42.617  27.426  30.743  1.00  0.00     0.031 C 
ATOM     34  C   UNL A   1      42.679  30.126  36.185  1.00  0.00     0.029 A 
ATOM     35  C   UNL A   1      42.344  29.777  34.886  1.00  0.00     0.049 A 
ATOM     36  H   UNL A   1      40.817  30.555  33.654  1.00  0.00     0.167 HD
ATOM     37  C   UNL A   1      42.556  28.480  32.781  1.00  0.00     0.074 A 
ATOM     38  C   UNL A   1      43.184  27.480  31.941  1.00  0.00     0.031 C 
ATOM     39  C   UNL A   1      42.961  28.789  34.037  1.00  0.00     0.037 A 
BRANCH  26  40
ATOM     40  C   UNL A   1      39.699  33.292  36.737  1.00  0.00     0.064 A 
ATOM     41  C   UNL A   1      40.400  34.500  36.877  1.00  0.00     0.173 A 
ATOM     42  C   UNL A   1      38.777  32.953  37.740  1.00  0.00     0.173 A 
ATOM     43  F   UNL A   1      41.301  34.870  35.953  1.00  0.00    -0.203 F 
ATOM     44  C   UNL A   1      40.205  35.319  37.987  1.00  0.00     0.198 A 
ATOM     45  C   UNL A   1      38.562  33.789  38.833  1.00  0.00     0.198 A 
ATOM     46  F   UNL A   1      38.073  31.814  37.653  1.00  0.00    -0.203 F 
ATOM     47  F   UNL A   1      40.920  36.444  38.121  1.00  0.00    -0.200 F 
ATOM     48  C   UNL A   1      39.281  34.966  38.960  1.00  0.00     0.200 A 
ATOM     49  F   UNL A   1      37.659  33.453  39.764  1.00  0.00    -0.200 F 
ATOM     50  F   UNL A   1      39.090  35.759  40.024  1.00  0.00    -0.200 F 
ENDBRANCH  26  40
BRANCH  27  51
ATOM     51  C   UNL A   1      40.814  27.801  28.457  1.00  0.00     0.064 A 
ATOM     52  C   UNL A   1      41.632  28.274  27.422  1.00  0.00     0.173 A 
ATOM     53  C   UNL A   1      40.198  26.552  28.285  1.00  0.00     0.173 A 
ATOM     54  F   UNL A   1      42.230  29.468  27.533  1.00  0.00    -0.203 F 
ATOM     55  C   UNL A   1      41.814  27.534  26.256  1.00  0.00     0.198 A 
ATOM     56  C   UNL A   1      40.407  25.798  27.134  1.00  0.00     0.198 A 
ATOM     57  F   UNL A   1      39.413  26.052  29.251  1.00  0.00    -0.203 F 
ATOM     58  F   UNL A   1      42.569  28.025  25.264  1.00  0.00    -0.200 F 
ATOM     59  C   UNL A   1      41.208  26.293  26.116  1.00  0.00     0.200 A 
ATOM     60  F   UNL A   1      39.837  24.593  27.013  1.00  0.00    -0.200 F 
ATOM     61  F   UNL A   1      41.393  25.576  25.000  1.00  0.00    -0.200 F 
ENDBRANCH  27  51
BRANCH  39  62
ATOM     62  C   UNL A   1      44.125  28.015  34.588  1.00  0.00     0.064 A 
ATOM     63  C   UNL A   1      45.442  28.485  34.474  1.00  0.00     0.173 A 
ATOM     64  C   UNL A   1      43.915  26.801  35.260  1.00  0.00     0.173 A 
ATOM     65  F   UNL A   1      45.696  29.631  33.825  1.00  0.00    -0.203 F 
ATOM     66  C   UNL A   1      46.509  27.753  34.988  1.00  0.00     0.198 A 
ATOM     67  C   UNL A   1      44.981  26.089  35.801  1.00  0.00     0.198 A 
ATOM     68  F   UNL A   1      42.674  26.310  35.399  1.00  0.00    -0.203 F 
ATOM     69  F   UNL A   1      47.763  28.193  34.821  1.00  0.00    -0.200 F 
ATOM     70  C   UNL A   1      46.278  26.561  35.657  1.00  0.00     0.200 A 
ATOM     71  F   UNL A   1      44.754  24.943  36.458  1.00  0.00    -0.200 F 
ATOM     72  F   UNL A   1      47.305  25.861  36.157  1.00  0.00    -0.200 F 
ENDBRANCH  39  62
ENDBRANCH  13  14
ENDBRANCH   6   8
ENDBRANCH   3   4
ENDBRANCH   2   3
ENDBRANCH   1   2
BRANCH   1  73
ATOM     73  C   UNL A   1      32.854  29.999  27.260  1.00  0.00     0.002 C 
BRANCH  73  74
ATOM     74  C   UNL A   1      33.905  29.340  26.356  1.00  0.00     0.021 C 
BRANCH  74  75
ATOM     75  C   UNL A   1      33.658  27.850  26.118  1.00  0.00     0.116 C 
BRANCH  75  76
ATOM     76  N   UNL A   1      33.776  27.539  24.704  1.00  0.00    -0.356 N 
ATOM     77  C   UNL A   1      32.823  27.554  23.724  1.00  0.00     0.227 C 
ATOM     78  H   UNL A   1      34.678  27.278  24.406  1.00  0.00     0.163 HD
ATOM     79  O   UNL A   1      33.109  27.089  22.621  1.00  0.00    -0.274 OA
BRANCH  77  80
ATOM     80  C   UNL A   1      31.497  28.250  24.015  1.00  0.00     0.107 C 
ATOM     81  C   UNL A   1      30.376  27.358  24.432  1.00  0.00    -0.012 C 
ATOM     82  C   UNL A   1      30.997  28.909  22.722  1.00  0.00     0.087 C 
ATOM     83  C   UNL A   1      29.347  27.412  23.582  1.00  0.00     0.033 C 
ATOM     84  C   UNL A   1      29.636  28.261  22.379  1.00  0.00     0.208 C 
BRANCH  84  85
ATOM     85  N   UNL A   1      28.489  29.095  22.001  1.00  0.00    -0.328 N 
ATOM     86  C   UNL A   1      27.694  29.611  23.126  1.00  0.00     0.275 C 
ATOM     87  C   UNL A   1      28.914  30.457  21.640  1.00  0.00     0.275 C 
ATOM     88  H   UNL A   1      28.031  28.481  21.327  1.00  0.00     0.348 HD
ATOM     89  C   UNL A   1      28.400  30.900  22.952  1.00  0.00     0.068 C 
ATOM     90  C   UNL A   1      29.158  31.685  23.982  1.00  0.00     0.020 C 
ATOM     91  C   UNL A   1      27.928  32.264  23.337  1.00  0.00     0.020 C 
ENDBRANCH  84  85
ENDBRANCH  77  80
ENDBRANCH  75  76
ENDBRANCH  74  75
ENDBRANCH  73  74
ENDBRANCH   1  73
TORSDOF 14
ENDMDL
