MODEL 1
REMARK VINA RESULT:     -12.8      0.000      0.000
REMARK SMILES CCOc1ccccc1-c1cc(C(=O)NCCCCCCNC(=O)c2ccc(-c3c4nc(c(-c5c(F)c(F)c(F)c(F)c5F)c5ccc([nH]5)c(-c5c(F)c(F)c(F)c(F)c5F)c5nc(c(-c6c(F)c(F)c(F)c(F)c6F)c6ccc3[nH]6)C=C5)C=C4)cc2)c2cc(C)cc(C)c2n1
REMARK SMILES IDX 18 1 17 2 16 3 15 4 13 5 14 6 12 8 10 9 11 10 96 11 95 12
REMARK SMILES IDX 88 13 93 14 89 15 92 16 94 17 90 18 91 19 9 20 4 21 5 22
REMARK SMILES IDX 6 23 8 24 7 25 3 26 2 27 1 28 19 29 20 30 21 31 22 32 23 33
REMARK SMILES IDX 24 35 25 36 26 37 87 38 27 39 86 40 28 41 29 42 30 43 80 44
REMARK SMILES IDX 31 45 85 46 79 47 81 48 32 49 84 50 78 51 77 52 33 54 65 55
REMARK SMILES IDX 45 56 64 57 46 58 49 59 63 60 82 61 47 62 48 63 62 65 83 66
REMARK SMILES IDX 50 67 34 68 35 69 43 70 36 71 37 72 41 73 44 74 38 75 39 76
REMARK SMILES IDX 42 77 40 78 66 79 67 80 75 81 68 82 69 83 73 84 76 85 70 86
REMARK SMILES IDX 71 87 74 88 72 89 51 90 52 91 60 92 53 93 54 94 58 95 61 96
REMARK SMILES IDX 55 97 56 98 59 99 57 100
REMARK H PARENT 15 7 22 34 81 53 49 64
REMARK Flexibility Score: inf
ROOT
ATOM      1  C   UNL A   1      34.621  32.248  29.004  1.00  0.00     0.002 C 
ENDROOT
BRANCH   1   2
ATOM      2  C   UNL A   1      34.191  31.674  27.653  1.00  0.00     0.021 C 
BRANCH   2   3
ATOM      3  C   UNL A   1      34.369  30.162  27.497  1.00  0.00     0.116 C 
BRANCH   3   4
ATOM      4  N   UNL A   1      33.165  29.434  27.853  1.00  0.00    -0.352 N 
ATOM      5  C   UNL A   1      32.178  28.726  27.214  1.00  0.00     0.252 C 
ATOM      6  O   UNL A   1      31.396  28.161  27.985  1.00  0.00    -0.269 OA
ATOM      7  H   UNL A   1      33.013  29.454  28.826  1.00  0.00     0.163 HD
BRANCH   5   8
ATOM      8  C   UNL A   1      31.993  28.546  25.736  1.00  0.00     0.051 A 
ATOM      9  C   UNL A   1      31.084  29.062  23.618  1.00  0.00     0.075 A 
ATOM     10  C   UNL A   1      31.301  29.444  24.922  1.00  0.00     0.043 A 
ATOM     11  N   UNL A   1      32.080  28.387  23.031  1.00  0.00    -0.247 NA
ATOM     12  C   UNL A   1      32.470  27.315  23.711  1.00  0.00     0.075 A 
ATOM     13  C   UNL A   1      32.363  27.304  25.115  1.00  0.00     0.014 A 
ATOM     14  C   UNL A   1      32.719  26.151  22.984  1.00  0.00    -0.024 A 
ATOM     15  C   UNL A   1      32.363  26.035  25.748  1.00  0.00     0.014 A 
ATOM     16  C   UNL A   1      32.623  24.913  23.626  1.00  0.00     0.009 A 
ATOM     17  C   UNL A   1      32.816  26.184  21.482  1.00  0.00     0.047 C 
ATOM     18  C   UNL A   1      32.377  24.849  24.997  1.00  0.00    -0.050 A 
ATOM     19  C   UNL A   1      31.914  23.564  25.622  1.00  0.00     0.044 C 
BRANCH   9  20
ATOM     20  C   UNL A   1      29.771  28.448  23.182  1.00  0.00     0.042 A 
ATOM     21  C   UNL A   1      28.678  29.255  22.757  1.00  0.00     0.128 A 
ATOM     22  C   UNL A   1      27.361  28.877  23.033  1.00  0.00     0.047 A 
ATOM     23  C   UNL A   1      27.101  27.642  23.619  1.00  0.00     0.004 A 
ATOM     24  C   UNL A   1      29.473  27.155  23.647  1.00  0.00     0.014 A 
ATOM     25  C   UNL A   1      28.149  26.760  23.870  1.00  0.00     0.001 A 
BRANCH  21  26
ATOM     26  O   UNL A   1      28.891  30.541  22.326  1.00  0.00    -0.493 OA
BRANCH  26  27
ATOM     27  C   UNL A   1      28.163  31.548  23.028  1.00  0.00     0.226 C 
ATOM     28  C   UNL A   1      28.827  32.905  22.886  1.00  0.00     0.049 C 
ENDBRANCH  26  27
ENDBRANCH  21  26
ENDBRANCH   9  20
ENDBRANCH   5   8
ENDBRANCH   3   4
ENDBRANCH   2   3
ENDBRANCH   1   2
BRANCH   1  29
ATOM     29  C   UNL A   1      34.690  33.777  29.078  1.00  0.00     0.002 C 
BRANCH  29  30
ATOM     30  C   UNL A   1      33.342  34.502  29.009  1.00  0.00     0.021 C 
BRANCH  30  31
ATOM     31  C   UNL A   1      33.345  35.923  29.565  1.00  0.00     0.116 C 
BRANCH  31  32
ATOM     32  N   UNL A   1      32.461  36.064  30.712  1.00  0.00    -0.352 N 
ATOM     33  C   UNL A   1      32.566  35.532  31.968  1.00  0.00     0.251 C 
ATOM     34  H   UNL A   1      31.668  36.626  30.561  1.00  0.00     0.163 HD
ATOM     35  O   UNL A   1      31.603  35.587  32.741  1.00  0.00    -0.269 OA
BRANCH  33  36
ATOM     36  C   UNL A   1      33.814  34.877  32.409  1.00  0.00     0.039 A 
ATOM     37  C   UNL A   1      33.754  33.566  32.889  1.00  0.00     0.014 A 
ATOM     38  C   UNL A   1      35.036  35.556  32.380  1.00  0.00     0.014 A 
ATOM     39  C   UNL A   1      34.925  32.919  33.287  1.00  0.00     0.010 A 
ATOM     40  C   UNL A   1      36.212  34.884  32.705  1.00  0.00     0.010 A 
ATOM     41  C   UNL A   1      36.169  33.561  33.166  1.00  0.00    -0.014 A 
BRANCH  41  42
ATOM     42  C   UNL A   1      37.427  32.847  33.502  1.00  0.00     0.031 A 
ATOM     43  C   UNL A   1      38.176  33.163  34.765  1.00  0.00     0.074 A 
ATOM     44  C   UNL A   1      37.923  31.944  32.634  1.00  0.00     0.049 A 
ATOM     45  N   UNL A   1      39.297  32.653  35.213  1.00  0.00    -0.248 NA
ATOM     46  C   UNL A   1      37.608  34.210  35.625  1.00  0.00     0.031 C 
ATOM     47  C   UNL A   1      37.322  31.598  31.346  1.00  0.00     0.029 A 
ATOM     48  N   UNL A   1      39.046  31.160  32.700  1.00  0.00    -0.354 N 
ATOM     49  C   UNL A   1      39.566  33.318  36.401  1.00  0.00     0.074 A 
ATOM     50  C   UNL A   1      38.530  34.314  36.570  1.00  0.00     0.031 C 
ATOM     51  C   UNL A   1      38.069  30.654  30.753  1.00  0.00     0.029 A 
ATOM     52  C   UNL A   1      39.218  30.355  31.602  1.00  0.00     0.049 A 
ATOM     53  H   UNL A   1      39.669  31.172  33.463  1.00  0.00     0.167 HD
ATOM     54  C   UNL A   1      40.571  33.100  37.285  1.00  0.00     0.037 A 
ATOM     55  C   UNL A   1      40.196  29.478  31.306  1.00  0.00     0.037 A 
ATOM     56  C   UNL A   1      41.599  32.106  37.112  1.00  0.00     0.049 A 
ATOM     57  C   UNL A   1      41.303  29.253  32.298  1.00  0.00     0.074 A 
ATOM     58  C   UNL A   1      42.628  31.766  37.972  1.00  0.00     0.029 A 
ATOM     59  N   UNL A   1      41.737  31.298  35.990  1.00  0.00    -0.354 N 
ATOM     60  N   UNL A   1      41.503  29.828  33.459  1.00  0.00    -0.248 NA
ATOM     61  C   UNL A   1      42.314  28.247  31.943  1.00  0.00     0.031 C 
ATOM     62  C   UNL A   1      43.421  30.795  37.348  1.00  0.00     0.029 A 
ATOM     63  C   UNL A   1      42.851  30.484  36.123  1.00  0.00     0.049 A 
ATOM     64  H   UNL A   1      41.131  31.303  35.214  1.00  0.00     0.167 HD
ATOM     65  C   UNL A   1      42.651  29.247  33.980  1.00  0.00     0.074 A 
ATOM     66  C   UNL A   1      43.088  28.255  33.019  1.00  0.00     0.031 C 
ATOM     67  C   UNL A   1      43.287  29.513  35.150  1.00  0.00     0.037 A 
BRANCH  54  68
ATOM     68  C   UNL A   1      40.603  33.962  38.516  1.00  0.00     0.064 A 
ATOM     69  C   UNL A   1      41.354  35.149  38.568  1.00  0.00     0.173 A 
ATOM     70  C   UNL A   1      39.874  33.604  39.660  1.00  0.00     0.173 A 
ATOM     71  F   UNL A   1      42.077  35.535  37.506  1.00  0.00    -0.203 F 
ATOM     72  C   UNL A   1      41.410  35.916  39.729  1.00  0.00     0.198 A 
ATOM     73  C   UNL A   1      39.902  34.392  40.808  1.00  0.00     0.198 A 
ATOM     74  F   UNL A   1      39.131  32.486  39.667  1.00  0.00    -0.203 F 
ATOM     75  F   UNL A   1      42.190  37.005  39.773  1.00  0.00    -0.200 F 
ATOM     76  C   UNL A   1      40.681  35.539  40.846  1.00  0.00     0.200 A 
ATOM     77  F   UNL A   1      39.186  34.035  41.883  1.00  0.00    -0.200 F 
ATOM     78  F   UNL A   1      40.738  36.276  41.964  1.00  0.00    -0.200 F 
ENDBRANCH  54  68
BRANCH  55  79
ATOM     79  C   UNL A   1      40.146  28.734  30.021  1.00  0.00     0.064 A 
ATOM     80  C   UNL A   1      40.779  29.229  28.873  1.00  0.00     0.173 A 
ATOM     81  C   UNL A   1      39.493  27.496  29.925  1.00  0.00     0.173 A 
ATOM     82  F   UNL A   1      41.400  30.416  28.910  1.00  0.00    -0.203 F 
ATOM     83  C   UNL A   1      40.754  28.517  27.675  1.00  0.00     0.198 A 
ATOM     84  C   UNL A   1      39.494  26.771  28.736  1.00  0.00     0.198 A 
ATOM     85  F   UNL A   1      38.879  26.976  30.998  1.00  0.00    -0.203 F 
ATOM     86  F   UNL A   1      41.340  29.027  26.584  1.00  0.00    -0.200 F 
ATOM     87  C   UNL A   1      40.119  27.285  27.610  1.00  0.00     0.200 A 
ATOM     88  F   UNL A   1      38.896  25.573  28.683  1.00  0.00    -0.200 F 
ATOM     89  F   UNL A   1      40.110  26.594  26.462  1.00  0.00    -0.200 F 
ENDBRANCH  55  79
BRANCH  67  90
ATOM     90  C   UNL A   1      44.520  28.710  35.455  1.00  0.00     0.064 A 
ATOM     91  C   UNL A   1      45.798  29.152  35.077  1.00  0.00     0.173 A 
ATOM     92  C   UNL A   1      44.425  27.495  36.151  1.00  0.00     0.173 A 
ATOM     93  F   UNL A   1      45.943  30.298  34.396  1.00  0.00    -0.203 F 
ATOM     94  C   UNL A   1      46.930  28.389  35.355  1.00  0.00     0.198 A 
ATOM     95  C   UNL A   1      45.563  26.753  36.457  1.00  0.00     0.198 A 
ATOM     96  F   UNL A   1      43.230  27.031  36.542  1.00  0.00    -0.203 F 
ATOM     97  F   UNL A   1      48.133  28.803  34.932  1.00  0.00    -0.200 F 
ATOM     98  C   UNL A   1      46.813  27.195  36.050  1.00  0.00     0.200 A 
ATOM     99  F   UNL A   1      45.450  25.607  37.142  1.00  0.00    -0.200 F 
ATOM    100  F   UNL A   1      47.904  26.465  36.319  1.00  0.00    -0.200 F 
ENDBRANCH  67  90
ENDBRANCH  41  42
ENDBRANCH  33  36
ENDBRANCH  31  32
ENDBRANCH  30  31
ENDBRANCH  29  30
ENDBRANCH   1  29
TORSDOF 16
ENDMDL
MODEL 2
REMARK VINA RESULT:     -12.4      1.986      3.613
REMARK SMILES CCOc1ccccc1-c1cc(C(=O)NCCCCCCNC(=O)c2ccc(-c3c4nc(c(-c5c(F)c(F)c(F)c(F)c5F)c5ccc([nH]5)c(-c5c(F)c(F)c(F)c(F)c5F)c5nc(c(-c6c(F)c(F)c(F)c(F)c6F)c6ccc3[nH]6)C=C5)C=C4)cc2)c2cc(C)cc(C)c2n1
REMARK SMILES IDX 18 1 17 2 16 3 15 4 13 5 14 6 12 8 10 9 11 10 96 11 95 12
REMARK SMILES IDX 88 13 93 14 89 15 92 16 94 17 90 18 91 19 9 20 4 21 5 22
REMARK SMILES IDX 6 23 8 24 7 25 3 26 2 27 1 28 19 29 20 30 21 31 22 32 23 33
REMARK SMILES IDX 24 35 25 36 26 37 87 38 27 39 86 40 28 41 29 42 30 43 80 44
REMARK SMILES IDX 31 45 85 46 79 47 81 48 32 49 84 50 78 51 77 52 33 54 65 55
REMARK SMILES IDX 45 56 64 57 46 58 49 59 63 60 82 61 47 62 48 63 62 65 83 66
REMARK SMILES IDX 50 67 34 68 35 69 43 70 36 71 37 72 41 73 44 74 38 75 39 76
REMARK SMILES IDX 42 77 40 78 66 79 67 80 75 81 68 82 69 83 73 84 76 85 70 86
REMARK SMILES IDX 71 87 74 88 72 89 51 90 52 91 60 92 53 93 54 94 58 95 61 96
REMARK SMILES IDX 55 97 56 98 59 99 57 100
REMARK H PARENT 15 7 22 34 81 53 49 64
REMARK Flexibility Score: inf
ROOT
ATOM      1  C   UNL A   1      31.476  29.522  26.911  1.00  0.00     0.002 C 
ENDROOT
BRANCH   1   2
ATOM      2  C   UNL A   1      32.791  28.915  27.406  1.00  0.00     0.021 C 
BRANCH   2   3
ATOM      3  C   UNL A   1      34.055  29.457  26.733  1.00  0.00     0.116 C 
BRANCH   3   4
ATOM      4  N   UNL A   1      34.119  29.100  25.328  1.00  0.00    -0.352 N 
ATOM      5  C   UNL A   1      33.960  27.976  24.556  1.00  0.00     0.252 C 
ATOM      6  O   UNL A   1      33.991  28.202  23.342  1.00  0.00    -0.269 OA
ATOM      7  H   UNL A   1      34.338  29.884  24.772  1.00  0.00     0.163 HD
BRANCH   5   8
ATOM      8  C   UNL A   1      33.720  26.572  25.024  1.00  0.00     0.051 A 
ATOM      9  C   UNL A   1      34.269  24.293  25.314  1.00  0.00     0.075 A 
ATOM     10  C   UNL A   1      34.686  25.566  24.997  1.00  0.00     0.043 A 
ATOM     11  N   UNL A   1      33.355  24.201  26.287  1.00  0.00    -0.247 NA
ATOM     12  C   UNL A   1      32.274  24.943  26.075  1.00  0.00     0.075 A 
ATOM     13  C   UNL A   1      32.387  26.143  25.345  1.00  0.00     0.014 A 
ATOM     14  C   UNL A   1      31.036  24.369  26.358  1.00  0.00    -0.024 A 
ATOM     15  C   UNL A   1      31.195  26.659  24.774  1.00  0.00     0.014 A 
ATOM     16  C   UNL A   1      29.897  24.850  25.706  1.00  0.00     0.009 A 
ATOM     17  C   UNL A   1      30.941  23.078  27.128  1.00  0.00     0.047 C 
ATOM     18  C   UNL A   1      29.985  25.954  24.858  1.00  0.00    -0.050 A 
ATOM     19  C   UNL A   1      28.878  26.251  23.888  1.00  0.00     0.044 C 
BRANCH   9  20
ATOM     20  C   UNL A   1      33.925  23.284  24.240  1.00  0.00     0.042 A 
ATOM     21  C   UNL A   1      33.481  23.691  22.951  1.00  0.00     0.128 A 
ATOM     22  C   UNL A   1      32.537  22.937  22.248  1.00  0.00     0.047 A 
ATOM     23  C   UNL A   1      32.113  21.712  22.751  1.00  0.00     0.004 A 
ATOM     24  C   UNL A   1      33.583  21.984  24.656  1.00  0.00     0.014 A 
ATOM     25  C   UNL A   1      32.679  21.210  23.921  1.00  0.00     0.001 A 
BRANCH  21  26
ATOM     26  O   UNL A   1      33.747  24.959  22.494  1.00  0.00    -0.493 OA
BRANCH  26  27
ATOM     27  C   UNL A   1      33.065  25.331  21.297  1.00  0.00     0.226 C 
ATOM     28  C   UNL A   1      31.857  26.199  21.601  1.00  0.00     0.049 C 
ENDBRANCH  26  27
ENDBRANCH  21  26
ENDBRANCH   9  20
ENDBRANCH   5   8
ENDBRANCH   3   4
ENDBRANCH   2   3
ENDBRANCH   1   2
BRANCH   1  29
ATOM     29  C   UNL A   1      31.614  30.795  26.070  1.00  0.00     0.002 C 
BRANCH  29  30
ATOM     30  C   UNL A   1      31.462  32.112  26.837  1.00  0.00     0.021 C 
BRANCH  30  31
ATOM     31  C   UNL A   1      32.756  32.897  27.032  1.00  0.00     0.116 C 
BRANCH  31  32
ATOM     32  N   UNL A   1      32.520  34.202  27.630  1.00  0.00    -0.352 N 
ATOM     33  C   UNL A   1      33.074  34.765  28.747  1.00  0.00     0.251 C 
ATOM     34  H   UNL A   1      31.862  34.764  27.161  1.00  0.00     0.163 HD
ATOM     35  O   UNL A   1      32.586  35.797  29.221  1.00  0.00    -0.269 OA
BRANCH  33  36
ATOM     36  C   UNL A   1      34.242  34.145  29.405  1.00  0.00     0.039 A 
ATOM     37  C   UNL A   1      34.027  33.206  30.417  1.00  0.00     0.014 A 
ATOM     38  C   UNL A   1      35.546  34.507  29.053  1.00  0.00     0.014 A 
ATOM     39  C   UNL A   1      35.116  32.589  31.034  1.00  0.00     0.010 A 
ATOM     40  C   UNL A   1      36.629  33.836  29.615  1.00  0.00     0.010 A 
ATOM     41  C   UNL A   1      36.426  32.874  30.615  1.00  0.00    -0.014 A 
BRANCH  41  42
ATOM     42  C   UNL A   1      37.584  32.156  31.205  1.00  0.00     0.031 A 
ATOM     43  C   UNL A   1      38.092  32.509  32.573  1.00  0.00     0.074 A 
ATOM     44  C   UNL A   1      38.213  31.213  30.476  1.00  0.00     0.049 A 
ATOM     45  N   UNL A   1      39.100  32.001  33.240  1.00  0.00    -0.248 NA
ATOM     46  C   UNL A   1      37.397  33.596  33.275  1.00  0.00     0.031 C 
ATOM     47  C   UNL A   1      37.856  30.826  29.111  1.00  0.00     0.029 A 
ATOM     48  N   UNL A   1      39.288  30.416  30.778  1.00  0.00    -0.354 N 
ATOM     49  C   UNL A   1      39.157  32.706  34.434  1.00  0.00     0.074 A 
ATOM     50  C   UNL A   1      38.129  33.723  34.371  1.00  0.00     0.031 C 
ATOM     51  C   UNL A   1      38.680  29.850  28.701  1.00  0.00     0.029 A 
ATOM     52  C   UNL A   1      39.645  29.568  29.760  1.00  0.00     0.049 A 
ATOM     53  H   UNL A   1      39.759  30.449  31.643  1.00  0.00     0.167 HD
ATOM     54  C   UNL A   1      39.975  32.508  35.497  1.00  0.00     0.037 A 
ATOM     55  C   UNL A   1      40.641  28.666  29.682  1.00  0.00     0.037 A 
ATOM     56  C   UNL A   1      40.996  31.493  35.553  1.00  0.00     0.049 A 
ATOM     57  C   UNL A   1      41.540  28.463  30.870  1.00  0.00     0.074 A 
ATOM     58  C   UNL A   1      41.840  31.172  36.601  1.00  0.00     0.029 A 
ATOM     59  N   UNL A   1      41.323  30.641  34.505  1.00  0.00    -0.354 N 
ATOM     60  N   UNL A   1      41.533  29.079  32.028  1.00  0.00    -0.248 NA
ATOM     61  C   UNL A   1      42.577  27.430  30.745  1.00  0.00     0.031 C 
ATOM     62  C   UNL A   1      42.714  30.166  36.170  1.00  0.00     0.029 A 
ATOM     63  C   UNL A   1      42.376  29.817  34.872  1.00  0.00     0.049 A 
ATOM     64  H   UNL A   1      40.872  30.625  33.630  1.00  0.00     0.167 HD
ATOM     65  C   UNL A   1      42.551  28.502  32.774  1.00  0.00     0.074 A 
ATOM     66  C   UNL A   1      43.138  27.468  31.946  1.00  0.00     0.031 C 
ATOM     67  C   UNL A   1      42.964  28.804  34.031  1.00  0.00     0.037 A 
BRANCH  54  68
ATOM     68  C   UNL A   1      39.796  33.416  36.681  1.00  0.00     0.064 A 
ATOM     69  C   UNL A   1      38.923  33.093  37.734  1.00  0.00     0.173 A 
ATOM     70  C   UNL A   1      40.505  34.623  36.772  1.00  0.00     0.173 A 
ATOM     71  F   UNL A   1      38.213  31.955  37.696  1.00  0.00    -0.203 F 
ATOM     72  C   UNL A   1      38.733  33.963  38.805  1.00  0.00     0.198 A 
ATOM     73  C   UNL A   1      40.341  35.474  37.861  1.00  0.00     0.198 A 
ATOM     74  F   UNL A   1      41.360  34.981  35.801  1.00  0.00    -0.203 F 
ATOM     75  F   UNL A   1      37.843  33.663  39.760  1.00  0.00    -0.200 F 
ATOM     76  C   UNL A   1      39.445  35.150  38.870  1.00  0.00     0.200 A 
ATOM     77  F   UNL A   1      41.041  36.615  37.931  1.00  0.00    -0.200 F 
ATOM     78  F   UNL A   1      39.260  35.989  39.899  1.00  0.00    -0.200 F 
ENDBRANCH  54  68
BRANCH  55  79
ATOM     79  C   UNL A   1      40.815  27.874  28.437  1.00  0.00     0.064 A 
ATOM     80  C   UNL A   1      41.614  28.344  27.386  1.00  0.00     0.173 A 
ATOM     81  C   UNL A   1      40.213  26.615  28.288  1.00  0.00     0.173 A 
ATOM     82  F   UNL A   1      42.195  29.549  27.474  1.00  0.00    -0.203 F 
ATOM     83  C   UNL A   1      41.798  27.588  26.230  1.00  0.00     0.198 A 
ATOM     84  C   UNL A   1      40.422  25.848  27.145  1.00  0.00     0.198 A 
ATOM     85  F   UNL A   1      39.446  26.118  29.269  1.00  0.00    -0.203 F 
ATOM     86  F   UNL A   1      42.541  28.075  25.226  1.00  0.00    -0.200 F 
ATOM     87  C   UNL A   1      41.209  26.338  26.113  1.00  0.00     0.200 A 
ATOM     88  F   UNL A   1      39.867  24.633  27.045  1.00  0.00    -0.200 F 
ATOM     89  F   UNL A   1      41.401  25.605  25.008  1.00  0.00    -0.200 F 
ENDBRANCH  55  79
BRANCH  67  90
ATOM     90  C   UNL A   1      44.102  27.995  34.589  1.00  0.00     0.064 A 
ATOM     91  C   UNL A   1      45.438  28.395  34.427  1.00  0.00     0.173 A 
ATOM     92  C   UNL A   1      43.853  26.818  35.311  1.00  0.00     0.173 A 
ATOM     93  F   UNL A   1      45.732  29.504  33.731  1.00  0.00    -0.203 F 
ATOM     94  C   UNL A   1      46.482  27.628  34.937  1.00  0.00     0.198 A 
ATOM     95  C   UNL A   1      44.899  26.072  35.850  1.00  0.00     0.198 A 
ATOM     96  F   UNL A   1      42.595  26.395  35.502  1.00  0.00    -0.203 F 
ATOM     97  F   UNL A   1      47.751  27.999  34.718  1.00  0.00    -0.200 F 
ATOM     98  C   UNL A   1      46.212  26.472  35.654  1.00  0.00     0.200 A 
ATOM     99  F   UNL A   1      44.635  24.964  36.555  1.00  0.00    -0.200 F 
ATOM    100  F   UNL A   1      47.218  25.737  36.148  1.00  0.00    -0.200 F 
ENDBRANCH  67  90
ENDBRANCH  41  42
ENDBRANCH  33  36
ENDBRANCH  31  32
ENDBRANCH  30  31
ENDBRANCH  29  30
ENDBRANCH   1  29
TORSDOF 16
ENDMDL
MODEL 3
REMARK VINA RESULT:     -12.4      1.918      7.829
REMARK SMILES CCOc1ccccc1-c1cc(C(=O)NCCCCCCNC(=O)c2ccc(-c3c4nc(c(-c5c(F)c(F)c(F)c(F)c5F)c5ccc([nH]5)c(-c5c(F)c(F)c(F)c(F)c5F)c5nc(c(-c6c(F)c(F)c(F)c(F)c6F)c6ccc3[nH]6)C=C5)C=C4)cc2)c2cc(C)cc(C)c2n1
REMARK SMILES IDX 18 1 17 2 16 3 15 4 13 5 14 6 12 8 10 9 11 10 96 11 95 12
REMARK SMILES IDX 88 13 93 14 89 15 92 16 94 17 90 18 91 19 9 20 4 21 5 22
REMARK SMILES IDX 6 23 8 24 7 25 3 26 2 27 1 28 19 29 20 30 21 31 22 32 23 33
REMARK SMILES IDX 24 35 25 36 26 37 87 38 27 39 86 40 28 41 29 42 30 43 80 44
REMARK SMILES IDX 31 45 85 46 79 47 81 48 32 49 84 50 78 51 77 52 33 54 65 55
REMARK SMILES IDX 45 56 64 57 46 58 49 59 63 60 82 61 47 62 48 63 62 65 83 66
REMARK SMILES IDX 50 67 34 68 35 69 43 70 36 71 37 72 41 73 44 74 38 75 39 76
REMARK SMILES IDX 42 77 40 78 66 79 67 80 75 81 68 82 69 83 73 84 76 85 70 86
REMARK SMILES IDX 71 87 74 88 72 89 51 90 52 91 60 92 53 93 54 94 58 95 61 96
REMARK SMILES IDX 55 97 56 98 59 99 57 100
REMARK H PARENT 15 7 22 34 81 53 49 64
REMARK Flexibility Score: inf
ROOT
ATOM      1  C   UNL A   1      32.053  29.957  26.959  1.00  0.00     0.002 C 
ENDROOT
BRANCH   1   2
ATOM      2  C   UNL A   1      33.496  30.250  27.374  1.00  0.00     0.021 C 
BRANCH   2   3
ATOM      3  C   UNL A   1      34.541  29.260  26.853  1.00  0.00     0.116 C 
BRANCH   3   4
ATOM      4  N   UNL A   1      34.366  28.980  25.440  1.00  0.00    -0.352 N 
ATOM      5  C   UNL A   1      34.028  27.910  24.649  1.00  0.00     0.252 C 
ATOM      6  O   UNL A   1      33.883  28.202  23.457  1.00  0.00    -0.269 OA
ATOM      7  H   UNL A   1      34.539  29.782  24.895  1.00  0.00     0.163 HD
BRANCH   5   8
ATOM      8  C   UNL A   1      33.788  26.494  25.081  1.00  0.00     0.051 A 
ATOM      9  C   UNL A   1      34.324  24.203  25.290  1.00  0.00     0.075 A 
ATOM     10  C   UNL A   1      34.745  25.481  25.001  1.00  0.00     0.043 A 
ATOM     11  N   UNL A   1      33.433  24.089  26.281  1.00  0.00    -0.247 NA
ATOM     12  C   UNL A   1      32.353  24.846  26.117  1.00  0.00     0.075 A 
ATOM     13  C   UNL A   1      32.459  26.066  25.421  1.00  0.00     0.014 A 
ATOM     14  C   UNL A   1      31.117  24.273  26.412  1.00  0.00    -0.024 A 
ATOM     15  C   UNL A   1      31.259  26.608  24.893  1.00  0.00     0.014 A 
ATOM     16  C   UNL A   1      29.967  24.782  25.802  1.00  0.00     0.009 A 
ATOM     17  C   UNL A   1      31.029  22.960  27.145  1.00  0.00     0.047 C 
ATOM     18  C   UNL A   1      30.045  25.910  24.985  1.00  0.00    -0.050 A 
ATOM     19  C   UNL A   1      28.918  26.244  24.050  1.00  0.00     0.044 C 
BRANCH   9  20
ATOM     20  C   UNL A   1      33.946  23.229  24.195  1.00  0.00     0.042 A 
ATOM     21  C   UNL A   1      33.382  23.673  22.966  1.00  0.00     0.128 A 
ATOM     22  C   UNL A   1      32.423  22.904  22.300  1.00  0.00     0.047 A 
ATOM     23  C   UNL A   1      32.102  21.635  22.770  1.00  0.00     0.004 A 
ATOM     24  C   UNL A   1      33.703  21.895  24.568  1.00  0.00     0.014 A 
ATOM     25  C   UNL A   1      32.783  21.109  23.866  1.00  0.00     0.001 A 
BRANCH  21  26
ATOM     26  O   UNL A   1      33.547  24.973  22.557  1.00  0.00    -0.493 OA
BRANCH  26  27
ATOM     27  C   UNL A   1      32.907  25.311  21.327  1.00  0.00     0.226 C 
ATOM     28  C   UNL A   1      31.786  26.310  21.548  1.00  0.00     0.049 C 
ENDBRANCH  26  27
ENDBRANCH  21  26
ENDBRANCH   9  20
ENDBRANCH   5   8
ENDBRANCH   3   4
ENDBRANCH   2   3
ENDBRANCH   1   2
BRANCH   1  29
ATOM     29  C   UNL A   1      31.433  30.963  25.984  1.00  0.00     0.002 C 
BRANCH  29  30
ATOM     30  C   UNL A   1      31.304  32.397  26.507  1.00  0.00     0.021 C 
BRANCH  30  31
ATOM     31  C   UNL A   1      32.531  32.926  27.245  1.00  0.00     0.116 C 
BRANCH  31  32
ATOM     32  N   UNL A   1      32.361  34.306  27.671  1.00  0.00    -0.352 N 
ATOM     33  C   UNL A   1      32.964  34.986  28.694  1.00  0.00     0.251 C 
ATOM     34  H   UNL A   1      31.715  34.829  27.145  1.00  0.00     0.163 HD
ATOM     35  O   UNL A   1      32.529  36.091  29.037  1.00  0.00    -0.269 OA
BRANCH  33  36
ATOM     36  C   UNL A   1      34.123  34.410  29.405  1.00  0.00     0.039 A 
ATOM     37  C   UNL A   1      33.905  33.716  30.597  1.00  0.00     0.014 A 
ATOM     38  C   UNL A   1      35.424  34.575  28.919  1.00  0.00     0.014 A 
ATOM     39  C   UNL A   1      34.983  33.141  31.273  1.00  0.00     0.010 A 
ATOM     40  C   UNL A   1      36.488  33.936  29.552  1.00  0.00     0.010 A 
ATOM     41  C   UNL A   1      36.279  33.217  30.737  1.00  0.00    -0.014 A 
BRANCH  41  42
ATOM     42  C   UNL A   1      37.416  32.531  31.402  1.00  0.00     0.031 A 
ATOM     43  C   UNL A   1      38.115  31.380  30.737  1.00  0.00     0.074 A 
ATOM     44  C   UNL A   1      37.786  32.918  32.639  1.00  0.00     0.049 A 
ATOM     45  N   UNL A   1      39.115  30.653  31.174  1.00  0.00    -0.248 NA
ATOM     46  C   UNL A   1      37.609  30.972  29.420  1.00  0.00     0.031 C 
ATOM     47  C   UNL A   1      37.143  33.979  33.415  1.00  0.00     0.029 A 
ATOM     48  N   UNL A   1      38.784  32.461  33.461  1.00  0.00    -0.354 N 
ATOM     49  C   UNL A   1      39.351  29.705  30.189  1.00  0.00     0.074 A 
ATOM     50  C   UNL A   1      38.349  29.904  29.164  1.00  0.00     0.031 C 
ATOM     51  C   UNL A   1      37.777  34.108  34.591  1.00  0.00     0.029 A 
ATOM     52  C   UNL A   1      38.846  33.117  34.665  1.00  0.00     0.049 A 
ATOM     53  H   UNL A   1      39.397  31.732  33.211  1.00  0.00     0.167 HD
ATOM     54  C   UNL A   1      40.331  28.770  30.130  1.00  0.00     0.037 A 
ATOM     55  C   UNL A   1      39.668  32.937  35.716  1.00  0.00     0.037 A 
ATOM     56  C   UNL A   1      41.327  28.577  31.154  1.00  0.00     0.049 A 
ATOM     57  C   UNL A   1      40.746  31.893  35.634  1.00  0.00     0.074 A 
ATOM     58  C   UNL A   1      42.395  27.698  31.167  1.00  0.00     0.029 A 
ATOM     59  N   UNL A   1      41.367  29.269  32.358  1.00  0.00    -0.354 N 
ATOM     60  N   UNL A   1      41.014  31.056  34.661  1.00  0.00    -0.248 NA
ATOM     61  C   UNL A   1      41.644  31.777  36.791  1.00  0.00     0.031 C 
ATOM     62  C   UNL A   1      43.047  27.816  32.400  1.00  0.00     0.029 A 
ATOM     63  C   UNL A   1      42.423  28.814  33.133  1.00  0.00     0.049 A 
ATOM     64  H   UNL A   1      40.739  29.978  32.621  1.00  0.00     0.167 HD
ATOM     65  C   UNL A   1      42.117  30.324  35.079  1.00  0.00     0.074 A 
ATOM     66  C   UNL A   1      42.484  30.835  36.385  1.00  0.00     0.031 C 
ATOM     67  C   UNL A   1      42.766  29.318  34.440  1.00  0.00     0.037 A 
BRANCH  54  68
ATOM     68  C   UNL A   1      40.364  27.883  28.917  1.00  0.00     0.064 A 
ATOM     69  C   UNL A   1      39.644  26.677  28.864  1.00  0.00     0.173 A 
ATOM     70  C   UNL A   1      41.120  28.239  27.790  1.00  0.00     0.173 A 
ATOM     71  F   UNL A   1      38.912  26.283  29.916  1.00  0.00    -0.203 F 
ATOM     72  C   UNL A   1      39.718  25.842  27.751  1.00  0.00     0.198 A 
ATOM     73  C   UNL A   1      41.163  27.421  26.664  1.00  0.00     0.198 A 
ATOM     74  F   UNL A   1      41.821  29.383  27.779  1.00  0.00    -0.203 F 
ATOM     75  F   UNL A   1      39.078  24.666  27.755  1.00  0.00    -0.200 F 
ATOM     76  C   UNL A   1      40.473  26.217  26.651  1.00  0.00     0.200 A 
ATOM     77  F   UNL A   1      41.882  27.790  25.595  1.00  0.00    -0.200 F 
ATOM     78  F   UNL A   1      40.547  25.413  25.581  1.00  0.00    -0.200 F 
ENDBRANCH  54  68
BRANCH  55  79
ATOM     79  C   UNL A   1      39.508  33.790  36.922  1.00  0.00     0.064 A 
ATOM     80  C   UNL A   1      40.084  35.066  36.988  1.00  0.00     0.173 A 
ATOM     81  C   UNL A   1      38.746  33.359  38.019  1.00  0.00     0.173 A 
ATOM     82  F   UNL A   1      40.835  35.514  35.973  1.00  0.00    -0.203 F 
ATOM     83  C   UNL A   1      39.910  35.875  38.109  1.00  0.00     0.198 A 
ATOM     84  C   UNL A   1      38.549  34.181  39.126  1.00  0.00     0.198 A 
ATOM     85  F   UNL A   1      38.167  32.149  38.001  1.00  0.00    -0.203 F 
ATOM     86  F   UNL A   1      40.499  37.078  38.161  1.00  0.00    -0.200 F 
ATOM     87  C   UNL A   1      39.136  35.436  39.173  1.00  0.00     0.200 A 
ATOM     88  F   UNL A   1      37.784  33.760  40.143  1.00  0.00    -0.200 F 
ATOM     89  F   UNL A   1      38.957  36.222  40.244  1.00  0.00    -0.200 F 
ENDBRANCH  55  79
BRANCH  67  90
ATOM     90  C   UNL A   1      43.947  28.710  35.145  1.00  0.00     0.064 A 
ATOM     91  C   UNL A   1      43.799  27.634  36.033  1.00  0.00     0.173 A 
ATOM     92  C   UNL A   1      45.242  29.197  34.913  1.00  0.00     0.173 A 
ATOM     93  F   UNL A   1      42.581  27.141  36.302  1.00  0.00    -0.203 F 
ATOM     94  C   UNL A   1      44.902  27.091  36.689  1.00  0.00     0.198 A 
ATOM     95  C   UNL A   1      46.345  28.629  35.545  1.00  0.00     0.198 A 
ATOM     96  F   UNL A   1      45.440  30.220  34.068  1.00  0.00    -0.203 F 
ATOM     97  F   UNL A   1      44.729  26.103  37.578  1.00  0.00    -0.200 F 
ATOM     98  C   UNL A   1      46.174  27.584  36.439  1.00  0.00     0.200 A 
ATOM     99  F   UNL A   1      47.576  29.096  35.291  1.00  0.00    -0.200 F 
ATOM    100  F   UNL A   1      47.233  27.057  37.069  1.00  0.00    -0.200 F 
ENDBRANCH  67  90
ENDBRANCH  41  42
ENDBRANCH  33  36
ENDBRANCH  31  32
ENDBRANCH  30  31
ENDBRANCH  29  30
ENDBRANCH   1  29
TORSDOF 16
ENDMDL
