MODEL 1
REMARK VINA RESULT:     -12.4      0.000      0.000
REMARK SMILES [H]/N=C1\C=CC2=NC(C(=O)NCCCCCCNC(=O)c3ccc(-c4c5nc(c(-c6c(F)c(F)c(F)c(F)c6F)c6ccc([nH]6)c(-c6c(F)c(F)c(F)c(F)c6F)c6nc(c(-c7c(F)c(F)c(F)c(F)c7F)c7ccc4[nH]7)C=C6)C=C5)cc3)=C[C@@H]2C1
REMARK SMILES IDX 15 1 14 2 13 3 12 4 11 5 9 6 10 7 8 9 2 10 3 11 1 12 4 13
REMARK SMILES IDX 86 14 5 15 85 16 6 17 84 18 7 19 16 20 17 21 18 22 19 23
REMARK SMILES IDX 20 25 21 26 22 27 83 28 23 29 82 30 24 31 25 32 26 33 76 34
REMARK SMILES IDX 27 35 81 36 75 37 77 38 28 39 80 40 74 41 73 42 29 44 61 45
REMARK SMILES IDX 41 46 60 47 42 48 45 49 59 50 78 51 43 52 44 53 58 55 79 56
REMARK SMILES IDX 46 57 30 58 31 59 39 60 32 61 33 62 37 63 40 64 34 65 35 66
REMARK SMILES IDX 38 67 36 68 62 69 63 70 71 71 64 72 65 73 69 74 72 75 66 76
REMARK SMILES IDX 67 77 70 78 68 79 47 80 48 81 56 82 49 83 50 84 54 85 57 86
REMARK SMILES IDX 51 87 52 88 55 89 53 90
REMARK H PARENT 11 8 18 24 77 43 45 54
REMARK Flexibility Score: inf
ROOT
ATOM      1  C   UNL A   1      41.132  21.121  27.610  1.00  0.00     0.002 C 
ENDROOT
BRANCH   1   2
ATOM      2  C   UNL A   1      40.529  21.963  26.472  1.00  0.00     0.002 C 
BRANCH   2   3
ATOM      3  C   UNL A   1      39.075  21.643  26.097  1.00  0.00     0.021 C 
BRANCH   3   4
ATOM      4  C   UNL A   1      38.166  22.869  26.000  1.00  0.00     0.116 C 
BRANCH   4   5
ATOM      5  N   UNL A   1      37.738  23.062  24.633  1.00  0.00    -0.351 N 
ATOM      6  C   UNL A   1      36.570  22.913  23.961  1.00  0.00     0.269 C 
ATOM      7  O   UNL A   1      36.650  23.002  22.731  1.00  0.00    -0.268 OA
ATOM      8  H   UNL A   1      38.468  23.377  24.052  1.00  0.00     0.163 HD
BRANCH   6   9
ATOM      9  C   UNL A   1      35.220  22.769  24.620  1.00  0.00     0.125 C 
ATOM     10  N   UNL A   1      29.743  22.176  26.447  1.00  0.00    -0.305 NA
ATOM     11  C   UNL A   1      30.918  22.628  26.161  1.00  0.00     0.032 C 
ATOM     12  H   UNL A   1      29.113  22.730  26.962  1.00  0.00     0.187 HD
ATOM     13  C   UNL A   1      31.345  23.998  26.550  1.00  0.00     0.025 C 
ATOM     14  C   UNL A   1      31.861  21.740  25.363  1.00  0.00     0.069 C 
ATOM     15  C   UNL A   1      32.589  24.434  26.335  1.00  0.00     0.026 C 
ATOM     16  C   UNL A   1      33.299  22.047  25.708  1.00  0.00     0.069 C 
ATOM     17  C   UNL A   1      33.565  23.523  25.733  1.00  0.00     0.049 C 
ATOM     18  C   UNL A   1      34.397  21.714  24.746  1.00  0.00     0.017 C 
ATOM     19  N   UNL A   1      34.684  23.901  25.212  1.00  0.00    -0.247 NA
ENDBRANCH   6   9
ENDBRANCH   4   5
ENDBRANCH   3   4
ENDBRANCH   2   3
ENDBRANCH   1   2
BRANCH   1  20
ATOM     20  C   UNL A   1      42.165  20.061  27.207  1.00  0.00     0.021 C 
BRANCH  20  21
ATOM     21  C   UNL A   1      42.228  19.800  25.712  1.00  0.00     0.116 C 
BRANCH  21  22
ATOM     22  N   UNL A   1      43.582  19.544  25.215  1.00  0.00    -0.352 N 
ATOM     23  C   UNL A   1      44.522  20.477  24.794  1.00  0.00     0.251 C 
ATOM     24  H   UNL A   1      43.861  18.601  25.177  1.00  0.00     0.163 HD
ATOM     25  O   UNL A   1      45.456  20.171  24.080  1.00  0.00    -0.269 OA
BRANCH  23  26
ATOM     26  C   UNL A   1      44.354  21.869  25.254  1.00  0.00     0.039 A 
ATOM     27  C   UNL A   1      43.516  22.784  24.614  1.00  0.00     0.014 A 
ATOM     28  C   UNL A   1      45.033  22.220  26.413  1.00  0.00     0.014 A 
ATOM     29  C   UNL A   1      43.319  24.031  25.207  1.00  0.00     0.010 A 
ATOM     30  C   UNL A   1      44.636  23.321  27.113  1.00  0.00     0.010 A 
ATOM     31  C   UNL A   1      43.874  24.283  26.474  1.00  0.00    -0.014 A 
BRANCH  31  32
ATOM     32  C   UNL A   1      43.646  25.532  27.189  1.00  0.00     0.031 A 
ATOM     33  C   UNL A   1      44.616  26.618  26.883  1.00  0.00     0.074 A 
ATOM     34  C   UNL A   1      42.526  25.751  27.917  1.00  0.00     0.049 A 
ATOM     35  N   UNL A   1      45.448  27.183  27.693  1.00  0.00    -0.248 NA
ATOM     36  C   UNL A   1      44.762  27.048  25.483  1.00  0.00     0.031 C 
ATOM     37  C   UNL A   1      41.332  24.906  28.075  1.00  0.00     0.029 A 
ATOM     38  N   UNL A   1      42.187  26.858  28.628  1.00  0.00    -0.354 N 
ATOM     39  C   UNL A   1      46.118  28.153  26.952  1.00  0.00     0.074 A 
ATOM     40  C   UNL A   1      45.756  27.934  25.575  1.00  0.00     0.031 C 
ATOM     41  C   UNL A   1      40.327  25.623  28.627  1.00  0.00     0.029 A 
ATOM     42  C   UNL A   1      40.861  26.904  29.041  1.00  0.00     0.049 A 
ATOM     43  H   UNL A   1      42.831  27.573  28.835  1.00  0.00     0.167 HD
ATOM     44  C   UNL A   1      46.772  29.180  27.563  1.00  0.00     0.037 A 
ATOM     45  C   UNL A   1      40.249  27.933  29.676  1.00  0.00     0.037 A 
ATOM     46  C   UNL A   1      47.011  28.889  28.952  1.00  0.00     0.049 A 
ATOM     47  C   UNL A   1      41.323  28.768  30.273  1.00  0.00     0.074 A 
ATOM     48  C   UNL A   1      47.750  27.929  29.618  1.00  0.00     0.029 A 
ATOM     49  N   UNL A   1      46.126  29.382  29.881  1.00  0.00    -0.354 N 
ATOM     50  N   UNL A   1      42.098  28.359  31.240  1.00  0.00    -0.248 NA
ATOM     51  C   UNL A   1      41.849  29.853  29.459  1.00  0.00     0.031 C 
ATOM     52  C   UNL A   1      46.935  27.542  30.724  1.00  0.00     0.029 A 
ATOM     53  C   UNL A   1      45.793  28.344  30.717  1.00  0.00     0.049 A 
ATOM     54  H   UNL A   1      45.794  30.306  29.937  1.00  0.00     0.167 HD
ATOM     55  C   UNL A   1      43.359  28.829  30.903  1.00  0.00     0.074 A 
ATOM     56  C   UNL A   1      43.132  29.795  29.829  1.00  0.00     0.031 C 
ATOM     57  C   UNL A   1      44.489  28.186  31.320  1.00  0.00     0.037 A 
BRANCH  44  58
ATOM     58  C   UNL A   1      46.912  30.568  26.993  1.00  0.00     0.064 A 
ATOM     59  C   UNL A   1      48.174  31.194  26.990  1.00  0.00     0.173 A 
ATOM     60  C   UNL A   1      45.814  31.410  26.717  1.00  0.00     0.173 A 
ATOM     61  F   UNL A   1      49.286  30.493  27.258  1.00  0.00    -0.203 F 
ATOM     62  C   UNL A   1      48.315  32.571  26.795  1.00  0.00     0.198 A 
ATOM     63  C   UNL A   1      45.962  32.774  26.472  1.00  0.00     0.198 A 
ATOM     64  F   UNL A   1      44.550  30.974  26.783  1.00  0.00    -0.203 F 
ATOM     65  F   UNL A   1      49.521  33.142  26.917  1.00  0.00    -0.200 F 
ATOM     66  C   UNL A   1      47.208  33.361  26.541  1.00  0.00     0.200 A 
ATOM     67  F   UNL A   1      44.875  33.526  26.248  1.00  0.00    -0.200 F 
ATOM     68  F   UNL A   1      47.332  34.687  26.413  1.00  0.00    -0.200 F 
ENDBRANCH  44  58
BRANCH  45  69
ATOM     69  C   UNL A   1      38.865  28.426  29.491  1.00  0.00     0.064 A 
ATOM     70  C   UNL A   1      38.027  28.672  30.590  1.00  0.00     0.173 A 
ATOM     71  C   UNL A   1      38.442  28.945  28.251  1.00  0.00     0.173 A 
ATOM     72  F   UNL A   1      38.382  28.253  31.813  1.00  0.00    -0.203 F 
ATOM     73  C   UNL A   1      36.850  29.418  30.462  1.00  0.00     0.198 A 
ATOM     74  C   UNL A   1      37.268  29.688  28.124  1.00  0.00     0.198 A 
ATOM     75  F   UNL A   1      39.214  28.826  27.161  1.00  0.00    -0.203 F 
ATOM     76  F   UNL A   1      36.106  29.686  31.544  1.00  0.00    -0.200 F 
ATOM     77  C   UNL A   1      36.478  29.935  29.231  1.00  0.00     0.200 A 
ATOM     78  F   UNL A   1      36.942  30.219  26.937  1.00  0.00    -0.200 F 
ATOM     79  F   UNL A   1      35.386  30.707  29.120  1.00  0.00    -0.200 F 
ENDBRANCH  45  69
BRANCH  57  80
ATOM     80  C   UNL A   1      44.338  27.075  32.326  1.00  0.00     0.064 A 
ATOM     81  C   UNL A   1      44.246  25.712  31.991  1.00  0.00     0.173 A 
ATOM     82  C   UNL A   1      44.452  27.391  33.686  1.00  0.00     0.173 A 
ATOM     83  F   UNL A   1      44.230  25.314  30.715  1.00  0.00    -0.203 F 
ATOM     84  C   UNL A   1      44.234  24.720  32.972  1.00  0.00     0.198 A 
ATOM     85  C   UNL A   1      44.474  26.398  34.662  1.00  0.00     0.198 A 
ATOM     86  F   UNL A   1      44.597  28.671  34.066  1.00  0.00    -0.203 F 
ATOM     87  F   UNL A   1      44.142  23.427  32.623  1.00  0.00    -0.200 F 
ATOM     88  C   UNL A   1      44.357  25.064  34.307  1.00  0.00     0.200 A 
ATOM     89  F   UNL A   1      44.643  26.736  35.948  1.00  0.00    -0.200 F 
ATOM     90  F   UNL A   1      44.390  24.112  35.249  1.00  0.00    -0.200 F 
ENDBRANCH  57  80
ENDBRANCH  31  32
ENDBRANCH  23  26
ENDBRANCH  21  22
ENDBRANCH  20  21
ENDBRANCH   1  20
TORSDOF 13
ENDMDL
MODEL 2
REMARK VINA RESULT:     -11.9      4.493      9.443
REMARK SMILES [H]/N=C1\C=CC2=NC(C(=O)NCCCCCCNC(=O)c3ccc(-c4c5nc(c(-c6c(F)c(F)c(F)c(F)c6F)c6ccc([nH]6)c(-c6c(F)c(F)c(F)c(F)c6F)c6nc(c(-c7c(F)c(F)c(F)c(F)c7F)c7ccc4[nH]7)C=C6)C=C5)cc3)=C[C@@H]2C1
REMARK SMILES IDX 15 1 14 2 13 3 12 4 11 5 9 6 10 7 8 9 2 10 3 11 1 12 4 13
REMARK SMILES IDX 86 14 5 15 85 16 6 17 84 18 7 19 16 20 17 21 18 22 19 23
REMARK SMILES IDX 20 25 21 26 22 27 83 28 23 29 82 30 24 31 25 32 26 33 76 34
REMARK SMILES IDX 27 35 81 36 75 37 77 38 28 39 80 40 74 41 73 42 29 44 61 45
REMARK SMILES IDX 41 46 60 47 42 48 45 49 59 50 78 51 43 52 44 53 58 55 79 56
REMARK SMILES IDX 46 57 30 58 31 59 39 60 32 61 33 62 37 63 40 64 34 65 35 66
REMARK SMILES IDX 38 67 36 68 62 69 63 70 71 71 64 72 65 73 69 74 72 75 66 76
REMARK SMILES IDX 67 77 70 78 68 79 47 80 48 81 56 82 49 83 50 84 54 85 57 86
REMARK SMILES IDX 51 87 52 88 55 89 53 90
REMARK H PARENT 11 8 18 24 77 43 45 54
REMARK Flexibility Score: inf
ROOT
ATOM      1  C   UNL A   1      32.189  28.907  26.630  1.00  0.00     0.002 C 
ENDROOT
BRANCH   1   2
ATOM      2  C   UNL A   1      33.172  28.284  25.624  1.00  0.00     0.002 C 
BRANCH   2   3
ATOM      3  C   UNL A   1      33.171  28.896  24.216  1.00  0.00     0.021 C 
BRANCH   3   4
ATOM      4  C   UNL A   1      32.700  27.943  23.117  1.00  0.00     0.116 C 
BRANCH   4   5
ATOM      5  N   UNL A   1      31.534  27.212  23.561  1.00  0.00    -0.351 N 
ATOM      6  C   UNL A   1      30.227  27.514  23.757  1.00  0.00     0.269 C 
ATOM      7  O   UNL A   1      29.563  26.646  24.334  1.00  0.00    -0.268 OA
ATOM      8  H   UNL A   1      31.738  26.271  23.769  1.00  0.00     0.163 HD
BRANCH   6   9
ATOM      9  C   UNL A   1      29.548  28.751  23.222  1.00  0.00     0.125 C 
ATOM     10  N   UNL A   1      27.434  33.469  20.584  1.00  0.00    -0.305 NA
ATOM     11  C   UNL A   1      28.018  32.654  21.398  1.00  0.00     0.032 C 
ATOM     12  H   UNL A   1      27.364  34.425  20.810  1.00  0.00     0.187 HD
ATOM     13  C   UNL A   1      28.639  33.123  22.665  1.00  0.00     0.025 C 
ATOM     14  C   UNL A   1      28.107  31.185  21.011  1.00  0.00     0.069 C 
ATOM     15  C   UNL A   1      29.163  32.270  23.549  1.00  0.00     0.026 C 
ATOM     16  C   UNL A   1      28.135  30.312  22.243  1.00  0.00     0.069 C 
ATOM     17  C   UNL A   1      29.089  30.833  23.276  1.00  0.00     0.049 C 
ATOM     18  C   UNL A   1      28.717  28.934  22.182  1.00  0.00     0.017 C 
ATOM     19  N   UNL A   1      29.800  29.943  23.883  1.00  0.00    -0.247 NA
ENDBRANCH   6   9
ENDBRANCH   4   5
ENDBRANCH   3   4
ENDBRANCH   2   3
ENDBRANCH   1   2
BRANCH   1  20
ATOM     20  C   UNL A   1      32.452  30.363  27.036  1.00  0.00     0.021 C 
BRANCH  20  21
ATOM     21  C   UNL A   1      33.795  30.580  27.712  1.00  0.00     0.116 C 
BRANCH  21  22
ATOM     22  N   UNL A   1      34.326  31.936  27.547  1.00  0.00    -0.352 N 
ATOM     23  C   UNL A   1      35.536  32.436  28.010  1.00  0.00     0.251 C 
ATOM     24  H   UNL A   1      33.759  32.567  27.047  1.00  0.00     0.163 HD
ATOM     25  O   UNL A   1      35.732  33.628  28.140  1.00  0.00    -0.269 OA
BRANCH  23  26
ATOM     26  C   UNL A   1      36.596  31.462  28.336  1.00  0.00     0.039 A 
ATOM     27  C   UNL A   1      36.663  30.192  27.759  1.00  0.00     0.014 A 
ATOM     28  C   UNL A   1      37.581  31.895  29.213  1.00  0.00     0.014 A 
ATOM     29  C   UNL A   1      37.780  29.401  28.026  1.00  0.00     0.010 A 
ATOM     30  C   UNL A   1      38.774  31.236  29.258  1.00  0.00     0.010 A 
ATOM     31  C   UNL A   1      38.844  29.943  28.767  1.00  0.00    -0.014 A 
BRANCH  31  32
ATOM     32  C   UNL A   1      40.074  29.204  29.019  1.00  0.00     0.031 A 
ATOM     33  C   UNL A   1      40.358  28.927  30.453  1.00  0.00     0.074 A 
ATOM     34  C   UNL A   1      40.794  28.640  28.021  1.00  0.00     0.049 A 
ATOM     35  N   UNL A   1      41.357  29.347  31.155  1.00  0.00    -0.248 NA
ATOM     36  C   UNL A   1      39.351  28.190  31.234  1.00  0.00     0.031 C 
ATOM     37  C   UNL A   1      40.494  28.557  26.583  1.00  0.00     0.029 A 
ATOM     38  N   UNL A   1      41.948  27.930  28.112  1.00  0.00    -0.354 N 
ATOM     39  C   UNL A   1      41.200  28.804  32.427  1.00  0.00     0.074 A 
ATOM     40  C   UNL A   1      39.885  28.216  32.457  1.00  0.00     0.031 C 
ATOM     41  C   UNL A   1      41.305  27.651  25.993  1.00  0.00     0.029 A 
ATOM     42  C   UNL A   1      42.303  27.242  26.958  1.00  0.00     0.049 A 
ATOM     43  H   UNL A   1      42.491  27.905  28.933  1.00  0.00     0.167 HD
ATOM     44  C   UNL A   1      42.248  28.719  33.293  1.00  0.00     0.037 A 
ATOM     45  C   UNL A   1      43.349  26.391  26.817  1.00  0.00     0.037 A 
ATOM     46  C   UNL A   1      43.322  29.590  32.893  1.00  0.00     0.049 A 
ATOM     47  C   UNL A   1      44.299  26.691  27.918  1.00  0.00     0.074 A 
ATOM     48  C   UNL A   1      43.447  30.961  32.764  1.00  0.00     0.029 A 
ATOM     49  N   UNL A   1      44.355  29.055  32.162  1.00  0.00    -0.354 N 
ATOM     50  N   UNL A   1      44.958  27.814  28.013  1.00  0.00    -0.248 NA
ATOM     51  C   UNL A   1      44.131  25.953  29.159  1.00  0.00     0.031 C 
ATOM     52  C   UNL A   1      44.206  31.148  31.570  1.00  0.00     0.029 A 
ATOM     53  C   UNL A   1      44.569  29.888  31.091  1.00  0.00     0.049 A 
ATOM     54  H   UNL A   1      44.849  28.230  32.368  1.00  0.00     0.167 HD
ATOM     55  C   UNL A   1      44.919  28.132  29.362  1.00  0.00     0.074 A 
ATOM     56  C   UNL A   1      44.451  26.917  30.028  1.00  0.00     0.031 C 
ATOM     57  C   UNL A   1      44.991  29.427  29.788  1.00  0.00     0.037 A 
BRANCH  44  58
ATOM     58  C   UNL A   1      42.433  27.624  34.312  1.00  0.00     0.064 A 
ATOM     59  C   UNL A   1      43.016  26.403  33.922  1.00  0.00     0.173 A 
ATOM     60  C   UNL A   1      41.803  27.622  35.575  1.00  0.00     0.173 A 
ATOM     61  F   UNL A   1      43.625  26.284  32.733  1.00  0.00    -0.203 F 
ATOM     62  C   UNL A   1      42.913  25.251  34.708  1.00  0.00     0.198 A 
ATOM     63  C   UNL A   1      41.746  26.486  36.379  1.00  0.00     0.198 A 
ATOM     64  F   UNL A   1      41.124  28.682  36.031  1.00  0.00    -0.203 F 
ATOM     65  F   UNL A   1      43.379  24.084  34.244  1.00  0.00    -0.200 F 
ATOM     66  C   UNL A   1      42.273  25.292  35.934  1.00  0.00     0.200 A 
ATOM     67  F   UNL A   1      41.104  26.542  37.555  1.00  0.00    -0.200 F 
ATOM     68  F   UNL A   1      42.121  24.179  36.661  1.00  0.00    -0.200 F 
ENDBRANCH  44  58
BRANCH  45  69
ATOM     69  C   UNL A   1      43.400  25.132  26.039  1.00  0.00     0.064 A 
ATOM     70  C   UNL A   1      44.457  24.865  25.154  1.00  0.00     0.173 A 
ATOM     71  C   UNL A   1      42.572  24.041  26.374  1.00  0.00     0.173 A 
ATOM     72  F   UNL A   1      45.318  25.838  24.824  1.00  0.00    -0.203 F 
ATOM     73  C   UNL A   1      44.688  23.579  24.654  1.00  0.00     0.198 A 
ATOM     74  C   UNL A   1      42.803  22.759  25.874  1.00  0.00     0.198 A 
ATOM     75  F   UNL A   1      41.585  24.182  27.271  1.00  0.00    -0.203 F 
ATOM     76  F   UNL A   1      45.743  23.349  23.860  1.00  0.00    -0.200 F 
ATOM     77  C   UNL A   1      43.868  22.525  25.024  1.00  0.00     0.200 A 
ATOM     78  F   UNL A   1      42.029  21.740  26.273  1.00  0.00    -0.200 F 
ATOM     79  F   UNL A   1      44.130  21.280  24.600  1.00  0.00    -0.200 F 
ENDBRANCH  45  69
BRANCH  57  80
ATOM     80  C   UNL A   1      45.322  30.486  28.769  1.00  0.00     0.064 A 
ATOM     81  C   UNL A   1      44.362  31.184  28.012  1.00  0.00     0.173 A 
ATOM     82  C   UNL A   1      46.649  30.923  28.672  1.00  0.00     0.173 A 
ATOM     83  F   UNL A   1      43.061  30.897  28.116  1.00  0.00    -0.203 F 
ATOM     84  C   UNL A   1      44.722  32.241  27.176  1.00  0.00     0.198 A 
ATOM     85  C   UNL A   1      47.001  32.000  27.863  1.00  0.00     0.198 A 
ATOM     86  F   UNL A   1      47.603  30.333  29.410  1.00  0.00    -0.203 F 
ATOM     87  F   UNL A   1      43.784  32.885  26.463  1.00  0.00    -0.200 F 
ATOM     88  C   UNL A   1      46.040  32.654  27.109  1.00  0.00     0.200 A 
ATOM     89  F   UNL A   1      48.272  32.426  27.841  1.00  0.00    -0.200 F 
ATOM     90  F   UNL A   1      46.383  33.697  26.341  1.00  0.00    -0.200 F 
ENDBRANCH  57  80
ENDBRANCH  31  32
ENDBRANCH  23  26
ENDBRANCH  21  22
ENDBRANCH  20  21
ENDBRANCH   1  20
TORSDOF 13
ENDMDL
MODEL 3
REMARK VINA RESULT:     -11.8      4.409      9.327
REMARK SMILES [H]/N=C1\C=CC2=NC(C(=O)NCCCCCCNC(=O)c3ccc(-c4c5nc(c(-c6c(F)c(F)c(F)c(F)c6F)c6ccc([nH]6)c(-c6c(F)c(F)c(F)c(F)c6F)c6nc(c(-c7c(F)c(F)c(F)c(F)c7F)c7ccc4[nH]7)C=C6)C=C5)cc3)=C[C@@H]2C1
REMARK SMILES IDX 15 1 14 2 13 3 12 4 11 5 9 6 10 7 8 9 2 10 3 11 1 12 4 13
REMARK SMILES IDX 86 14 5 15 85 16 6 17 84 18 7 19 16 20 17 21 18 22 19 23
REMARK SMILES IDX 20 25 21 26 22 27 83 28 23 29 82 30 24 31 25 32 26 33 76 34
REMARK SMILES IDX 27 35 81 36 75 37 77 38 28 39 80 40 74 41 73 42 29 44 61 45
REMARK SMILES IDX 41 46 60 47 42 48 45 49 59 50 78 51 43 52 44 53 58 55 79 56
REMARK SMILES IDX 46 57 30 58 31 59 39 60 32 61 33 62 37 63 40 64 34 65 35 66
REMARK SMILES IDX 38 67 36 68 62 69 63 70 71 71 64 72 65 73 69 74 72 75 66 76
REMARK SMILES IDX 67 77 70 78 68 79 47 80 48 81 56 82 49 83 50 84 54 85 57 86
REMARK SMILES IDX 51 87 52 88 55 89 53 90
REMARK H PARENT 11 8 18 24 77 43 45 54
REMARK Flexibility Score: inf
ROOT
ATOM      1  C   UNL A   1      34.784  29.443  26.973  1.00  0.00     0.002 C 
ENDROOT
BRANCH   1   2
ATOM      2  C   UNL A   1      34.024  28.505  26.020  1.00  0.00     0.002 C 
BRANCH   2   3
ATOM      3  C   UNL A   1      33.195  29.188  24.923  1.00  0.00     0.021 C 
BRANCH   3   4
ATOM      4  C   UNL A   1      32.921  28.309  23.703  1.00  0.00     0.116 C 
BRANCH   4   5
ATOM      5  N   UNL A   1      31.786  27.448  23.957  1.00  0.00    -0.351 N 
ATOM      6  C   UNL A   1      30.441  27.610  23.970  1.00  0.00     0.269 C 
ATOM      7  O   UNL A   1      29.796  26.658  24.425  1.00  0.00    -0.268 OA
ATOM      8  H   UNL A   1      32.056  26.526  24.171  1.00  0.00     0.163 HD
BRANCH   6   9
ATOM      9  C   UNL A   1      29.719  28.792  23.372  1.00  0.00     0.125 C 
ATOM     10  N   UNL A   1      27.464  33.312  20.512  1.00  0.00    -0.305 NA
ATOM     11  C   UNL A   1      28.056  32.552  21.372  1.00  0.00     0.032 C 
ATOM     12  H   UNL A   1      27.331  34.267  20.706  1.00  0.00     0.187 HD
ATOM     13  C   UNL A   1      28.596  33.090  22.649  1.00  0.00     0.025 C 
ATOM     14  C   UNL A   1      28.241  31.081  21.032  1.00  0.00     0.069 C 
ATOM     15  C   UNL A   1      29.127  32.291  23.579  1.00  0.00     0.026 C 
ATOM     16  C   UNL A   1      28.265  30.244  22.289  1.00  0.00     0.069 C 
ATOM     17  C   UNL A   1      29.145  30.846  23.346  1.00  0.00     0.049 C 
ATOM     18  C   UNL A   1      28.924  28.900  22.293  1.00  0.00     0.017 C 
ATOM     19  N   UNL A   1      29.877  30.014  24.007  1.00  0.00    -0.247 NA
ENDBRANCH   6   9
ENDBRANCH   4   5
ENDBRANCH   3   4
ENDBRANCH   2   3
ENDBRANCH   1   2
BRANCH   1  20
ATOM     20  C   UNL A   1      33.989  30.614  27.566  1.00  0.00     0.021 C 
BRANCH  20  21
ATOM     21  C   UNL A   1      34.814  31.871  27.782  1.00  0.00     0.116 C 
BRANCH  21  22
ATOM     22  N   UNL A   1      34.725  32.408  29.142  1.00  0.00    -0.352 N 
ATOM     23  C   UNL A   1      35.423  31.989  30.267  1.00  0.00     0.251 C 
ATOM     24  H   UNL A   1      34.098  33.156  29.274  1.00  0.00     0.163 HD
ATOM     25  O   UNL A   1      35.039  32.239  31.393  1.00  0.00    -0.269 OA
BRANCH  23  26
ATOM     26  C   UNL A   1      36.670  31.229  30.052  1.00  0.00     0.039 A 
ATOM     27  C   UNL A   1      37.892  31.841  29.767  1.00  0.00     0.014 A 
ATOM     28  C   UNL A   1      36.586  29.852  30.210  1.00  0.00     0.014 A 
ATOM     29  C   UNL A   1      39.037  31.045  29.720  1.00  0.00     0.010 A 
ATOM     30  C   UNL A   1      37.725  29.133  30.421  1.00  0.00     0.010 A 
ATOM     31  C   UNL A   1      38.943  29.687  30.068  1.00  0.00    -0.014 A 
BRANCH  31  32
ATOM     32  C   UNL A   1      40.108  28.813  30.117  1.00  0.00     0.031 A 
ATOM     33  C   UNL A   1      40.657  28.573  31.479  1.00  0.00     0.074 A 
ATOM     34  C   UNL A   1      40.531  28.115  29.037  1.00  0.00     0.049 A 
ATOM     35  N   UNL A   1      41.823  28.900  31.928  1.00  0.00    -0.248 NA
ATOM     36  C   UNL A   1      39.762  28.007  32.502  1.00  0.00     0.031 C 
ATOM     37  C   UNL A   1      39.926  27.999  27.701  1.00  0.00     0.029 A 
ATOM     38  N   UNL A   1      41.592  27.271  28.943  1.00  0.00    -0.354 N 
ATOM     39  C   UNL A   1      41.879  28.443  33.242  1.00  0.00     0.074 A 
ATOM     40  C   UNL A   1      40.543  28.027  33.584  1.00  0.00     0.031 C 
ATOM     41  C   UNL A   1      40.486  26.971  27.026  1.00  0.00     0.029 A 
ATOM     42  C   UNL A   1      41.614  26.488  27.795  1.00  0.00     0.049 A 
ATOM     43  H   UNL A   1      42.291  27.219  29.634  1.00  0.00     0.167 HD
ATOM     44  C   UNL A   1      43.071  28.270  33.879  1.00  0.00     0.037 A 
ATOM     45  C   UNL A   1      42.504  25.507  27.506  1.00  0.00     0.037 A 
ATOM     46  C   UNL A   1      44.126  28.980  33.204  1.00  0.00     0.049 A 
ATOM     47  C   UNL A   1      43.694  25.739  28.364  1.00  0.00     0.074 A 
ATOM     48  C   UNL A   1      44.374  30.316  32.950  1.00  0.00     0.029 A 
ATOM     49  N   UNL A   1      44.914  28.284  32.318  1.00  0.00    -0.354 N 
ATOM     50  N   UNL A   1      44.479  26.774  28.238  1.00  0.00    -0.248 NA
ATOM     51  C   UNL A   1      43.711  25.090  29.665  1.00  0.00     0.031 C 
ATOM     52  C   UNL A   1      44.878  30.347  31.615  1.00  0.00     0.029 A 
ATOM     53  C   UNL A   1      44.988  29.030  31.167  1.00  0.00     0.049 A 
ATOM     54  H   UNL A   1      45.345  27.415  32.479  1.00  0.00     0.167 HD
ATOM     55  C   UNL A   1      44.764  27.160  29.539  1.00  0.00     0.074 A 
ATOM     56  C   UNL A   1      44.314  26.048  30.375  1.00  0.00     0.031 C 
ATOM     57  C   UNL A   1      45.069  28.456  29.843  1.00  0.00     0.037 A 
BRANCH  44  58
ATOM     58  C   UNL A   1      43.344  27.213  34.917  1.00  0.00     0.064 A 
ATOM     59  C   UNL A   1      43.627  27.598  36.242  1.00  0.00     0.173 A 
ATOM     60  C   UNL A   1      43.621  25.866  34.602  1.00  0.00     0.173 A 
ATOM     61  F   UNL A   1      43.421  28.859  36.648  1.00  0.00    -0.203 F 
ATOM     62  C   UNL A   1      44.208  26.716  37.159  1.00  0.00     0.198 A 
ATOM     63  C   UNL A   1      44.152  24.975  35.532  1.00  0.00     0.198 A 
ATOM     64  F   UNL A   1      43.494  25.387  33.358  1.00  0.00    -0.203 F 
ATOM     65  F   UNL A   1      44.568  27.157  38.371  1.00  0.00    -0.200 F 
ATOM     66  C   UNL A   1      44.475  25.407  36.801  1.00  0.00     0.200 A 
ATOM     67  F   UNL A   1      44.422  23.716  35.159  1.00  0.00    -0.200 F 
ATOM     68  F   UNL A   1      45.085  24.577  37.656  1.00  0.00    -0.200 F 
ENDBRANCH  44  58
BRANCH  45  69
ATOM     69  C   UNL A   1      42.248  24.214  26.830  1.00  0.00     0.064 A 
ATOM     70  C   UNL A   1      43.160  23.683  25.904  1.00  0.00     0.173 A 
ATOM     71  C   UNL A   1      41.251  23.336  27.303  1.00  0.00     0.173 A 
ATOM     72  F   UNL A   1      44.166  24.440  25.443  1.00  0.00    -0.203 F 
ATOM     73  C   UNL A   1      43.096  22.346  25.495  1.00  0.00     0.198 A 
ATOM     74  C   UNL A   1      41.188  22.004  26.894  1.00  0.00     0.198 A 
ATOM     75  F   UNL A   1      40.383  23.731  28.246  1.00  0.00    -0.203 F 
ATOM     76  F   UNL A   1      44.020  21.858  24.657  1.00  0.00    -0.200 F 
ATOM     77  C   UNL A   1      42.117  21.505  26.000  1.00  0.00     0.200 A 
ATOM     78  F   UNL A   1      40.263  21.189  27.422  1.00  0.00    -0.200 F 
ATOM     79  F   UNL A   1      42.097  20.207  25.661  1.00  0.00    -0.200 F 
ENDBRANCH  45  69
BRANCH  57  80
ATOM     80  C   UNL A   1      45.293  29.414  28.702  1.00  0.00     0.064 A 
ATOM     81  C   UNL A   1      44.278  30.184  28.104  1.00  0.00     0.173 A 
ATOM     82  C   UNL A   1      46.610  29.679  28.307  1.00  0.00     0.173 A 
ATOM     83  F   UNL A   1      43.004  30.064  28.490  1.00  0.00    -0.203 F 
ATOM     84  C   UNL A   1      44.567  31.145  27.136  1.00  0.00     0.198 A 
ATOM     85  C   UNL A   1      46.901  30.664  27.365  1.00  0.00     0.198 A 
ATOM     86  F   UNL A   1      47.628  29.016  28.879  1.00  0.00    -0.203 F 
ATOM     87  F   UNL A   1      43.578  31.862  26.581  1.00  0.00    -0.200 F 
ATOM     88  C   UNL A   1      45.880  31.390  26.774  1.00  0.00     0.200 A 
ATOM     89  F   UNL A   1      48.177  30.930  27.056  1.00  0.00    -0.200 F 
ATOM     90  F   UNL A   1      46.166  32.344  25.876  1.00  0.00    -0.200 F 
ENDBRANCH  57  80
ENDBRANCH  31  32
ENDBRANCH  23  26
ENDBRANCH  21  22
ENDBRANCH  20  21
ENDBRANCH   1  20
TORSDOF 13
ENDMDL
