MODEL 1
REMARK VINA RESULT:     -12.2      0.000      0.000
REMARK SMILES CCOC(=O)c1ccc(NC(=O)[C@H]2CC(C)=C(C)C[C@@H]2C(=O)NCCCCCCNC(=O)c2ccc(-c3c4nc(c(-c5c(F)c(F)c(F)c(F)c5F)c5ccc([nH]5)c(-c5c(F)c(F)c(F)c(F)c5F)c5nc(c(-c6c(F)c(F)c(F)c(F)c6F)c6ccc3[nH]6)C=C5)C=C4)cc2)cc1
REMARK SMILES IDX 25 1 24 2 23 3 21 4 22 5 20 7 13 8 14 9 15 10 19 11 16 12
REMARK SMILES IDX 17 13 18 14 11 15 10 16 12 18 9 19 6 20 7 21 97 22 8 23
REMARK SMILES IDX 96 24 4 25 5 26 3 27 2 28 1 29 26 30 27 31 28 32 29 33 30 34
REMARK SMILES IDX 31 35 32 37 33 38 34 39 95 40 35 41 94 42 36 43 37 44 38 45
REMARK SMILES IDX 88 46 39 47 93 48 87 49 89 50 40 51 92 52 86 53 85 54 41 56
REMARK SMILES IDX 73 57 53 58 72 59 54 60 57 61 71 62 90 63 55 64 56 65 70 67
REMARK SMILES IDX 91 68 58 69 42 70 43 71 51 72 44 73 45 74 49 75 52 76 46 77
REMARK SMILES IDX 47 78 50 79 48 80 74 81 75 82 83 83 76 84 77 85 81 86 84 87
REMARK SMILES IDX 78 88 79 89 82 90 80 91 59 92 60 93 68 94 61 95 62 96 66 97
REMARK SMILES IDX 69 98 63 99 64 100 67 101 65 102
REMARK H PARENT 23 6 10 17 30 36 89 55 57 66
REMARK Flexibility Score: inf
ROOT
ATOM      1  C   UNL A   1      29.925  27.175  23.803  1.00  0.00     0.021 C 
ENDROOT
BRANCH   1   2
ATOM      2  C   UNL A   1      30.252  26.036  22.837  1.00  0.00     0.116 C 
BRANCH   2   3
ATOM      3  N   UNL A   1      31.552  26.215  22.236  1.00  0.00    -0.356 N 
ATOM      4  C   UNL A   1      32.800  25.799  22.522  1.00  0.00     0.224 C 
ATOM      5  O   UNL A   1      33.649  26.194  21.706  1.00  0.00    -0.275 OA
ATOM      6  H   UNL A   1      31.519  26.773  21.425  1.00  0.00     0.163 HD
BRANCH   4   7
ATOM      7  C   UNL A   1      33.251  24.840  23.653  1.00  0.00     0.095 C 
ATOM      8  C   UNL A   1      33.508  25.340  25.082  1.00  0.00     0.095 C 
ATOM      9  C   UNL A   1      34.863  25.067  25.754  1.00  0.00     0.045 C 
ATOM     10  C   UNL A   1      35.798  24.083  25.115  1.00  0.00    -0.074 C 
ATOM     11  C   UNL A   1      34.415  24.015  23.033  1.00  0.00     0.045 C 
ATOM     12  C   UNL A   1      37.009  23.771  25.961  1.00  0.00     0.039 C 
ATOM     13  C   UNL A   1      35.576  23.581  23.887  1.00  0.00    -0.074 C 
ATOM     14  C   UNL A   1      36.486  22.578  23.220  1.00  0.00     0.039 C 
BRANCH   8  15
ATOM     15  C   UNL A   1      32.325  25.050  26.037  1.00  0.00     0.228 C 
ATOM     16  N   UNL A   1      31.919  23.826  26.467  1.00  0.00    -0.326 N 
ATOM     17  H   UNL A   1      31.236  23.869  27.175  1.00  0.00     0.169 HD
ATOM     18  O   UNL A   1      31.718  26.003  26.549  1.00  0.00    -0.274 OA
BRANCH  16  19
ATOM     19  C   UNL A   1      32.265  22.519  26.117  1.00  0.00     0.041 A 
ATOM     20  C   UNL A   1      33.235  20.022  25.359  1.00  0.00     0.060 A 
ATOM     21  C   UNL A   1      32.153  20.577  24.682  1.00  0.00     0.018 A 
ATOM     22  C   UNL A   1      33.771  20.652  26.481  1.00  0.00     0.018 A 
ATOM     23  C   UNL A   1      31.662  21.819  25.081  1.00  0.00     0.027 A 
ATOM     24  C   UNL A   1      33.262  21.891  26.876  1.00  0.00     0.027 A 
BRANCH  20  25
ATOM     25  C   UNL A   1      33.879  18.825  24.811  1.00  0.00     0.338 C 
ATOM     26  O   UNL A   1      35.079  18.740  24.624  1.00  0.00    -0.246 OA
BRANCH  25  27
ATOM     27  O   UNL A   1      32.921  17.916  24.527  1.00  0.00    -0.462 OA
BRANCH  27  28
ATOM     28  C   UNL A   1      32.632  16.994  25.586  1.00  0.00     0.230 C 
ATOM     29  C   UNL A   1      33.131  15.620  25.181  1.00  0.00     0.049 C 
ENDBRANCH  27  28
ENDBRANCH  25  27
ENDBRANCH  20  25
ENDBRANCH  16  19
ENDBRANCH   8  15
ENDBRANCH   4   7
ENDBRANCH   2   3
ENDBRANCH   1   2
BRANCH   1  30
ATOM     30  C   UNL A   1      30.563  28.511  23.405  1.00  0.00     0.002 C 
BRANCH  30  31
ATOM     31  C   UNL A   1      31.379  29.189  24.512  1.00  0.00     0.002 C 
BRANCH  31  32
ATOM     32  C   UNL A   1      32.889  28.936  24.451  1.00  0.00     0.021 C 
BRANCH  32  33
ATOM     33  C   UNL A   1      33.647  29.335  25.714  1.00  0.00     0.116 C 
BRANCH  33  34
ATOM     34  N   UNL A   1      33.278  30.669  26.156  1.00  0.00    -0.352 N 
ATOM     35  C   UNL A   1      33.712  31.388  27.237  1.00  0.00     0.251 C 
ATOM     36  H   UNL A   1      32.616  31.127  25.590  1.00  0.00     0.163 HD
ATOM     37  O   UNL A   1      33.095  32.385  27.596  1.00  0.00    -0.269 OA
BRANCH  35  38
ATOM     38  C   UNL A   1      34.923  30.973  27.977  1.00  0.00     0.039 A 
ATOM     39  C   UNL A   1      36.007  31.852  28.032  1.00  0.00     0.014 A 
ATOM     40  C   UNL A   1      35.019  29.703  28.557  1.00  0.00     0.014 A 
ATOM     41  C   UNL A   1      37.176  31.471  28.688  1.00  0.00     0.010 A 
ATOM     42  C   UNL A   1      36.162  29.349  29.271  1.00  0.00     0.010 A 
ATOM     43  C   UNL A   1      37.257  30.222  29.328  1.00  0.00    -0.014 A 
BRANCH  43  44
ATOM     44  C   UNL A   1      38.489  29.837  30.056  1.00  0.00     0.031 A 
ATOM     45  C   UNL A   1      38.765  30.362  31.435  1.00  0.00     0.074 A 
ATOM     46  C   UNL A   1      39.380  29.030  29.450  1.00  0.00     0.049 A 
ATOM     47  N   UNL A   1      39.757  30.083  32.243  1.00  0.00    -0.248 NA
ATOM     48  C   UNL A   1      37.822  31.356  31.965  1.00  0.00     0.031 C 
ATOM     49  C   UNL A   1      39.266  28.529  28.081  1.00  0.00     0.029 A 
ATOM     50  N   UNL A   1      40.555  28.492  29.907  1.00  0.00    -0.354 N 
ATOM     51  C   UNL A   1      39.561  30.871  33.370  1.00  0.00     0.074 A 
ATOM     52  C   UNL A   1      38.389  31.680  33.117  1.00  0.00     0.031 C 
ATOM     53  C   UNL A   1      40.314  27.734  27.816  1.00  0.00     0.029 A 
ATOM     54  C   UNL A   1      41.176  27.680  28.993  1.00  0.00     0.049 A 
ATOM     55  H   UNL A   1      40.918  28.672  30.804  1.00  0.00     0.167 HD
ATOM     56  C   UNL A   1      40.281  30.898  34.517  1.00  0.00     0.037 A 
ATOM     57  C   UNL A   1      42.307  26.958  29.097  1.00  0.00     0.037 A 
ATOM     58  C   UNL A   1      41.436  30.072  34.766  1.00  0.00     0.049 A 
ATOM     59  C   UNL A   1      43.050  26.946  30.403  1.00  0.00     0.074 A 
ATOM     60  C   UNL A   1      42.186  29.960  35.924  1.00  0.00     0.029 A 
ATOM     61  N   UNL A   1      42.011  29.222  33.833  1.00  0.00    -0.354 N 
ATOM     62  N   UNL A   1      42.797  27.612  31.503  1.00  0.00    -0.248 NA
ATOM     63  C   UNL A   1      44.221  26.065  30.487  1.00  0.00     0.031 C 
ATOM     64  C   UNL A   1      43.241  29.074  35.677  1.00  0.00     0.029 A 
ATOM     65  C   UNL A   1      43.122  28.596  34.381  1.00  0.00     0.049 A 
ATOM     66  H   UNL A   1      41.680  29.081  32.917  1.00  0.00     0.167 HD
ATOM     67  C   UNL A   1      43.765  27.220  32.417  1.00  0.00     0.074 A 
ATOM     68  C   UNL A   1      44.597  26.240  31.747  1.00  0.00     0.031 C 
ATOM     69  C   UNL A   1      43.949  27.636  33.696  1.00  0.00     0.037 A 
BRANCH  56  70
ATOM     70  C   UNL A   1      39.837  31.856  35.586  1.00  0.00     0.064 A 
ATOM     71  C   UNL A   1      38.790  31.545  36.468  1.00  0.00     0.173 A 
ATOM     72  C   UNL A   1      40.470  33.099  35.734  1.00  0.00     0.173 A 
ATOM     73  F   UNL A   1      38.144  30.375  36.362  1.00  0.00    -0.203 F 
ATOM     74  C   UNL A   1      38.367  32.458  37.430  1.00  0.00     0.198 A 
ATOM     75  C   UNL A   1      40.065  33.998  36.719  1.00  0.00     0.198 A 
ATOM     76  F   UNL A   1      41.481  33.446  34.923  1.00  0.00    -0.203 F 
ATOM     77  F   UNL A   1      37.325  32.163  38.220  1.00  0.00    -0.200 F 
ATOM     78  C   UNL A   1      39.007  33.682  37.558  1.00  0.00     0.200 A 
ATOM     79  F   UNL A   1      40.692  35.175  36.848  1.00  0.00    -0.200 F 
ATOM     80  F   UNL A   1      38.597  34.561  38.482  1.00  0.00    -0.200 F 
ENDBRANCH  56  70
BRANCH  57  81
ATOM     81  C   UNL A   1      42.756  26.144  27.941  1.00  0.00     0.064 A 
ATOM     82  C   UNL A   1      43.628  26.674  26.981  1.00  0.00     0.173 A 
ATOM     83  C   UNL A   1      42.363  24.804  27.802  1.00  0.00     0.173 A 
ATOM     84  F   UNL A   1      44.019  27.954  27.066  1.00  0.00    -0.203 F 
ATOM     85  C   UNL A   1      44.087  25.897  25.920  1.00  0.00     0.198 A 
ATOM     86  C   UNL A   1      42.841  24.022  26.753  1.00  0.00     0.198 A 
ATOM     87  F   UNL A   1      41.539  24.250  28.701  1.00  0.00    -0.203 F 
ATOM     88  F   UNL A   1      44.901  26.435  25.001  1.00  0.00    -0.200 F 
ATOM     89  C   UNL A   1      43.699  24.569  25.811  1.00  0.00     0.200 A 
ATOM     90  F   UNL A   1      42.478  22.735  26.661  1.00  0.00    -0.200 F 
ATOM     91  F   UNL A   1      44.153  23.818  24.799  1.00  0.00    -0.200 F 
ENDBRANCH  57  81
BRANCH  69  92
ATOM     92  C   UNL A   1      45.093  27.023  34.450  1.00  0.00     0.064 A 
ATOM     93  C   UNL A   1      46.374  27.596  34.434  1.00  0.00     0.173 A 
ATOM     94  C   UNL A   1      44.903  25.857  35.207  1.00  0.00     0.173 A 
ATOM     95  F   UNL A   1      46.609  28.704  33.712  1.00  0.00    -0.203 F 
ATOM     96  C   UNL A   1      47.431  27.004  35.119  1.00  0.00     0.198 A 
ATOM     97  C   UNL A   1      45.957  25.284  35.914  1.00  0.00     0.198 A 
ATOM     98  F   UNL A   1      43.696  25.275  35.261  1.00  0.00    -0.203 F 
ATOM     99  F   UNL A   1      48.658  27.536  35.041  1.00  0.00    -0.200 F 
ATOM    100  C   UNL A   1      47.221  25.852  35.861  1.00  0.00     0.200 A 
ATOM    101  F   UNL A   1      45.750  24.177  36.641  1.00  0.00    -0.200 F 
ATOM    102  F   UNL A   1      48.241  25.282  36.518  1.00  0.00    -0.200 F 
ENDBRANCH  69  92
ENDBRANCH  43  44
ENDBRANCH  35  38
ENDBRANCH  33  34
ENDBRANCH  32  33
ENDBRANCH  31  32
ENDBRANCH  30  31
ENDBRANCH   1  30
TORSDOF 18
ENDMDL
MODEL 2
REMARK VINA RESULT:     -12.1      4.034      9.390
REMARK SMILES CCOC(=O)c1ccc(NC(=O)[C@H]2CC(C)=C(C)C[C@@H]2C(=O)NCCCCCCNC(=O)c2ccc(-c3c4nc(c(-c5c(F)c(F)c(F)c(F)c5F)c5ccc([nH]5)c(-c5c(F)c(F)c(F)c(F)c5F)c5nc(c(-c6c(F)c(F)c(F)c(F)c6F)c6ccc3[nH]6)C=C5)C=C4)cc2)cc1
REMARK SMILES IDX 25 1 24 2 23 3 21 4 22 5 20 7 13 8 14 9 15 10 19 11 16 12
REMARK SMILES IDX 17 13 18 14 11 15 10 16 12 18 9 19 6 20 7 21 97 22 8 23
REMARK SMILES IDX 96 24 4 25 5 26 3 27 2 28 1 29 26 30 27 31 28 32 29 33 30 34
REMARK SMILES IDX 31 35 32 37 33 38 34 39 95 40 35 41 94 42 36 43 37 44 38 45
REMARK SMILES IDX 88 46 39 47 93 48 87 49 89 50 40 51 92 52 86 53 85 54 41 56
REMARK SMILES IDX 73 57 53 58 72 59 54 60 57 61 71 62 90 63 55 64 56 65 70 67
REMARK SMILES IDX 91 68 58 69 42 70 43 71 51 72 44 73 45 74 49 75 52 76 46 77
REMARK SMILES IDX 47 78 50 79 48 80 74 81 75 82 83 83 76 84 77 85 81 86 84 87
REMARK SMILES IDX 78 88 79 89 82 90 80 91 59 92 60 93 68 94 61 95 62 96 66 97
REMARK SMILES IDX 69 98 63 99 64 100 67 101 65 102
REMARK H PARENT 23 6 10 17 30 36 89 55 57 66
REMARK Flexibility Score: inf
ROOT
ATOM      1  C   UNL A   1      33.909  21.269  26.618  1.00  0.00     0.021 C 
ENDROOT
BRANCH   1   2
ATOM      2  C   UNL A   1      33.476  22.569  27.296  1.00  0.00     0.116 C 
BRANCH   2   3
ATOM      3  N   UNL A   1      32.037  22.665  27.375  1.00  0.00    -0.356 N 
ATOM      4  C   UNL A   1      31.112  23.523  26.905  1.00  0.00     0.224 C 
ATOM      5  O   UNL A   1      29.951  23.211  27.214  1.00  0.00    -0.275 OA
ATOM      6  H   UNL A   1      31.638  21.929  27.894  1.00  0.00     0.163 HD
BRANCH   4   7
ATOM      7  C   UNL A   1      31.328  24.746  25.979  1.00  0.00     0.095 C 
ATOM      8  C   UNL A   1      32.514  24.825  25.006  1.00  0.00     0.095 C 
ATOM      9  C   UNL A   1      33.465  26.032  25.058  1.00  0.00     0.045 C 
ATOM     10  C   UNL A   1      33.060  27.233  25.859  1.00  0.00    -0.074 C 
ATOM     11  C   UNL A   1      31.167  25.982  26.910  1.00  0.00     0.045 C 
ATOM     12  C   UNL A   1      33.989  28.410  25.685  1.00  0.00     0.039 C 
ATOM     13  C   UNL A   1      31.994  27.219  26.680  1.00  0.00    -0.074 C 
ATOM     14  C   UNL A   1      31.548  28.414  27.487  1.00  0.00     0.039 C 
BRANCH   8  15
ATOM     15  C   UNL A   1      32.118  24.469  23.553  1.00  0.00     0.228 C 
ATOM     16  N   UNL A   1      31.391  25.244  22.704  1.00  0.00    -0.326 N 
ATOM     17  H   UNL A   1      31.367  24.895  21.784  1.00  0.00     0.169 HD
ATOM     18  O   UNL A   1      32.558  23.425  23.049  1.00  0.00    -0.274 OA
BRANCH  16  19
ATOM     19  C   UNL A   1      30.672  26.430  22.860  1.00  0.00     0.041 A 
ATOM     20  C   UNL A   1      29.022  28.667  22.997  1.00  0.00     0.060 A 
ATOM     21  C   UNL A   1      30.304  28.787  22.469  1.00  0.00     0.018 A 
ATOM     22  C   UNL A   1      28.592  27.466  23.557  1.00  0.00     0.018 A 
ATOM     23  C   UNL A   1      31.129  27.666  22.422  1.00  0.00     0.027 A 
ATOM     24  C   UNL A   1      29.434  26.353  23.513  1.00  0.00     0.027 A 
BRANCH  20  25
ATOM     25  C   UNL A   1      28.086  29.787  22.855  1.00  0.00     0.338 C 
ATOM     26  O   UNL A   1      27.165  29.989  23.624  1.00  0.00    -0.246 OA
BRANCH  25  27
ATOM     27  O   UNL A   1      28.407  30.472  21.736  1.00  0.00    -0.462 OA
BRANCH  27  28
ATOM     28  C   UNL A   1      28.045  31.860  21.753  1.00  0.00     0.230 C 
ATOM     29  C   UNL A   1      27.917  32.344  20.321  1.00  0.00     0.049 C 
ENDBRANCH  27  28
ENDBRANCH  25  27
ENDBRANCH  20  25
ENDBRANCH  16  19
ENDBRANCH   8  15
ENDBRANCH   4   7
ENDBRANCH   2   3
ENDBRANCH   1   2
BRANCH   1  30
ATOM     30  C   UNL A   1      34.093  21.407  25.103  1.00  0.00     0.002 C 
BRANCH  30  31
ATOM     31  C   UNL A   1      35.527  21.710  24.653  1.00  0.00     0.002 C 
BRANCH  31  32
ATOM     32  C   UNL A   1      35.847  23.198  24.468  1.00  0.00     0.021 C 
BRANCH  32  33
ATOM     33  C   UNL A   1      36.877  23.749  25.450  1.00  0.00     0.116 C 
BRANCH  33  34
ATOM     34  N   UNL A   1      37.815  22.720  25.867  1.00  0.00    -0.352 N 
ATOM     35  C   UNL A   1      39.061  22.841  26.422  1.00  0.00     0.251 C 
ATOM     36  H   UNL A   1      37.507  21.796  25.732  1.00  0.00     0.163 HD
ATOM     37  O   UNL A   1      39.808  21.869  26.462  1.00  0.00    -0.269 OA
BRANCH  35  38
ATOM     38  C   UNL A   1      39.513  24.135  26.977  1.00  0.00     0.039 A 
ATOM     39  C   UNL A   1      39.179  24.449  28.296  1.00  0.00     0.014 A 
ATOM     40  C   UNL A   1      40.203  25.061  26.188  1.00  0.00     0.014 A 
ATOM     41  C   UNL A   1      39.558  25.679  28.833  1.00  0.00     0.010 A 
ATOM     42  C   UNL A   1      40.641  26.262  26.745  1.00  0.00     0.010 A 
ATOM     43  C   UNL A   1      40.306  26.588  28.066  1.00  0.00    -0.014 A 
BRANCH  43  44
ATOM     44  C   UNL A   1      40.738  27.878  28.653  1.00  0.00     0.031 A 
ATOM     45  C   UNL A   1      42.175  28.118  29.015  1.00  0.00     0.074 A 
ATOM     46  C   UNL A   1      39.815  28.829  28.891  1.00  0.00     0.049 A 
ATOM     47  N   UNL A   1      42.742  29.204  29.478  1.00  0.00    -0.248 NA
ATOM     48  C   UNL A   1      43.093  26.979  28.868  1.00  0.00     0.031 C 
ATOM     49  C   UNL A   1      38.377  28.681  28.665  1.00  0.00     0.029 A 
ATOM     50  N   UNL A   1      39.948  30.105  29.374  1.00  0.00    -0.354 N 
ATOM     51  C   UNL A   1      44.075  28.877  29.685  1.00  0.00     0.074 A 
ATOM     52  C   UNL A   1      44.221  27.477  29.351  1.00  0.00     0.031 C 
ATOM     53  C   UNL A   1      37.763  29.830  28.983  1.00  0.00     0.029 A 
ATOM     54  C   UNL A   1      38.762  30.790  29.444  1.00  0.00     0.049 A 
ATOM     55  H   UNL A   1      40.812  30.493  29.643  1.00  0.00     0.167 HD
ATOM     56  C   UNL A   1      45.088  29.679  30.093  1.00  0.00     0.037 A 
ATOM     57  C   UNL A   1      38.509  32.056  29.822  1.00  0.00     0.037 A 
ATOM     58  C   UNL A   1      44.936  31.078  30.404  1.00  0.00     0.049 A 
ATOM     59  C   UNL A   1      39.656  32.949  30.202  1.00  0.00     0.074 A 
ATOM     60  C   UNL A   1      45.910  32.000  30.744  1.00  0.00     0.029 A 
ATOM     61  N   UNL A   1      43.725  31.754  30.418  1.00  0.00    -0.354 N 
ATOM     62  N   UNL A   1      40.932  32.663  30.291  1.00  0.00    -0.248 NA
ATOM     63  C   UNL A   1      39.330  34.347  30.511  1.00  0.00     0.031 C 
ATOM     64  C   UNL A   1      45.283  33.224  31.007  1.00  0.00     0.029 A 
ATOM     65  C   UNL A   1      43.923  33.078  30.783  1.00  0.00     0.049 A 
ATOM     66  H   UNL A   1      42.852  31.354  30.200  1.00  0.00     0.167 HD
ATOM     67  C   UNL A   1      41.565  33.844  30.649  1.00  0.00     0.074 A 
ATOM     68  C   UNL A   1      40.532  34.857  30.740  1.00  0.00     0.031 C 
ATOM     69  C   UNL A   1      42.882  34.069  30.884  1.00  0.00     0.037 A 
BRANCH  56  70
ATOM     70  C   UNL A   1      46.448  29.055  30.229  1.00  0.00     0.064 A 
ATOM     71  C   UNL A   1      47.344  28.994  29.150  1.00  0.00     0.173 A 
ATOM     72  C   UNL A   1      46.864  28.517  31.456  1.00  0.00     0.173 A 
ATOM     73  F   UNL A   1      46.992  29.484  27.952  1.00  0.00    -0.203 F 
ATOM     74  C   UNL A   1      48.587  28.381  29.283  1.00  0.00     0.198 A 
ATOM     75  C   UNL A   1      48.122  27.932  31.594  1.00  0.00     0.198 A 
ATOM     76  F   UNL A   1      46.052  28.553  32.522  1.00  0.00    -0.203 F 
ATOM     77  F   UNL A   1      49.400  28.280  28.222  1.00  0.00    -0.200 F 
ATOM     78  C   UNL A   1      48.977  27.854  30.505  1.00  0.00     0.200 A 
ATOM     79  F   UNL A   1      48.500  27.433  32.778  1.00  0.00    -0.200 F 
ATOM     80  F   UNL A   1      50.172  27.262  30.631  1.00  0.00    -0.200 F 
ENDBRANCH  56  70
BRANCH  57  81
ATOM     81  C   UNL A   1      37.112  32.556  29.794  1.00  0.00     0.064 A 
ATOM     82  C   UNL A   1      36.282  32.440  30.916  1.00  0.00     0.173 A 
ATOM     83  C   UNL A   1      36.598  33.205  28.662  1.00  0.00     0.173 A 
ATOM     84  F   UNL A   1      36.728  31.815  32.016  1.00  0.00    -0.203 F 
ATOM     85  C   UNL A   1      34.986  32.949  30.907  1.00  0.00     0.198 A 
ATOM     86  C   UNL A   1      35.309  33.734  28.662  1.00  0.00     0.198 A 
ATOM     87  F   UNL A   1      37.358  33.349  27.567  1.00  0.00    -0.203 F 
ATOM     88  F   UNL A   1      34.204  32.804  31.986  1.00  0.00    -0.200 F 
ATOM     89  C   UNL A   1      34.503  33.603  29.782  1.00  0.00     0.200 A 
ATOM     90  F   UNL A   1      34.853  34.380  27.580  1.00  0.00    -0.200 F 
ATOM     91  F   UNL A   1      33.262  34.107  29.780  1.00  0.00    -0.200 F 
ENDBRANCH  57  81
BRANCH  69  92
ATOM     92  C   UNL A   1      43.275  35.470  31.256  1.00  0.00     0.064 A 
ATOM     93  C   UNL A   1      43.251  35.910  32.588  1.00  0.00     0.173 A 
ATOM     94  C   UNL A   1      43.691  36.377  30.270  1.00  0.00     0.173 A 
ATOM     95  F   UNL A   1      42.846  35.083  33.565  1.00  0.00    -0.203 F 
ATOM     96  C   UNL A   1      43.595  37.219  32.915  1.00  0.00     0.198 A 
ATOM     97  C   UNL A   1      44.063  37.677  30.606  1.00  0.00     0.198 A 
ATOM     98  F   UNL A   1      43.738  36.004  28.983  1.00  0.00    -0.203 F 
ATOM     99  F   UNL A   1      43.510  37.633  34.186  1.00  0.00    -0.200 F 
ATOM    100  C   UNL A   1      44.004  38.099  31.926  1.00  0.00     0.200 A 
ATOM    101  F   UNL A   1      44.469  38.523  29.649  1.00  0.00    -0.200 F 
ATOM    102  F   UNL A   1      44.333  39.359  32.242  1.00  0.00    -0.200 F 
ENDBRANCH  69  92
ENDBRANCH  43  44
ENDBRANCH  35  38
ENDBRANCH  33  34
ENDBRANCH  32  33
ENDBRANCH  31  32
ENDBRANCH  30  31
ENDBRANCH   1  30
TORSDOF 18
ENDMDL
MODEL 3
REMARK VINA RESULT:     -12.1      4.414     10.167
REMARK SMILES CCOC(=O)c1ccc(NC(=O)[C@H]2CC(C)=C(C)C[C@@H]2C(=O)NCCCCCCNC(=O)c2ccc(-c3c4nc(c(-c5c(F)c(F)c(F)c(F)c5F)c5ccc([nH]5)c(-c5c(F)c(F)c(F)c(F)c5F)c5nc(c(-c6c(F)c(F)c(F)c(F)c6F)c6ccc3[nH]6)C=C5)C=C4)cc2)cc1
REMARK SMILES IDX 25 1 24 2 23 3 21 4 22 5 20 7 13 8 14 9 15 10 19 11 16 12
REMARK SMILES IDX 17 13 18 14 11 15 10 16 12 18 9 19 6 20 7 21 97 22 8 23
REMARK SMILES IDX 96 24 4 25 5 26 3 27 2 28 1 29 26 30 27 31 28 32 29 33 30 34
REMARK SMILES IDX 31 35 32 37 33 38 34 39 95 40 35 41 94 42 36 43 37 44 38 45
REMARK SMILES IDX 88 46 39 47 93 48 87 49 89 50 40 51 92 52 86 53 85 54 41 56
REMARK SMILES IDX 73 57 53 58 72 59 54 60 57 61 71 62 90 63 55 64 56 65 70 67
REMARK SMILES IDX 91 68 58 69 42 70 43 71 51 72 44 73 45 74 49 75 52 76 46 77
REMARK SMILES IDX 47 78 50 79 48 80 74 81 75 82 83 83 76 84 77 85 81 86 84 87
REMARK SMILES IDX 78 88 79 89 82 90 80 91 59 92 60 93 68 94 61 95 62 96 66 97
REMARK SMILES IDX 69 98 63 99 64 100 67 101 65 102
REMARK H PARENT 23 6 10 17 30 36 89 55 57 66
REMARK Flexibility Score: inf
ROOT
ATOM      1  C   UNL A   1      34.651  21.232  25.778  1.00  0.00     0.021 C 
ENDROOT
BRANCH   1   2
ATOM      2  C   UNL A   1      33.255  21.461  25.199  1.00  0.00     0.116 C 
BRANCH   2   3
ATOM      3  N   UNL A   1      32.377  22.066  26.171  1.00  0.00    -0.356 N 
ATOM      4  C   UNL A   1      31.997  23.326  26.460  1.00  0.00     0.224 C 
ATOM      5  O   UNL A   1      31.192  23.392  27.403  1.00  0.00    -0.275 OA
ATOM      6  H   UNL A   1      31.955  21.402  26.763  1.00  0.00     0.163 HD
BRANCH   4   7
ATOM      7  C   UNL A   1      32.366  24.630  25.709  1.00  0.00     0.095 C 
ATOM      8  C   UNL A   1      33.816  24.961  25.328  1.00  0.00     0.095 C 
ATOM      9  C   UNL A   1      34.437  26.294  25.774  1.00  0.00     0.045 C 
ATOM     10  C   UNL A   1      33.536  27.358  26.326  1.00  0.00    -0.074 C 
ATOM     11  C   UNL A   1      31.623  25.756  26.483  1.00  0.00     0.045 C 
ATOM     12  C   UNL A   1      34.237  28.675  26.558  1.00  0.00     0.039 C 
ATOM     13  C   UNL A   1      32.245  27.120  26.620  1.00  0.00    -0.074 C 
ATOM     14  C   UNL A   1      31.306  28.171  27.161  1.00  0.00     0.039 C 
BRANCH   8  15
ATOM     15  C   UNL A   1      34.128  24.650  23.844  1.00  0.00     0.228 C 
ATOM     16  N   UNL A   1      33.690  25.353  22.765  1.00  0.00    -0.326 N 
ATOM     17  H   UNL A   1      34.113  25.072  21.921  1.00  0.00     0.169 HD
ATOM     18  O   UNL A   1      34.919  23.734  23.575  1.00  0.00    -0.274 OA
BRANCH  16  19
ATOM     19  C   UNL A   1      32.768  26.389  22.600  1.00  0.00     0.041 A 
ATOM     20  C   UNL A   1      31.011  28.546  22.551  1.00  0.00     0.060 A 
ATOM     21  C   UNL A   1      30.519  27.252  22.408  1.00  0.00     0.018 A 
ATOM     22  C   UNL A   1      32.383  28.783  22.612  1.00  0.00     0.018 A 
ATOM     23  C   UNL A   1      31.408  26.180  22.414  1.00  0.00     0.027 A 
ATOM     24  C   UNL A   1      33.264  27.699  22.606  1.00  0.00     0.027 A 
BRANCH  20  25
ATOM     25  C   UNL A   1      30.066  29.649  22.754  1.00  0.00     0.338 C 
ATOM     26  O   UNL A   1      29.828  30.131  23.846  1.00  0.00    -0.246 OA
BRANCH  25  27
ATOM     27  O   UNL A   1      29.512  29.961  21.562  1.00  0.00    -0.462 OA
BRANCH  27  28
ATOM     28  C   UNL A   1      28.178  30.480  21.635  1.00  0.00     0.230 C 
ATOM     29  C   UNL A   1      28.011  31.540  20.562  1.00  0.00     0.049 C 
ENDBRANCH  27  28
ENDBRANCH  25  27
ENDBRANCH  20  25
ENDBRANCH  16  19
ENDBRANCH   8  15
ENDBRANCH   4   7
ENDBRANCH   2   3
ENDBRANCH   1   2
BRANCH   1  30
ATOM     30  C   UNL A   1      35.492  20.243  24.965  1.00  0.00     0.002 C 
BRANCH  30  31
ATOM     31  C   UNL A   1      36.909  20.725  24.630  1.00  0.00     0.002 C 
BRANCH  31  32
ATOM     32  C   UNL A   1      38.017  19.691  24.862  1.00  0.00     0.021 C 
BRANCH  32  33
ATOM     33  C   UNL A   1      38.991  20.051  25.980  1.00  0.00     0.116 C 
BRANCH  33  34
ATOM     34  N   UNL A   1      40.164  19.193  25.958  1.00  0.00    -0.352 N 
ATOM     35  C   UNL A   1      41.492  19.520  26.004  1.00  0.00     0.251 C 
ATOM     36  H   UNL A   1      39.974  18.229  25.903  1.00  0.00     0.163 HD
ATOM     37  O   UNL A   1      42.339  18.683  25.708  1.00  0.00    -0.269 OA
BRANCH  35  38
ATOM     38  C   UNL A   1      41.918  20.876  26.411  1.00  0.00     0.039 A 
ATOM     39  C   UNL A   1      42.046  21.859  25.426  1.00  0.00     0.014 A 
ATOM     40  C   UNL A   1      42.252  21.165  27.738  1.00  0.00     0.014 A 
ATOM     41  C   UNL A   1      42.484  23.136  25.774  1.00  0.00     0.010 A 
ATOM     42  C   UNL A   1      42.624  22.459  28.097  1.00  0.00     0.010 A 
ATOM     43  C   UNL A   1      42.761  23.451  27.116  1.00  0.00    -0.014 A 
BRANCH  43  44
ATOM     44  C   UNL A   1      43.190  24.820  27.486  1.00  0.00     0.031 A 
ATOM     45  C   UNL A   1      44.605  25.269  27.266  1.00  0.00     0.074 A 
ATOM     46  C   UNL A   1      42.299  25.652  28.056  1.00  0.00     0.049 A 
ATOM     47  N   UNL A   1      45.141  26.447  27.470  1.00  0.00    -0.248 NA
ATOM     48  C   UNL A   1      45.554  24.256  26.782  1.00  0.00     0.031 C 
ATOM     49  C   UNL A   1      40.922  25.301  28.402  1.00  0.00     0.029 A 
ATOM     50  N   UNL A   1      42.418  26.961  28.445  1.00  0.00    -0.354 N 
ATOM     51  C   UNL A   1      46.485  26.314  27.149  1.00  0.00     0.074 A 
ATOM     52  C   UNL A   1      46.696  24.927  26.792  1.00  0.00     0.031 C 
ATOM     53  C   UNL A   1      40.314  26.375  28.927  1.00  0.00     0.029 A 
ATOM     54  C   UNL A   1      41.261  27.486  28.963  1.00  0.00     0.049 A 
ATOM     55  H   UNL A   1      43.253  27.476  28.359  1.00  0.00     0.167 HD
ATOM     56  C   UNL A   1      47.449  27.266  27.133  1.00  0.00     0.037 A 
ATOM     57  C   UNL A   1      40.990  28.728  29.404  1.00  0.00     0.037 A 
ATOM     58  C   UNL A   1      47.224  28.649  27.472  1.00  0.00     0.049 A 
ATOM     59  C   UNL A   1      42.052  29.786  29.310  1.00  0.00     0.074 A 
ATOM     60  C   UNL A   1      48.108  29.710  27.407  1.00  0.00     0.029 A 
ATOM     61  N   UNL A   1      46.024  29.157  27.948  1.00  0.00    -0.354 N 
ATOM     62  N   UNL A   1      43.293  29.677  28.901  1.00  0.00    -0.248 NA
ATOM     63  C   UNL A   1      41.667  31.144  29.714  1.00  0.00     0.031 C 
ATOM     64  C   UNL A   1      47.457  30.854  27.886  1.00  0.00     0.029 A 
ATOM     65  C   UNL A   1      46.151  30.515  28.203  1.00  0.00     0.049 A 
ATOM     66  H   UNL A   1      45.203  28.633  28.085  1.00  0.00     0.167 HD
ATOM     67  C   UNL A   1      43.835  30.952  28.984  1.00  0.00     0.074 A 
ATOM     68  C   UNL A   1      42.778  31.822  29.460  1.00  0.00     0.031 C 
ATOM     69  C   UNL A   1      45.094  31.364  28.693  1.00  0.00     0.037 A 
BRANCH  56  70
ATOM     70  C   UNL A   1      48.833  26.838  26.738  1.00  0.00     0.064 A 
ATOM     71  C   UNL A   1      49.738  26.310  27.674  1.00  0.00     0.173 A 
ATOM     72  C   UNL A   1      49.261  26.950  25.407  1.00  0.00     0.173 A 
ATOM     73  F   UNL A   1      49.383  26.191  28.962  1.00  0.00    -0.203 F 
ATOM     74  C   UNL A   1      51.029  25.950  27.299  1.00  0.00     0.198 A 
ATOM     75  C   UNL A   1      50.545  26.560  25.030  1.00  0.00     0.198 A 
ATOM     76  F   UNL A   1      48.437  27.442  24.470  1.00  0.00    -0.203 F 
ATOM     77  F   UNL A   1      51.894  25.507  28.223  1.00  0.00    -0.200 F 
ATOM     78  C   UNL A   1      51.431  26.071  25.978  1.00  0.00     0.200 A 
ATOM     79  F   UNL A   1      50.926  26.667  23.750  1.00  0.00    -0.200 F 
ATOM     80  F   UNL A   1      52.675  25.727  25.619  1.00  0.00    -0.200 F 
ENDBRANCH  56  70
BRANCH  57  81
ATOM     81  C   UNL A   1      39.630  29.034  29.913  1.00  0.00     0.064 A 
ATOM     82  C   UNL A   1      39.328  28.920  31.276  1.00  0.00     0.173 A 
ATOM     83  C   UNL A   1      38.623  29.498  29.054  1.00  0.00     0.173 A 
ATOM     84  F   UNL A   1      40.257  28.468  32.132  1.00  0.00    -0.203 F 
ATOM     85  C   UNL A   1      38.066  29.251  31.762  1.00  0.00     0.198 A 
ATOM     86  C   UNL A   1      37.368  29.850  29.546  1.00  0.00     0.198 A 
ATOM     87  F   UNL A   1      38.868  29.634  27.744  1.00  0.00    -0.203 F 
ATOM     88  F   UNL A   1      37.795  29.110  33.067  1.00  0.00    -0.200 F 
ATOM     89  C   UNL A   1      37.089  29.724  30.898  1.00  0.00     0.200 A 
ATOM     90  F   UNL A   1      36.433  30.323  28.710  1.00  0.00    -0.200 F 
ATOM     91  F   UNL A   1      35.881  30.058  31.369  1.00  0.00    -0.200 F 
ENDBRANCH  57  81
BRANCH  69  92
ATOM     92  C   UNL A   1      45.390  32.824  28.878  1.00  0.00     0.064 A 
ATOM     93  C   UNL A   1      45.863  33.328  30.100  1.00  0.00     0.173 A 
ATOM     94  C   UNL A   1      45.211  33.726  27.819  1.00  0.00     0.173 A 
ATOM     95  F   UNL A   1      46.036  32.506  31.147  1.00  0.00    -0.203 F 
ATOM     96  C   UNL A   1      46.110  34.688  30.264  1.00  0.00     0.198 A 
ATOM     97  C   UNL A   1      45.488  35.082  27.980  1.00  0.00     0.198 A 
ATOM     98  F   UNL A   1      44.768  33.294  26.629  1.00  0.00    -0.203 F 
ATOM     99  F   UNL A   1      46.505  35.154  31.456  1.00  0.00    -0.200 F 
ATOM    100  C   UNL A   1      45.926  35.562  29.204  1.00  0.00     0.200 A 
ATOM    101  F   UNL A   1      45.320  35.924  26.951  1.00  0.00    -0.200 F 
ATOM    102  F   UNL A   1      46.163  36.871  29.366  1.00  0.00    -0.200 F 
ENDBRANCH  69  92
ENDBRANCH  43  44
ENDBRANCH  35  38
ENDBRANCH  33  34
ENDBRANCH  32  33
ENDBRANCH  31  32
ENDBRANCH  30  31
ENDBRANCH   1  30
TORSDOF 18
ENDMDL
