MODEL 1
REMARK VINA RESULT:     -12.6      0.000      0.000
REMARK SMILES O=C(NCCCCCCNC(=O)c1ccc(-c2c3nc(c(-c4c(F)c(F)c(F)c(F)c4F)c4ccc([nH]4)c(-c4c(F)c(F)c(F)c(F)c4F)c4nc(c(-c5c(F)c(F)c(F)c(F)c5F)c5ccc2[nH]5)C=C4)C=C3)cc1)C1=Cc2c(cc(Cl)c(Cl)c2Cl)O[C@H]1C(F)(F)F
REMARK SMILES IDX 7 1 6 2 5 3 4 4 3 5 1 6 2 7 76 9 77 10 88 11 78 12 87 13
REMARK SMILES IDX 79 14 85 15 80 16 83 17 86 18 81 19 84 20 82 21 89 22 90 23
REMARK SMILES IDX 91 24 92 25 8 26 9 27 10 28 11 29 12 31 13 32 14 33 75 34
REMARK SMILES IDX 15 35 74 36 16 37 17 38 18 39 68 40 19 41 73 42 67 43 69 44
REMARK SMILES IDX 20 45 72 46 66 47 65 48 21 50 53 51 33 52 52 53 34 54 37 55
REMARK SMILES IDX 51 56 70 57 35 58 36 59 50 61 71 62 38 63 22 64 23 65 31 66
REMARK SMILES IDX 24 67 25 68 29 69 32 70 26 71 27 72 30 73 28 74 54 75 55 76
REMARK SMILES IDX 63 77 56 78 57 79 61 80 64 81 58 82 59 83 62 84 60 85 39 86
REMARK SMILES IDX 40 87 48 88 41 89 42 90 46 91 49 92 43 93 44 94 47 95 45 96
REMARK H PARENT 3 8 10 30 69 49 37 60
REMARK Flexibility Score: inf
ROOT
ATOM      1  C   UNL A   1      31.386  30.452  25.391  1.00  0.00     0.002 C 
ENDROOT
BRANCH   1   2
ATOM      2  C   UNL A   1      32.692  29.651  25.473  1.00  0.00     0.002 C 
BRANCH   2   3
ATOM      3  C   UNL A   1      33.375  29.302  24.150  1.00  0.00     0.021 C 
BRANCH   3   4
ATOM      4  C   UNL A   1      32.459  28.843  23.018  1.00  0.00     0.116 C 
BRANCH   4   5
ATOM      5  N   UNL A   1      32.977  27.775  22.186  1.00  0.00    -0.352 N 
ATOM      6  O   UNL A   1      33.653  25.678  21.694  1.00  0.00    -0.270 OA
ATOM      7  C   UNL A   1      33.130  26.448  22.494  1.00  0.00     0.251 C 
ATOM      8  H   UNL A   1      33.256  28.038  21.279  1.00  0.00     0.163 HD
BRANCH   7   9
ATOM      9  C   UNL A   1      32.690  25.933  23.817  1.00  0.00     0.067 C 
ATOM     10  C   UNL A   1      33.648  25.440  24.619  1.00  0.00     0.027 C 
ATOM     11  C   UNL A   1      31.267  25.457  23.909  1.00  0.00     0.314 C 
ATOM     12  C   UNL A   1      33.542  23.973  24.792  1.00  0.00     0.037 A 
ATOM     13  O   UNL A   1      31.156  24.045  24.261  1.00  0.00    -0.475 OA
ATOM     14  C   UNL A   1      32.308  23.357  24.542  1.00  0.00     0.131 A 
ATOM     15  C   UNL A   1      34.692  23.183  24.997  1.00  0.00     0.072 A 
ATOM     16  C   UNL A   1      32.223  21.971  24.449  1.00  0.00     0.069 A 
ATOM     17  C   UNL A   1      34.614  21.786  24.867  1.00  0.00     0.079 A 
ATOM     18  Cl  UNL A   1      36.214  23.965  25.309  1.00  0.00    -0.082 Cl
ATOM     19  C   UNL A   1      33.376  21.192  24.572  1.00  0.00     0.064 A 
ATOM     20  Cl  UNL A   1      36.045  20.807  24.985  1.00  0.00    -0.081 Cl
ATOM     21  Cl  UNL A   1      33.212  19.497  24.261  1.00  0.00    -0.083 Cl
BRANCH  11  22
ATOM     22  C   UNL A   1      30.420  26.323  24.865  1.00  0.00     0.429 C 
ATOM     23  F   UNL A   1      31.149  26.884  25.858  1.00  0.00    -0.167 F 
ATOM     24  F   UNL A   1      29.810  27.331  24.196  1.00  0.00    -0.167 F 
ATOM     25  F   UNL A   1      29.443  25.600  25.466  1.00  0.00    -0.167 F 
ENDBRANCH  11  22
ENDBRANCH   7   9
ENDBRANCH   4   5
ENDBRANCH   3   4
ENDBRANCH   2   3
ENDBRANCH   1   2
BRANCH   1  26
ATOM     26  C   UNL A   1      31.237  31.646  26.339  1.00  0.00     0.021 C 
BRANCH  26  27
ATOM     27  C   UNL A   1      32.527  32.249  26.888  1.00  0.00     0.116 C 
BRANCH  27  28
ATOM     28  N   UNL A   1      32.370  33.618  27.345  1.00  0.00    -0.352 N 
ATOM     29  C   UNL A   1      33.052  34.324  28.305  1.00  0.00     0.251 C 
ATOM     30  H   UNL A   1      31.657  34.124  26.891  1.00  0.00     0.163 HD
ATOM     31  O   UNL A   1      32.660  35.451  28.610  1.00  0.00    -0.269 OA
BRANCH  29  32
ATOM     32  C   UNL A   1      34.234  33.759  29.000  1.00  0.00     0.039 A 
ATOM     33  C   UNL A   1      34.028  32.741  29.940  1.00  0.00     0.014 A 
ATOM     34  C   UNL A   1      35.526  34.249  28.791  1.00  0.00     0.014 A 
ATOM     35  C   UNL A   1      35.111  32.184  30.627  1.00  0.00     0.010 A 
ATOM     36  C   UNL A   1      36.615  33.649  29.430  1.00  0.00     0.010 A 
ATOM     37  C   UNL A   1      36.420  32.614  30.358  1.00  0.00    -0.014 A 
BRANCH  37  38
ATOM     38  C   UNL A   1      37.587  31.995  31.042  1.00  0.00     0.031 A 
ATOM     39  C   UNL A   1      38.409  30.941  30.349  1.00  0.00     0.074 A 
ATOM     40  C   UNL A   1      37.883  32.345  32.309  1.00  0.00     0.049 A 
ATOM     41  N   UNL A   1      39.423  30.247  30.803  1.00  0.00    -0.248 NA
ATOM     42  C   UNL A   1      38.024  30.605  28.969  1.00  0.00     0.031 C 
ATOM     43  C   UNL A   1      37.148  33.327  33.106  1.00  0.00     0.029 A 
ATOM     44  N   UNL A   1      38.875  31.908  33.154  1.00  0.00    -0.354 N 
ATOM     45  C   UNL A   1      39.783  29.383  29.777  1.00  0.00     0.074 A 
ATOM     46  C   UNL A   1      38.854  29.609  28.691  1.00  0.00     0.031 C 
ATOM     47  C   UNL A   1      37.725  33.433  34.315  1.00  0.00     0.029 A 
ATOM     48  C   UNL A   1      38.847  32.502  34.392  1.00  0.00     0.049 A 
ATOM     49  H   UNL A   1      39.542  31.232  32.895  1.00  0.00     0.167 HD
ATOM     50  C   UNL A   1      40.806  28.494  29.738  1.00  0.00     0.037 A 
ATOM     51  C   UNL A   1      39.630  32.310  35.471  1.00  0.00     0.037 A 
ATOM     52  C   UNL A   1      41.751  28.294  30.804  1.00  0.00     0.049 A 
ATOM     53  C   UNL A   1      40.753  31.311  35.401  1.00  0.00     0.074 A 
ATOM     54  C   UNL A   1      42.865  27.471  30.827  1.00  0.00     0.029 A 
ATOM     55  N   UNL A   1      41.694  28.921  32.040  1.00  0.00    -0.354 N 
ATOM     56  N   UNL A   1      41.127  30.552  34.400  1.00  0.00    -0.248 NA
ATOM     57  C   UNL A   1      41.567  31.145  36.613  1.00  0.00     0.031 C 
ATOM     58  C   UNL A   1      43.453  27.563  32.093  1.00  0.00     0.029 A 
ATOM     59  C   UNL A   1      42.737  28.482  32.841  1.00  0.00     0.049 A 
ATOM     60  H   UNL A   1      41.014  29.580  32.309  1.00  0.00     0.167 HD
ATOM     61  C   UNL A   1      42.235  29.847  34.848  1.00  0.00     0.074 A 
ATOM     62  C   UNL A   1      42.482  30.274  36.208  1.00  0.00     0.031 C 
ATOM     63  C   UNL A   1      42.981  28.925  34.190  1.00  0.00     0.037 A 
BRANCH  50  64
ATOM     64  C   UNL A   1      40.960  27.661  28.498  1.00  0.00     0.064 A 
ATOM     65  C   UNL A   1      40.264  26.454  28.328  1.00  0.00     0.173 A 
ATOM     66  C   UNL A   1      41.771  28.104  27.441  1.00  0.00     0.173 A 
ATOM     67  F   UNL A   1      39.481  25.983  29.310  1.00  0.00    -0.203 F 
ATOM     68  C   UNL A   1      40.395  25.709  27.160  1.00  0.00     0.198 A 
ATOM     69  C   UNL A   1      41.878  27.370  26.262  1.00  0.00     0.198 A 
ATOM     70  F   UNL A   1      42.452  29.254  27.547  1.00  0.00    -0.203 F 
ATOM     71  F   UNL A   1      39.756  24.538  27.037  1.00  0.00    -0.200 F 
ATOM     72  C   UNL A   1      41.195  26.171  26.125  1.00  0.00     0.200 A 
ATOM     73  F   UNL A   1      42.640  27.825  25.258  1.00  0.00    -0.200 F 
ATOM     74  F   UNL A   1      41.313  25.457  24.996  1.00  0.00    -0.200 F 
ENDBRANCH  50  64
BRANCH  51  75
ATOM     75  C   UNL A   1      39.396  33.097  36.711  1.00  0.00     0.064 A 
ATOM     76  C   UNL A   1      38.471  32.663  37.671  1.00  0.00     0.173 A 
ATOM     77  C   UNL A   1      40.071  34.301  36.953  1.00  0.00     0.173 A 
ATOM     78  F   UNL A   1      37.781  31.530  37.472  1.00  0.00    -0.203 F 
ATOM     79  C   UNL A   1      38.214  33.415  38.815  1.00  0.00     0.198 A 
ATOM     80  C   UNL A   1      39.835  35.038  38.112  1.00  0.00     0.198 A 
ATOM     81  F   UNL A   1      40.966  34.761  36.066  1.00  0.00    -0.203 F 
ATOM     82  F   UNL A   1      37.287  33.003  39.691  1.00  0.00    -0.200 F 
ATOM     83  C   UNL A   1      38.901  34.599  39.038  1.00  0.00     0.200 A 
ATOM     84  F   UNL A   1      40.509  36.176  38.329  1.00  0.00    -0.200 F 
ATOM     85  F   UNL A   1      38.653  35.323  40.138  1.00  0.00    -0.200 F 
ENDBRANCH  51  75
BRANCH  63  86
ATOM     86  C   UNL A   1      44.161  28.347  34.916  1.00  0.00     0.064 A 
ATOM     87  C   UNL A   1      45.403  28.998  34.938  1.00  0.00     0.173 A 
ATOM     88  C   UNL A   1      44.036  27.145  35.628  1.00  0.00     0.173 A 
ATOM     89  F   UNL A   1      45.578  30.142  34.260  1.00  0.00    -0.203 F 
ATOM     90  C   UNL A   1      46.484  28.453  35.628  1.00  0.00     0.198 A 
ATOM     91  C   UNL A   1      45.109  26.618  36.340  1.00  0.00     0.198 A 
ATOM     92  F   UNL A   1      42.867  26.486  35.643  1.00  0.00    -0.203 F 
ATOM     93  F   UNL A   1      47.674  29.067  35.597  1.00  0.00    -0.200 F 
ATOM     94  C   UNL A   1      46.334  27.269  36.334  1.00  0.00     0.200 A 
ATOM     95  F   UNL A   1      44.959  25.480  37.033  1.00  0.00    -0.200 F 
ATOM     96  F   UNL A   1      47.373  26.750  37.002  1.00  0.00    -0.200 F 
ENDBRANCH  63  86
ENDBRANCH  37  38
ENDBRANCH  29  32
ENDBRANCH  27  28
ENDBRANCH  26  27
ENDBRANCH   1  26
TORSDOF 14
ENDMDL
MODEL 2
REMARK VINA RESULT:     -12.5      5.340     10.233
REMARK SMILES O=C(NCCCCCCNC(=O)c1ccc(-c2c3nc(c(-c4c(F)c(F)c(F)c(F)c4F)c4ccc([nH]4)c(-c4c(F)c(F)c(F)c(F)c4F)c4nc(c(-c5c(F)c(F)c(F)c(F)c5F)c5ccc2[nH]5)C=C4)C=C3)cc1)C1=Cc2c(cc(Cl)c(Cl)c2Cl)O[C@H]1C(F)(F)F
REMARK SMILES IDX 7 1 6 2 5 3 4 4 3 5 1 6 2 7 76 9 77 10 88 11 78 12 87 13
REMARK SMILES IDX 79 14 85 15 80 16 83 17 86 18 81 19 84 20 82 21 89 22 90 23
REMARK SMILES IDX 91 24 92 25 8 26 9 27 10 28 11 29 12 31 13 32 14 33 75 34
REMARK SMILES IDX 15 35 74 36 16 37 17 38 18 39 68 40 19 41 73 42 67 43 69 44
REMARK SMILES IDX 20 45 72 46 66 47 65 48 21 50 53 51 33 52 52 53 34 54 37 55
REMARK SMILES IDX 51 56 70 57 35 58 36 59 50 61 71 62 38 63 22 64 23 65 31 66
REMARK SMILES IDX 24 67 25 68 29 69 32 70 26 71 27 72 30 73 28 74 54 75 55 76
REMARK SMILES IDX 63 77 56 78 57 79 61 80 64 81 58 82 59 83 62 84 60 85 39 86
REMARK SMILES IDX 40 87 48 88 41 89 42 90 46 91 49 92 43 93 44 94 47 95 45 96
REMARK H PARENT 3 8 10 30 69 49 37 60
REMARK Flexibility Score: inf
ROOT
ATOM      1  C   UNL A   1      36.288  20.290  25.021  1.00  0.00     0.002 C 
ENDROOT
BRANCH   1   2
ATOM      2  C   UNL A   1      36.236  21.702  25.619  1.00  0.00     0.002 C 
BRANCH   2   3
ATOM      3  C   UNL A   1      35.305  21.915  26.813  1.00  0.00     0.021 C 
BRANCH   3   4
ATOM      4  C   UNL A   1      33.925  21.270  26.716  1.00  0.00     0.116 C 
BRANCH   4   5
ATOM      5  N   UNL A   1      32.821  22.071  27.207  1.00  0.00    -0.352 N 
ATOM      6  O   UNL A   1      31.386  23.814  27.244  1.00  0.00    -0.270 OA
ATOM      7  C   UNL A   1      32.282  23.209  26.664  1.00  0.00     0.251 C 
ATOM      8  H   UNL A   1      32.403  21.757  28.041  1.00  0.00     0.163 HD
BRANCH   7   9
ATOM      9  C   UNL A   1      32.802  23.741  25.377  1.00  0.00     0.067 C 
ATOM     10  C   UNL A   1      33.396  24.944  25.420  1.00  0.00     0.027 C 
ATOM     11  C   UNL A   1      32.130  23.240  24.128  1.00  0.00     0.314 C 
ATOM     12  C   UNL A   1      32.605  25.990  24.732  1.00  0.00     0.037 A 
ATOM     13  O   UNL A   1      31.503  24.301  23.349  1.00  0.00    -0.475 OA
ATOM     14  C   UNL A   1      31.660  25.595  23.775  1.00  0.00     0.131 A 
ATOM     15  C   UNL A   1      32.645  27.331  25.167  1.00  0.00     0.072 A 
ATOM     16  C   UNL A   1      30.730  26.510  23.290  1.00  0.00     0.069 A 
ATOM     17  C   UNL A   1      31.683  28.246  24.705  1.00  0.00     0.079 A 
ATOM     18  Cl  UNL A   1      33.827  27.805  26.352  1.00  0.00    -0.082 Cl
ATOM     19  C   UNL A   1      30.717  27.818  23.781  1.00  0.00     0.064 A 
ATOM     20  Cl  UNL A   1      31.634  29.866  25.331  1.00  0.00    -0.081 Cl
ATOM     21  Cl  UNL A   1      29.416  28.835  23.262  1.00  0.00    -0.083 Cl
BRANCH  11  22
ATOM     22  C   UNL A   1      33.085  22.409  23.244  1.00  0.00     0.429 C 
ATOM     23  F   UNL A   1      33.048  21.086  23.522  1.00  0.00    -0.167 F 
ATOM     24  F   UNL A   1      32.778  22.552  21.931  1.00  0.00    -0.167 F 
ATOM     25  F   UNL A   1      34.375  22.798  23.392  1.00  0.00    -0.167 F 
ENDBRANCH  11  22
ENDBRANCH   7   9
ENDBRANCH   4   5
ENDBRANCH   3   4
ENDBRANCH   2   3
ENDBRANCH   1   2
BRANCH   1  26
ATOM     26  C   UNL A   1      37.674  19.685  24.776  1.00  0.00     0.021 C 
BRANCH  26  27
ATOM     27  C   UNL A   1      38.803  20.172  25.680  1.00  0.00     0.116 C 
BRANCH  27  28
ATOM     28  N   UNL A   1      39.916  19.243  25.757  1.00  0.00    -0.352 N 
ATOM     29  C   UNL A   1      41.236  19.452  26.070  1.00  0.00     0.251 C 
ATOM     30  H   UNL A   1      39.685  18.308  25.551  1.00  0.00     0.163 HD
ATOM     31  O   UNL A   1      42.034  18.522  25.954  1.00  0.00    -0.269 OA
BRANCH  29  32
ATOM     32  C   UNL A   1      41.732  20.774  26.526  1.00  0.00     0.039 A 
ATOM     33  C   UNL A   1      42.058  21.730  25.556  1.00  0.00     0.014 A 
ATOM     34  C   UNL A   1      41.938  21.068  27.876  1.00  0.00     0.014 A 
ATOM     35  C   UNL A   1      42.538  22.987  25.937  1.00  0.00     0.010 A 
ATOM     36  C   UNL A   1      42.357  22.345  28.259  1.00  0.00     0.010 A 
ATOM     37  C   UNL A   1      42.666  23.318  27.295  1.00  0.00    -0.014 A 
BRANCH  37  38
ATOM     38  C   UNL A   1      43.126  24.668  27.718  1.00  0.00     0.031 A 
ATOM     39  C   UNL A   1      42.128  25.741  28.065  1.00  0.00     0.074 A 
ATOM     40  C   UNL A   1      44.443  24.949  27.742  1.00  0.00     0.049 A 
ATOM     41  N   UNL A   1      42.335  26.991  28.396  1.00  0.00    -0.248 NA
ATOM     42  C   UNL A   1      40.707  25.364  28.010  1.00  0.00     0.031 C 
ATOM     43  C   UNL A   1      45.512  24.012  27.396  1.00  0.00     0.029 A 
ATOM     44  N   UNL A   1      45.109  26.107  28.065  1.00  0.00    -0.354 N 
ATOM     45  C   UNL A   1      41.077  27.553  28.569  1.00  0.00     0.074 A 
ATOM     46  C   UNL A   1      40.110  26.520  28.266  1.00  0.00     0.031 C 
ATOM     47  C   UNL A   1      46.699  24.625  27.544  1.00  0.00     0.029 A 
ATOM     48  C   UNL A   1      46.475  26.006  27.959  1.00  0.00     0.049 A 
ATOM     49  H   UNL A   1      44.650  26.931  28.344  1.00  0.00     0.167 HD
ATOM     50  C   UNL A   1      40.757  28.810  28.961  1.00  0.00     0.037 A 
ATOM     51  C   UNL A   1      47.437  26.925  28.164  1.00  0.00     0.037 A 
ATOM     52  C   UNL A   1      41.719  29.827  29.297  1.00  0.00     0.049 A 
ATOM     53  C   UNL A   1      47.053  28.316  28.592  1.00  0.00     0.074 A 
ATOM     54  C   UNL A   1      41.490  31.106  29.777  1.00  0.00     0.029 A 
ATOM     55  N   UNL A   1      43.094  29.684  29.186  1.00  0.00    -0.354 N 
ATOM     56  N   UNL A   1      45.861  28.813  28.820  1.00  0.00    -0.248 NA
ATOM     57  C   UNL A   1      48.149  29.274  28.793  1.00  0.00     0.031 C 
ATOM     58  C   UNL A   1      42.723  31.752  29.909  1.00  0.00     0.029 A 
ATOM     59  C   UNL A   1      43.723  30.859  29.562  1.00  0.00     0.049 A 
ATOM     60  H   UNL A   1      43.554  28.867  28.884  1.00  0.00     0.167 HD
ATOM     61  C   UNL A   1      46.066  30.126  29.224  1.00  0.00     0.074 A 
ATOM     62  C   UNL A   1      47.496  30.347  29.220  1.00  0.00     0.031 C 
ATOM     63  C   UNL A   1      45.150  31.064  29.566  1.00  0.00     0.037 A 
BRANCH  50  64
ATOM     64  C   UNL A   1      39.300  29.165  29.049  1.00  0.00     0.064 A 
ATOM     65  C   UNL A   1      38.555  29.511  27.911  1.00  0.00     0.173 A 
ATOM     66  C   UNL A   1      38.627  29.104  30.279  1.00  0.00     0.173 A 
ATOM     67  F   UNL A   1      39.152  29.591  26.712  1.00  0.00    -0.203 F 
ATOM     68  C   UNL A   1      37.199  29.808  28.006  1.00  0.00     0.198 A 
ATOM     69  C   UNL A   1      37.264  29.374  30.366  1.00  0.00     0.198 A 
ATOM     70  F   UNL A   1      39.290  28.770  31.396  1.00  0.00    -0.203 F 
ATOM     71  F   UNL A   1      36.517  30.179  26.913  1.00  0.00    -0.200 F 
ATOM     72  C   UNL A   1      36.553  29.732  29.231  1.00  0.00     0.200 A 
ATOM     73  F   UNL A   1      36.639  29.286  31.547  1.00  0.00    -0.200 F 
ATOM     74  F   UNL A   1      35.244  30.009  29.319  1.00  0.00    -0.200 F 
ENDBRANCH  50  64
BRANCH  51  75
ATOM     75  C   UNL A   1      48.868  26.559  27.989  1.00  0.00     0.064 A 
ATOM     76  C   UNL A   1      49.663  26.225  29.094  1.00  0.00     0.173 A 
ATOM     77  C   UNL A   1      49.473  26.552  26.724  1.00  0.00     0.173 A 
ATOM     78  F   UNL A   1      49.135  26.242  30.328  1.00  0.00    -0.203 F 
ATOM     79  C   UNL A   1      51.014  25.922  28.944  1.00  0.00     0.198 A 
ATOM     80  C   UNL A   1      50.817  26.220  26.572  1.00  0.00     0.198 A 
ATOM     81  F   UNL A   1      48.756  26.863  25.634  1.00  0.00    -0.203 F 
ATOM     82  F   UNL A   1      51.764  25.658  30.024  1.00  0.00    -0.200 F 
ATOM     83  C   UNL A   1      51.590  25.914  27.683  1.00  0.00     0.200 A 
ATOM     84  F   UNL A   1      51.367  26.202  25.350  1.00  0.00    -0.200 F 
ATOM     85  F   UNL A   1      52.889  25.622  27.539  1.00  0.00    -0.200 F 
ENDBRANCH  51  75
BRANCH  63  86
ATOM     86  C   UNL A   1      45.665  32.404  30.006  1.00  0.00     0.064 A 
ATOM     87  C   UNL A   1      45.997  32.662  31.344  1.00  0.00     0.173 A 
ATOM     88  C   UNL A   1      45.862  33.429  29.071  1.00  0.00     0.173 A 
ATOM     89  F   UNL A   1      45.811  31.719  32.280  1.00  0.00    -0.203 F 
ATOM     90  C   UNL A   1      46.486  33.907  31.733  1.00  0.00     0.198 A 
ATOM     91  C   UNL A   1      46.379  34.663  29.456  1.00  0.00     0.198 A 
ATOM     92  F   UNL A   1      45.566  33.232  27.777  1.00  0.00    -0.203 F 
ATOM     93  F   UNL A   1      46.753  34.147  33.024  1.00  0.00    -0.200 F 
ATOM     94  C   UNL A   1      46.684  34.903  30.788  1.00  0.00     0.200 A 
ATOM     95  F   UNL A   1      46.582  35.620  28.541  1.00  0.00    -0.200 F 
ATOM     96  F   UNL A   1      47.161  36.098  31.163  1.00  0.00    -0.200 F 
ENDBRANCH  63  86
ENDBRANCH  37  38
ENDBRANCH  29  32
ENDBRANCH  27  28
ENDBRANCH  26  27
ENDBRANCH   1  26
TORSDOF 14
ENDMDL
MODEL 3
REMARK VINA RESULT:     -12.5      0.379      1.604
REMARK SMILES O=C(NCCCCCCNC(=O)c1ccc(-c2c3nc(c(-c4c(F)c(F)c(F)c(F)c4F)c4ccc([nH]4)c(-c4c(F)c(F)c(F)c(F)c4F)c4nc(c(-c5c(F)c(F)c(F)c(F)c5F)c5ccc2[nH]5)C=C4)C=C3)cc1)C1=Cc2c(cc(Cl)c(Cl)c2Cl)O[C@H]1C(F)(F)F
REMARK SMILES IDX 7 1 6 2 5 3 4 4 3 5 1 6 2 7 76 9 77 10 88 11 78 12 87 13
REMARK SMILES IDX 79 14 85 15 80 16 83 17 86 18 81 19 84 20 82 21 89 22 90 23
REMARK SMILES IDX 91 24 92 25 8 26 9 27 10 28 11 29 12 31 13 32 14 33 75 34
REMARK SMILES IDX 15 35 74 36 16 37 17 38 18 39 68 40 19 41 73 42 67 43 69 44
REMARK SMILES IDX 20 45 72 46 66 47 65 48 21 50 53 51 33 52 52 53 34 54 37 55
REMARK SMILES IDX 51 56 70 57 35 58 36 59 50 61 71 62 38 63 22 64 23 65 31 66
REMARK SMILES IDX 24 67 25 68 29 69 32 70 26 71 27 72 30 73 28 74 54 75 55 76
REMARK SMILES IDX 63 77 56 78 57 79 61 80 64 81 58 82 59 83 62 84 60 85 39 86
REMARK SMILES IDX 40 87 48 88 41 89 42 90 46 91 49 92 43 93 44 94 47 95 45 96
REMARK H PARENT 3 8 10 30 69 49 37 60
REMARK Flexibility Score: inf
ROOT
ATOM      1  C   UNL A   1      31.415  30.458  25.561  1.00  0.00     0.002 C 
ENDROOT
BRANCH   1   2
ATOM      2  C   UNL A   1      32.746  29.720  25.751  1.00  0.00     0.002 C 
BRANCH   2   3
ATOM      3  C   UNL A   1      33.477  29.271  24.485  1.00  0.00     0.021 C 
BRANCH   3   4
ATOM      4  C   UNL A   1      32.604  28.996  23.264  1.00  0.00     0.116 C 
BRANCH   4   5
ATOM      5  N   UNL A   1      33.078  27.953  22.375  1.00  0.00    -0.352 N 
ATOM      6  O   UNL A   1      33.666  25.859  21.770  1.00  0.00    -0.270 OA
ATOM      7  C   UNL A   1      33.173  26.607  22.610  1.00  0.00     0.251 C 
ATOM      8  H   UNL A   1      33.371  28.253  21.484  1.00  0.00     0.163 HD
BRANCH   7   9
ATOM      9  C   UNL A   1      32.708  26.039  23.902  1.00  0.00     0.067 C 
ATOM     10  C   UNL A   1      33.644  25.479  24.685  1.00  0.00     0.027 C 
ATOM     11  C   UNL A   1      31.271  25.601  23.960  1.00  0.00     0.314 C 
ATOM     12  C   UNL A   1      33.494  24.009  24.784  1.00  0.00     0.037 A 
ATOM     13  O   UNL A   1      31.116  24.178  24.240  1.00  0.00    -0.475 OA
ATOM     14  C   UNL A   1      32.245  23.442  24.495  1.00  0.00     0.131 A 
ATOM     15  C   UNL A   1      34.619  23.177  24.958  1.00  0.00     0.072 A 
ATOM     16  C   UNL A   1      32.122  22.066  24.332  1.00  0.00     0.069 A 
ATOM     17  C   UNL A   1      34.502  21.790  24.758  1.00  0.00     0.079 A 
ATOM     18  Cl  UNL A   1      36.161  23.897  25.319  1.00  0.00    -0.082 Cl
ATOM     19  C   UNL A   1      33.250  21.249  24.425  1.00  0.00     0.064 A 
ATOM     20  Cl  UNL A   1      35.903  20.766  24.836  1.00  0.00    -0.081 Cl
ATOM     21  Cl  UNL A   1      33.041  19.577  24.027  1.00  0.00    -0.083 Cl
BRANCH  11  22
ATOM     22  C   UNL A   1      30.441  26.443  24.953  1.00  0.00     0.429 C 
ATOM     23  F   UNL A   1      31.159  26.864  26.019  1.00  0.00    -0.167 F 
ATOM     24  F   UNL A   1      29.933  27.545  24.349  1.00  0.00    -0.167 F 
ATOM     25  F   UNL A   1      29.389  25.744  25.448  1.00  0.00    -0.167 F 
ENDBRANCH  11  22
ENDBRANCH   7   9
ENDBRANCH   4   5
ENDBRANCH   3   4
ENDBRANCH   2   3
ENDBRANCH   1   2
BRANCH   1  26
ATOM     26  C   UNL A   1      31.240  31.788  26.301  1.00  0.00     0.021 C 
BRANCH  26  27
ATOM     27  C   UNL A   1      32.502  32.413  26.893  1.00  0.00     0.116 C 
BRANCH  27  28
ATOM     28  N   UNL A   1      32.299  33.769  27.369  1.00  0.00    -0.352 N 
ATOM     29  C   UNL A   1      32.957  34.483  28.340  1.00  0.00     0.251 C 
ATOM     30  H   UNL A   1      31.570  34.257  26.922  1.00  0.00     0.163 HD
ATOM     31  O   UNL A   1      32.528  35.593  28.661  1.00  0.00    -0.269 OA
BRANCH  29  32
ATOM     32  C   UNL A   1      34.157  33.948  29.027  1.00  0.00     0.039 A 
ATOM     33  C   UNL A   1      33.976  32.973  30.015  1.00  0.00     0.014 A 
ATOM     34  C   UNL A   1      35.443  34.427  28.763  1.00  0.00     0.014 A 
ATOM     35  C   UNL A   1      35.078  32.445  30.697  1.00  0.00     0.010 A 
ATOM     36  C   UNL A   1      36.549  33.854  29.398  1.00  0.00     0.010 A 
ATOM     37  C   UNL A   1      36.379  32.861  30.375  1.00  0.00    -0.014 A 
BRANCH  37  38
ATOM     38  C   UNL A   1      37.564  32.272  31.054  1.00  0.00     0.031 A 
ATOM     39  C   UNL A   1      38.369  31.190  30.385  1.00  0.00     0.074 A 
ATOM     40  C   UNL A   1      37.890  32.674  32.298  1.00  0.00     0.049 A 
ATOM     41  N   UNL A   1      39.395  30.516  30.842  1.00  0.00    -0.248 NA
ATOM     42  C   UNL A   1      37.950  30.797  29.031  1.00  0.00     0.031 C 
ATOM     43  C   UNL A   1      37.174  33.688  33.073  1.00  0.00     0.029 A 
ATOM     44  N   UNL A   1      38.904  32.272  33.135  1.00  0.00    -0.354 N 
ATOM     45  C   UNL A   1      39.730  29.610  29.844  1.00  0.00     0.074 A 
ATOM     46  C   UNL A   1      38.774  29.791  28.773  1.00  0.00     0.031 C 
ATOM     47  C   UNL A   1      37.782  33.844  34.261  1.00  0.00     0.029 A 
ATOM     48  C   UNL A   1      38.906  32.917  34.348  1.00  0.00     0.049 A 
ATOM     49  H   UNL A   1      39.566  31.587  32.888  1.00  0.00     0.167 HD
ATOM     50  C   UNL A   1      40.753  28.721  29.816  1.00  0.00     0.037 A 
ATOM     51  C   UNL A   1      39.716  32.771  35.414  1.00  0.00     0.037 A 
ATOM     52  C   UNL A   1      41.726  28.566  30.865  1.00  0.00     0.049 A 
ATOM     53  C   UNL A   1      40.839  31.770  35.357  1.00  0.00     0.074 A 
ATOM     54  C   UNL A   1      42.841  27.745  30.894  1.00  0.00     0.029 A 
ATOM     55  N   UNL A   1      41.699  29.243  32.075  1.00  0.00    -0.354 N 
ATOM     56  N   UNL A   1      41.189  30.970  34.379  1.00  0.00    -0.248 NA
ATOM     57  C   UNL A   1      41.684  31.654  36.554  1.00  0.00     0.031 C 
ATOM     58  C   UNL A   1      43.460  27.889  32.139  1.00  0.00     0.029 A 
ATOM     59  C   UNL A   1      42.762  28.839  32.867  1.00  0.00     0.049 A 
ATOM     60  H   UNL A   1      41.025  29.912  32.333  1.00  0.00     0.167 HD
ATOM     61  C   UNL A   1      42.308  30.284  34.828  1.00  0.00     0.074 A 
ATOM     62  C   UNL A   1      42.589  30.768  36.163  1.00  0.00     0.031 C 
ATOM     63  C   UNL A   1      43.039  29.337  34.190  1.00  0.00     0.037 A 
BRANCH  50  64
ATOM     64  C   UNL A   1      40.877  27.838  28.607  1.00  0.00     0.064 A 
ATOM     65  C   UNL A   1      40.161  26.636  28.496  1.00  0.00     0.173 A 
ATOM     66  C   UNL A   1      41.680  28.226  27.523  1.00  0.00     0.173 A 
ATOM     67  F   UNL A   1      39.386  26.215  29.506  1.00  0.00    -0.203 F 
ATOM     68  C   UNL A   1      40.265  25.843  27.356  1.00  0.00     0.198 A 
ATOM     69  C   UNL A   1      41.758  27.445  26.373  1.00  0.00     0.198 A 
ATOM     70  F   UNL A   1      42.378  29.370  27.574  1.00  0.00    -0.203 F 
ATOM     71  F   UNL A   1      39.607  24.678  27.289  1.00  0.00    -0.200 F 
ATOM     72  C   UNL A   1      41.056  26.252  26.293  1.00  0.00     0.200 A 
ATOM     73  F   UNL A   1      42.512  27.849  25.341  1.00  0.00    -0.200 F 
ATOM     74  F   UNL A   1      41.148  25.492  25.192  1.00  0.00    -0.200 F 
ENDBRANCH  50  64
BRANCH  51  75
ATOM     75  C   UNL A   1      39.513  33.608  36.626  1.00  0.00     0.064 A 
ATOM     76  C   UNL A   1      40.100  34.877  36.727  1.00  0.00     0.173 A 
ATOM     77  C   UNL A   1      38.748  33.155  37.710  1.00  0.00     0.173 A 
ATOM     78  F   UNL A   1      40.861  35.345  35.726  1.00  0.00    -0.203 F 
ATOM     79  C   UNL A   1      39.949  35.651  37.876  1.00  0.00     0.198 A 
ATOM     80  C   UNL A   1      38.574  33.942  38.846  1.00  0.00     0.198 A 
ATOM     81  F   UNL A   1      38.165  31.948  37.663  1.00  0.00    -0.203 F 
ATOM     82  F   UNL A   1      40.565  36.838  37.967  1.00  0.00    -0.200 F 
ATOM     83  C   UNL A   1      39.182  35.185  38.932  1.00  0.00     0.200 A 
ATOM     84  F   UNL A   1      37.823  33.492  39.860  1.00  0.00    -0.200 F 
ATOM     85  F   UNL A   1      39.038  35.929  40.037  1.00  0.00    -0.200 F 
ENDBRANCH  51  75
BRANCH  63  86
ATOM     86  C   UNL A   1      44.238  28.789  34.909  1.00  0.00     0.064 A 
ATOM     87  C   UNL A   1      44.155  27.641  35.710  1.00  0.00     0.173 A 
ATOM     88  C   UNL A   1      45.491  29.401  34.764  1.00  0.00     0.173 A 
ATOM     89  F   UNL A   1      42.976  27.029  35.893  1.00  0.00    -0.203 F 
ATOM     90  C   UNL A   1      45.281  27.139  36.359  1.00  0.00     0.198 A 
ATOM     91  C   UNL A   1      46.620  28.880  35.390  1.00  0.00     0.198 A 
ATOM     92  F   UNL A   1      45.626  30.498  34.004  1.00  0.00    -0.203 F 
ATOM     93  F   UNL A   1      45.170  26.068  37.157  1.00  0.00    -0.200 F 
ATOM     94  C   UNL A   1      46.513  27.754  36.193  1.00  0.00     0.200 A 
ATOM     95  F   UNL A   1      47.813  29.467  35.218  1.00  0.00    -0.200 F 
ATOM     96  F   UNL A   1      47.596  27.265  36.812  1.00  0.00    -0.200 F 
ENDBRANCH  63  86
ENDBRANCH  37  38
ENDBRANCH  29  32
ENDBRANCH  27  28
ENDBRANCH  26  27
ENDBRANCH   1  26
TORSDOF 14
ENDMDL
