MODEL 1
REMARK VINA RESULT:     -12.0      0.000      0.000
REMARK SMILES Cc1cccc2cc(C(=O)NC[C@H](C)C(=O)NCCCCCCNC(=O)c3ccc(-c4c5nc(c(-c6c(F)c(F)c(F)c(F)c6F)c6ccc([nH]6)c(-c6c(F)c(F)c(F)c(F)c6F)c6nc(c(-c7c(F)c(F)c(F)c(F)c7F)c7ccc4[nH]7)C=C6)C=C5)cc3)oc12
REMARK SMILES IDX 20 1 19 2 18 3 17 4 15 5 16 6 13 8 14 9 12 10 11 11 9 12
REMARK SMILES IDX 10 13 8 15 1 16 2 17 3 18 91 19 4 20 6 21 90 22 5 23 7 24
REMARK SMILES IDX 21 25 22 26 23 27 24 28 25 29 26 31 27 32 28 33 89 34 29 35
REMARK SMILES IDX 88 36 30 37 31 38 32 39 82 40 33 41 87 42 81 43 83 44 34 45
REMARK SMILES IDX 86 46 80 47 79 48 35 50 67 51 47 52 66 53 48 54 51 55 65 56
REMARK SMILES IDX 84 57 49 58 50 59 64 61 85 62 52 63 36 64 37 65 45 66 38 67
REMARK SMILES IDX 39 68 43 69 46 70 40 71 41 72 44 73 42 74 68 75 69 76 77 77
REMARK SMILES IDX 70 78 71 79 75 80 78 81 72 82 73 83 76 84 74 85 53 86 54 87
REMARK SMILES IDX 62 88 55 89 56 90 60 91 63 92 57 93 58 94 61 95 59 96
REMARK H PARENT 17 7 11 14 24 30 83 49 51 60
REMARK Flexibility Score: inf
ROOT
ATOM      1  C   UNL A   1      41.918  21.005  27.589  1.00  0.00     0.002 C 
ENDROOT
BRANCH   1   2
ATOM      2  C   UNL A   1      40.567  21.720  27.497  1.00  0.00     0.021 C 
BRANCH   2   3
ATOM      3  C   UNL A   1      40.065  21.932  26.075  1.00  0.00     0.116 C 
BRANCH   3   4
ATOM      4  N   UNL A   1      38.914  21.100  25.777  1.00  0.00    -0.356 N 
ATOM      5  C   UNL A   1      37.713  21.428  25.225  1.00  0.00     0.224 C 
ATOM      6  O   UNL A   1      36.894  20.525  25.042  1.00  0.00    -0.275 OA
ATOM      7  H   UNL A   1      39.018  20.150  26.009  1.00  0.00     0.163 HD
BRANCH   5   8
ATOM      8  C   UNL A   1      37.400  22.858  24.818  1.00  0.00     0.094 C 
ATOM      9  C   UNL A   1      36.658  22.914  23.476  1.00  0.00     0.020 C 
BRANCH   8  10
ATOM     10  C   UNL A   1      36.673  23.586  25.955  1.00  0.00     0.129 C 
BRANCH  10  11
ATOM     11  N   UNL A   1      35.331  23.066  26.173  1.00  0.00    -0.349 N 
ATOM     12  C   UNL A   1      34.093  23.554  25.828  1.00  0.00     0.287 C 
ATOM     13  O   UNL A   1      33.135  22.806  26.046  1.00  0.00    -0.266 OA
ATOM     14  H   UNL A   1      35.305  22.209  26.655  1.00  0.00     0.163 HD
BRANCH  12  15
ATOM     15  C   UNL A   1      33.916  24.871  25.250  1.00  0.00     0.192 A 
ATOM     16  C   UNL A   1      33.675  28.829  27.058  1.00  0.00     0.048 C 
ATOM     17  C   UNL A   1      33.567  28.395  25.630  1.00  0.00    -0.008 A 
ATOM     18  C   UNL A   1      33.324  29.328  24.607  1.00  0.00     0.007 A 
ATOM     19  C   UNL A   1      33.671  27.066  25.206  1.00  0.00     0.137 A 
ATOM     20  C   UNL A   1      33.215  28.940  23.267  1.00  0.00     0.001 A 
ATOM     21  C   UNL A   1      33.574  26.640  23.889  1.00  0.00     0.021 A 
ATOM     22  O   UNL A   1      33.875  25.997  26.019  1.00  0.00    -0.451 OA
ATOM     23  C   UNL A   1      33.343  27.597  22.889  1.00  0.00     0.012 A 
ATOM     24  C   UNL A   1      33.747  25.233  23.923  1.00  0.00     0.065 A 
ENDBRANCH  12  15
ENDBRANCH  10  11
ENDBRANCH   8  10
ENDBRANCH   5   8
ENDBRANCH   3   4
ENDBRANCH   2   3
ENDBRANCH   1   2
BRANCH   1  25
ATOM     25  C   UNL A   1      41.864  19.472  27.666  1.00  0.00     0.002 C 
BRANCH  25  26
ATOM     26  C   UNL A   1      42.675  18.700  26.616  1.00  0.00     0.021 C 
BRANCH  26  27
ATOM     27  C   UNL A   1      43.030  19.510  25.380  1.00  0.00     0.116 C 
BRANCH  27  28
ATOM     28  N   UNL A   1      44.453  19.450  25.063  1.00  0.00    -0.352 N 
ATOM     29  C   UNL A   1      45.311  20.491  24.801  1.00  0.00     0.251 C 
ATOM     30  H   UNL A   1      44.849  18.548  25.032  1.00  0.00     0.163 HD
ATOM     31  O   UNL A   1      46.357  20.301  24.176  1.00  0.00    -0.269 OA
BRANCH  29  32
ATOM     32  C   UNL A   1      44.978  21.841  25.283  1.00  0.00     0.039 A 
ATOM     33  C   UNL A   1      44.017  22.620  24.636  1.00  0.00     0.014 A 
ATOM     34  C   UNL A   1      45.663  22.337  26.393  1.00  0.00     0.014 A 
ATOM     35  C   UNL A   1      43.719  23.877  25.151  1.00  0.00     0.010 A 
ATOM     36  C   UNL A   1      45.262  23.505  26.990  1.00  0.00     0.010 A 
ATOM     37  C   UNL A   1      44.339  24.307  26.338  1.00  0.00    -0.014 A 
BRANCH  37  38
ATOM     38  C   UNL A   1      43.965  25.572  26.952  1.00  0.00     0.031 A 
ATOM     39  C   UNL A   1      44.874  26.693  26.612  1.00  0.00     0.074 A 
ATOM     40  C   UNL A   1      42.827  25.761  27.654  1.00  0.00     0.049 A 
ATOM     41  N   UNL A   1      45.762  27.223  27.381  1.00  0.00    -0.248 NA
ATOM     42  C   UNL A   1      44.919  27.181  25.226  1.00  0.00     0.031 C 
ATOM     43  C   UNL A   1      41.693  24.842  27.823  1.00  0.00     0.029 A 
ATOM     44  N   UNL A   1      42.412  26.872  28.326  1.00  0.00    -0.354 N 
ATOM     45  C   UNL A   1      46.342  28.254  26.650  1.00  0.00     0.074 A 
ATOM     46  C   UNL A   1      45.914  28.071  25.288  1.00  0.00     0.031 C 
ATOM     47  C   UNL A   1      40.644  25.503  28.363  1.00  0.00     0.029 A 
ATOM     48  C   UNL A   1      41.088  26.829  28.751  1.00  0.00     0.049 A 
ATOM     49  H   UNL A   1      43.001  27.643  28.496  1.00  0.00     0.167 HD
ATOM     50  C   UNL A   1      46.897  29.316  27.297  1.00  0.00     0.037 A 
ATOM     51  C   UNL A   1      40.420  27.815  29.396  1.00  0.00     0.037 A 
ATOM     52  C   UNL A   1      47.031  29.032  28.704  1.00  0.00     0.049 A 
ATOM     53  C   UNL A   1      41.439  28.665  30.048  1.00  0.00     0.074 A 
ATOM     54  C   UNL A   1      47.846  28.256  29.498  1.00  0.00     0.029 A 
ATOM     55  N   UNL A   1      45.905  29.318  29.430  1.00  0.00    -0.354 N 
ATOM     56  N   UNL A   1      42.172  28.270  31.049  1.00  0.00    -0.248 NA
ATOM     57  C   UNL A   1      41.889  29.876  29.375  1.00  0.00     0.031 C 
ATOM     58  C   UNL A   1      47.063  27.906  30.641  1.00  0.00     0.029 A 
ATOM     59  C   UNL A   1      45.814  28.516  30.533  1.00  0.00     0.049 A 
ATOM     60  H   UNL A   1      45.248  30.010  29.188  1.00  0.00     0.167 HD
ATOM     61  C   UNL A   1      43.380  28.906  30.851  1.00  0.00     0.074 A 
ATOM     62  C   UNL A   1      43.091  30.007  29.941  1.00  0.00     0.031 C 
ATOM     63  C   UNL A   1      44.547  28.284  31.186  1.00  0.00     0.037 A 
BRANCH  50  64
ATOM     64  C   UNL A   1      46.856  30.750  26.814  1.00  0.00     0.064 A 
ATOM     65  C   UNL A   1      48.033  31.529  26.900  1.00  0.00     0.173 A 
ATOM     66  C   UNL A   1      45.666  31.476  26.598  1.00  0.00     0.173 A 
ATOM     67  F   UNL A   1      49.221  30.949  27.125  1.00  0.00    -0.203 F 
ATOM     68  C   UNL A   1      48.002  32.926  26.849  1.00  0.00     0.198 A 
ATOM     69  C   UNL A   1      45.647  32.868  26.499  1.00  0.00     0.198 A 
ATOM     70  F   UNL A   1      44.464  30.889  26.597  1.00  0.00    -0.203 F 
ATOM     71  F   UNL A   1      49.126  33.626  27.060  1.00  0.00    -0.200 F 
ATOM     72  C   UNL A   1      46.808  33.594  26.655  1.00  0.00     0.200 A 
ATOM     73  F   UNL A   1      44.475  33.498  26.338  1.00  0.00    -0.200 F 
ATOM     74  F   UNL A   1      46.765  34.933  26.667  1.00  0.00    -0.200 F 
ENDBRANCH  50  64
BRANCH  51  75
ATOM     75  C   UNL A   1      39.003  28.238  29.338  1.00  0.00     0.064 A 
ATOM     76  C   UNL A   1      38.255  28.376  30.522  1.00  0.00     0.173 A 
ATOM     77  C   UNL A   1      38.488  28.866  28.190  1.00  0.00     0.173 A 
ATOM     78  F   UNL A   1      38.689  27.821  31.662  1.00  0.00    -0.203 F 
ATOM     79  C   UNL A   1      37.108  29.171  30.575  1.00  0.00     0.198 A 
ATOM     80  C   UNL A   1      37.338  29.656  28.246  1.00  0.00     0.198 A 
ATOM     81  F   UNL A   1      39.156  28.818  27.029  1.00  0.00    -0.203 F 
ATOM     82  F   UNL A   1      36.482  29.362  31.746  1.00  0.00    -0.200 F 
ATOM     83  C   UNL A   1      36.664  29.830  29.442  1.00  0.00     0.200 A 
ATOM     84  F   UNL A   1      36.934  30.318  27.152  1.00  0.00    -0.200 F 
ATOM     85  F   UNL A   1      35.622  30.670  29.515  1.00  0.00    -0.200 F 
ENDBRANCH  51  75
BRANCH  63  86
ATOM     86  C   UNL A   1      44.463  27.187  32.200  1.00  0.00     0.064 A 
ATOM     87  C   UNL A   1      44.344  25.820  31.897  1.00  0.00     0.173 A 
ATOM     88  C   UNL A   1      44.574  27.546  33.550  1.00  0.00     0.173 A 
ATOM     89  F   UNL A   1      44.305  25.394  30.629  1.00  0.00    -0.203 F 
ATOM     90  C   UNL A   1      44.300  24.863  32.911  1.00  0.00     0.198 A 
ATOM     91  C   UNL A   1      44.566  26.587  34.555  1.00  0.00     0.198 A 
ATOM     92  F   UNL A   1      44.723  28.835  33.890  1.00  0.00    -0.203 F 
ATOM     93  F   UNL A   1      44.163  23.564  32.604  1.00  0.00    -0.200 F 
ATOM     94  C   UNL A   1      44.418  25.247  34.237  1.00  0.00     0.200 A 
ATOM     95  F   UNL A   1      44.720  26.963  35.832  1.00  0.00    -0.200 F 
ATOM     96  F   UNL A   1      44.407  24.325  35.210  1.00  0.00    -0.200 F 
ENDBRANCH  63  86
ENDBRANCH  37  38
ENDBRANCH  29  32
ENDBRANCH  27  28
ENDBRANCH  26  27
ENDBRANCH  25  26
ENDBRANCH   1  25
TORSDOF 16
ENDMDL
MODEL 2
REMARK VINA RESULT:     -11.8      2.906      4.063
REMARK SMILES Cc1cccc2cc(C(=O)NC[C@H](C)C(=O)NCCCCCCNC(=O)c3ccc(-c4c5nc(c(-c6c(F)c(F)c(F)c(F)c6F)c6ccc([nH]6)c(-c6c(F)c(F)c(F)c(F)c6F)c6nc(c(-c7c(F)c(F)c(F)c(F)c7F)c7ccc4[nH]7)C=C6)C=C5)cc3)oc12
REMARK SMILES IDX 20 1 19 2 18 3 17 4 15 5 16 6 13 8 14 9 12 10 11 11 9 12
REMARK SMILES IDX 10 13 8 15 1 16 2 17 3 18 91 19 4 20 6 21 90 22 5 23 7 24
REMARK SMILES IDX 21 25 22 26 23 27 24 28 25 29 26 31 27 32 28 33 89 34 29 35
REMARK SMILES IDX 88 36 30 37 31 38 32 39 82 40 33 41 87 42 81 43 83 44 34 45
REMARK SMILES IDX 86 46 80 47 79 48 35 50 67 51 47 52 66 53 48 54 51 55 65 56
REMARK SMILES IDX 84 57 49 58 50 59 64 61 85 62 52 63 36 64 37 65 45 66 38 67
REMARK SMILES IDX 39 68 43 69 46 70 40 71 41 72 44 73 42 74 68 75 69 76 77 77
REMARK SMILES IDX 70 78 71 79 75 80 78 81 72 82 73 83 76 84 74 85 53 86 54 87
REMARK SMILES IDX 62 88 55 89 56 90 60 91 63 92 57 93 58 94 61 95 59 96
REMARK H PARENT 17 7 11 14 24 30 83 49 51 60
REMARK Flexibility Score: inf
ROOT
ATOM      1  C   UNL A   1      37.136  23.691  26.048  1.00  0.00     0.002 C 
ENDROOT
BRANCH   1   2
ATOM      2  C   UNL A   1      36.924  22.838  24.795  1.00  0.00     0.021 C 
BRANCH   2   3
ATOM      3  C   UNL A   1      36.254  21.495  25.055  1.00  0.00     0.116 C 
BRANCH   3   4
ATOM      4  N   UNL A   1      35.439  21.520  26.256  1.00  0.00    -0.356 N 
ATOM      5  C   UNL A   1      34.107  21.292  26.419  1.00  0.00     0.224 C 
ATOM      6  O   UNL A   1      33.646  21.343  27.561  1.00  0.00    -0.275 OA
ATOM      7  H   UNL A   1      35.927  21.735  27.083  1.00  0.00     0.163 HD
BRANCH   5   8
ATOM      8  C   UNL A   1      33.218  20.954  25.234  1.00  0.00     0.094 C 
ATOM      9  C   UNL A   1      32.623  19.545  25.358  1.00  0.00     0.020 C 
BRANCH   8  10
ATOM     10  C   UNL A   1      32.166  22.051  25.030  1.00  0.00     0.129 C 
BRANCH  10  11
ATOM     11  N   UNL A   1      31.295  22.202  26.187  1.00  0.00    -0.349 N 
ATOM     12  C   UNL A   1      30.565  23.270  26.650  1.00  0.00     0.287 C 
ATOM     13  O   UNL A   1      29.814  23.041  27.603  1.00  0.00    -0.266 OA
ATOM     14  H   UNL A   1      31.215  21.390  26.737  1.00  0.00     0.163 HD
BRANCH  12  15
ATOM     15  C   UNL A   1      30.673  24.591  26.064  1.00  0.00     0.192 A 
ATOM     16  C   UNL A   1      32.268  28.338  27.616  1.00  0.00     0.048 C 
ATOM     17  C   UNL A   1      31.621  28.015  26.306  1.00  0.00    -0.008 A 
ATOM     18  C   UNL A   1      31.416  29.011  25.336  1.00  0.00     0.007 A 
ATOM     19  C   UNL A   1      31.159  26.742  25.953  1.00  0.00     0.137 A 
ATOM     20  C   UNL A   1      30.809  28.730  24.107  1.00  0.00     0.001 A 
ATOM     21  C   UNL A   1      30.556  26.420  24.745  1.00  0.00     0.021 A 
ATOM     22  O   UNL A   1      31.224  25.638  26.742  1.00  0.00    -0.451 OA
ATOM     23  C   UNL A   1      30.377  27.435  23.793  1.00  0.00     0.012 A 
ATOM     24  C   UNL A   1      30.260  25.035  24.818  1.00  0.00     0.065 A 
ENDBRANCH  12  15
ENDBRANCH  10  11
ENDBRANCH   8  10
ENDBRANCH   5   8
ENDBRANCH   3   4
ENDBRANCH   2   3
ENDBRANCH   1   2
BRANCH   1  25
ATOM     25  C   UNL A   1      38.583  23.806  26.548  1.00  0.00     0.002 C 
BRANCH  25  26
ATOM     26  C   UNL A   1      39.432  22.527  26.500  1.00  0.00     0.021 C 
BRANCH  26  27
ATOM     27  C   UNL A   1      40.506  22.450  27.574  1.00  0.00     0.116 C 
BRANCH  27  28
ATOM     28  N   UNL A   1      41.849  22.334  27.014  1.00  0.00    -0.352 N 
ATOM     29  C   UNL A   1      42.650  23.332  26.513  1.00  0.00     0.251 C 
ATOM     30  H   UNL A   1      42.228  21.426  26.992  1.00  0.00     0.163 HD
ATOM     31  O   UNL A   1      43.566  23.069  25.730  1.00  0.00    -0.269 OA
BRANCH  29  32
ATOM     32  C   UNL A   1      42.415  24.725  26.927  1.00  0.00     0.039 A 
ATOM     33  C   UNL A   1      41.708  25.609  26.110  1.00  0.00     0.014 A 
ATOM     34  C   UNL A   1      42.935  25.150  28.150  1.00  0.00     0.014 A 
ATOM     35  C   UNL A   1      41.488  26.906  26.563  1.00  0.00     0.010 A 
ATOM     36  C   UNL A   1      42.588  26.374  28.662  1.00  0.00     0.010 A 
ATOM     37  C   UNL A   1      41.922  27.276  27.848  1.00  0.00    -0.014 A 
BRANCH  37  38
ATOM     38  C   UNL A   1      41.610  28.593  28.384  1.00  0.00     0.031 A 
ATOM     39  C   UNL A   1      42.616  29.628  28.046  1.00  0.00     0.074 A 
ATOM     40  C   UNL A   1      40.453  28.896  29.011  1.00  0.00     0.049 A 
ATOM     41  N   UNL A   1      43.499  30.130  28.839  1.00  0.00    -0.248 NA
ATOM     42  C   UNL A   1      42.770  30.044  26.644  1.00  0.00     0.031 C 
ATOM     43  C   UNL A   1      39.248  28.070  29.156  1.00  0.00     0.029 A 
ATOM     44  N   UNL A   1      40.086  30.065  29.609  1.00  0.00    -0.354 N 
ATOM     45  C   UNL A   1      44.191  31.081  28.097  1.00  0.00     0.074 A 
ATOM     46  C   UNL A   1      43.824  30.863  26.723  1.00  0.00     0.031 C 
ATOM     47  C   UNL A   1      38.223  28.829  29.606  1.00  0.00     0.029 A 
ATOM     48  C   UNL A   1      38.742  30.137  29.960  1.00  0.00     0.049 A 
ATOM     49  H   UNL A   1      40.721  30.799  29.777  1.00  0.00     0.167 HD
ATOM     50  C   UNL A   1      44.788  32.131  28.727  1.00  0.00     0.037 A 
ATOM     51  C   UNL A   1      38.116  31.198  30.522  1.00  0.00     0.037 A 
ATOM     52  C   UNL A   1      44.826  31.906  30.150  1.00  0.00     0.049 A 
ATOM     53  C   UNL A   1      39.158  32.004  31.191  1.00  0.00     0.074 A 
ATOM     54  C   UNL A   1      45.538  31.113  31.023  1.00  0.00     0.029 A 
ATOM     55  N   UNL A   1      43.687  32.306  30.798  1.00  0.00    -0.354 N 
ATOM     56  N   UNL A   1      39.807  31.607  32.249  1.00  0.00    -0.248 NA
ATOM     57  C   UNL A   1      39.732  33.147  30.492  1.00  0.00     0.031 C 
ATOM     58  C   UNL A   1      44.672  30.876  32.134  1.00  0.00     0.029 A 
ATOM     59  C   UNL A   1      43.479  31.567  31.929  1.00  0.00     0.049 A 
ATOM     60  H   UNL A   1      43.097  33.031  30.489  1.00  0.00     0.167 HD
ATOM     61  C   UNL A   1      41.067  32.144  32.091  1.00  0.00     0.074 A 
ATOM     62  C   UNL A   1      40.909  33.218  31.119  1.00  0.00     0.031 C 
ATOM     63  C   UNL A   1      42.165  31.459  32.519  1.00  0.00     0.037 A 
BRANCH  50  64
ATOM     64  C   UNL A   1      44.879  33.539  28.180  1.00  0.00     0.064 A 
ATOM     65  C   UNL A   1      46.157  34.099  27.955  1.00  0.00     0.173 A 
ATOM     66  C   UNL A   1      43.810  34.460  28.190  1.00  0.00     0.173 A 
ATOM     67  F   UNL A   1      47.251  33.322  27.946  1.00  0.00    -0.203 F 
ATOM     68  C   UNL A   1      46.350  35.478  27.828  1.00  0.00     0.198 A 
ATOM     69  C   UNL A   1      44.003  35.830  28.013  1.00  0.00     0.198 A 
ATOM     70  F   UNL A   1      42.559  34.095  28.490  1.00  0.00    -0.203 F 
ATOM     71  F   UNL A   1      47.594  35.972  27.742  1.00  0.00    -0.200 F 
ATOM     72  C   UNL A   1      45.273  36.343  27.864  1.00  0.00     0.200 A 
ATOM     73  F   UNL A   1      42.948  36.655  28.078  1.00  0.00    -0.200 F 
ATOM     74  F   UNL A   1      45.459  37.668  27.804  1.00  0.00    -0.200 F 
ENDBRANCH  50  64
BRANCH  51  75
ATOM     75  C   UNL A   1      36.739  31.718  30.365  1.00  0.00     0.064 A 
ATOM     76  C   UNL A   1      35.900  31.853  31.486  1.00  0.00     0.173 A 
ATOM     77  C   UNL A   1      36.368  32.430  29.211  1.00  0.00     0.173 A 
ATOM     78  F   UNL A   1      36.196  31.219  32.630  1.00  0.00    -0.203 F 
ATOM     79  C   UNL A   1      34.805  32.720  31.483  1.00  0.00     0.198 A 
ATOM     80  C   UNL A   1      35.269  33.293  29.208  1.00  0.00     0.198 A 
ATOM     81  F   UNL A   1      37.131  32.389  28.109  1.00  0.00    -0.203 F 
ATOM     82  F   UNL A   1      34.092  32.900  32.603  1.00  0.00    -0.200 F 
ATOM     83  C   UNL A   1      34.505  33.458  30.350  1.00  0.00     0.200 A 
ATOM     84  F   UNL A   1      35.006  34.028  28.119  1.00  0.00    -0.200 F 
ATOM     85  F   UNL A   1      33.516  34.362  30.376  1.00  0.00    -0.200 F 
ENDBRANCH  51  75
BRANCH  63  86
ATOM     86  C   UNL A   1      41.947  30.420  33.574  1.00  0.00     0.064 A 
ATOM     87  C   UNL A   1      41.627  29.075  33.325  1.00  0.00     0.173 A 
ATOM     88  C   UNL A   1      42.137  30.806  34.908  1.00  0.00     0.173 A 
ATOM     89  F   UNL A   1      41.499  28.615  32.074  1.00  0.00    -0.203 F 
ATOM     90  C   UNL A   1      41.468  28.169  34.374  1.00  0.00     0.198 A 
ATOM     91  C   UNL A   1      42.014  29.893  35.948  1.00  0.00     0.198 A 
ATOM     92  F   UNL A   1      42.477  32.071  35.197  1.00  0.00    -0.203 F 
ATOM     93  F   UNL A   1      41.140  26.894  34.118  1.00  0.00    -0.200 F 
ATOM     94  C   UNL A   1      41.668  28.578  35.683  1.00  0.00     0.200 A 
ATOM     95  F   UNL A   1      42.247  30.287  37.208  1.00  0.00    -0.200 F 
ATOM     96  F   UNL A   1      41.546  27.702  36.689  1.00  0.00    -0.200 F 
ENDBRANCH  63  86
ENDBRANCH  37  38
ENDBRANCH  29  32
ENDBRANCH  27  28
ENDBRANCH  26  27
ENDBRANCH  25  26
ENDBRANCH   1  25
TORSDOF 16
ENDMDL
MODEL 3
REMARK VINA RESULT:     -11.6      4.728     11.094
REMARK SMILES Cc1cccc2cc(C(=O)NC[C@H](C)C(=O)NCCCCCCNC(=O)c3ccc(-c4c5nc(c(-c6c(F)c(F)c(F)c(F)c6F)c6ccc([nH]6)c(-c6c(F)c(F)c(F)c(F)c6F)c6nc(c(-c7c(F)c(F)c(F)c(F)c7F)c7ccc4[nH]7)C=C6)C=C5)cc3)oc12
REMARK SMILES IDX 20 1 19 2 18 3 17 4 15 5 16 6 13 8 14 9 12 10 11 11 9 12
REMARK SMILES IDX 10 13 8 15 1 16 2 17 3 18 91 19 4 20 6 21 90 22 5 23 7 24
REMARK SMILES IDX 21 25 22 26 23 27 24 28 25 29 26 31 27 32 28 33 89 34 29 35
REMARK SMILES IDX 88 36 30 37 31 38 32 39 82 40 33 41 87 42 81 43 83 44 34 45
REMARK SMILES IDX 86 46 80 47 79 48 35 50 67 51 47 52 66 53 48 54 51 55 65 56
REMARK SMILES IDX 84 57 49 58 50 59 64 61 85 62 52 63 36 64 37 65 45 66 38 67
REMARK SMILES IDX 39 68 43 69 46 70 40 71 41 72 44 73 42 74 68 75 69 76 77 77
REMARK SMILES IDX 70 78 71 79 75 80 78 81 72 82 73 83 76 84 74 85 53 86 54 87
REMARK SMILES IDX 62 88 55 89 56 90 60 91 63 92 57 93 58 94 61 95 59 96
REMARK H PARENT 17 7 11 14 24 30 83 49 51 60
REMARK Flexibility Score: inf
ROOT
ATOM      1  C   UNL A   1      36.372  32.073  33.318  1.00  0.00     0.002 C 
ENDROOT
BRANCH   1   2
ATOM      2  C   UNL A   1      37.612  31.288  32.882  1.00  0.00     0.021 C 
BRANCH   2   3
ATOM      3  C   UNL A   1      38.724  31.242  33.922  1.00  0.00     0.116 C 
BRANCH   3   4
ATOM      4  N   UNL A   1      38.274  30.655  35.171  1.00  0.00    -0.356 N 
ATOM      5  C   UNL A   1      37.985  31.243  36.364  1.00  0.00     0.224 C 
ATOM      6  O   UNL A   1      37.587  30.524  37.282  1.00  0.00    -0.275 OA
ATOM      7  H   UNL A   1      38.160  29.678  35.152  1.00  0.00     0.163 HD
BRANCH   5   8
ATOM      8  C   UNL A   1      38.117  32.745  36.551  1.00  0.00     0.094 C 
ATOM      9  C   UNL A   1      36.839  33.357  37.139  1.00  0.00     0.020 C 
BRANCH   8  10
ATOM     10  C   UNL A   1      39.382  33.069  37.356  1.00  0.00     0.129 C 
BRANCH  10  11
ATOM     11  N   UNL A   1      39.620  34.502  37.455  1.00  0.00    -0.349 N 
ATOM     12  C   UNL A   1      39.941  35.444  36.506  1.00  0.00     0.287 C 
ATOM     13  O   UNL A   1      39.952  36.617  36.889  1.00  0.00    -0.266 OA
ATOM     14  H   UNL A   1      39.536  34.861  38.366  1.00  0.00     0.163 HD
BRANCH  12  15
ATOM     15  C   UNL A   1      40.256  35.085  35.138  1.00  0.00     0.192 A 
ATOM     16  C   UNL A   1      44.057  34.644  33.051  1.00  0.00     0.048 C 
ATOM     17  C   UNL A   1      42.648  34.503  32.565  1.00  0.00    -0.008 A 
ATOM     18  C   UNL A   1      42.375  34.201  31.219  1.00  0.00     0.007 A 
ATOM     19  C   UNL A   1      41.520  34.676  33.373  1.00  0.00     0.137 A 
ATOM     20  C   UNL A   1      41.065  34.070  30.745  1.00  0.00     0.001 A 
ATOM     21  C   UNL A   1      40.206  34.551  32.945  1.00  0.00     0.021 A 
ATOM     22  O   UNL A   1      41.543  34.999  34.693  1.00  0.00    -0.451 OA
ATOM     23  C   UNL A   1      39.966  34.237  31.598  1.00  0.00     0.012 A 
ATOM     24  C   UNL A   1      39.401  34.800  34.086  1.00  0.00     0.065 A 
ENDBRANCH  12  15
ENDBRANCH  10  11
ENDBRANCH   8  10
ENDBRANCH   5   8
ENDBRANCH   3   4
ENDBRANCH   2   3
ENDBRANCH   1   2
BRANCH   1  25
ATOM     25  C   UNL A   1      36.290  33.526  32.828  1.00  0.00     0.002 C 
BRANCH  25  26
ATOM     26  C   UNL A   1      35.198  33.845  31.796  1.00  0.00     0.021 C 
BRANCH  26  27
ATOM     27  C   UNL A   1      34.667  32.630  31.052  1.00  0.00     0.116 C 
BRANCH  27  28
ATOM     28  N   UNL A   1      34.561  32.858  29.615  1.00  0.00    -0.352 N 
ATOM     29  C   UNL A   1      35.517  32.656  28.648  1.00  0.00     0.251 C 
ATOM     30  H   UNL A   1      33.694  33.201  29.297  1.00  0.00     0.163 HD
ATOM     31  O   UNL A   1      35.448  33.240  27.565  1.00  0.00    -0.269 OA
BRANCH  29  32
ATOM     32  C   UNL A   1      36.624  31.723  28.911  1.00  0.00     0.039 A 
ATOM     33  C   UNL A   1      36.430  30.341  28.855  1.00  0.00     0.014 A 
ATOM     34  C   UNL A   1      37.873  32.250  29.241  1.00  0.00     0.014 A 
ATOM     35  C   UNL A   1      37.517  29.504  29.083  1.00  0.00     0.010 A 
ATOM     36  C   UNL A   1      38.973  31.435  29.313  1.00  0.00     0.010 A 
ATOM     37  C   UNL A   1      38.790  30.062  29.299  1.00  0.00    -0.014 A 
BRANCH  37  38
ATOM     38  C   UNL A   1      39.960  29.206  29.434  1.00  0.00     0.031 A 
ATOM     39  C   UNL A   1      40.337  28.929  30.840  1.00  0.00     0.074 A 
ATOM     40  C   UNL A   1      40.572  28.599  28.395  1.00  0.00     0.049 A 
ATOM     41  N   UNL A   1      41.330  29.440  31.485  1.00  0.00    -0.248 NA
ATOM     42  C   UNL A   1      39.436  28.122  31.677  1.00  0.00     0.031 C 
ATOM     43  C   UNL A   1      40.143  28.532  26.992  1.00  0.00     0.029 A 
ATOM     44  N   UNL A   1      41.705  27.840  28.396  1.00  0.00    -0.354 N 
ATOM     45  C   UNL A   1      41.308  28.863  32.750  1.00  0.00     0.074 A 
ATOM     46  C   UNL A   1      40.035  28.203  32.869  1.00  0.00     0.031 C 
ATOM     47  C   UNL A   1      40.879  27.610  26.330  1.00  0.00     0.029 A 
ATOM     48  C   UNL A   1      41.948  27.163  27.204  1.00  0.00     0.049 A 
ATOM     49  H   UNL A   1      42.302  27.775  29.176  1.00  0.00     0.167 HD
ATOM     50  C   UNL A   1      42.461  28.759  33.468  1.00  0.00     0.037 A 
ATOM     51  C   UNL A   1      42.973  26.313  26.960  1.00  0.00     0.037 A 
ATOM     52  C   UNL A   1      43.501  29.554  32.865  1.00  0.00     0.049 A 
ATOM     53  C   UNL A   1      44.047  26.653  27.916  1.00  0.00     0.074 A 
ATOM     54  C   UNL A   1      43.810  30.893  32.763  1.00  0.00     0.029 A 
ATOM     55  N   UNL A   1      44.187  28.900  31.877  1.00  0.00    -0.354 N 
ATOM     56  N   UNL A   1      44.729  27.762  27.869  1.00  0.00    -0.248 NA
ATOM     57  C   UNL A   1      44.163  25.894  29.154  1.00  0.00     0.031 C 
ATOM     58  C   UNL A   1      44.528  31.037  31.537  1.00  0.00     0.029 A 
ATOM     59  C   UNL A   1      44.678  29.779  30.953  1.00  0.00     0.049 A 
ATOM     60  H   UNL A   1      44.309  27.924  31.837  1.00  0.00     0.167 HD
ATOM     61  C   UNL A   1      44.986  28.054  29.192  1.00  0.00     0.074 A 
ATOM     62  C   UNL A   1      44.792  26.799  29.908  1.00  0.00     0.031 C 
ATOM     63  C   UNL A   1      45.016  29.349  29.617  1.00  0.00     0.037 A 
BRANCH  50  64
ATOM     64  C   UNL A   1      42.821  27.603  34.377  1.00  0.00     0.064 A 
ATOM     65  C   UNL A   1      43.215  26.378  33.794  1.00  0.00     0.173 A 
ATOM     66  C   UNL A   1      42.477  27.539  35.744  1.00  0.00     0.173 A 
ATOM     67  F   UNL A   1      43.544  26.314  32.495  1.00  0.00    -0.203 F 
ATOM     68  C   UNL A   1      43.191  25.176  34.508  1.00  0.00     0.198 A 
ATOM     69  C   UNL A   1      42.502  26.344  36.465  1.00  0.00     0.198 A 
ATOM     70  F   UNL A   1      41.988  28.593  36.406  1.00  0.00    -0.203 F 
ATOM     71  F   UNL A   1      43.453  24.021  33.879  1.00  0.00    -0.200 F 
ATOM     72  C   UNL A   1      42.828  25.159  35.841  1.00  0.00     0.200 A 
ATOM     73  F   UNL A   1      42.120  26.346  37.750  1.00  0.00    -0.200 F 
ATOM     74  F   UNL A   1      42.744  24.003  36.512  1.00  0.00    -0.200 F 
ENDBRANCH  50  64
BRANCH  51  75
ATOM     75  C   UNL A   1      43.053  25.088  26.133  1.00  0.00     0.064 A 
ATOM     76  C   UNL A   1      44.099  24.925  25.206  1.00  0.00     0.173 A 
ATOM     77  C   UNL A   1      42.349  23.928  26.499  1.00  0.00     0.173 A 
ATOM     78  F   UNL A   1      44.829  25.982  24.820  1.00  0.00    -0.203 F 
ATOM     79  C   UNL A   1      44.478  23.664  24.743  1.00  0.00     0.198 A 
ATOM     80  C   UNL A   1      42.727  22.667  26.030  1.00  0.00     0.198 A 
ATOM     81  F   UNL A   1      41.362  23.986  27.405  1.00  0.00    -0.203 F 
ATOM     82  F   UNL A   1      45.547  23.539  23.943  1.00  0.00    -0.200 F 
ATOM     83  C   UNL A   1      43.807  22.533  25.175  1.00  0.00     0.200 A 
ATOM     84  F   UNL A   1      42.093  21.575  26.479  1.00  0.00    -0.200 F 
ATOM     85  F   UNL A   1      44.230  21.315  24.809  1.00  0.00    -0.200 F 
ENDBRANCH  51  75
BRANCH  63  86
ATOM     86  C   UNL A   1      45.274  30.397  28.580  1.00  0.00     0.064 A 
ATOM     87  C   UNL A   1      44.278  31.089  27.870  1.00  0.00     0.173 A 
ATOM     88  C   UNL A   1      46.608  30.758  28.346  1.00  0.00     0.173 A 
ATOM     89  F   UNL A   1      42.980  30.850  28.092  1.00  0.00    -0.203 F 
ATOM     90  C   UNL A   1      44.613  32.072  26.939  1.00  0.00     0.198 A 
ATOM     91  C   UNL A   1      46.937  31.762  27.444  1.00  0.00     0.198 A 
ATOM     92  F   UNL A   1      47.595  30.150  29.022  1.00  0.00    -0.203 F 
ATOM     93  F   UNL A   1      43.650  32.706  26.254  1.00  0.00    -0.200 F 
ATOM     94  C   UNL A   1      45.941  32.411  26.732  1.00  0.00     0.200 A 
ATOM     95  F   UNL A   1      48.220  32.111  27.278  1.00  0.00    -0.200 F 
ATOM     96  F   UNL A   1      46.262  33.376  25.860  1.00  0.00    -0.200 F 
ENDBRANCH  63  86
ENDBRANCH  37  38
ENDBRANCH  29  32
ENDBRANCH  27  28
ENDBRANCH  26  27
ENDBRANCH  25  26
ENDBRANCH   1  25
TORSDOF 16
ENDMDL
