MODEL 1
REMARK VINA RESULT:     -13.4      0.000      0.000
REMARK SMILES Cc1ccc(N[C@](C)(C(=O)NCCCCCCNC(=O)c2ccc(-c3c4nc(c(-c5c(F)c(F)c(F)c(F)c5F)c5ccc([nH]5)c(-c5c(F)c(F)c(F)c(F)c5F)c5nc(c(-c6c(F)c(F)c(F)c(F)c6F)c6ccc3[nH]6)C=C5)C=C4)cc2)c2cc(F)cc(F)c2)cc1
REMARK SMILES IDX 14 1 13 2 12 3 11 4 9 5 10 6 7 8 8 9 6 10 5 12 1 13 2 14
REMARK SMILES IDX 3 15 93 16 4 17 92 18 84 19 85 20 91 21 86 22 89 23 87 24
REMARK SMILES IDX 88 25 90 26 15 27 16 28 17 29 18 30 19 31 20 33 21 34 22 35
REMARK SMILES IDX 83 36 23 37 82 38 24 39 25 40 26 41 76 42 27 43 81 44 75 45
REMARK SMILES IDX 77 46 28 47 80 48 74 49 73 50 29 52 61 53 41 54 60 55 42 56
REMARK SMILES IDX 45 57 59 58 78 59 43 60 44 61 58 63 79 64 46 65 30 66 31 67
REMARK SMILES IDX 39 68 32 69 33 70 37 71 40 72 34 73 35 74 38 75 36 76 62 77
REMARK SMILES IDX 63 78 71 79 64 80 65 81 69 82 72 83 66 84 67 85 70 86 68 87
REMARK SMILES IDX 47 88 48 89 56 90 49 91 50 92 54 93 57 94 51 95 52 96 55 97
REMARK SMILES IDX 53 98
REMARK H PARENT 11 7 6 11 18 32 77 51 45 62
REMARK Flexibility Score: inf
ROOT
ATOM      1  C   UNL A   1      33.761  27.997  26.520  1.00  0.00     0.002 C 
ENDROOT
BRANCH   1   2
ATOM      2  C   UNL A   1      33.622  26.726  25.671  1.00  0.00     0.021 C 
BRANCH   2   3
ATOM      3  C   UNL A   1      32.454  25.816  26.069  1.00  0.00     0.116 C 
BRANCH   3   4
ATOM      4  N   UNL A   1      31.840  25.239  24.898  1.00  0.00    -0.354 N 
ATOM      5  C   UNL A   1      32.038  24.052  24.264  1.00  0.00     0.250 C 
ATOM      6  O   UNL A   1      31.706  24.049  23.067  1.00  0.00    -0.272 OA
ATOM      7  H   UNL A   1      31.152  25.808  24.482  1.00  0.00     0.163 HD
BRANCH   5   8
ATOM      8  C   UNL A   1      32.656  22.746  24.937  1.00  0.00     0.139 C 
ATOM      9  C   UNL A   1      32.275  22.425  26.404  1.00  0.00     0.051 C 
BRANCH   8  10
ATOM     10  N   UNL A   1      32.144  21.590  24.128  1.00  0.00    -0.368 N 
ATOM     11  H   UNL A   1      31.538  21.810  23.385  1.00  0.00     0.161 HD
BRANCH  10  12
ATOM     12  C   UNL A   1      32.434  20.237  24.317  1.00  0.00     0.035 A 
ATOM     13  C   UNL A   1      33.277  15.986  24.625  1.00  0.00     0.044 C 
ATOM     14  C   UNL A   1      32.996  17.453  24.503  1.00  0.00    -0.051 A 
ATOM     15  C   UNL A   1      32.930  18.249  25.646  1.00  0.00     0.005 A 
ATOM     16  C   UNL A   1      32.797  18.055  23.261  1.00  0.00     0.005 A 
ATOM     17  C   UNL A   1      32.654  19.619  25.550  1.00  0.00     0.026 A 
ATOM     18  C   UNL A   1      32.528  19.427  23.175  1.00  0.00     0.026 A 
ENDBRANCH  10  12
ENDBRANCH   8  10
BRANCH   8  19
ATOM     19  C   UNL A   1      34.210  22.849  24.815  1.00  0.00    -0.008 A 
ATOM     20  C   UNL A   1      34.990  23.274  25.913  1.00  0.00     0.046 A 
ATOM     21  C   UNL A   1      34.916  22.617  23.617  1.00  0.00     0.046 A 
ATOM     22  C   UNL A   1      36.369  23.469  25.812  1.00  0.00     0.126 A 
ATOM     23  C   UNL A   1      36.300  22.809  23.538  1.00  0.00     0.126 A 
ATOM     24  F   UNL A   1      37.045  23.900  26.885  1.00  0.00    -0.207 F 
ATOM     25  C   UNL A   1      37.038  23.241  24.626  1.00  0.00     0.078 A 
ATOM     26  F   UNL A   1      36.925  22.578  22.376  1.00  0.00    -0.207 F 
ENDBRANCH   8  19
ENDBRANCH   5   8
ENDBRANCH   3   4
ENDBRANCH   2   3
ENDBRANCH   1   2
BRANCH   1  27
ATOM     27  C   UNL A   1      32.482  28.500  27.210  1.00  0.00     0.002 C 
BRANCH  27  28
ATOM     28  C   UNL A   1      32.294  30.019  27.250  1.00  0.00     0.021 C 
BRANCH  28  29
ATOM     29  C   UNL A   1      33.546  30.807  26.895  1.00  0.00     0.116 C 
BRANCH  29  30
ATOM     30  N   UNL A   1      33.988  31.717  27.944  1.00  0.00    -0.352 N 
ATOM     31  C   UNL A   1      34.996  31.570  28.884  1.00  0.00     0.251 C 
ATOM     32  H   UNL A   1      33.492  32.566  27.994  1.00  0.00     0.163 HD
ATOM     33  O   UNL A   1      35.164  32.420  29.736  1.00  0.00    -0.269 OA
BRANCH  31  34
ATOM     34  C   UNL A   1      35.954  30.441  28.758  1.00  0.00     0.039 A 
ATOM     35  C   UNL A   1      36.251  29.703  29.912  1.00  0.00     0.014 A 
ATOM     36  C   UNL A   1      36.681  30.233  27.593  1.00  0.00     0.014 A 
ATOM     37  C   UNL A   1      37.427  28.954  29.963  1.00  0.00     0.010 A 
ATOM     38  C   UNL A   1      37.896  29.583  27.672  1.00  0.00     0.010 A 
ATOM     39  C   UNL A   1      38.299  28.999  28.877  1.00  0.00    -0.014 A 
BRANCH  39  40
ATOM     40  C   UNL A   1      39.695  28.585  28.941  1.00  0.00     0.031 A 
ATOM     41  C   UNL A   1      40.108  27.224  28.546  1.00  0.00     0.074 A 
ATOM     42  C   UNL A   1      40.643  29.508  29.223  1.00  0.00     0.049 A 
ATOM     43  N   UNL A   1      41.226  26.684  28.900  1.00  0.00    -0.248 NA
ATOM     44  C   UNL A   1      39.278  26.347  27.727  1.00  0.00     0.031 C 
ATOM     45  C   UNL A   1      42.084  29.391  29.007  1.00  0.00     0.029 A 
ATOM     46  N   UNL A   1      40.498  30.700  29.953  1.00  0.00    -0.354 N 
ATOM     47  C   UNL A   1      41.386  25.540  28.162  1.00  0.00     0.074 A 
ATOM     48  C   UNL A   1      40.125  25.341  27.484  1.00  0.00     0.031 C 
ATOM     49  C   UNL A   1      42.714  30.254  29.817  1.00  0.00     0.029 A 
ATOM     50  C   UNL A   1      41.707  30.843  30.680  1.00  0.00     0.049 A 
ATOM     51  H   UNL A   1      39.724  31.307  29.957  1.00  0.00     0.167 HD
ATOM     52  C   UNL A   1      42.606  24.936  28.101  1.00  0.00     0.037 A 
ATOM     53  C   UNL A   1      41.715  30.793  32.045  1.00  0.00     0.037 A 
ATOM     54  C   UNL A   1      43.605  25.612  28.916  1.00  0.00     0.049 A 
ATOM     55  C   UNL A   1      42.539  29.671  32.640  1.00  0.00     0.074 A 
ATOM     56  C   UNL A   1      44.619  26.520  28.653  1.00  0.00     0.029 A 
ATOM     57  N   UNL A   1      43.445  25.612  30.289  1.00  0.00    -0.354 N 
ATOM     58  N   UNL A   1      43.125  28.739  31.942  1.00  0.00    -0.248 NA
ATOM     59  C   UNL A   1      42.678  29.453  34.081  1.00  0.00     0.031 C 
ATOM     60  C   UNL A   1      45.064  27.063  29.892  1.00  0.00     0.029 A 
ATOM     61  C   UNL A   1      44.320  26.486  30.902  1.00  0.00     0.049 A 
ATOM     62  H   UNL A   1      42.788  25.058  30.770  1.00  0.00     0.167 HD
ATOM     63  C   UNL A   1      43.646  27.799  32.788  1.00  0.00     0.074 A 
ATOM     64  C   UNL A   1      43.349  28.290  34.119  1.00  0.00     0.031 C 
ATOM     65  C   UNL A   1      44.248  26.662  32.339  1.00  0.00     0.037 A 
BRANCH  52  66
ATOM     66  C   UNL A   1      42.912  23.855  27.105  1.00  0.00     0.064 A 
ATOM     67  C   UNL A   1      42.576  22.511  27.361  1.00  0.00     0.173 A 
ATOM     68  C   UNL A   1      43.577  24.093  25.888  1.00  0.00     0.173 A 
ATOM     69  F   UNL A   1      41.882  22.159  28.451  1.00  0.00    -0.203 F 
ATOM     70  C   UNL A   1      42.969  21.475  26.515  1.00  0.00     0.198 A 
ATOM     71  C   UNL A   1      44.019  23.051  25.070  1.00  0.00     0.198 A 
ATOM     72  F   UNL A   1      43.804  25.344  25.461  1.00  0.00    -0.203 F 
ATOM     73  F   UNL A   1      42.631  20.211  26.811  1.00  0.00    -0.200 F 
ATOM     74  C   UNL A   1      43.722  21.740  25.389  1.00  0.00     0.200 A 
ATOM     75  F   UNL A   1      44.746  23.324  23.977  1.00  0.00    -0.200 F 
ATOM     76  F   UNL A   1      44.150  20.737  24.609  1.00  0.00    -0.200 F 
ENDBRANCH  52  66
BRANCH  53  77
ATOM     77  C   UNL A   1      40.467  31.336  32.640  1.00  0.00     0.064 A 
ATOM     78  C   UNL A   1      40.275  32.731  32.637  1.00  0.00     0.173 A 
ATOM     79  C   UNL A   1      39.342  30.526  32.834  1.00  0.00     0.173 A 
ATOM     80  F   UNL A   1      41.323  33.551  32.451  1.00  0.00    -0.203 F 
ATOM     81  C   UNL A   1      39.000  33.285  32.698  1.00  0.00     0.198 A 
ATOM     82  C   UNL A   1      38.067  31.086  32.911  1.00  0.00     0.198 A 
ATOM     83  F   UNL A   1      39.458  29.191  32.827  1.00  0.00    -0.203 F 
ATOM     84  F   UNL A   1      38.839  34.610  32.570  1.00  0.00    -0.200 F 
ATOM     85  C   UNL A   1      37.893  32.459  32.806  1.00  0.00     0.200 A 
ATOM     86  F   UNL A   1      36.994  30.286  32.989  1.00  0.00    -0.200 F 
ATOM     87  F   UNL A   1      36.660  32.980  32.766  1.00  0.00    -0.200 F 
ENDBRANCH  53  77
BRANCH  65  88
ATOM     88  C   UNL A   1      44.832  25.619  33.239  1.00  0.00     0.064 A 
ATOM     89  C   UNL A   1      46.202  25.317  33.242  1.00  0.00     0.173 A 
ATOM     90  C   UNL A   1      44.005  24.793  34.029  1.00  0.00     0.173 A 
ATOM     91  F   UNL A   1      47.058  26.021  32.488  1.00  0.00    -0.203 F 
ATOM     92  C   UNL A   1      46.715  24.267  34.006  1.00  0.00     0.198 A 
ATOM     93  C   UNL A   1      44.512  23.717  34.751  1.00  0.00     0.198 A 
ATOM     94  F   UNL A   1      42.688  25.025  34.133  1.00  0.00    -0.203 F 
ATOM     95  F   UNL A   1      48.034  24.033  34.014  1.00  0.00    -0.200 F 
ATOM     96  C   UNL A   1      45.868  23.458  34.746  1.00  0.00     0.200 A 
ATOM     97  F   UNL A   1      43.678  22.932  35.449  1.00  0.00    -0.200 F 
ATOM     98  F   UNL A   1      46.360  22.434  35.456  1.00  0.00    -0.200 F 
ENDBRANCH  65  88
ENDBRANCH  39  40
ENDBRANCH  31  34
ENDBRANCH  29  30
ENDBRANCH  28  29
ENDBRANCH  27  28
ENDBRANCH   1  27
TORSDOF 16
ENDMDL
MODEL 2
REMARK VINA RESULT:     -13.4      1.765      3.340
REMARK SMILES Cc1ccc(N[C@](C)(C(=O)NCCCCCCNC(=O)c2ccc(-c3c4nc(c(-c5c(F)c(F)c(F)c(F)c5F)c5ccc([nH]5)c(-c5c(F)c(F)c(F)c(F)c5F)c5nc(c(-c6c(F)c(F)c(F)c(F)c6F)c6ccc3[nH]6)C=C5)C=C4)cc2)c2cc(F)cc(F)c2)cc1
REMARK SMILES IDX 14 1 13 2 12 3 11 4 9 5 10 6 7 8 8 9 6 10 5 12 1 13 2 14
REMARK SMILES IDX 3 15 93 16 4 17 92 18 84 19 85 20 91 21 86 22 89 23 87 24
REMARK SMILES IDX 88 25 90 26 15 27 16 28 17 29 18 30 19 31 20 33 21 34 22 35
REMARK SMILES IDX 83 36 23 37 82 38 24 39 25 40 26 41 76 42 27 43 81 44 75 45
REMARK SMILES IDX 77 46 28 47 80 48 74 49 73 50 29 52 61 53 41 54 60 55 42 56
REMARK SMILES IDX 45 57 59 58 78 59 43 60 44 61 58 63 79 64 46 65 30 66 31 67
REMARK SMILES IDX 39 68 32 69 33 70 37 71 40 72 34 73 35 74 38 75 36 76 62 77
REMARK SMILES IDX 63 78 71 79 64 80 65 81 69 82 72 83 66 84 67 85 70 86 68 87
REMARK SMILES IDX 47 88 48 89 56 90 49 91 50 92 54 93 57 94 51 95 52 96 55 97
REMARK SMILES IDX 53 98
REMARK H PARENT 11 7 6 11 18 32 77 51 45 62
REMARK Flexibility Score: inf
ROOT
ATOM      1  C   UNL A   1      32.280  27.477  26.638  1.00  0.00     0.002 C 
ENDROOT
BRANCH   1   2
ATOM      2  C   UNL A   1      33.110  26.690  25.615  1.00  0.00     0.021 C 
BRANCH   2   3
ATOM      3  C   UNL A   1      33.438  25.251  26.028  1.00  0.00     0.116 C 
BRANCH   3   4
ATOM      4  N   UNL A   1      33.977  24.514  24.911  1.00  0.00    -0.354 N 
ATOM      5  C   UNL A   1      33.574  23.363  24.308  1.00  0.00     0.250 C 
ATOM      6  O   UNL A   1      34.475  22.760  23.702  1.00  0.00    -0.272 OA
ATOM      7  H   UNL A   1      34.782  24.916  24.512  1.00  0.00     0.163 HD
BRANCH   5   8
ATOM      8  C   UNL A   1      32.093  22.774  24.353  1.00  0.00     0.139 C 
ATOM      9  C   UNL A   1      31.243  23.021  25.624  1.00  0.00     0.051 C 
BRANCH   8  10
ATOM     10  N   UNL A   1      31.352  23.449  23.237  1.00  0.00    -0.368 N 
ATOM     11  H   UNL A   1      31.057  22.873  22.495  1.00  0.00     0.161 HD
BRANCH  10  12
ATOM     12  C   UNL A   1      31.035  24.805  23.136  1.00  0.00     0.035 A 
ATOM     13  C   UNL A   1      30.289  29.059  22.661  1.00  0.00     0.044 C 
ATOM     14  C   UNL A   1      30.551  27.591  22.806  1.00  0.00    -0.051 A 
ATOM     15  C   UNL A   1      29.782  26.828  23.686  1.00  0.00     0.005 A 
ATOM     16  C   UNL A   1      31.554  26.955  22.076  1.00  0.00     0.005 A 
ATOM     17  C   UNL A   1      30.024  25.457  23.845  1.00  0.00     0.026 A 
ATOM     18  C   UNL A   1      31.783  25.582  22.237  1.00  0.00     0.026 A 
ENDBRANCH  10  12
ENDBRANCH   8  10
BRANCH   8  19
ATOM     19  C   UNL A   1      32.194  21.237  24.087  1.00  0.00    -0.008 A 
ATOM     20  C   UNL A   1      32.428  20.338  25.151  1.00  0.00     0.046 A 
ATOM     21  C   UNL A   1      32.147  20.663  22.801  1.00  0.00     0.046 A 
ATOM     22  C   UNL A   1      32.618  18.971  24.938  1.00  0.00     0.126 A 
ATOM     23  C   UNL A   1      32.330  19.289  22.608  1.00  0.00     0.126 A 
ATOM     24  F   UNL A   1      32.864  18.177  25.989  1.00  0.00    -0.207 F 
ATOM     25  C   UNL A   1      32.574  18.433  23.668  1.00  0.00     0.078 A 
ATOM     26  F   UNL A   1      32.280  18.792  21.366  1.00  0.00    -0.207 F 
ENDBRANCH   8  19
ENDBRANCH   5   8
ENDBRANCH   3   4
ENDBRANCH   2   3
ENDBRANCH   1   2
BRANCH   1  27
ATOM     27  C   UNL A   1      31.975  28.943  26.286  1.00  0.00     0.002 C 
BRANCH  27  28
ATOM     28  C   UNL A   1      32.549  29.995  27.238  1.00  0.00     0.021 C 
BRANCH  28  29
ATOM     29  C   UNL A   1      34.069  29.994  27.319  1.00  0.00     0.116 C 
BRANCH  29  30
ATOM     30  N   UNL A   1      34.611  30.992  28.231  1.00  0.00    -0.352 N 
ATOM     31  C   UNL A   1      35.746  30.950  29.025  1.00  0.00     0.251 C 
ATOM     32  H   UNL A   1      34.089  31.825  28.294  1.00  0.00     0.163 HD
ATOM     33  O   UNL A   1      35.993  31.866  29.785  1.00  0.00    -0.269 OA
BRANCH  31  34
ATOM     34  C   UNL A   1      36.727  29.850  28.840  1.00  0.00     0.039 A 
ATOM     35  C   UNL A   1      36.962  28.994  29.925  1.00  0.00     0.014 A 
ATOM     36  C   UNL A   1      37.531  29.777  27.709  1.00  0.00     0.014 A 
ATOM     37  C   UNL A   1      38.144  28.253  29.970  1.00  0.00     0.010 A 
ATOM     38  C   UNL A   1      38.748  29.132  27.796  1.00  0.00     0.010 A 
ATOM     39  C   UNL A   1      39.083  28.424  28.955  1.00  0.00    -0.014 A 
BRANCH  39  40
ATOM     40  C   UNL A   1      40.478  28.017  29.064  1.00  0.00     0.031 A 
ATOM     41  C   UNL A   1      40.949  26.740  28.492  1.00  0.00     0.074 A 
ATOM     42  C   UNL A   1      41.381  28.891  29.564  1.00  0.00     0.049 A 
ATOM     43  N   UNL A   1      42.048  26.160  28.845  1.00  0.00    -0.248 NA
ATOM     44  C   UNL A   1      40.204  25.998  27.480  1.00  0.00     0.031 C 
ATOM     45  C   UNL A   1      42.836  28.823  29.448  1.00  0.00     0.029 A 
ATOM     46  N   UNL A   1      41.154  29.950  30.459  1.00  0.00    -0.354 N 
ATOM     47  C   UNL A   1      42.289  25.150  27.949  1.00  0.00     0.074 A 
ATOM     48  C   UNL A   1      41.089  25.051  27.149  1.00  0.00     0.031 C 
ATOM     49  C   UNL A   1      43.383  29.551  30.433  1.00  0.00     0.029 A 
ATOM     50  C   UNL A   1      42.299  29.985  31.295  1.00  0.00     0.049 A 
ATOM     51  H   UNL A   1      40.369  30.542  30.497  1.00  0.00     0.167 HD
ATOM     52  C   UNL A   1      43.523  24.575  27.891  1.00  0.00     0.037 A 
ATOM     53  C   UNL A   1      42.202  29.718  32.630  1.00  0.00     0.037 A 
ATOM     54  C   UNL A   1      44.441  25.121  28.880  1.00  0.00     0.049 A 
ATOM     55  C   UNL A   1      43.001  28.522  33.104  1.00  0.00     0.074 A 
ATOM     56  C   UNL A   1      45.452  26.068  28.848  1.00  0.00     0.029 A 
ATOM     57  N   UNL A   1      44.174  24.900  30.219  1.00  0.00    -0.354 N 
ATOM     58  N   UNL A   1      43.660  27.719  32.316  1.00  0.00    -0.248 NA
ATOM     59  C   UNL A   1      43.032  28.078  34.499  1.00  0.00     0.031 C 
ATOM     60  C   UNL A   1      45.788  26.409  30.188  1.00  0.00     0.029 A 
ATOM     61  C   UNL A   1      44.980  25.672  31.031  1.00  0.00     0.049 A 
ATOM     62  H   UNL A   1      43.494  24.270  30.551  1.00  0.00     0.167 HD
ATOM     63  C   UNL A   1      44.134  26.661  33.042  1.00  0.00     0.074 A 
ATOM     64  C   UNL A   1      43.723  26.930  34.405  1.00  0.00     0.031 C 
ATOM     65  C   UNL A   1      44.793  25.615  32.467  1.00  0.00     0.037 A 
BRANCH  52  66
ATOM     66  C   UNL A   1      43.928  23.670  26.764  1.00  0.00     0.064 A 
ATOM     67  C   UNL A   1      43.470  22.339  26.697  1.00  0.00     0.173 A 
ATOM     68  C   UNL A   1      44.806  24.061  25.738  1.00  0.00     0.173 A 
ATOM     69  F   UNL A   1      42.578  21.861  27.573  1.00  0.00    -0.203 F 
ATOM     70  C   UNL A   1      43.938  21.442  25.737  1.00  0.00     0.198 A 
ATOM     71  C   UNL A   1      45.318  23.149  24.812  1.00  0.00     0.198 A 
ATOM     72  F   UNL A   1      45.181  25.343  25.605  1.00  0.00    -0.203 F 
ATOM     73  F   UNL A   1      43.475  20.183  25.723  1.00  0.00    -0.200 F 
ATOM     74  C   UNL A   1      44.889  21.836  24.817  1.00  0.00     0.200 A 
ATOM     75  F   UNL A   1      46.238  23.548  23.923  1.00  0.00    -0.200 F 
ATOM     76  F   UNL A   1      45.382  20.957  23.934  1.00  0.00    -0.200 F 
ENDBRANCH  52  66
BRANCH  53  77
ATOM     77  C   UNL A   1      40.900  30.148  33.202  1.00  0.00     0.064 A 
ATOM     78  C   UNL A   1      40.668  31.526  33.377  1.00  0.00     0.173 A 
ATOM     79  C   UNL A   1      39.789  29.296  33.201  1.00  0.00     0.173 A 
ATOM     80  F   UNL A   1      41.701  32.384  33.381  1.00  0.00    -0.203 F 
ATOM     81  C   UNL A   1      39.376  32.040  33.420  1.00  0.00     0.198 A 
ATOM     82  C   UNL A   1      38.496  29.815  33.261  1.00  0.00     0.198 A 
ATOM     83  F   UNL A   1      39.945  27.978  33.019  1.00  0.00    -0.203 F 
ATOM     84  F   UNL A   1      39.185  33.367  33.464  1.00  0.00    -0.200 F 
ATOM     85  C   UNL A   1      38.289  31.186  33.333  1.00  0.00     0.200 A 
ATOM     86  F   UNL A   1      37.445  28.991  33.151  1.00  0.00    -0.200 F 
ATOM     87  F   UNL A   1      37.047  31.683  33.275  1.00  0.00    -0.200 F 
ENDBRANCH  53  77
BRANCH  65  88
ATOM     88  C   UNL A   1      45.328  24.447  33.234  1.00  0.00     0.064 A 
ATOM     89  C   UNL A   1      44.537  23.331  33.544  1.00  0.00     0.173 A 
ATOM     90  C   UNL A   1      46.619  24.480  33.802  1.00  0.00     0.173 A 
ATOM     91  F   UNL A   1      43.281  23.235  33.084  1.00  0.00    -0.203 F 
ATOM     92  C   UNL A   1      45.017  22.300  34.354  1.00  0.00     0.198 A 
ATOM     93  C   UNL A   1      47.078  23.474  34.649  1.00  0.00     0.198 A 
ATOM     94  F   UNL A   1      47.472  25.479  33.531  1.00  0.00    -0.203 F 
ATOM     95  F   UNL A   1      44.248  21.231  34.596  1.00  0.00    -0.200 F 
ATOM     96  C   UNL A   1      46.280  22.380  34.919  1.00  0.00     0.200 A 
ATOM     97  F   UNL A   1      48.295  23.575  35.202  1.00  0.00    -0.200 F 
ATOM     98  F   UNL A   1      46.728  21.403  35.718  1.00  0.00    -0.200 F 
ENDBRANCH  65  88
ENDBRANCH  39  40
ENDBRANCH  31  34
ENDBRANCH  29  30
ENDBRANCH  28  29
ENDBRANCH  27  28
ENDBRANCH   1  27
TORSDOF 16
ENDMDL
MODEL 3
REMARK VINA RESULT:     -13.2      1.602      2.870
REMARK SMILES Cc1ccc(N[C@](C)(C(=O)NCCCCCCNC(=O)c2ccc(-c3c4nc(c(-c5c(F)c(F)c(F)c(F)c5F)c5ccc([nH]5)c(-c5c(F)c(F)c(F)c(F)c5F)c5nc(c(-c6c(F)c(F)c(F)c(F)c6F)c6ccc3[nH]6)C=C5)C=C4)cc2)c2cc(F)cc(F)c2)cc1
REMARK SMILES IDX 14 1 13 2 12 3 11 4 9 5 10 6 7 8 8 9 6 10 5 12 1 13 2 14
REMARK SMILES IDX 3 15 93 16 4 17 92 18 84 19 85 20 91 21 86 22 89 23 87 24
REMARK SMILES IDX 88 25 90 26 15 27 16 28 17 29 18 30 19 31 20 33 21 34 22 35
REMARK SMILES IDX 83 36 23 37 82 38 24 39 25 40 26 41 76 42 27 43 81 44 75 45
REMARK SMILES IDX 77 46 28 47 80 48 74 49 73 50 29 52 61 53 41 54 60 55 42 56
REMARK SMILES IDX 45 57 59 58 78 59 43 60 44 61 58 63 79 64 46 65 30 66 31 67
REMARK SMILES IDX 39 68 32 69 33 70 37 71 40 72 34 73 35 74 38 75 36 76 62 77
REMARK SMILES IDX 63 78 71 79 64 80 65 81 69 82 72 83 66 84 67 85 70 86 68 87
REMARK SMILES IDX 47 88 48 89 56 90 49 91 50 92 54 93 57 94 51 95 52 96 55 97
REMARK SMILES IDX 53 98
REMARK H PARENT 11 7 6 11 18 32 77 51 45 62
REMARK Flexibility Score: inf
ROOT
ATOM      1  C   UNL A   1      33.409  27.209  26.136  1.00  0.00     0.002 C 
ENDROOT
BRANCH   1   2
ATOM      2  C   UNL A   1      33.874  26.285  25.002  1.00  0.00     0.021 C 
BRANCH   2   3
ATOM      3  C   UNL A   1      32.765  25.846  24.039  1.00  0.00     0.116 C 
BRANCH   3   4
ATOM      4  N   UNL A   1      31.940  24.830  24.645  1.00  0.00    -0.354 N 
ATOM      5  C   UNL A   1      32.020  23.472  24.632  1.00  0.00     0.250 C 
ATOM      6  O   UNL A   1      30.943  22.893  24.844  1.00  0.00    -0.272 OA
ATOM      7  H   UNL A   1      31.180  25.183  25.162  1.00  0.00     0.163 HD
BRANCH   5   8
ATOM      8  C   UNL A   1      33.349  22.636  24.356  1.00  0.00     0.139 C 
ATOM      9  C   UNL A   1      34.211  23.011  23.126  1.00  0.00     0.051 C 
BRANCH   8  10
ATOM     10  N   UNL A   1      34.231  22.867  25.548  1.00  0.00    -0.368 N 
ATOM     11  H   UNL A   1      33.790  23.207  26.360  1.00  0.00     0.161 HD
BRANCH  10  12
ATOM     12  C   UNL A   1      35.608  22.653  25.631  1.00  0.00     0.035 A 
ATOM     13  C   UNL A   1      39.843  21.706  25.848  1.00  0.00     0.044 C 
ATOM     14  C   UNL A   1      38.381  22.021  25.758  1.00  0.00    -0.051 A 
ATOM     15  C   UNL A   1      37.922  23.302  26.065  1.00  0.00     0.005 A 
ATOM     16  C   UNL A   1      37.451  21.057  25.369  1.00  0.00     0.005 A 
ATOM     17  C   UNL A   1      36.556  23.609  26.001  1.00  0.00     0.026 A 
ATOM     18  C   UNL A   1      36.089  21.376  25.301  1.00  0.00     0.026 A 
ENDBRANCH  10  12
ENDBRANCH   8  10
BRANCH   8  19
ATOM     19  C   UNL A   1      32.942  21.130  24.266  1.00  0.00    -0.008 A 
ATOM     20  C   UNL A   1      32.911  20.323  25.425  1.00  0.00     0.046 A 
ATOM     21  C   UNL A   1      32.671  20.466  23.053  1.00  0.00     0.046 A 
ATOM     22  C   UNL A   1      32.645  18.954  25.369  1.00  0.00     0.126 A 
ATOM     23  C   UNL A   1      32.397  19.094  23.018  1.00  0.00     0.126 A 
ATOM     24  F   UNL A   1      32.658  18.242  26.504  1.00  0.00    -0.207 F 
ATOM     25  C   UNL A   1      32.388  18.325  24.168  1.00  0.00     0.078 A 
ATOM     26  F   UNL A   1      32.148  18.508  21.839  1.00  0.00    -0.207 F 
ENDBRANCH   8  19
ENDBRANCH   5   8
ENDBRANCH   3   4
ENDBRANCH   2   3
ENDBRANCH   1   2
BRANCH   1  27
ATOM     27  C   UNL A   1      34.423  28.261  26.616  1.00  0.00     0.002 C 
BRANCH  27  28
ATOM     28  C   UNL A   1      33.885  29.320  27.582  1.00  0.00     0.021 C 
BRANCH  28  29
ATOM     29  C   UNL A   1      34.455  30.713  27.354  1.00  0.00     0.116 C 
BRANCH  29  30
ATOM     30  N   UNL A   1      34.864  31.389  28.578  1.00  0.00    -0.352 N 
ATOM     31  C   UNL A   1      35.844  31.050  29.498  1.00  0.00     0.251 C 
ATOM     32  H   UNL A   1      34.367  32.213  28.784  1.00  0.00     0.163 HD
ATOM     33  O   UNL A   1      35.986  31.710  30.509  1.00  0.00    -0.269 OA
BRANCH  31  34
ATOM     34  C   UNL A   1      36.806  29.965  29.176  1.00  0.00     0.039 A 
ATOM     35  C   UNL A   1      36.994  28.953  30.126  1.00  0.00     0.014 A 
ATOM     36  C   UNL A   1      37.638  30.039  28.065  1.00  0.00     0.014 A 
ATOM     37  C   UNL A   1      38.157  28.184  30.089  1.00  0.00     0.010 A 
ATOM     38  C   UNL A   1      38.838  29.358  28.084  1.00  0.00     0.010 A 
ATOM     39  C   UNL A   1      39.126  28.479  29.132  1.00  0.00    -0.014 A 
BRANCH  39  40
ATOM     40  C   UNL A   1      40.509  28.026  29.213  1.00  0.00     0.031 A 
ATOM     41  C   UNL A   1      40.924  26.731  28.636  1.00  0.00     0.074 A 
ATOM     42  C   UNL A   1      41.452  28.871  29.689  1.00  0.00     0.049 A 
ATOM     43  N   UNL A   1      42.011  26.116  28.966  1.00  0.00    -0.248 NA
ATOM     44  C   UNL A   1      40.133  26.011  27.644  1.00  0.00     0.031 C 
ATOM     45  C   UNL A   1      42.901  28.752  29.541  1.00  0.00     0.029 A 
ATOM     46  N   UNL A   1      41.281  29.939  30.585  1.00  0.00    -0.354 N 
ATOM     47  C   UNL A   1      42.197  25.095  28.070  1.00  0.00     0.074 A 
ATOM     48  C   UNL A   1      40.977  25.034  27.297  1.00  0.00     0.031 C 
ATOM     49  C   UNL A   1      43.494  29.465  30.511  1.00  0.00     0.029 A 
ATOM     50  C   UNL A   1      42.445  29.938  31.395  1.00  0.00     0.049 A 
ATOM     51  H   UNL A   1      40.517  30.558  30.638  1.00  0.00     0.167 HD
ATOM     52  C   UNL A   1      43.410  24.479  27.987  1.00  0.00     0.037 A 
ATOM     53  C   UNL A   1      42.368  29.679  32.733  1.00  0.00     0.037 A 
ATOM     54  C   UNL A   1      44.367  24.997  28.954  1.00  0.00     0.049 A 
ATOM     55  C   UNL A   1      43.137  28.459  33.194  1.00  0.00     0.074 A 
ATOM     56  C   UNL A   1      45.409  25.908  28.895  1.00  0.00     0.029 A 
ATOM     57  N   UNL A   1      44.123  24.789  30.299  1.00  0.00    -0.354 N 
ATOM     58  N   UNL A   1      43.750  27.632  32.395  1.00  0.00    -0.248 NA
ATOM     59  C   UNL A   1      43.184  28.019  34.590  1.00  0.00     0.031 C 
ATOM     60  C   UNL A   1      45.786  26.243  30.226  1.00  0.00     0.029 A 
ATOM     61  C   UNL A   1      44.972  25.537  31.090  1.00  0.00     0.049 A 
ATOM     62  H   UNL A   1      43.429  24.184  30.649  1.00  0.00     0.167 HD
ATOM     63  C   UNL A   1      44.204  26.560  33.115  1.00  0.00     0.074 A 
ATOM     64  C   UNL A   1      43.833  26.847  34.486  1.00  0.00     0.031 C 
ATOM     65  C   UNL A   1      44.815  25.491  32.530  1.00  0.00     0.037 A 
BRANCH  52  66
ATOM     66  C   UNL A   1      43.759  23.557  26.856  1.00  0.00     0.064 A 
ATOM     67  C   UNL A   1      43.341  22.211  26.855  1.00  0.00     0.173 A 
ATOM     68  C   UNL A   1      44.546  23.947  25.757  1.00  0.00     0.173 A 
ATOM     69  F   UNL A   1      42.532  21.730  27.808  1.00  0.00    -0.203 F 
ATOM     70  C   UNL A   1      43.765  21.303  25.885  1.00  0.00     0.198 A 
ATOM     71  C   UNL A   1      45.017  23.027  24.818  1.00  0.00     0.198 A 
ATOM     72  F   UNL A   1      44.869  25.235  25.565  1.00  0.00    -0.203 F 
ATOM     73  F   UNL A   1      43.344  20.031  25.936  1.00  0.00    -0.200 F 
ATOM     74  C   UNL A   1      44.632  21.702  24.887  1.00  0.00     0.200 A 
ATOM     75  F   UNL A   1      45.855  23.429  23.853  1.00  0.00    -0.200 F 
ATOM     76  F   UNL A   1      45.086  20.814  23.992  1.00  0.00    -0.200 F 
ENDBRANCH  52  66
BRANCH  53  77
ATOM     77  C   UNL A   1      41.094  30.155  33.332  1.00  0.00     0.064 A 
ATOM     78  C   UNL A   1      40.935  31.536  33.557  1.00  0.00     0.173 A 
ATOM     79  C   UNL A   1      39.941  29.362  33.311  1.00  0.00     0.173 A 
ATOM     80  F   UNL A   1      42.011  32.340  33.581  1.00  0.00    -0.203 F 
ATOM     81  C   UNL A   1      39.671  32.114  33.629  1.00  0.00     0.198 A 
ATOM     82  C   UNL A   1      38.677  29.944  33.401  1.00  0.00     0.198 A 
ATOM     83  F   UNL A   1      40.028  28.044  33.082  1.00  0.00    -0.203 F 
ATOM     84  F   UNL A   1      39.549  33.447  33.721  1.00  0.00    -0.200 F 
ATOM     85  C   UNL A   1      38.542  31.320  33.523  1.00  0.00     0.200 A 
ATOM     86  F   UNL A   1      37.584  29.179  33.272  1.00  0.00    -0.200 F 
ATOM     87  F   UNL A   1      37.326  31.882  33.494  1.00  0.00    -0.200 F 
ENDBRANCH  53  77
BRANCH  65  88
ATOM     88  C   UNL A   1      45.327  24.308  33.290  1.00  0.00     0.064 A 
ATOM     89  C   UNL A   1      44.521  23.195  33.573  1.00  0.00     0.173 A 
ATOM     90  C   UNL A   1      46.609  24.322  33.879  1.00  0.00     0.173 A 
ATOM     91  F   UNL A   1      43.272  23.116  33.091  1.00  0.00    -0.203 F 
ATOM     92  C   UNL A   1      44.979  22.149  34.376  1.00  0.00     0.198 A 
ATOM     93  C   UNL A   1      47.045  23.301  34.720  1.00  0.00     0.198 A 
ATOM     94  F   UNL A   1      47.475  25.316  33.635  1.00  0.00    -0.203 F 
ATOM     95  F   UNL A   1      44.196  21.084  34.592  1.00  0.00    -0.200 F 
ATOM     96  C   UNL A   1      46.233  22.211  34.962  1.00  0.00     0.200 A 
ATOM     97  F   UNL A   1      48.254  23.383  35.294  1.00  0.00    -0.200 F 
ATOM     98  F   UNL A   1      46.659  21.219  35.756  1.00  0.00    -0.200 F 
ENDBRANCH  65  88
ENDBRANCH  39  40
ENDBRANCH  31  34
ENDBRANCH  29  30
ENDBRANCH  28  29
ENDBRANCH  27  28
ENDBRANCH   1  27
TORSDOF 16
ENDMDL
