MODEL 1
REMARK VINA RESULT:     -12.6      0.000      0.000
REMARK SMILES COC(=O)c1ccc(-c2ccc(C(=O)NCCCCCCNC(=O)c3ccc(-c4c5nc(c(-c6c(F)c(F)c(F)c(F)c6F)c6ccc([nH]6)c(-c6c(F)c(F)c(F)c(F)c6F)c6nc(c(-c7c(F)c(F)c(F)c(F)c7F)c7ccc4[nH]7)C=C6)C=C5)cc3)cc2O)cc1F
REMARK SMILES IDX 18 1 17 2 16 3 15 4 13 5 14 6 12 8 9 9 10 10 89 11 11 12
REMARK SMILES IDX 88 13 8 14 5 15 6 16 92 17 7 18 91 19 93 20 3 21 4 22 2 23
REMARK SMILES IDX 1 24 90 25 19 27 20 28 21 29 22 30 23 31 24 33 25 34 26 35
REMARK SMILES IDX 87 36 27 37 86 38 28 39 29 40 30 41 80 42 31 43 85 44 79 45
REMARK SMILES IDX 81 46 32 47 84 48 78 49 77 50 33 52 65 53 45 54 64 55 46 56
REMARK SMILES IDX 49 57 63 58 82 59 47 60 48 61 62 63 83 64 50 65 34 66 35 67
REMARK SMILES IDX 43 68 36 69 37 70 41 71 44 72 38 73 39 74 42 75 40 76 66 77
REMARK SMILES IDX 67 78 75 79 68 80 69 81 73 82 76 83 70 84 71 85 74 86 72 87
REMARK SMILES IDX 51 88 52 89 60 90 53 91 54 92 58 93 61 94 55 95 56 96 59 97
REMARK SMILES IDX 57 98
REMARK H PARENT 15 7 90 26 22 32 81 51 49 62
REMARK Flexibility Score: inf
ROOT
ATOM      1  C   UNL A   1      32.142  29.760  26.626  1.00  0.00     0.002 C 
ENDROOT
BRANCH   1   2
ATOM      2  C   UNL A   1      32.636  28.565  25.798  1.00  0.00     0.021 C 
BRANCH   2   3
ATOM      3  C   UNL A   1      31.522  27.564  25.483  1.00  0.00     0.116 C 
BRANCH   3   4
ATOM      4  N   UNL A   1      31.071  27.755  24.121  1.00  0.00    -0.352 N 
ATOM      5  C   UNL A   1      31.086  26.965  23.003  1.00  0.00     0.251 C 
ATOM      6  O   UNL A   1      30.670  27.469  21.959  1.00  0.00    -0.269 OA
ATOM      7  H   UNL A   1      30.669  28.640  23.964  1.00  0.00     0.163 HD
BRANCH   5   8
ATOM      8  C   UNL A   1      31.502  25.534  22.997  1.00  0.00     0.043 A 
ATOM      9  C   UNL A   1      32.139  22.779  23.217  1.00  0.00     0.024 A 
ATOM     10  C   UNL A   1      30.870  23.247  23.576  1.00  0.00     0.013 A 
ATOM     11  C   UNL A   1      33.062  23.705  22.710  1.00  0.00     0.124 A 
ATOM     12  C   UNL A   1      30.564  24.608  23.482  1.00  0.00     0.015 A 
ATOM     13  C   UNL A   1      32.733  25.054  22.548  1.00  0.00     0.060 A 
BRANCH   9  14
ATOM     14  C   UNL A   1      32.479  21.362  23.371  1.00  0.00    -0.012 A 
ATOM     15  C   UNL A   1      33.028  18.624  23.707  1.00  0.00     0.095 A 
ATOM     16  C   UNL A   1      33.401  19.541  24.697  1.00  0.00     0.019 A 
ATOM     17  C   UNL A   1      32.381  19.076  22.559  1.00  0.00     0.138 A 
ATOM     18  C   UNL A   1      33.134  20.902  24.524  1.00  0.00     0.010 A 
ATOM     19  C   UNL A   1      32.112  20.432  22.386  1.00  0.00     0.049 A 
ATOM     20  F   UNL A   1      31.963  18.226  21.611  1.00  0.00    -0.206 F 
BRANCH  15  21
ATOM     21  C   UNL A   1      33.294  17.193  23.941  1.00  0.00     0.340 C 
ATOM     22  O   UNL A   1      33.829  16.471  23.115  1.00  0.00    -0.246 OA
BRANCH  21  23
ATOM     23  O   UNL A   1      32.796  16.810  25.139  1.00  0.00    -0.465 OA
ATOM     24  C   UNL A   1      32.698  15.396  25.304  1.00  0.00     0.282 C 
ENDBRANCH  21  23
ENDBRANCH  15  21
ENDBRANCH   9  14
BRANCH  11  25
ATOM     25  O   UNL A   1      34.316  23.273  22.365  1.00  0.00    -0.507 OA
ATOM     26  H   UNL A   1      35.055  23.837  22.482  1.00  0.00     0.293 HD
ENDBRANCH  11  25
ENDBRANCH   5   8
ENDBRANCH   3   4
ENDBRANCH   2   3
ENDBRANCH   1   2
BRANCH   1  27
ATOM     27  C   UNL A   1      31.382  30.821  25.818  1.00  0.00     0.002 C 
BRANCH  27  28
ATOM     28  C   UNL A   1      31.277  32.186  26.500  1.00  0.00     0.021 C 
BRANCH  28  29
ATOM     29  C   UNL A   1      32.582  32.664  27.126  1.00  0.00     0.116 C 
BRANCH  29  30
ATOM     30  N   UNL A   1      32.476  34.041  27.578  1.00  0.00    -0.352 N 
ATOM     31  C   UNL A   1      33.100  34.662  28.628  1.00  0.00     0.251 C 
ATOM     32  H   UNL A   1      31.868  34.611  27.055  1.00  0.00     0.163 HD
ATOM     33  O   UNL A   1      32.691  35.745  29.032  1.00  0.00    -0.269 OA
BRANCH  31  34
ATOM     34  C   UNL A   1      34.269  34.029  29.272  1.00  0.00     0.039 A 
ATOM     35  C   UNL A   1      35.544  34.311  28.774  1.00  0.00     0.014 A 
ATOM     36  C   UNL A   1      34.109  33.123  30.324  1.00  0.00     0.014 A 
ATOM     37  C   UNL A   1      36.659  33.702  29.349  1.00  0.00     0.010 A 
ATOM     38  C   UNL A   1      35.227  32.582  30.951  1.00  0.00     0.010 A 
ATOM     39  C   UNL A   1      36.511  32.846  30.454  1.00  0.00    -0.014 A 
BRANCH  39  40
ATOM     40  C   UNL A   1      37.693  32.202  31.077  1.00  0.00     0.031 A 
ATOM     41  C   UNL A   1      38.148  32.615  32.448  1.00  0.00     0.074 A 
ATOM     42  C   UNL A   1      38.373  31.265  30.389  1.00  0.00     0.049 A 
ATOM     43  N   UNL A   1      39.159  32.171  33.150  1.00  0.00    -0.248 NA
ATOM     44  C   UNL A   1      37.387  33.687  33.108  1.00  0.00     0.031 C 
ATOM     45  C   UNL A   1      38.056  30.822  29.031  1.00  0.00     0.029 A 
ATOM     46  N   UNL A   1      39.469  30.516  30.738  1.00  0.00    -0.354 N 
ATOM     47  C   UNL A   1      39.161  32.916  34.322  1.00  0.00     0.074 A 
ATOM     48  C   UNL A   1      38.090  33.880  34.215  1.00  0.00     0.031 C 
ATOM     49  C   UNL A   1      38.915  29.855  28.675  1.00  0.00     0.029 A 
ATOM     50  C   UNL A   1      39.865  29.635  29.761  1.00  0.00     0.049 A 
ATOM     51  H   UNL A   1      39.927  30.602  31.605  1.00  0.00     0.167 HD
ATOM     52  C   UNL A   1      39.968  32.786  35.401  1.00  0.00     0.037 A 
ATOM     53  C   UNL A   1      40.879  28.750  29.744  1.00  0.00     0.037 A 
ATOM     54  C   UNL A   1      41.011  31.799  35.512  1.00  0.00     0.049 A 
ATOM     55  C   UNL A   1      41.753  28.613  30.960  1.00  0.00     0.074 A 
ATOM     56  C   UNL A   1      41.833  31.536  36.593  1.00  0.00     0.029 A 
ATOM     57  N   UNL A   1      41.378  30.917  34.505  1.00  0.00    -0.354 N 
ATOM     58  N   UNL A   1      41.699  29.270  32.092  1.00  0.00    -0.248 NA
ATOM     59  C   UNL A   1      42.821  27.605  30.901  1.00  0.00     0.031 C 
ATOM     60  C   UNL A   1      42.739  30.541  36.220  1.00  0.00     0.029 A 
ATOM     61  C   UNL A   1      42.437  30.132  34.930  1.00  0.00     0.049 A 
ATOM     62  H   UNL A   1      40.950  30.860  33.621  1.00  0.00     0.167 HD
ATOM     63  C   UNL A   1      42.707  28.745  32.889  1.00  0.00     0.074 A 
ATOM     64  C   UNL A   1      43.348  27.702  32.114  1.00  0.00     0.031 C 
ATOM     65  C   UNL A   1      43.068  29.097  34.147  1.00  0.00     0.037 A 
BRANCH  52  66
ATOM     66  C   UNL A   1      39.759  33.724  36.555  1.00  0.00     0.064 A 
ATOM     67  C   UNL A   1      40.470  34.932  36.626  1.00  0.00     0.173 A 
ATOM     68  C   UNL A   1      38.912  33.400  37.626  1.00  0.00     0.173 A 
ATOM     69  F   UNL A   1      41.297  35.289  35.632  1.00  0.00    -0.203 F 
ATOM     70  C   UNL A   1      40.350  35.773  37.729  1.00  0.00     0.198 A 
ATOM     71  C   UNL A   1      38.769  34.260  38.713  1.00  0.00     0.198 A 
ATOM     72  F   UNL A   1      38.200  32.263  37.606  1.00  0.00    -0.203 F 
ATOM     73  F   UNL A   1      41.067  36.904  37.788  1.00  0.00    -0.200 F 
ATOM     74  C   UNL A   1      39.496  35.440  38.769  1.00  0.00     0.200 A 
ATOM     75  F   UNL A   1      37.923  33.949  39.704  1.00  0.00    -0.200 F 
ATOM     76  F   UNL A   1      39.373  36.255  39.825  1.00  0.00    -0.200 F 
ENDBRANCH  52  66
BRANCH  53  77
ATOM     77  C   UNL A   1      41.081  27.904  28.540  1.00  0.00     0.064 A 
ATOM     78  C   UNL A   1      41.934  28.309  27.502  1.00  0.00     0.173 A 
ATOM     79  C   UNL A   1      40.378  26.702  28.375  1.00  0.00     0.173 A 
ATOM     80  F   UNL A   1      42.622  29.455  27.606  1.00  0.00    -0.203 F 
ATOM     81  C   UNL A   1      42.055  27.558  26.334  1.00  0.00     0.198 A 
ATOM     82  C   UNL A   1      40.522  25.937  27.219  1.00  0.00     0.198 A 
ATOM     83  F   UNL A   1      39.565  26.265  29.346  1.00  0.00    -0.203 F 
ATOM     84  F   UNL A   1      42.839  27.993  25.339  1.00  0.00    -0.200 F 
ATOM     85  C   UNL A   1      41.350  26.372  26.195  1.00  0.00     0.200 A 
ATOM     86  F   UNL A   1      39.855  24.781  27.097  1.00  0.00    -0.200 F 
ATOM     87  F   UNL A   1      41.469  25.648  25.073  1.00  0.00    -0.200 F 
ENDBRANCH  53  77
BRANCH  65  88
ATOM     88  C   UNL A   1      44.197  28.342  34.787  1.00  0.00     0.064 A 
ATOM     89  C   UNL A   1      43.937  27.208  35.572  1.00  0.00     0.173 A 
ATOM     90  C   UNL A   1      45.524  28.786  34.693  1.00  0.00     0.173 A 
ATOM     91  F   UNL A   1      42.684  26.749  35.704  1.00  0.00    -0.203 F 
ATOM     92  C   UNL A   1      44.962  26.558  36.254  1.00  0.00     0.198 A 
ATOM     93  C   UNL A   1      46.552  28.112  35.349  1.00  0.00     0.198 A 
ATOM     94  F   UNL A   1      45.827  29.859  33.947  1.00  0.00    -0.203 F 
ATOM     95  F   UNL A   1      44.683  25.502  37.031  1.00  0.00    -0.200 F 
ATOM     96  C   UNL A   1      46.269  27.007  36.137  1.00  0.00     0.200 A 
ATOM     97  F   UNL A   1      47.818  28.531  35.214  1.00  0.00    -0.200 F 
ATOM     98  F   UNL A   1      47.255  26.371  36.784  1.00  0.00    -0.200 F 
ENDBRANCH  65  88
ENDBRANCH  39  40
ENDBRANCH  31  34
ENDBRANCH  29  30
ENDBRANCH  28  29
ENDBRANCH  27  28
ENDBRANCH   1  27
TORSDOF 17
ENDMDL
MODEL 2
REMARK VINA RESULT:     -12.5      2.707      5.443
REMARK SMILES COC(=O)c1ccc(-c2ccc(C(=O)NCCCCCCNC(=O)c3ccc(-c4c5nc(c(-c6c(F)c(F)c(F)c(F)c6F)c6ccc([nH]6)c(-c6c(F)c(F)c(F)c(F)c6F)c6nc(c(-c7c(F)c(F)c(F)c(F)c7F)c7ccc4[nH]7)C=C6)C=C5)cc3)cc2O)cc1F
REMARK SMILES IDX 18 1 17 2 16 3 15 4 13 5 14 6 12 8 9 9 10 10 89 11 11 12
REMARK SMILES IDX 88 13 8 14 5 15 6 16 92 17 7 18 91 19 93 20 3 21 4 22 2 23
REMARK SMILES IDX 1 24 90 25 19 27 20 28 21 29 22 30 23 31 24 33 25 34 26 35
REMARK SMILES IDX 87 36 27 37 86 38 28 39 29 40 30 41 80 42 31 43 85 44 79 45
REMARK SMILES IDX 81 46 32 47 84 48 78 49 77 50 33 52 65 53 45 54 64 55 46 56
REMARK SMILES IDX 49 57 63 58 82 59 47 60 48 61 62 63 83 64 50 65 34 66 35 67
REMARK SMILES IDX 43 68 36 69 37 70 41 71 44 72 38 73 39 74 42 75 40 76 66 77
REMARK SMILES IDX 67 78 75 79 68 80 69 81 73 82 76 83 70 84 71 85 74 86 72 87
REMARK SMILES IDX 51 88 52 89 60 90 53 91 54 92 58 93 61 94 55 95 56 96 59 97
REMARK SMILES IDX 57 98
REMARK H PARENT 15 7 90 26 22 32 81 51 49 62
REMARK Flexibility Score: inf
ROOT
ATOM      1  C   UNL A   1      34.331  25.753  25.512  1.00  0.00     0.002 C 
ENDROOT
BRANCH   1   2
ATOM      2  C   UNL A   1      34.896  24.379  25.124  1.00  0.00     0.021 C 
BRANCH   2   3
ATOM      3  C   UNL A   1      34.609  23.305  26.174  1.00  0.00     0.116 C 
BRANCH   3   4
ATOM      4  N   UNL A   1      33.755  22.285  25.602  1.00  0.00    -0.352 N 
ATOM      5  C   UNL A   1      32.493  22.300  25.073  1.00  0.00     0.251 C 
ATOM      6  O   UNL A   1      32.022  21.216  24.724  1.00  0.00    -0.269 OA
ATOM      7  H   UNL A   1      34.169  21.393  25.591  1.00  0.00     0.163 HD
BRANCH   5   8
ATOM      8  C   UNL A   1      31.701  23.541  24.836  1.00  0.00     0.043 A 
ATOM      9  C   UNL A   1      30.350  25.939  24.154  1.00  0.00     0.024 A 
ATOM     10  C   UNL A   1      30.799  25.066  23.156  1.00  0.00     0.013 A 
ATOM     11  C   UNL A   1      30.552  25.568  25.492  1.00  0.00     0.124 A 
ATOM     12  C   UNL A   1      31.479  23.892  23.494  1.00  0.00     0.015 A 
ATOM     13  C   UNL A   1      31.169  24.360  25.832  1.00  0.00     0.060 A 
BRANCH   9  14
ATOM     14  C   UNL A   1      29.689  27.197  23.798  1.00  0.00    -0.012 A 
ATOM     15  C   UNL A   1      28.417  29.578  23.008  1.00  0.00     0.095 A 
ATOM     16  C   UNL A   1      29.812  29.529  23.111  1.00  0.00     0.019 A 
ATOM     17  C   UNL A   1      27.666  28.441  23.294  1.00  0.00     0.138 A 
ATOM     18  C   UNL A   1      30.441  28.347  23.512  1.00  0.00     0.010 A 
ATOM     19  C   UNL A   1      28.291  27.261  23.692  1.00  0.00     0.049 A 
ATOM     20  F   UNL A   1      26.332  28.430  23.159  1.00  0.00    -0.206 F 
BRANCH  15  21
ATOM     21  C   UNL A   1      27.792  30.832  22.548  1.00  0.00     0.340 C 
ATOM     22  O   UNL A   1      27.175  31.579  23.289  1.00  0.00    -0.246 OA
BRANCH  21  23
ATOM     23  O   UNL A   1      27.940  30.969  21.210  1.00  0.00    -0.465 OA
ATOM     24  C   UNL A   1      27.932  32.323  20.760  1.00  0.00     0.282 C 
ENDBRANCH  21  23
ENDBRANCH  15  21
ENDBRANCH   9  14
BRANCH  11  25
ATOM     25  O   UNL A   1      30.134  26.412  26.486  1.00  0.00    -0.507 OA
ATOM     26  H   UNL A   1      29.657  27.190  26.270  1.00  0.00     0.293 HD
ENDBRANCH  11  25
ENDBRANCH   5   8
ENDBRANCH   3   4
ENDBRANCH   2   3
ENDBRANCH   1   2
BRANCH   1  27
ATOM     27  C   UNL A   1      33.969  26.650  24.320  1.00  0.00     0.002 C 
BRANCH  27  28
ATOM     28  C   UNL A   1      33.913  28.145  24.643  1.00  0.00     0.021 C 
BRANCH  28  29
ATOM     29  C   UNL A   1      33.284  28.459  25.995  1.00  0.00     0.116 C 
BRANCH  29  30
ATOM     30  N   UNL A   1      32.984  29.877  26.119  1.00  0.00    -0.352 N 
ATOM     31  C   UNL A   1      33.505  30.803  26.983  1.00  0.00     0.251 C 
ATOM     32  H   UNL A   1      32.308  30.220  25.492  1.00  0.00     0.163 HD
ATOM     33  O   UNL A   1      32.947  31.884  27.135  1.00  0.00    -0.269 OA
BRANCH  31  34
ATOM     34  C   UNL A   1      34.744  30.502  27.729  1.00  0.00     0.039 A 
ATOM     35  C   UNL A   1      35.791  31.428  27.694  1.00  0.00     0.014 A 
ATOM     36  C   UNL A   1      34.896  29.295  28.417  1.00  0.00     0.014 A 
ATOM     37  C   UNL A   1      36.979  31.150  28.368  1.00  0.00     0.010 A 
ATOM     38  C   UNL A   1      36.049  29.057  29.158  1.00  0.00     0.010 A 
ATOM     39  C   UNL A   1      37.111  29.970  29.121  1.00  0.00    -0.014 A 
BRANCH  39  40
ATOM     40  C   UNL A   1      38.369  29.673  29.848  1.00  0.00     0.031 A 
ATOM     41  C   UNL A   1      38.620  30.268  31.205  1.00  0.00     0.074 A 
ATOM     42  C   UNL A   1      39.298  28.890  29.268  1.00  0.00     0.049 A 
ATOM     43  N   UNL A   1      39.658  30.127  31.989  1.00  0.00    -0.248 NA
ATOM     44  C   UNL A   1      37.581  31.160  31.745  1.00  0.00     0.031 C 
ATOM     45  C   UNL A   1      39.188  28.301  27.933  1.00  0.00     0.029 A 
ATOM     46  N   UNL A   1      40.515  28.453  29.726  1.00  0.00    -0.354 N 
ATOM     47  C   UNL A   1      39.403  30.920  33.100  1.00  0.00     0.074 A 
ATOM     48  C   UNL A   1      38.142  31.585  32.867  1.00  0.00     0.031 C 
ATOM     49  C   UNL A   1      40.275  27.552  27.694  1.00  0.00     0.029 A 
ATOM     50  C   UNL A   1      41.175  27.638  28.839  1.00  0.00     0.049 A 
ATOM     51  H   UNL A   1      40.881  28.701  30.606  1.00  0.00     0.167 HD
ATOM     52  C   UNL A   1      40.145  31.057  34.224  1.00  0.00     0.037 A 
ATOM     53  C   UNL A   1      42.371  27.027  28.939  1.00  0.00     0.037 A 
ATOM     54  C   UNL A   1      41.384  30.362  34.461  1.00  0.00     0.049 A 
ATOM     55  C   UNL A   1      43.169  27.181  30.205  1.00  0.00     0.074 A 
ATOM     56  C   UNL A   1      42.171  30.374  35.598  1.00  0.00     0.029 A 
ATOM     57  N   UNL A   1      42.018  29.537  33.543  1.00  0.00    -0.354 N 
ATOM     58  N   UNL A   1      42.884  27.874  31.280  1.00  0.00    -0.248 NA
ATOM     59  C   UNL A   1      44.449  26.463  30.275  1.00  0.00     0.031 C 
ATOM     60  C   UNL A   1      43.312  29.608  35.347  1.00  0.00     0.029 A 
ATOM     61  C   UNL A   1      43.203  29.060  34.078  1.00  0.00     0.049 A 
ATOM     62  H   UNL A   1      41.676  29.322  32.646  1.00  0.00     0.167 HD
ATOM     63  C   UNL A   1      43.934  27.659  32.163  1.00  0.00     0.074 A 
ATOM     64  C   UNL A   1      44.855  26.759  31.502  1.00  0.00     0.031 C 
ATOM     65  C   UNL A   1      44.115  28.165  33.408  1.00  0.00     0.037 A 
BRANCH  52  66
ATOM     66  C   UNL A   1      39.641  31.984  35.293  1.00  0.00     0.064 A 
ATOM     67  C   UNL A   1      38.727  31.529  36.255  1.00  0.00     0.173 A 
ATOM     68  C   UNL A   1      40.005  33.339  35.326  1.00  0.00     0.173 A 
ATOM     69  F   UNL A   1      38.341  30.244  36.267  1.00  0.00    -0.203 F 
ATOM     70  C   UNL A   1      38.188  32.397  37.201  1.00  0.00     0.198 A 
ATOM     71  C   UNL A   1      39.489  34.198  36.294  1.00  0.00     0.198 A 
ATOM     72  F   UNL A   1      40.884  33.826  34.436  1.00  0.00    -0.203 F 
ATOM     73  F   UNL A   1      37.289  31.945  38.088  1.00  0.00    -0.200 F 
ATOM     74  C   UNL A   1      38.573  33.729  37.224  1.00  0.00     0.200 A 
ATOM     75  F   UNL A   1      39.883  35.477  36.331  1.00  0.00    -0.200 F 
ATOM     76  F   UNL A   1      38.061  34.560  38.141  1.00  0.00    -0.200 F 
ENDBRANCH  52  66
BRANCH  53  77
ATOM     77  C   UNL A   1      42.850  26.183  27.814  1.00  0.00     0.064 A 
ATOM     78  C   UNL A   1      43.692  26.707  26.821  1.00  0.00     0.173 A 
ATOM     79  C   UNL A   1      42.425  24.855  27.677  1.00  0.00     0.173 A 
ATOM     80  F   UNL A   1      44.118  27.975  26.902  1.00  0.00    -0.203 F 
ATOM     81  C   UNL A   1      44.068  25.941  25.719  1.00  0.00     0.198 A 
ATOM     82  C   UNL A   1      42.826  24.081  26.589  1.00  0.00     0.198 A 
ATOM     83  F   UNL A   1      41.634  24.305  28.609  1.00  0.00    -0.203 F 
ATOM     84  F   UNL A   1      44.833  26.481  24.761  1.00  0.00    -0.200 F 
ATOM     85  C   UNL A   1      43.637  24.628  25.605  1.00  0.00     0.200 A 
ATOM     86  F   UNL A   1      42.424  22.806  26.493  1.00  0.00    -0.200 F 
ATOM     87  F   UNL A   1      44.001  23.891  24.547  1.00  0.00    -0.200 F 
ENDBRANCH  53  77
BRANCH  65  88
ATOM     88  C   UNL A   1      45.347  27.748  34.159  1.00  0.00     0.064 A 
ATOM     89  C   UNL A   1      46.545  28.463  34.006  1.00  0.00     0.173 A 
ATOM     90  C   UNL A   1      45.366  26.599  34.961  1.00  0.00     0.173 A 
ATOM     91  F   UNL A   1      46.585  29.565  33.241  1.00  0.00    -0.203 F 
ATOM     92  C   UNL A   1      47.721  28.031  34.615  1.00  0.00     0.198 A 
ATOM     93  C   UNL A   1      46.535  26.189  35.596  1.00  0.00     0.198 A 
ATOM     94  F   UNL A   1      44.244  25.886  35.146  1.00  0.00    -0.203 F 
ATOM     95  F   UNL A   1      48.861  28.707  34.420  1.00  0.00    -0.200 F 
ATOM     96  C   UNL A   1      47.713  26.897  35.413  1.00  0.00     0.200 A 
ATOM     97  F   UNL A   1      46.521  25.108  36.388  1.00  0.00    -0.200 F 
ATOM     98  F   UNL A   1      48.842  26.490  36.008  1.00  0.00    -0.200 F 
ENDBRANCH  65  88
ENDBRANCH  39  40
ENDBRANCH  31  34
ENDBRANCH  29  30
ENDBRANCH  28  29
ENDBRANCH  27  28
ENDBRANCH   1  27
TORSDOF 17
ENDMDL
MODEL 3
REMARK VINA RESULT:     -12.3      0.289      1.662
REMARK SMILES COC(=O)c1ccc(-c2ccc(C(=O)NCCCCCCNC(=O)c3ccc(-c4c5nc(c(-c6c(F)c(F)c(F)c(F)c6F)c6ccc([nH]6)c(-c6c(F)c(F)c(F)c(F)c6F)c6nc(c(-c7c(F)c(F)c(F)c(F)c7F)c7ccc4[nH]7)C=C6)C=C5)cc3)cc2O)cc1F
REMARK SMILES IDX 18 1 17 2 16 3 15 4 13 5 14 6 12 8 9 9 10 10 89 11 11 12
REMARK SMILES IDX 88 13 8 14 5 15 6 16 92 17 7 18 91 19 93 20 3 21 4 22 2 23
REMARK SMILES IDX 1 24 90 25 19 27 20 28 21 29 22 30 23 31 24 33 25 34 26 35
REMARK SMILES IDX 87 36 27 37 86 38 28 39 29 40 30 41 80 42 31 43 85 44 79 45
REMARK SMILES IDX 81 46 32 47 84 48 78 49 77 50 33 52 65 53 45 54 64 55 46 56
REMARK SMILES IDX 49 57 63 58 82 59 47 60 48 61 62 63 83 64 50 65 34 66 35 67
REMARK SMILES IDX 43 68 36 69 37 70 41 71 44 72 38 73 39 74 42 75 40 76 66 77
REMARK SMILES IDX 67 78 75 79 68 80 69 81 73 82 76 83 70 84 71 85 74 86 72 87
REMARK SMILES IDX 51 88 52 89 60 90 53 91 54 92 58 93 61 94 55 95 56 96 59 97
REMARK SMILES IDX 57 98
REMARK H PARENT 15 7 90 26 22 32 81 51 49 62
REMARK Flexibility Score: inf
ROOT
ATOM      1  C   UNL A   1      32.260  30.071  25.371  1.00  0.00     0.002 C 
ENDROOT
BRANCH   1   2
ATOM      2  C   UNL A   1      32.661  28.652  25.797  1.00  0.00     0.021 C 
BRANCH   2   3
ATOM      3  C   UNL A   1      31.587  27.612  25.472  1.00  0.00     0.116 C 
BRANCH   3   4
ATOM      4  N   UNL A   1      31.138  27.789  24.107  1.00  0.00    -0.352 N 
ATOM      5  C   UNL A   1      31.154  26.986  22.998  1.00  0.00     0.251 C 
ATOM      6  O   UNL A   1      30.740  27.480  21.948  1.00  0.00    -0.269 OA
ATOM      7  H   UNL A   1      30.738  28.672  23.941  1.00  0.00     0.163 HD
BRANCH   5   8
ATOM      8  C   UNL A   1      31.569  25.555  23.008  1.00  0.00     0.043 A 
ATOM      9  C   UNL A   1      32.200  22.801  23.256  1.00  0.00     0.024 A 
ATOM     10  C   UNL A   1      30.927  23.273  23.595  1.00  0.00     0.013 A 
ATOM     11  C   UNL A   1      33.130  23.723  22.754  1.00  0.00     0.124 A 
ATOM     12  C   UNL A   1      30.623  24.634  23.487  1.00  0.00     0.015 A 
ATOM     13  C   UNL A   1      32.805  25.071  22.578  1.00  0.00     0.060 A 
BRANCH   9  14
ATOM     14  C   UNL A   1      32.536  21.385  23.424  1.00  0.00    -0.012 A 
ATOM     15  C   UNL A   1      33.080  18.651  23.794  1.00  0.00     0.095 A 
ATOM     16  C   UNL A   1      33.515  19.587  24.739  1.00  0.00     0.019 A 
ATOM     17  C   UNL A   1      32.374  19.082  22.673  1.00  0.00     0.138 A 
ATOM     18  C   UNL A   1      33.250  20.946  24.549  1.00  0.00     0.010 A 
ATOM     19  C   UNL A   1      32.107  20.436  22.483  1.00  0.00     0.049 A 
ATOM     20  F   UNL A   1      31.897  18.214  21.770  1.00  0.00    -0.206 F 
BRANCH  15  21
ATOM     21  C   UNL A   1      33.348  17.222  24.046  1.00  0.00     0.340 C 
ATOM     22  O   UNL A   1      34.146  16.569  23.395  1.00  0.00    -0.246 OA
BRANCH  21  23
ATOM     23  O   UNL A   1      32.537  16.757  25.024  1.00  0.00    -0.465 OA
ATOM     24  C   UNL A   1      32.706  15.369  25.309  1.00  0.00     0.282 C 
ENDBRANCH  21  23
ENDBRANCH  15  21
ENDBRANCH   9  14
BRANCH  11  25
ATOM     25  O   UNL A   1      34.387  23.287  22.428  1.00  0.00    -0.507 OA
ATOM     26  H   UNL A   1      35.129  23.585  22.917  1.00  0.00     0.293 HD
ENDBRANCH  11  25
ENDBRANCH   5   8
ENDBRANCH   3   4
ENDBRANCH   2   3
ENDBRANCH   1   2
BRANCH   1  27
ATOM     27  C   UNL A   1      31.144  30.697  26.219  1.00  0.00     0.002 C 
BRANCH  27  28
ATOM     28  C   UNL A   1      31.269  32.209  26.418  1.00  0.00     0.021 C 
BRANCH  28  29
ATOM     29  C   UNL A   1      32.575  32.638  27.077  1.00  0.00     0.116 C 
BRANCH  29  30
ATOM     30  N   UNL A   1      32.492  34.003  27.570  1.00  0.00    -0.352 N 
ATOM     31  C   UNL A   1      33.154  34.592  28.614  1.00  0.00     0.251 C 
ATOM     32  H   UNL A   1      31.869  34.589  27.082  1.00  0.00     0.163 HD
ATOM     33  O   UNL A   1      32.766  35.666  29.061  1.00  0.00    -0.269 OA
BRANCH  31  34
ATOM     34  C   UNL A   1      34.341  33.936  29.200  1.00  0.00     0.039 A 
ATOM     35  C   UNL A   1      34.167  33.092  30.300  1.00  0.00     0.014 A 
ATOM     36  C   UNL A   1      35.623  34.190  28.704  1.00  0.00     0.014 A 
ATOM     37  C   UNL A   1      35.277  32.484  30.885  1.00  0.00     0.010 A 
ATOM     38  C   UNL A   1      36.719  33.518  29.236  1.00  0.00     0.010 A 
ATOM     39  C   UNL A   1      36.561  32.679  30.347  1.00  0.00    -0.014 A 
BRANCH  39  40
ATOM     40  C   UNL A   1      37.745  32.029  30.959  1.00  0.00     0.031 A 
ATOM     41  C   UNL A   1      38.194  32.416  32.339  1.00  0.00     0.074 A 
ATOM     42  C   UNL A   1      38.432  31.111  30.253  1.00  0.00     0.049 A 
ATOM     43  N   UNL A   1      39.207  31.964  33.035  1.00  0.00    -0.248 NA
ATOM     44  C   UNL A   1      37.424  33.469  33.021  1.00  0.00     0.031 C 
ATOM     45  C   UNL A   1      38.122  30.696  28.885  1.00  0.00     0.029 A 
ATOM     46  N   UNL A   1      39.532  30.362  30.589  1.00  0.00    -0.354 N 
ATOM     47  C   UNL A   1      39.200  32.683  34.223  1.00  0.00     0.074 A 
ATOM     48  C   UNL A   1      38.124  33.642  34.133  1.00  0.00     0.031 C 
ATOM     49  C   UNL A   1      38.988  29.741  28.510  1.00  0.00     0.029 A 
ATOM     50  C   UNL A   1      39.936  29.505  29.594  1.00  0.00     0.049 A 
ATOM     51  H   UNL A   1      39.988  30.432  31.459  1.00  0.00     0.167 HD
ATOM     52  C   UNL A   1      40.006  32.535  35.300  1.00  0.00     0.037 A 
ATOM     53  C   UNL A   1      40.957  28.626  29.561  1.00  0.00     0.037 A 
ATOM     54  C   UNL A   1      41.055  31.553  35.393  1.00  0.00     0.049 A 
ATOM     55  C   UNL A   1      41.828  28.469  30.776  1.00  0.00     0.074 A 
ATOM     56  C   UNL A   1      41.876  31.273  36.470  1.00  0.00     0.029 A 
ATOM     57  N   UNL A   1      41.430  30.695  34.369  1.00  0.00    -0.354 N 
ATOM     58  N   UNL A   1      41.767  29.102  31.922  1.00  0.00    -0.248 NA
ATOM     59  C   UNL A   1      42.902  27.470  30.699  1.00  0.00     0.031 C 
ATOM     60  C   UNL A   1      42.789  30.291  36.078  1.00  0.00     0.029 A 
ATOM     61  C   UNL A   1      42.493  29.907  34.779  1.00  0.00     0.049 A 
ATOM     62  H   UNL A   1      41.004  30.653  33.482  1.00  0.00     0.167 HD
ATOM     63  C   UNL A   1      42.777  28.566  32.710  1.00  0.00     0.074 A 
ATOM     64  C   UNL A   1      43.426  27.544  31.914  1.00  0.00     0.031 C 
ATOM     65  C   UNL A   1      43.132  28.894  33.976  1.00  0.00     0.037 A 
BRANCH  52  66
ATOM     66  C   UNL A   1      39.789  33.447  36.474  1.00  0.00     0.064 A 
ATOM     67  C   UNL A   1      38.879  33.100  37.484  1.00  0.00     0.173 A 
ATOM     68  C   UNL A   1      40.425  34.695  36.567  1.00  0.00     0.173 A 
ATOM     69  F   UNL A   1      38.239  31.922  37.442  1.00  0.00    -0.203 F 
ATOM     70  C   UNL A   1      38.604  33.972  38.534  1.00  0.00     0.198 A 
ATOM     71  C   UNL A   1      40.173  35.550  37.637  1.00  0.00     0.198 A 
ATOM     72  F   UNL A   1      41.313  35.073  35.635  1.00  0.00    -0.203 F 
ATOM     73  F   UNL A   1      37.704  33.632  39.468  1.00  0.00    -0.200 F 
ATOM     74  C   UNL A   1      39.256  35.193  38.614  1.00  0.00     0.200 A 
ATOM     75  F   UNL A   1      40.824  36.718  37.727  1.00  0.00    -0.200 F 
ATOM     76  F   UNL A   1      38.999  36.026  39.632  1.00  0.00    -0.200 F 
ENDBRANCH  52  66
BRANCH  53  77
ATOM     77  C   UNL A   1      41.167  27.807  28.340  1.00  0.00     0.064 A 
ATOM     78  C   UNL A   1      40.518  26.575  28.171  1.00  0.00     0.173 A 
ATOM     79  C   UNL A   1      42.068  28.212  27.345  1.00  0.00     0.173 A 
ATOM     80  F   UNL A   1      39.653  26.138  29.098  1.00  0.00    -0.203 F 
ATOM     81  C   UNL A   1      40.783  25.766  27.067  1.00  0.00     0.198 A 
ATOM     82  C   UNL A   1      42.311  27.415  26.228  1.00  0.00     0.198 A 
ATOM     83  F   UNL A   1      42.700  29.389  27.454  1.00  0.00    -0.203 F 
ATOM     84  F   UNL A   1      40.186  24.572  26.955  1.00  0.00    -0.200 F 
ATOM     85  C   UNL A   1      41.678  26.188  26.096  1.00  0.00     0.200 A 
ATOM     86  F   UNL A   1      43.161  27.836  25.281  1.00  0.00    -0.200 F 
ATOM     87  F   UNL A   1      41.931  25.412  25.033  1.00  0.00    -0.200 F 
ENDBRANCH  53  77
BRANCH  65  88
ATOM     88  C   UNL A   1      44.265  28.132  34.603  1.00  0.00     0.064 A 
ATOM     89  C   UNL A   1      44.014  26.958  35.329  1.00  0.00     0.173 A 
ATOM     90  C   UNL A   1      45.584  28.607  34.557  1.00  0.00     0.173 A 
ATOM     91  F   UNL A   1      42.768  26.467  35.414  1.00  0.00    -0.203 F 
ATOM     92  C   UNL A   1      45.039  26.296  36.000  1.00  0.00     0.198 A 
ATOM     93  C   UNL A   1      46.613  27.923  35.200  1.00  0.00     0.198 A 
ATOM     94  F   UNL A   1      45.878  29.720  33.868  1.00  0.00    -0.203 F 
ATOM     95  F   UNL A   1      44.767  25.200  36.721  1.00  0.00    -0.200 F 
ATOM     96  C   UNL A   1      46.338  26.777  35.931  1.00  0.00     0.200 A 
ATOM     97  F   UNL A   1      47.872  28.374  35.111  1.00  0.00    -0.200 F 
ATOM     98  F   UNL A   1      47.325  26.132  36.567  1.00  0.00    -0.200 F 
ENDBRANCH  65  88
ENDBRANCH  39  40
ENDBRANCH  31  34
ENDBRANCH  29  30
ENDBRANCH  28  29
ENDBRANCH  27  28
ENDBRANCH   1  27
TORSDOF 17
ENDMDL
