MODEL 1
REMARK VINA RESULT:     -10.8      0.000      0.000
REMARK SMILES O=C(NCCCCCCNC(=O)c1cc(-c2ccc(Cl)cc2)nc2c3c(C4CC4)cc(C(F)(F)F)nc3nn12)c1ccc(-c2c3nc(c(-c4c(F)c(F)c(F)c(F)c4F)c4ccc([nH]4)c(-c4c(F)c(F)c(F)c(F)c4F)c4nc(c(-c5c(F)c(F)c(F)c(F)c5F)c5ccc2[nH]5)C=C4)C=C3)cc1
REMARK SMILES IDX 6 1 5 2 4 3 3 4 1 5 2 6 40 8 41 9 102 10 42 11 101 12 43 13
REMARK SMILES IDX 44 14 45 15 95 16 46 17 100 18 94 19 96 20 47 21 99 22 93 23
REMARK SMILES IDX 92 24 48 26 80 27 60 28 79 29 61 30 64 31 78 32 97 33 62 34
REMARK SMILES IDX 63 35 77 37 98 38 65 39 49 40 50 41 58 42 51 43 52 44 56 45
REMARK SMILES IDX 59 46 53 47 54 48 57 49 55 50 81 51 82 52 90 53 83 54 84 55
REMARK SMILES IDX 88 56 91 57 85 58 86 59 89 60 87 61 66 62 67 63 75 64 68 65
REMARK SMILES IDX 69 66 73 67 76 68 70 69 71 70 74 71 72 72 7 73 8 74 9 75
REMARK SMILES IDX 10 76 11 77 12 79 13 80 14 81 39 82 15 83 24 84 38 85 23 86
REMARK SMILES IDX 25 87 37 88 26 89 36 90 30 91 31 92 16 93 17 94 22 95 18 96
REMARK SMILES IDX 21 97 19 98 20 99 27 100 28 101 29 102 32 103 33 104 34 105
REMARK SMILES IDX 35 106
REMARK H PARENT 3 7 96 25 64 36 10 78
REMARK Flexibility Score: inf
ROOT
ATOM      1  C   UNL A   1      41.643  27.280  34.684  1.00  0.00     0.002 C 
ENDROOT
BRANCH   1   2
ATOM      2  C   UNL A   1      41.895  26.315  35.843  1.00  0.00     0.021 C 
BRANCH   2   3
ATOM      3  C   UNL A   1      41.901  24.843  35.447  1.00  0.00     0.116 C 
BRANCH   3   4
ATOM      4  N   UNL A   1      42.878  24.060  36.189  1.00  0.00    -0.352 N 
ATOM      5  O   UNL A   1      44.903  23.069  36.506  1.00  0.00    -0.269 OA
ATOM      6  C   UNL A   1      44.176  23.771  35.827  1.00  0.00     0.251 C 
ATOM      7  H   UNL A   1      42.576  23.694  37.050  1.00  0.00     0.163 HD
BRANCH   6   8
ATOM      8  C   UNL A   1      44.648  24.328  34.550  1.00  0.00     0.039 A 
ATOM      9  C   UNL A   1      45.331  25.548  34.549  1.00  0.00     0.014 A 
ATOM     10  C   UNL A   1      44.217  23.726  33.367  1.00  0.00     0.014 A 
ATOM     11  C   UNL A   1      45.472  26.237  33.352  1.00  0.00     0.010 A 
ATOM     12  C   UNL A   1      44.394  24.402  32.167  1.00  0.00     0.010 A 
ATOM     13  C   UNL A   1      44.976  25.679  32.164  1.00  0.00    -0.014 A 
BRANCH  13  14
ATOM     14  C   UNL A   1      45.071  26.506  30.948  1.00  0.00     0.031 A 
ATOM     15  C   UNL A   1      44.880  25.731  29.678  1.00  0.00     0.074 A 
ATOM     16  C   UNL A   1      44.522  27.738  31.006  1.00  0.00     0.049 A 
ATOM     17  N   UNL A   1      43.754  25.468  29.082  1.00  0.00    -0.248 NA
ATOM     18  C   UNL A   1      46.030  25.009  29.126  1.00  0.00     0.031 C 
ATOM     19  C   UNL A   1      43.148  28.028  31.424  1.00  0.00     0.029 A 
ATOM     20  N   UNL A   1      44.977  28.913  30.444  1.00  0.00    -0.354 N 
ATOM     21  C   UNL A   1      44.030  24.513  28.115  1.00  0.00     0.074 A 
ATOM     22  C   UNL A   1      45.453  24.264  28.176  1.00  0.00     0.031 C 
ATOM     23  C   UNL A   1      42.814  29.253  30.979  1.00  0.00     0.029 A 
ATOM     24  C   UNL A   1      43.958  29.851  30.294  1.00  0.00     0.049 A 
ATOM     25  H   UNL A   1      45.912  29.071  30.179  1.00  0.00     0.167 HD
ATOM     26  C   UNL A   1      43.096  23.955  27.302  1.00  0.00     0.037 A 
ATOM     27  C   UNL A   1      43.890  30.743  29.268  1.00  0.00     0.037 A 
ATOM     28  C   UNL A   1      41.763  24.447  27.430  1.00  0.00     0.049 A 
ATOM     29  C   UNL A   1      43.132  29.933  28.243  1.00  0.00     0.074 A 
ATOM     30  C   UNL A   1      40.599  24.066  28.059  1.00  0.00     0.029 A 
ATOM     31  N   UNL A   1      41.452  25.623  26.791  1.00  0.00    -0.354 N 
ATOM     32  N   UNL A   1      41.840  29.740  28.190  1.00  0.00    -0.248 NA
ATOM     33  C   UNL A   1      43.920  28.987  27.447  1.00  0.00     0.031 C 
ATOM     34  C   UNL A   1      39.794  25.245  28.122  1.00  0.00     0.029 A 
ATOM     35  C   UNL A   1      40.547  26.285  27.577  1.00  0.00     0.049 A 
ATOM     36  H   UNL A   1      41.813  25.933  25.928  1.00  0.00     0.167 HD
ATOM     37  C   UNL A   1      41.685  28.481  27.601  1.00  0.00     0.074 A 
ATOM     38  C   UNL A   1      42.992  28.106  27.105  1.00  0.00     0.031 C 
ATOM     39  C   UNL A   1      40.563  27.719  27.748  1.00  0.00     0.037 A 
BRANCH  26  40
ATOM     40  C   UNL A   1      43.408  23.008  26.215  1.00  0.00     0.064 A 
ATOM     41  C   UNL A   1      43.219  21.638  26.450  1.00  0.00     0.173 A 
ATOM     42  C   UNL A   1      44.053  23.398  25.039  1.00  0.00     0.173 A 
ATOM     43  F   UNL A   1      42.599  21.230  27.570  1.00  0.00    -0.203 F 
ATOM     44  C   UNL A   1      43.704  20.686  25.563  1.00  0.00     0.198 A 
ATOM     45  C   UNL A   1      44.532  22.440  24.145  1.00  0.00     0.198 A 
ATOM     46  F   UNL A   1      44.256  24.697  24.777  1.00  0.00    -0.203 F 
ATOM     47  F   UNL A   1      43.549  19.383  25.836  1.00  0.00    -0.200 F 
ATOM     48  C   UNL A   1      44.371  21.087  24.416  1.00  0.00     0.200 A 
ATOM     49  F   UNL A   1      45.175  22.824  23.035  1.00  0.00    -0.200 F 
ATOM     50  F   UNL A   1      44.866  20.168  23.576  1.00  0.00    -0.200 F 
ENDBRANCH  26  40
BRANCH  27  51
ATOM     51  C   UNL A   1      45.142  31.513  28.984  1.00  0.00     0.064 A 
ATOM     52  C   UNL A   1      46.031  31.760  30.056  1.00  0.00     0.173 A 
ATOM     53  C   UNL A   1      45.540  31.998  27.731  1.00  0.00     0.173 A 
ATOM     54  F   UNL A   1      45.683  31.432  31.310  1.00  0.00    -0.203 F 
ATOM     55  C   UNL A   1      47.291  32.324  29.857  1.00  0.00     0.198 A 
ATOM     56  C   UNL A   1      46.811  32.542  27.528  1.00  0.00     0.198 A 
ATOM     57  F   UNL A   1      44.722  31.937  26.674  1.00  0.00    -0.203 F 
ATOM     58  F   UNL A   1      48.121  32.488  30.896  1.00  0.00    -0.200 F 
ATOM     59  C   UNL A   1      47.694  32.683  28.585  1.00  0.00     0.200 A 
ATOM     60  F   UNL A   1      47.189  32.899  26.293  1.00  0.00    -0.200 F 
ATOM     61  F   UNL A   1      48.926  33.165  28.377  1.00  0.00    -0.200 F 
ENDBRANCH  27  51
BRANCH  39  62
ATOM     62  C   UNL A   1      39.401  28.398  28.382  1.00  0.00     0.064 A 
ATOM     63  C   UNL A   1      38.569  29.225  27.618  1.00  0.00     0.173 A 
ATOM     64  C   UNL A   1      39.073  28.192  29.730  1.00  0.00     0.173 A 
ATOM     65  F   UNL A   1      38.837  29.442  26.320  1.00  0.00    -0.203 F 
ATOM     66  C   UNL A   1      37.434  29.803  28.176  1.00  0.00     0.198 A 
ATOM     67  C   UNL A   1      37.922  28.748  30.277  1.00  0.00     0.198 A 
ATOM     68  F   UNL A   1      39.847  27.426  30.515  1.00  0.00    -0.203 F 
ATOM     69  F   UNL A   1      36.642  30.581  27.425  1.00  0.00    -0.200 F 
ATOM     70  C   UNL A   1      37.103  29.551  29.500  1.00  0.00     0.200 A 
ATOM     71  F   UNL A   1      37.588  28.480  31.547  1.00  0.00    -0.200 F 
ATOM     72  F   UNL A   1      35.981  30.069  30.020  1.00  0.00    -0.200 F 
ENDBRANCH  39  62
ENDBRANCH  13  14
ENDBRANCH   6   8
ENDBRANCH   3   4
ENDBRANCH   2   3
ENDBRANCH   1   2
BRANCH   1  73
ATOM     73  C   UNL A   1      42.132  28.717  34.905  1.00  0.00     0.002 C 
BRANCH  73  74
ATOM     74  C   UNL A   1      41.172  29.638  35.670  1.00  0.00     0.021 C 
BRANCH  74  75
ATOM     75  C   UNL A   1      40.037  30.219  34.835  1.00  0.00     0.116 C 
BRANCH  75  76
ATOM     76  N   UNL A   1      39.351  31.291  35.536  1.00  0.00    -0.351 N 
ATOM     77  C   UNL A   1      38.966  32.515  35.082  1.00  0.00     0.270 C 
ATOM     78  H   UNL A   1      39.134  31.104  36.477  1.00  0.00     0.163 HD
ATOM     79  O   UNL A   1      38.479  33.330  35.863  1.00  0.00    -0.268 OA
BRANCH  77  80
ATOM     80  C   UNL A   1      39.233  32.887  33.681  1.00  0.00     0.134 A 
ATOM     81  C   UNL A   1      38.161  32.905  32.876  1.00  0.00     0.063 A 
ATOM     82  N   UNL A   1      40.499  33.192  33.188  1.00  0.00    -0.207 N 
ATOM     83  C   UNL A   1      38.436  33.257  31.456  1.00  0.00     0.075 A 
ATOM     84  C   UNL A   1      40.663  33.579  31.841  1.00  0.00     0.166 A 
ATOM     85  N   UNL A   1      41.668  33.200  33.872  1.00  0.00    -0.145 NA
ATOM     86  N   UNL A   1      39.601  33.571  30.965  1.00  0.00    -0.228 NA
ATOM     87  C   UNL A   1      41.994  33.938  31.731  1.00  0.00     0.069 A 
ATOM     88  C   UNL A   1      42.558  33.676  33.014  1.00  0.00     0.184 A 
ATOM     89  C   UNL A   1      42.671  34.461  30.617  1.00  0.00    -0.028 A 
ATOM     90  N   UNL A   1      43.856  33.913  33.309  1.00  0.00    -0.222 NA
ATOM     91  C   UNL A   1      44.023  34.691  30.963  1.00  0.00     0.038 A 
ATOM     92  C   UNL A   1      44.564  34.425  32.256  1.00  0.00     0.147 A 
BRANCH  83  93
ATOM     93  C   UNL A   1      37.241  33.183  30.587  1.00  0.00     0.000 A 
ATOM     94  C   UNL A   1      35.985  33.029  31.182  1.00  0.00     0.012 A 
ATOM     95  C   UNL A   1      37.360  33.378  29.206  1.00  0.00     0.012 A 
ATOM     96  C   UNL A   1      34.837  33.104  30.389  1.00  0.00     0.021 A 
ATOM     97  C   UNL A   1      36.209  33.442  28.418  1.00  0.00     0.021 A 
ATOM     98  C   UNL A   1      34.953  33.316  29.014  1.00  0.00     0.041 A 
ATOM     99  Cl  UNL A   1      33.536  33.441  28.046  1.00  0.00    -0.084 Cl
ENDBRANCH  83  93
BRANCH  89 100
ATOM    100  C   UNL A   1      42.017  34.721  29.297  1.00  0.00     0.020 C 
ATOM    101  C   UNL A   1      41.868  36.114  28.727  1.00  0.00     0.009 C 
ATOM    102  C   UNL A   1      42.872  35.171  28.135  1.00  0.00     0.009 C 
ENDBRANCH  89 100
BRANCH  92 103
ATOM    103  C   UNL A   1      46.048  34.700  32.492  1.00  0.00     0.433 C 
ATOM    104  F   UNL A   1      46.727  33.627  32.994  1.00  0.00    -0.165 F 
ATOM    105  F   UNL A   1      46.706  35.064  31.355  1.00  0.00    -0.165 F 
ATOM    106  F   UNL A   1      46.273  35.713  33.381  1.00  0.00    -0.165 F 
ENDBRANCH  92 103
ENDBRANCH  77  80
ENDBRANCH  75  76
ENDBRANCH  74  75
ENDBRANCH  73  74
ENDBRANCH   1  73
TORSDOF 16
ENDMDL
MODEL 2
REMARK VINA RESULT:     -10.7      3.889     11.785
REMARK SMILES O=C(NCCCCCCNC(=O)c1cc(-c2ccc(Cl)cc2)nc2c3c(C4CC4)cc(C(F)(F)F)nc3nn12)c1ccc(-c2c3nc(c(-c4c(F)c(F)c(F)c(F)c4F)c4ccc([nH]4)c(-c4c(F)c(F)c(F)c(F)c4F)c4nc(c(-c5c(F)c(F)c(F)c(F)c5F)c5ccc2[nH]5)C=C4)C=C3)cc1
REMARK SMILES IDX 6 1 5 2 4 3 3 4 1 5 2 6 40 8 41 9 102 10 42 11 101 12 43 13
REMARK SMILES IDX 44 14 45 15 95 16 46 17 100 18 94 19 96 20 47 21 99 22 93 23
REMARK SMILES IDX 92 24 48 26 80 27 60 28 79 29 61 30 64 31 78 32 97 33 62 34
REMARK SMILES IDX 63 35 77 37 98 38 65 39 49 40 50 41 58 42 51 43 52 44 56 45
REMARK SMILES IDX 59 46 53 47 54 48 57 49 55 50 81 51 82 52 90 53 83 54 84 55
REMARK SMILES IDX 88 56 91 57 85 58 86 59 89 60 87 61 66 62 67 63 75 64 68 65
REMARK SMILES IDX 69 66 73 67 76 68 70 69 71 70 74 71 72 72 7 73 8 74 9 75
REMARK SMILES IDX 10 76 11 77 12 79 13 80 14 81 39 82 15 83 24 84 38 85 23 86
REMARK SMILES IDX 25 87 37 88 26 89 36 90 30 91 31 92 16 93 17 94 22 95 18 96
REMARK SMILES IDX 21 97 19 98 20 99 27 100 28 101 29 102 32 103 33 104 34 105
REMARK SMILES IDX 35 106
REMARK H PARENT 3 7 96 25 64 36 10 78
REMARK Flexibility Score: inf
ROOT
ATOM      1  C   UNL A   1      43.891  32.589  26.691  1.00  0.00     0.002 C 
ENDROOT
BRANCH   1   2
ATOM      2  C   UNL A   1      44.520  33.728  25.889  1.00  0.00     0.021 C 
BRANCH   2   3
ATOM      3  C   UNL A   1      45.206  34.793  26.738  1.00  0.00     0.116 C 
BRANCH   3   4
ATOM      4  N   UNL A   1      44.761  36.142  26.424  1.00  0.00    -0.352 N 
ATOM      5  O   UNL A   1      43.470  37.997  26.704  1.00  0.00    -0.269 OA
ATOM      6  C   UNL A   1      43.799  36.884  27.074  1.00  0.00     0.251 C 
ATOM      7  H   UNL A   1      45.199  36.575  25.657  1.00  0.00     0.163 HD
BRANCH   6   8
ATOM      8  C   UNL A   1      43.148  36.256  28.234  1.00  0.00     0.039 A 
ATOM      9  C   UNL A   1      43.887  36.055  29.404  1.00  0.00     0.014 A 
ATOM     10  C   UNL A   1      41.883  35.695  28.059  1.00  0.00     0.014 A 
ATOM     11  C   UNL A   1      43.403  35.173  30.360  1.00  0.00     0.010 A 
ATOM     12  C   UNL A   1      41.385  34.843  29.036  1.00  0.00     0.010 A 
ATOM     13  C   UNL A   1      42.165  34.543  30.163  1.00  0.00    -0.014 A 
BRANCH  13  14
ATOM     14  C   UNL A   1      41.758  33.545  31.168  1.00  0.00     0.031 A 
ATOM     15  C   UNL A   1      40.279  33.511  31.415  1.00  0.00     0.074 A 
ATOM     16  C   UNL A   1      42.406  32.361  31.148  1.00  0.00     0.049 A 
ATOM     17  N   UNL A   1      39.391  32.816  30.764  1.00  0.00    -0.248 NA
ATOM     18  C   UNL A   1      39.706  34.494  32.340  1.00  0.00     0.031 C 
ATOM     19  C   UNL A   1      42.563  31.507  29.969  1.00  0.00     0.029 A 
ATOM     20  N   UNL A   1      42.794  31.571  32.211  1.00  0.00    -0.354 N 
ATOM     21  C   UNL A   1      38.150  33.299  31.149  1.00  0.00     0.074 A 
ATOM     22  C   UNL A   1      38.395  34.332  32.130  1.00  0.00     0.031 C 
ATOM     23  C   UNL A   1      42.876  30.264  30.377  1.00  0.00     0.029 A 
ATOM     24  C   UNL A   1      42.993  30.245  31.834  1.00  0.00     0.049 A 
ATOM     25  H   UNL A   1      42.915  31.904  33.130  1.00  0.00     0.167 HD
ATOM     26  C   UNL A   1      36.967  32.846  30.658  1.00  0.00     0.037 A 
ATOM     27  C   UNL A   1      42.729  29.178  32.636  1.00  0.00     0.037 A 
ATOM     28  C   UNL A   1      37.033  31.762  29.733  1.00  0.00     0.049 A 
ATOM     29  C   UNL A   1      41.277  28.929  32.303  1.00  0.00     0.074 A 
ATOM     30  C   UNL A   1      37.000  31.593  28.367  1.00  0.00     0.029 A 
ATOM     31  N   UNL A   1      37.175  30.495  30.245  1.00  0.00    -0.354 N 
ATOM     32  N   UNL A   1      40.805  28.292  31.263  1.00  0.00    -0.248 NA
ATOM     33  C   UNL A   1      40.295  29.769  32.997  1.00  0.00     0.031 C 
ATOM     34  C   UNL A   1      37.558  30.298  28.128  1.00  0.00     0.029 A 
ATOM     35  C   UNL A   1      37.950  29.787  29.364  1.00  0.00     0.049 A 
ATOM     36  H   UNL A   1      36.792  30.158  31.087  1.00  0.00     0.167 HD
ATOM     37  C   UNL A   1      39.563  28.884  31.008  1.00  0.00     0.074 A 
ATOM     38  C   UNL A   1      39.280  29.730  32.147  1.00  0.00     0.031 C 
ATOM     39  C   UNL A   1      38.944  28.830  29.794  1.00  0.00     0.037 A 
BRANCH  26  40
ATOM     40  C   UNL A   1      35.647  33.299  31.136  1.00  0.00     0.064 A 
ATOM     41  C   UNL A   1      34.985  34.302  30.414  1.00  0.00     0.173 A 
ATOM     42  C   UNL A   1      35.119  32.909  32.369  1.00  0.00     0.173 A 
ATOM     43  F   UNL A   1      35.464  34.698  29.223  1.00  0.00    -0.203 F 
ATOM     44  C   UNL A   1      33.858  34.930  30.930  1.00  0.00     0.198 A 
ATOM     45  C   UNL A   1      33.983  33.535  32.881  1.00  0.00     0.198 A 
ATOM     46  F   UNL A   1      35.723  31.955  33.093  1.00  0.00    -0.203 F 
ATOM     47  F   UNL A   1      33.272  35.917  30.238  1.00  0.00    -0.200 F 
ATOM     48  C   UNL A   1      33.364  34.555  32.169  1.00  0.00     0.200 A 
ATOM     49  F   UNL A   1      33.502  33.173  34.078  1.00  0.00    -0.200 F 
ATOM     50  F   UNL A   1      32.297  35.183  32.680  1.00  0.00    -0.200 F 
ENDBRANCH  26  40
BRANCH  27  51
ATOM     51  C   UNL A   1      43.280  29.249  34.026  1.00  0.00     0.064 A 
ATOM     52  C   UNL A   1      44.302  28.341  34.386  1.00  0.00     0.173 A 
ATOM     53  C   UNL A   1      42.895  30.164  35.015  1.00  0.00     0.173 A 
ATOM     54  F   UNL A   1      44.658  27.357  33.544  1.00  0.00    -0.203 F 
ATOM     55  C   UNL A   1      44.986  28.438  35.598  1.00  0.00     0.198 A 
ATOM     56  C   UNL A   1      43.595  30.277  36.219  1.00  0.00     0.198 A 
ATOM     57  F   UNL A   1      41.852  30.983  34.832  1.00  0.00    -0.203 F 
ATOM     58  F   UNL A   1      45.985  27.589  35.872  1.00  0.00    -0.200 F 
ATOM     59  C   UNL A   1      44.653  29.431  36.500  1.00  0.00     0.200 A 
ATOM     60  F   UNL A   1      43.257  31.234  37.094  1.00  0.00    -0.200 F 
ATOM     61  F   UNL A   1      45.348  29.571  37.637  1.00  0.00    -0.200 F 
ENDBRANCH  27  51
BRANCH  39  62
ATOM     62  C   UNL A   1      39.550  27.902  28.802  1.00  0.00     0.064 A 
ATOM     63  C   UNL A   1      39.308  26.526  28.889  1.00  0.00     0.173 A 
ATOM     64  C   UNL A   1      40.325  28.373  27.731  1.00  0.00     0.173 A 
ATOM     65  F   UNL A   1      38.562  26.032  29.890  1.00  0.00    -0.203 F 
ATOM     66  C   UNL A   1      39.801  25.655  27.923  1.00  0.00     0.198 A 
ATOM     67  C   UNL A   1      40.792  27.502  26.753  1.00  0.00     0.198 A 
ATOM     68  F   UNL A   1      40.606  29.679  27.610  1.00  0.00    -0.203 F 
ATOM     69  F   UNL A   1      39.547  24.342  28.016  1.00  0.00    -0.200 F 
ATOM     70  C   UNL A   1      40.529  26.145  26.849  1.00  0.00     0.200 A 
ATOM     71  F   UNL A   1      41.470  27.981  25.700  1.00  0.00    -0.200 F 
ATOM     72  F   UNL A   1      40.959  25.308  25.893  1.00  0.00    -0.200 F 
ENDBRANCH  39  62
ENDBRANCH  13  14
ENDBRANCH   6   8
ENDBRANCH   3   4
ENDBRANCH   2   3
ENDBRANCH   1   2
BRANCH   1  73
ATOM     73  C   UNL A   1      44.645  31.254  26.642  1.00  0.00     0.002 C 
BRANCH  73  74
ATOM     74  C   UNL A   1      43.795  29.998  26.870  1.00  0.00     0.021 C 
BRANCH  74  75
ATOM     75  C   UNL A   1      44.586  28.700  26.992  1.00  0.00     0.116 C 
BRANCH  75  76
ATOM     76  N   UNL A   1      44.747  28.300  28.380  1.00  0.00    -0.351 N 
ATOM     77  C   UNL A   1      45.243  27.142  28.895  1.00  0.00     0.270 C 
ATOM     78  H   UNL A   1      44.454  28.964  29.044  1.00  0.00     0.163 HD
ATOM     79  O   UNL A   1      45.207  26.949  30.108  1.00  0.00    -0.268 OA
BRANCH  77  80
ATOM     80  C   UNL A   1      45.723  26.088  27.983  1.00  0.00     0.134 A 
ATOM     81  C   UNL A   1      46.988  26.226  27.559  1.00  0.00     0.063 A 
ATOM     82  N   UNL A   1      44.942  25.017  27.558  1.00  0.00    -0.207 N 
ATOM     83  C   UNL A   1      47.463  25.174  26.619  1.00  0.00     0.075 A 
ATOM     84  C   UNL A   1      45.492  24.028  26.716  1.00  0.00     0.166 A 
ATOM     85  N   UNL A   1      43.655  24.756  27.886  1.00  0.00    -0.145 NA
ATOM     86  N   UNL A   1      46.770  24.146  26.219  1.00  0.00    -0.228 NA
ATOM     87  C   UNL A   1      44.508  23.061  26.609  1.00  0.00     0.069 A 
ATOM     88  C   UNL A   1      43.402  23.573  27.347  1.00  0.00     0.184 A 
ATOM     89  C   UNL A   1      44.560  21.829  25.938  1.00  0.00    -0.028 A 
ATOM     90  N   UNL A   1      42.236  22.901  27.488  1.00  0.00    -0.222 NA
ATOM     91  C   UNL A   1      43.326  21.158  26.105  1.00  0.00     0.038 A 
ATOM     92  C   UNL A   1      42.233  21.689  26.853  1.00  0.00     0.147 A 
BRANCH  83  93
ATOM     93  C   UNL A   1      48.832  25.411  26.112  1.00  0.00     0.000 A 
ATOM     94  C   UNL A   1      48.995  26.105  24.909  1.00  0.00     0.012 A 
ATOM     95  C   UNL A   1      49.943  25.045  26.882  1.00  0.00     0.012 A 
ATOM     96  C   UNL A   1      50.279  26.463  24.492  1.00  0.00     0.021 A 
ATOM     97  C   UNL A   1      51.224  25.397  26.455  1.00  0.00     0.021 A 
ATOM     98  C   UNL A   1      51.386  26.115  25.268  1.00  0.00     0.041 A 
ATOM     99  Cl  UNL A   1      52.963  26.587  24.769  1.00  0.00    -0.084 Cl
ENDBRANCH  83  93
BRANCH  89 100
ATOM    100  C   UNL A   1      45.759  21.344  25.186  1.00  0.00     0.020 C 
ATOM    101  C   UNL A   1      46.327  19.955  25.373  1.00  0.00     0.009 C 
ATOM    102  C   UNL A   1      45.575  20.289  24.120  1.00  0.00     0.009 C 
ENDBRANCH  89 100
BRANCH  92 103
ATOM    103  C   UNL A   1      40.946  20.870  26.937  1.00  0.00     0.433 C 
ATOM    104  F   UNL A   1      40.634  20.226  25.775  1.00  0.00    -0.165 F 
ATOM    105  F   UNL A   1      40.994  19.908  27.901  1.00  0.00    -0.165 F 
ATOM    106  F   UNL A   1      39.846  21.626  27.233  1.00  0.00    -0.165 F 
ENDBRANCH  92 103
ENDBRANCH  77  80
ENDBRANCH  75  76
ENDBRANCH  74  75
ENDBRANCH  73  74
ENDBRANCH   1  73
TORSDOF 16
ENDMDL
MODEL 3
REMARK VINA RESULT:     -10.7      3.458     10.495
REMARK SMILES O=C(NCCCCCCNC(=O)c1cc(-c2ccc(Cl)cc2)nc2c3c(C4CC4)cc(C(F)(F)F)nc3nn12)c1ccc(-c2c3nc(c(-c4c(F)c(F)c(F)c(F)c4F)c4ccc([nH]4)c(-c4c(F)c(F)c(F)c(F)c4F)c4nc(c(-c5c(F)c(F)c(F)c(F)c5F)c5ccc2[nH]5)C=C4)C=C3)cc1
REMARK SMILES IDX 6 1 5 2 4 3 3 4 1 5 2 6 40 8 41 9 102 10 42 11 101 12 43 13
REMARK SMILES IDX 44 14 45 15 95 16 46 17 100 18 94 19 96 20 47 21 99 22 93 23
REMARK SMILES IDX 92 24 48 26 80 27 60 28 79 29 61 30 64 31 78 32 97 33 62 34
REMARK SMILES IDX 63 35 77 37 98 38 65 39 49 40 50 41 58 42 51 43 52 44 56 45
REMARK SMILES IDX 59 46 53 47 54 48 57 49 55 50 81 51 82 52 90 53 83 54 84 55
REMARK SMILES IDX 88 56 91 57 85 58 86 59 89 60 87 61 66 62 67 63 75 64 68 65
REMARK SMILES IDX 69 66 73 67 76 68 70 69 71 70 74 71 72 72 7 73 8 74 9 75
REMARK SMILES IDX 10 76 11 77 12 79 13 80 14 81 39 82 15 83 24 84 38 85 23 86
REMARK SMILES IDX 25 87 37 88 26 89 36 90 30 91 31 92 16 93 17 94 22 95 18 96
REMARK SMILES IDX 21 97 19 98 20 99 27 100 28 101 29 102 32 103 33 104 34 105
REMARK SMILES IDX 35 106
REMARK H PARENT 3 7 96 25 64 36 10 78
REMARK Flexibility Score: inf
ROOT
ATOM      1  C   UNL A   1      45.634  32.737  27.523  1.00  0.00     0.002 C 
ENDROOT
BRANCH   1   2
ATOM      2  C   UNL A   1      45.578  33.564  26.239  1.00  0.00     0.021 C 
BRANCH   2   3
ATOM      3  C   UNL A   1      44.244  34.259  25.994  1.00  0.00     0.116 C 
BRANCH   3   4
ATOM      4  N   UNL A   1      44.345  35.711  26.027  1.00  0.00    -0.352 N 
ATOM      5  O   UNL A   1      44.045  37.772  26.947  1.00  0.00    -0.269 OA
ATOM      6  C   UNL A   1      43.951  36.561  27.037  1.00  0.00     0.251 C 
ATOM      7  H   UNL A   1      44.743  36.135  25.233  1.00  0.00     0.163 HD
BRANCH   6   8
ATOM      8  C   UNL A   1      43.372  35.939  28.238  1.00  0.00     0.039 A 
ATOM      9  C   UNL A   1      44.224  35.493  29.253  1.00  0.00     0.014 A 
ATOM     10  C   UNL A   1      42.012  35.628  28.231  1.00  0.00     0.014 A 
ATOM     11  C   UNL A   1      43.729  34.615  30.207  1.00  0.00     0.010 A 
ATOM     12  C   UNL A   1      41.513  34.780  29.211  1.00  0.00     0.010 A 
ATOM     13  C   UNL A   1      42.379  34.233  30.169  1.00  0.00    -0.014 A 
BRANCH  13  14
ATOM     14  C   UNL A   1      41.944  33.223  31.150  1.00  0.00     0.031 A 
ATOM     15  C   UNL A   1      40.465  33.229  31.401  1.00  0.00     0.074 A 
ATOM     16  C   UNL A   1      42.555  32.022  31.098  1.00  0.00     0.049 A 
ATOM     17  N   UNL A   1      39.555  32.579  30.736  1.00  0.00    -0.248 NA
ATOM     18  C   UNL A   1      39.926  34.206  32.353  1.00  0.00     0.031 C 
ATOM     19  C   UNL A   1      42.682  31.193  29.897  1.00  0.00     0.029 A 
ATOM     20  N   UNL A   1      42.921  31.193  32.140  1.00  0.00    -0.354 N 
ATOM     21  C   UNL A   1      38.330  33.090  31.137  1.00  0.00     0.074 A 
ATOM     22  C   UNL A   1      38.609  34.091  32.143  1.00  0.00     0.031 C 
ATOM     23  C   UNL A   1      42.958  29.931  30.273  1.00  0.00     0.029 A 
ATOM     24  C   UNL A   1      43.078  29.872  31.728  1.00  0.00     0.049 A 
ATOM     25  H   UNL A   1      43.055  31.499  33.066  1.00  0.00     0.167 HD
ATOM     26  C   UNL A   1      37.132  32.687  30.639  1.00  0.00     0.037 A 
ATOM     27  C   UNL A   1      42.782  28.793  32.504  1.00  0.00     0.037 A 
ATOM     28  C   UNL A   1      37.162  31.625  29.687  1.00  0.00     0.049 A 
ATOM     29  C   UNL A   1      41.323  28.598  32.171  1.00  0.00     0.074 A 
ATOM     30  C   UNL A   1      37.120  31.491  28.318  1.00  0.00     0.029 A 
ATOM     31  N   UNL A   1      37.266  30.342  30.166  1.00  0.00    -0.354 N 
ATOM     32  N   UNL A   1      40.828  28.003  31.116  1.00  0.00    -0.248 NA
ATOM     33  C   UNL A   1      40.370  29.450  32.889  1.00  0.00     0.031 C 
ATOM     34  C   UNL A   1      37.637  30.187  28.044  1.00  0.00     0.029 A 
ATOM     35  C   UNL A   1      38.016  29.632  29.266  1.00  0.00     0.049 A 
ATOM     36  H   UNL A   1      36.875  29.995  31.001  1.00  0.00     0.167 HD
ATOM     37  C   UNL A   1      39.605  28.639  30.881  1.00  0.00     0.074 A 
ATOM     38  C   UNL A   1      39.351  29.464  32.042  1.00  0.00     0.031 C 
ATOM     39  C   UNL A   1      38.981  28.635  29.667  1.00  0.00     0.037 A 
BRANCH  26  40
ATOM     40  C   UNL A   1      35.828  33.168  31.133  1.00  0.00     0.064 A 
ATOM     41  C   UNL A   1      35.167  34.167  30.404  1.00  0.00     0.173 A 
ATOM     42  C   UNL A   1      35.318  32.809  32.383  1.00  0.00     0.173 A 
ATOM     43  F   UNL A   1      35.629  34.533  29.197  1.00  0.00    -0.203 F 
ATOM     44  C   UNL A   1      34.059  34.822  30.928  1.00  0.00     0.198 A 
ATOM     45  C   UNL A   1      34.201  33.462  32.904  1.00  0.00     0.198 A 
ATOM     46  F   UNL A   1      35.922  31.861  33.114  1.00  0.00    -0.203 F 
ATOM     47  F   UNL A   1      33.475  35.803  30.229  1.00  0.00    -0.200 F 
ATOM     48  C   UNL A   1      33.584  34.477  32.184  1.00  0.00     0.200 A 
ATOM     49  F   UNL A   1      33.738  33.130  34.116  1.00  0.00    -0.200 F 
ATOM     50  F   UNL A   1      32.535  35.130  32.703  1.00  0.00    -0.200 F 
ENDBRANCH  26  40
BRANCH  27  51
ATOM     51  C   UNL A   1      43.340  28.812  33.894  1.00  0.00     0.064 A 
ATOM     52  C   UNL A   1      42.889  27.831  34.807  1.00  0.00     0.173 A 
ATOM     53  C   UNL A   1      44.303  29.707  34.379  1.00  0.00     0.173 A 
ATOM     54  F   UNL A   1      41.888  27.003  34.468  1.00  0.00    -0.203 F 
ATOM     55  C   UNL A   1      43.467  27.671  36.066  1.00  0.00     0.198 A 
ATOM     56  C   UNL A   1      44.898  29.533  35.631  1.00  0.00     0.198 A 
ATOM     57  F   UNL A   1      44.705  30.754  33.647  1.00  0.00    -0.203 F 
ATOM     58  F   UNL A   1      43.045  26.692  36.876  1.00  0.00    -0.200 F 
ATOM     59  C   UNL A   1      44.498  28.502  36.463  1.00  0.00     0.200 A 
ATOM     60  F   UNL A   1      45.888  30.351  36.013  1.00  0.00    -0.200 F 
ATOM     61  F   UNL A   1      45.102  28.313  37.644  1.00  0.00    -0.200 F 
ENDBRANCH  27  51
BRANCH  39  62
ATOM     62  C   UNL A   1      39.555  27.714  28.650  1.00  0.00     0.064 A 
ATOM     63  C   UNL A   1      39.275  26.344  28.707  1.00  0.00     0.173 A 
ATOM     64  C   UNL A   1      40.338  28.187  27.586  1.00  0.00     0.173 A 
ATOM     65  F   UNL A   1      38.520  25.847  29.699  1.00  0.00    -0.203 F 
ATOM     66  C   UNL A   1      39.738  25.482  27.718  1.00  0.00     0.198 A 
ATOM     67  C   UNL A   1      40.775  27.327  26.585  1.00  0.00     0.198 A 
ATOM     68  F   UNL A   1      40.656  29.488  27.494  1.00  0.00    -0.203 F 
ATOM     69  F   UNL A   1      39.447  24.175  27.781  1.00  0.00    -0.200 F 
ATOM     70  C   UNL A   1      40.474  25.976  26.650  1.00  0.00     0.200 A 
ATOM     71  F   UNL A   1      41.461  27.812  25.540  1.00  0.00    -0.200 F 
ATOM     72  F   UNL A   1      40.875  25.151  25.673  1.00  0.00    -0.200 F 
ENDBRANCH  39  62
ENDBRANCH  13  14
ENDBRANCH   6   8
ENDBRANCH   3   4
ENDBRANCH   2   3
ENDBRANCH   1   2
BRANCH   1  73
ATOM     73  C   UNL A   1      45.485  31.222  27.336  1.00  0.00     0.002 C 
BRANCH  73  74
ATOM     74  C   UNL A   1      44.126  30.743  26.809  1.00  0.00     0.021 C 
BRANCH  74  75
ATOM     75  C   UNL A   1      43.945  29.230  26.779  1.00  0.00     0.116 C 
BRANCH  75  76
ATOM     76  N   UNL A   1      44.990  28.581  26.005  1.00  0.00    -0.351 N 
ATOM     77  C   UNL A   1      45.568  27.362  26.183  1.00  0.00     0.270 C 
ATOM     78  H   UNL A   1      45.329  29.100  25.240  1.00  0.00     0.163 HD
ATOM     79  O   UNL A   1      46.514  27.026  25.473  1.00  0.00    -0.268 OA
BRANCH  77  80
ATOM     80  C   UNL A   1      45.120  26.500  27.292  1.00  0.00     0.134 A 
ATOM     81  C   UNL A   1      44.361  25.454  26.938  1.00  0.00     0.063 A 
ATOM     82  N   UNL A   1      45.433  26.733  28.628  1.00  0.00    -0.207 N 
ATOM     83  C   UNL A   1      43.889  24.599  28.062  1.00  0.00     0.075 A 
ATOM     84  C   UNL A   1      44.999  25.835  29.626  1.00  0.00     0.166 A 
ATOM     85  N   UNL A   1      46.171  27.749  29.135  1.00  0.00    -0.145 NA
ATOM     86  N   UNL A   1      44.182  24.772  29.319  1.00  0.00    -0.228 NA
ATOM     87  C   UNL A   1      45.594  26.282  30.792  1.00  0.00     0.069 A 
ATOM     88  C   UNL A   1      46.296  27.466  30.423  1.00  0.00     0.184 A 
ATOM     89  C   UNL A   1      45.545  25.711  32.075  1.00  0.00    -0.028 A 
ATOM     90  N   UNL A   1      47.022  28.196  31.301  1.00  0.00    -0.222 NA
ATOM     91  C   UNL A   1      46.310  26.502  32.963  1.00  0.00     0.038 A 
ATOM     92  C   UNL A   1      47.009  27.681  32.569  1.00  0.00     0.147 A 
BRANCH  83  93
ATOM     93  C   UNL A   1      42.987  23.508  27.634  1.00  0.00     0.000 A 
ATOM     94  C   UNL A   1      42.984  23.123  26.290  1.00  0.00     0.012 A 
ATOM     95  C   UNL A   1      42.236  22.801  28.582  1.00  0.00     0.012 A 
ATOM     96  C   UNL A   1      42.249  22.001  25.899  1.00  0.00     0.021 A 
ATOM     97  C   UNL A   1      41.496  21.687  28.183  1.00  0.00     0.021 A 
ATOM     98  C   UNL A   1      41.515  21.285  26.846  1.00  0.00     0.041 A 
ATOM     99  Cl  UNL A   1      40.638  19.885  26.367  1.00  0.00    -0.084 Cl
ENDBRANCH  83  93
BRANCH  89 100
ATOM    100  C   UNL A   1      44.794  24.458  32.396  1.00  0.00     0.020 C 
ATOM    101  C   UNL A   1      45.174  23.558  33.550  1.00  0.00     0.009 C 
ATOM    102  C   UNL A   1      43.948  24.414  33.647  1.00  0.00     0.009 C 
ENDBRANCH  89 100
BRANCH  92 103
ATOM    103  C   UNL A   1      47.783  28.456  33.635  1.00  0.00     0.433 C 
ATOM    104  F   UNL A   1      49.138  28.349  33.509  1.00  0.00    -0.165 F 
ATOM    105  F   UNL A   1      47.507  29.791  33.621  1.00  0.00    -0.165 F 
ATOM    106  F   UNL A   1      47.509  28.041  34.908  1.00  0.00    -0.165 F 
ENDBRANCH  92 103
ENDBRANCH  77  80
ENDBRANCH  75  76
ENDBRANCH  74  75
ENDBRANCH  73  74
ENDBRANCH   1  73
TORSDOF 16
ENDMDL
