MODEL 1
REMARK VINA RESULT:     -11.8      0.000      0.000
REMARK SMILES O=C(NCCCCCCNC(=O)[C@@H]1[C@H]2C=C[C@H]3C=C[C@@H]1[C@H]32)c1ccc(-c2c3nc(c(-c4c(F)c(F)c(F)c(F)c4F)c4ccc([nH]4)c(-c4c(F)c(F)c(F)c(F)c4F)c4nc(c(-c5c(F)c(F)c(F)c(F)c5F)c5ccc2[nH]5)C=C4)C=C3)cc1
REMARK SMILES IDX 5 1 4 2 3 3 1 4 2 5 22 7 23 8 84 9 24 10 83 11 25 12 26 13
REMARK SMILES IDX 27 14 77 15 28 16 82 17 76 18 78 19 29 20 81 21 75 22 74 23
REMARK SMILES IDX 30 25 62 26 42 27 61 28 43 29 46 30 60 31 79 32 44 33 45 34
REMARK SMILES IDX 59 36 80 37 47 38 31 39 32 40 40 41 33 42 34 43 38 44 41 45
REMARK SMILES IDX 35 46 36 47 39 48 37 49 63 50 64 51 72 52 65 53 66 54 70 55
REMARK SMILES IDX 73 56 67 57 68 58 71 59 69 60 48 61 49 62 57 63 50 64 51 65
REMARK SMILES IDX 55 66 58 67 52 68 53 69 56 70 54 71 6 72 7 73 8 74 9 75
REMARK SMILES IDX 10 76 11 77 12 79 13 80 20 81 14 82 19 83 21 84 15 85 18 86
REMARK SMILES IDX 17 87 16 88
REMARK H PARENT 3 6 78 24 46 35 10 78
REMARK Flexibility Score: inf
ROOT
ATOM      1  C   UNL A   1      31.408  32.051  26.901  1.00  0.00     0.021 C 
ENDROOT
BRANCH   1   2
ATOM      2  C   UNL A   1      32.664  32.912  26.937  1.00  0.00     0.116 C 
BRANCH   2   3
ATOM      3  N   UNL A   1      32.447  34.210  27.554  1.00  0.00    -0.352 N 
ATOM      4  O   UNL A   1      32.664  35.834  29.105  1.00  0.00    -0.269 OA
ATOM      5  C   UNL A   1      33.072  34.779  28.639  1.00  0.00     0.251 C 
ATOM      6  H   UNL A   1      31.750  34.764  27.133  1.00  0.00     0.163 HD
BRANCH   5   7
ATOM      7  C   UNL A   1      34.231  34.100  29.263  1.00  0.00     0.039 A 
ATOM      8  C   UNL A   1      34.050  33.022  30.131  1.00  0.00     0.014 A 
ATOM      9  C   UNL A   1      35.524  34.537  28.953  1.00  0.00     0.014 A 
ATOM     10  C   UNL A   1      35.144  32.472  30.793  1.00  0.00     0.010 A 
ATOM     11  C   UNL A   1      36.630  33.926  29.552  1.00  0.00     0.010 A 
ATOM     12  C   UNL A   1      36.448  32.902  30.494  1.00  0.00    -0.014 A 
BRANCH  12  13
ATOM     13  C   UNL A   1      37.601  32.202  31.115  1.00  0.00     0.031 A 
ATOM     14  C   UNL A   1      38.062  32.530  32.507  1.00  0.00     0.074 A 
ATOM     15  C   UNL A   1      38.222  31.239  30.405  1.00  0.00     0.049 A 
ATOM     16  N   UNL A   1      39.043  32.002  33.195  1.00  0.00    -0.248 NA
ATOM     17  C   UNL A   1      37.337  33.593  33.221  1.00  0.00     0.031 C 
ATOM     18  C   UNL A   1      37.873  30.848  29.037  1.00  0.00     0.029 A 
ATOM     19  N   UNL A   1      39.264  30.409  30.731  1.00  0.00    -0.354 N 
ATOM     20  C   UNL A   1      39.063  32.672  34.411  1.00  0.00     0.074 A 
ATOM     21  C   UNL A   1      38.011  33.664  34.361  1.00  0.00     0.031 C 
ATOM     22  C   UNL A   1      38.657  29.829  28.657  1.00  0.00     0.029 A 
ATOM     23  C   UNL A   1      39.606  29.540  29.724  1.00  0.00     0.049 A 
ATOM     24  H   UNL A   1      39.721  30.433  31.603  1.00  0.00     0.167 HD
ATOM     25  C   UNL A   1      39.885  32.470  35.471  1.00  0.00     0.037 A 
ATOM     26  C   UNL A   1      40.593  28.626  29.655  1.00  0.00     0.037 A 
ATOM     27  C   UNL A   1      40.920  31.469  35.517  1.00  0.00     0.049 A 
ATOM     28  C   UNL A   1      41.500  28.447  30.839  1.00  0.00     0.074 A 
ATOM     29  C   UNL A   1      41.770  31.156  36.565  1.00  0.00     0.029 A 
ATOM     30  N   UNL A   1      41.254  30.623  34.469  1.00  0.00    -0.354 N 
ATOM     31  N   UNL A   1      41.473  29.053  32.001  1.00  0.00    -0.248 NA
ATOM     32  C   UNL A   1      42.577  27.458  30.699  1.00  0.00     0.031 C 
ATOM     33  C   UNL A   1      42.652  30.159  36.134  1.00  0.00     0.029 A 
ATOM     34  C   UNL A   1      42.316  29.811  34.836  1.00  0.00     0.049 A 
ATOM     35  H   UNL A   1      40.804  30.603  33.595  1.00  0.00     0.167 HD
ATOM     36  C   UNL A   1      42.514  28.506  32.737  1.00  0.00     0.074 A 
ATOM     37  C   UNL A   1      43.137  27.502  31.900  1.00  0.00     0.031 C 
ATOM     38  C   UNL A   1      42.922  28.813  33.992  1.00  0.00     0.037 A 
BRANCH  25  39
ATOM     39  C   UNL A   1      39.717  33.352  36.675  1.00  0.00     0.064 A 
ATOM     40  C   UNL A   1      40.379  34.583  36.786  1.00  0.00     0.173 A 
ATOM     41  C   UNL A   1      38.811  33.001  37.689  1.00  0.00     0.173 A 
ATOM     42  F   UNL A   1      41.260  34.963  35.849  1.00  0.00    -0.203 F 
ATOM     43  C   UNL A   1      40.149  35.425  37.872  1.00  0.00     0.198 A 
ATOM     44  C   UNL A   1      38.564  33.856  38.760  1.00  0.00     0.198 A 
ATOM     45  F   UNL A   1      38.146  31.837  37.627  1.00  0.00    -0.203 F 
ATOM     46  F   UNL A   1      40.812  36.586  37.970  1.00  0.00    -0.200 F 
ATOM     47  C   UNL A   1      39.235  35.066  38.852  1.00  0.00     0.200 A 
ATOM     48  F   UNL A   1      37.670  33.514  39.697  1.00  0.00    -0.200 F 
ATOM     49  F   UNL A   1      39.001  35.886  39.885  1.00  0.00    -0.200 F 
ENDBRANCH  25  39
BRANCH  26  50
ATOM     50  C   UNL A   1      40.782  27.829  28.416  1.00  0.00     0.064 A 
ATOM     51  C   UNL A   1      40.168  26.579  28.258  1.00  0.00     0.173 A 
ATOM     52  C   UNL A   1      41.592  28.296  27.369  1.00  0.00     0.173 A 
ATOM     53  F   UNL A   1      39.400  26.081  29.237  1.00  0.00    -0.203 F 
ATOM     54  C   UNL A   1      40.379  25.815  27.112  1.00  0.00     0.198 A 
ATOM     55  C   UNL A   1      41.772  27.546  26.209  1.00  0.00     0.198 A 
ATOM     56  F   UNL A   1      42.197  29.488  27.468  1.00  0.00    -0.203 F 
ATOM     57  F   UNL A   1      39.824  24.600  27.009  1.00  0.00    -0.200 F 
ATOM     58  C   UNL A   1      41.176  26.302  26.086  1.00  0.00     0.200 A 
ATOM     59  F   UNL A   1      42.528  28.030  25.214  1.00  0.00    -0.200 F 
ATOM     60  F   UNL A   1      41.375  25.568  24.983  1.00  0.00    -0.200 F 
ENDBRANCH  26  50
BRANCH  38  61
ATOM     61  C   UNL A   1      44.077  28.030  34.544  1.00  0.00     0.064 A 
ATOM     62  C   UNL A   1      45.396  28.498  34.449  1.00  0.00     0.173 A 
ATOM     63  C   UNL A   1      43.859  26.807  35.196  1.00  0.00     0.173 A 
ATOM     64  F   UNL A   1      45.659  29.654  33.820  1.00  0.00    -0.203 F 
ATOM     65  C   UNL A   1      46.457  27.755  34.959  1.00  0.00     0.198 A 
ATOM     66  C   UNL A   1      44.919  26.082  35.732  1.00  0.00     0.198 A 
ATOM     67  F   UNL A   1      42.616  26.317  35.318  1.00  0.00    -0.203 F 
ATOM     68  F   UNL A   1      47.714  28.195  34.807  1.00  0.00    -0.200 F 
ATOM     69  C   UNL A   1      46.218  26.551  35.606  1.00  0.00     0.200 A 
ATOM     70  F   UNL A   1      44.684  24.925  36.368  1.00  0.00    -0.200 F 
ATOM     71  F   UNL A   1      47.240  25.840  36.099  1.00  0.00    -0.200 F 
ENDBRANCH  38  61
ENDBRANCH  12  13
ENDBRANCH   5   7
ENDBRANCH   2   3
ENDBRANCH   1   2
BRANCH   1  72
ATOM     72  C   UNL A   1      31.624  30.594  26.497  1.00  0.00     0.002 C 
BRANCH  72  73
ATOM     73  C   UNL A   1      32.758  29.862  27.223  1.00  0.00     0.002 C 
BRANCH  73  74
ATOM     74  C   UNL A   1      32.781  28.336  27.073  1.00  0.00     0.021 C 
BRANCH  74  75
ATOM     75  C   UNL A   1      31.909  27.770  25.956  1.00  0.00     0.116 C 
BRANCH  75  76
ATOM     76  N   UNL A   1      32.453  28.007  24.636  1.00  0.00    -0.356 N 
ATOM     77  C   UNL A   1      31.827  28.591  23.558  1.00  0.00     0.224 C 
ATOM     78  H   UNL A   1      33.382  27.715  24.492  1.00  0.00     0.163 HD
ATOM     79  O   UNL A   1      32.506  28.738  22.536  1.00  0.00    -0.275 OA
BRANCH  77  80
ATOM     80  C   UNL A   1      30.334  29.011  23.690  1.00  0.00     0.093 C 
ATOM     81  C   UNL A   1      29.877  30.305  22.944  1.00  0.00     0.029 C 
ATOM     82  C   UNL A   1      29.321  28.185  22.826  1.00  0.00     0.029 C 
ATOM     83  C   UNL A   1      29.039  31.255  23.719  1.00  0.00    -0.026 C 
ATOM     84  C   UNL A   1      28.896  29.476  22.102  1.00  0.00     0.015 C 
ATOM     85  C   UNL A   1      28.093  27.693  23.503  1.00  0.00    -0.026 C 
ATOM     86  C   UNL A   1      27.738  30.987  23.538  1.00  0.00    -0.023 C 
ATOM     87  C   UNL A   1      27.489  29.820  22.624  1.00  0.00     0.038 C 
ATOM     88  C   UNL A   1      27.097  28.583  23.379  1.00  0.00    -0.023 C 
ENDBRANCH  77  80
ENDBRANCH  75  76
ENDBRANCH  74  75
ENDBRANCH  73  74
ENDBRANCH  72  73
ENDBRANCH   1  72
TORSDOF 13
ENDMDL
MODEL 2
REMARK VINA RESULT:     -11.8      0.780      7.733
REMARK SMILES O=C(NCCCCCCNC(=O)[C@@H]1[C@H]2C=C[C@H]3C=C[C@@H]1[C@H]32)c1ccc(-c2c3nc(c(-c4c(F)c(F)c(F)c(F)c4F)c4ccc([nH]4)c(-c4c(F)c(F)c(F)c(F)c4F)c4nc(c(-c5c(F)c(F)c(F)c(F)c5F)c5ccc2[nH]5)C=C4)C=C3)cc1
REMARK SMILES IDX 5 1 4 2 3 3 1 4 2 5 22 7 23 8 84 9 24 10 83 11 25 12 26 13
REMARK SMILES IDX 27 14 77 15 28 16 82 17 76 18 78 19 29 20 81 21 75 22 74 23
REMARK SMILES IDX 30 25 62 26 42 27 61 28 43 29 46 30 60 31 79 32 44 33 45 34
REMARK SMILES IDX 59 36 80 37 47 38 31 39 32 40 40 41 33 42 34 43 38 44 41 45
REMARK SMILES IDX 35 46 36 47 39 48 37 49 63 50 64 51 72 52 65 53 66 54 70 55
REMARK SMILES IDX 73 56 67 57 68 58 71 59 69 60 48 61 49 62 57 63 50 64 51 65
REMARK SMILES IDX 55 66 58 67 52 68 53 69 56 70 54 71 6 72 7 73 8 74 9 75
REMARK SMILES IDX 10 76 11 77 12 79 13 80 20 81 14 82 19 83 21 84 15 85 18 86
REMARK SMILES IDX 17 87 16 88
REMARK H PARENT 3 6 78 24 46 35 10 78
REMARK Flexibility Score: inf
ROOT
ATOM      1  C   UNL A   1      31.392  32.519  26.697  1.00  0.00     0.021 C 
ENDROOT
BRANCH   1   2
ATOM      2  C   UNL A   1      32.675  33.149  27.223  1.00  0.00     0.116 C 
BRANCH   2   3
ATOM      3  N   UNL A   1      32.470  34.475  27.783  1.00  0.00    -0.352 N 
ATOM      4  O   UNL A   1      32.688  36.156  29.271  1.00  0.00    -0.269 OA
ATOM      5  C   UNL A   1      33.086  35.076  28.857  1.00  0.00     0.251 C 
ATOM      6  H   UNL A   1      31.791  35.023  27.327  1.00  0.00     0.163 HD
BRANCH   5   7
ATOM      7  C   UNL A   1      34.221  34.404  29.528  1.00  0.00     0.039 A 
ATOM      8  C   UNL A   1      34.011  33.563  30.622  1.00  0.00     0.014 A 
ATOM      9  C   UNL A   1      35.517  34.602  29.038  1.00  0.00     0.014 A 
ATOM     10  C   UNL A   1      35.099  33.031  31.308  1.00  0.00     0.010 A 
ATOM     11  C   UNL A   1      36.604  33.996  29.676  1.00  0.00     0.010 A 
ATOM     12  C   UNL A   1      36.407  33.223  30.829  1.00  0.00    -0.014 A 
BRANCH  12  13
ATOM     13  C   UNL A   1      37.534  32.530  31.504  1.00  0.00     0.031 A 
ATOM     14  C   UNL A   1      38.261  31.391  30.847  1.00  0.00     0.074 A 
ATOM     15  C   UNL A   1      37.911  32.960  32.725  1.00  0.00     0.049 A 
ATOM     16  N   UNL A   1      39.272  30.690  31.298  1.00  0.00    -0.248 NA
ATOM     17  C   UNL A   1      37.794  30.976  29.515  1.00  0.00     0.031 C 
ATOM     18  C   UNL A   1      37.266  34.046  33.467  1.00  0.00     0.029 A 
ATOM     19  N   UNL A   1      38.926  32.552  33.551  1.00  0.00    -0.354 N 
ATOM     20  C   UNL A   1      39.552  29.747  30.318  1.00  0.00     0.074 A 
ATOM     21  C   UNL A   1      38.590  29.947  29.255  1.00  0.00     0.031 C 
ATOM     22  C   UNL A   1      37.924  34.243  34.619  1.00  0.00     0.029 A 
ATOM     23  C   UNL A   1      38.992  33.259  34.726  1.00  0.00     0.049 A 
ATOM     24  H   UNL A   1      39.547  31.822  33.322  1.00  0.00     0.167 HD
ATOM     25  C   UNL A   1      40.527  28.805  30.310  1.00  0.00     0.037 A 
ATOM     26  C   UNL A   1      39.808  33.115  35.788  1.00  0.00     0.037 A 
ATOM     27  C   UNL A   1      41.491  28.624  31.367  1.00  0.00     0.049 A 
ATOM     28  C   UNL A   1      40.861  32.044  35.755  1.00  0.00     0.074 A 
ATOM     29  C   UNL A   1      42.547  27.730  31.425  1.00  0.00     0.029 A 
ATOM     30  N   UNL A   1      41.512  29.343  32.553  1.00  0.00    -0.354 N 
ATOM     31  N   UNL A   1      41.146  31.194  34.800  1.00  0.00    -0.248 NA
ATOM     32  C   UNL A   1      41.703  31.912  36.951  1.00  0.00     0.031 C 
ATOM     33  C   UNL A   1      43.174  27.871  32.669  1.00  0.00     0.029 A 
ATOM     34  C   UNL A   1      42.544  28.891  33.362  1.00  0.00     0.049 A 
ATOM     35  H   UNL A   1      40.887  30.066  32.786  1.00  0.00     0.167 HD
ATOM     36  C   UNL A   1      42.213  30.440  35.269  1.00  0.00     0.074 A 
ATOM     37  C   UNL A   1      42.539  30.950  36.585  1.00  0.00     0.031 C 
ATOM     38  C   UNL A   1      42.859  29.412  34.667  1.00  0.00     0.037 A 
BRANCH  25  39
ATOM     39  C   UNL A   1      40.609  27.880  29.130  1.00  0.00     0.064 A 
ATOM     40  C   UNL A   1      39.779  26.756  29.016  1.00  0.00     0.173 A 
ATOM     41  C   UNL A   1      41.465  28.174  28.057  1.00  0.00     0.173 A 
ATOM     42  F   UNL A   1      38.948  26.425  30.016  1.00  0.00    -0.203 F 
ATOM     43  C   UNL A   1      39.811  25.954  27.877  1.00  0.00     0.198 A 
ATOM     44  C   UNL A   1      41.476  27.386  26.909  1.00  0.00     0.198 A 
ATOM     45  F   UNL A   1      42.274  29.243  28.111  1.00  0.00    -0.203 F 
ATOM     46  F   UNL A   1      39.028  24.868  27.801  1.00  0.00    -0.200 F 
ATOM     47  C   UNL A   1      40.651  26.275  26.821  1.00  0.00     0.200 A 
ATOM     48  F   UNL A   1      42.277  27.707  25.884  1.00  0.00    -0.200 F 
ATOM     49  F   UNL A   1      40.666  25.514  25.718  1.00  0.00    -0.200 F 
ENDBRANCH  25  39
BRANCH  26  50
ATOM     50  C   UNL A   1      39.645  33.995  36.974  1.00  0.00     0.064 A 
ATOM     51  C   UNL A   1      40.276  35.244  37.042  1.00  0.00     0.173 A 
ATOM     52  C   UNL A   1      38.864  33.597  38.070  1.00  0.00     0.173 A 
ATOM     53  F   UNL A   1      41.049  35.660  36.028  1.00  0.00    -0.203 F 
ATOM     54  C   UNL A   1      40.155  36.050  38.172  1.00  0.00     0.198 A 
ATOM     55  C   UNL A   1      38.715  34.420  39.184  1.00  0.00     0.198 A 
ATOM     56  F   UNL A   1      38.234  32.414  38.053  1.00  0.00    -0.203 F 
ATOM     57  F   UNL A   1      40.813  37.215  38.234  1.00  0.00    -0.200 F 
ATOM     58  C   UNL A   1      39.369  35.640  39.240  1.00  0.00     0.200 A 
ATOM     59  F   UNL A   1      37.939  34.027  40.204  1.00  0.00    -0.200 F 
ATOM     60  F   UNL A   1      39.251  36.418  40.324  1.00  0.00    -0.200 F 
ENDBRANCH  26  50
BRANCH  38  61
ATOM     61  C   UNL A   1      44.004  28.796  35.416  1.00  0.00     0.064 A 
ATOM     62  C   UNL A   1      43.814  27.715  36.290  1.00  0.00     0.173 A 
ATOM     63  C   UNL A   1      45.309  29.277  35.239  1.00  0.00     0.173 A 
ATOM     64  F   UNL A   1      42.582  27.229  36.506  1.00  0.00    -0.203 F 
ATOM     65  C   UNL A   1      44.885  27.160  36.983  1.00  0.00     0.198 A 
ATOM     66  C   UNL A   1      46.383  28.699  35.910  1.00  0.00     0.198 A 
ATOM     67  F   UNL A   1      45.545  30.305  34.411  1.00  0.00    -0.203 F 
ATOM     68  F   UNL A   1      44.673  26.165  37.856  1.00  0.00    -0.200 F 
ATOM     69  C   UNL A   1      46.170  27.647  36.788  1.00  0.00     0.200 A 
ATOM     70  F   UNL A   1      47.624  29.163  35.710  1.00  0.00    -0.200 F 
ATOM     71  F   UNL A   1      47.200  27.109  37.454  1.00  0.00    -0.200 F 
ENDBRANCH  38  61
ENDBRANCH  12  13
ENDBRANCH   5   7
ENDBRANCH   2   3
ENDBRANCH   1   2
BRANCH   1  72
ATOM     72  C   UNL A   1      31.432  31.001  26.525  1.00  0.00     0.002 C 
BRANCH  72  73
ATOM     73  C   UNL A   1      32.733  30.314  26.951  1.00  0.00     0.002 C 
BRANCH  73  74
ATOM     74  C   UNL A   1      32.660  28.797  27.154  1.00  0.00     0.021 C 
BRANCH  74  75
ATOM     75  C   UNL A   1      31.864  28.029  26.103  1.00  0.00     0.116 C 
BRANCH  75  76
ATOM     76  N   UNL A   1      32.415  28.155  24.771  1.00  0.00    -0.356 N 
ATOM     77  C   UNL A   1      31.792  28.641  23.643  1.00  0.00     0.224 C 
ATOM     78  H   UNL A   1      33.346  27.857  24.657  1.00  0.00     0.163 HD
ATOM     79  O   UNL A   1      32.476  28.704  22.616  1.00  0.00    -0.275 OA
BRANCH  77  80
ATOM     80  C   UNL A   1      30.296  29.062  23.731  1.00  0.00     0.093 C 
ATOM     81  C   UNL A   1      29.873  30.387  23.018  1.00  0.00     0.029 C 
ATOM     82  C   UNL A   1      29.316  28.275  22.796  1.00  0.00     0.029 C 
ATOM     83  C   UNL A   1      29.007  31.309  23.795  1.00  0.00    -0.026 C 
ATOM     84  C   UNL A   1      28.924  29.595  22.106  1.00  0.00     0.015 C 
ATOM     85  C   UNL A   1      28.060  27.763  23.404  1.00  0.00    -0.026 C 
ATOM     86  C   UNL A   1      27.713  31.054  23.551  1.00  0.00    -0.023 C 
ATOM     87  C   UNL A   1      27.498  29.925  22.584  1.00  0.00     0.038 C 
ATOM     88  C   UNL A   1      27.072  28.661  23.274  1.00  0.00    -0.023 C 
ENDBRANCH  77  80
ENDBRANCH  75  76
ENDBRANCH  74  75
ENDBRANCH  73  74
ENDBRANCH  72  73
ENDBRANCH   1  72
TORSDOF 13
ENDMDL
MODEL 3
REMARK VINA RESULT:     -11.8      0.289      1.745
REMARK SMILES O=C(NCCCCCCNC(=O)[C@@H]1[C@H]2C=C[C@H]3C=C[C@@H]1[C@H]32)c1ccc(-c2c3nc(c(-c4c(F)c(F)c(F)c(F)c4F)c4ccc([nH]4)c(-c4c(F)c(F)c(F)c(F)c4F)c4nc(c(-c5c(F)c(F)c(F)c(F)c5F)c5ccc2[nH]5)C=C4)C=C3)cc1
REMARK SMILES IDX 5 1 4 2 3 3 1 4 2 5 22 7 23 8 84 9 24 10 83 11 25 12 26 13
REMARK SMILES IDX 27 14 77 15 28 16 82 17 76 18 78 19 29 20 81 21 75 22 74 23
REMARK SMILES IDX 30 25 62 26 42 27 61 28 43 29 46 30 60 31 79 32 44 33 45 34
REMARK SMILES IDX 59 36 80 37 47 38 31 39 32 40 40 41 33 42 34 43 38 44 41 45
REMARK SMILES IDX 35 46 36 47 39 48 37 49 63 50 64 51 72 52 65 53 66 54 70 55
REMARK SMILES IDX 73 56 67 57 68 58 71 59 69 60 48 61 49 62 57 63 50 64 51 65
REMARK SMILES IDX 55 66 58 67 52 68 53 69 56 70 54 71 6 72 7 73 8 74 9 75
REMARK SMILES IDX 10 76 11 77 12 79 13 80 20 81 14 82 19 83 21 84 15 85 18 86
REMARK SMILES IDX 17 87 16 88
REMARK H PARENT 3 6 78 24 46 35 10 78
REMARK Flexibility Score: inf
ROOT
ATOM      1  C   UNL A   1      31.385  32.314  26.624  1.00  0.00     0.021 C 
ENDROOT
BRANCH   1   2
ATOM      2  C   UNL A   1      32.671  33.008  27.052  1.00  0.00     0.116 C 
BRANCH   2   3
ATOM      3  N   UNL A   1      32.441  34.306  27.666  1.00  0.00    -0.352 N 
ATOM      4  O   UNL A   1      32.645  35.937  29.210  1.00  0.00    -0.269 OA
ATOM      5  C   UNL A   1      33.065  34.886  28.746  1.00  0.00     0.251 C 
ATOM      6  H   UNL A   1      31.733  34.848  27.247  1.00  0.00     0.163 HD
BRANCH   5   7
ATOM      7  C   UNL A   1      34.237  34.225  29.364  1.00  0.00     0.039 A 
ATOM      8  C   UNL A   1      35.536  34.583  29.000  1.00  0.00     0.014 A 
ATOM      9  C   UNL A   1      34.029  33.246  30.342  1.00  0.00     0.014 A 
ATOM     10  C   UNL A   1      36.619  33.872  29.510  1.00  0.00     0.010 A 
ATOM     11  C   UNL A   1      35.123  32.592  30.918  1.00  0.00     0.010 A 
ATOM     12  C   UNL A   1      36.426  32.885  30.491  1.00  0.00    -0.014 A 
BRANCH  12  13
ATOM     13  C   UNL A   1      37.612  32.241  31.113  1.00  0.00     0.031 A 
ATOM     14  C   UNL A   1      38.081  32.624  32.488  1.00  0.00     0.074 A 
ATOM     15  C   UNL A   1      38.256  31.281  30.420  1.00  0.00     0.049 A 
ATOM     16  N   UNL A   1      39.090  32.148  33.176  1.00  0.00    -0.248 NA
ATOM     17  C   UNL A   1      37.330  33.680  33.184  1.00  0.00     0.031 C 
ATOM     18  C   UNL A   1      37.901  30.841  29.069  1.00  0.00     0.029 A 
ATOM     19  N   UNL A   1      39.331  30.496  30.752  1.00  0.00    -0.354 N 
ATOM     20  C   UNL A   1      39.104  32.852  34.372  1.00  0.00     0.074 A 
ATOM     21  C   UNL A   1      38.017  33.806  34.312  1.00  0.00     0.031 C 
ATOM     22  C   UNL A   1      38.715  29.840  28.704  1.00  0.00     0.029 A 
ATOM     23  C   UNL A   1      39.689  29.613  29.764  1.00  0.00     0.049 A 
ATOM     24  H   UNL A   1      39.799  30.561  31.616  1.00  0.00     0.167 HD
ATOM     25  C   UNL A   1      39.947  32.708  35.424  1.00  0.00     0.037 A 
ATOM     26  C   UNL A   1      40.705  28.732  29.705  1.00  0.00     0.037 A 
ATOM     27  C   UNL A   1      41.018  31.744  35.482  1.00  0.00     0.049 A 
ATOM     28  C   UNL A   1      41.635  28.617  30.879  1.00  0.00     0.074 A 
ATOM     29  C   UNL A   1      41.892  31.489  36.525  1.00  0.00     0.029 A 
ATOM     30  N   UNL A   1      41.366  30.882  34.452  1.00  0.00    -0.354 N 
ATOM     31  N   UNL A   1      41.604  29.253  32.024  1.00  0.00    -0.248 NA
ATOM     32  C   UNL A   1      42.744  27.662  30.749  1.00  0.00     0.031 C 
ATOM     33  C   UNL A   1      42.802  30.512  36.107  1.00  0.00     0.029 A 
ATOM     34  C   UNL A   1      42.460  30.117  34.825  1.00  0.00     0.049 A 
ATOM     35  H   UNL A   1      40.904  30.823  33.585  1.00  0.00     0.167 HD
ATOM     36  C   UNL A   1      42.674  28.762  32.759  1.00  0.00     0.074 A 
ATOM     37  C   UNL A   1      43.319  27.758  31.940  1.00  0.00     0.031 C 
ATOM     38  C   UNL A   1      43.089  29.118  33.999  1.00  0.00     0.037 A 
BRANCH  25  39
ATOM     39  C   UNL A   1      39.766  33.616  36.607  1.00  0.00     0.064 A 
ATOM     40  C   UNL A   1      40.356  34.886  36.658  1.00  0.00     0.173 A 
ATOM     41  C   UNL A   1      38.917  33.244  37.662  1.00  0.00     0.173 A 
ATOM     42  F   UNL A   1      41.182  35.288  35.680  1.00  0.00    -0.203 F 
ATOM     43  C   UNL A   1      40.112  35.748  37.726  1.00  0.00     0.198 A 
ATOM     44  C   UNL A   1      38.654  34.118  38.714  1.00  0.00     0.198 A 
ATOM     45  F   UNL A   1      38.321  32.042  37.658  1.00  0.00    -0.203 F 
ATOM     46  F   UNL A   1      40.707  36.948  37.767  1.00  0.00    -0.200 F 
ATOM     47  C   UNL A   1      39.253  35.367  38.747  1.00  0.00     0.200 A 
ATOM     48  F   UNL A   1      37.812  33.754  39.691  1.00  0.00    -0.200 F 
ATOM     49  F   UNL A   1      39.004  36.205  39.763  1.00  0.00    -0.200 F 
ENDBRANCH  25  39
BRANCH  26  50
ATOM     50  C   UNL A   1      40.904  27.907  28.484  1.00  0.00     0.064 A 
ATOM     51  C   UNL A   1      41.711  28.356  27.431  1.00  0.00     0.173 A 
ATOM     52  C   UNL A   1      40.280  26.658  28.344  1.00  0.00     0.173 A 
ATOM     53  F   UNL A   1      42.314  29.551  27.510  1.00  0.00    -0.203 F 
ATOM     54  C   UNL A   1      41.865  27.599  26.271  1.00  0.00     0.198 A 
ATOM     55  C   UNL A   1      40.464  25.887  27.199  1.00  0.00     0.198 A 
ATOM     56  F   UNL A   1      39.503  26.180  29.326  1.00  0.00    -0.203 F 
ATOM     57  F   UNL A   1      42.598  28.076  25.256  1.00  0.00    -0.200 F 
ATOM     58  C   UNL A   1      41.246  26.362  26.158  1.00  0.00     0.200 A 
ATOM     59  F   UNL A   1      39.879  24.685  27.103  1.00  0.00    -0.200 F 
ATOM     60  F   UNL A   1      41.397  25.634  25.044  1.00  0.00    -0.200 F 
ENDBRANCH  26  50
BRANCH  38  61
ATOM     61  C   UNL A   1      44.278  28.390  34.554  1.00  0.00     0.064 A 
ATOM     62  C   UNL A   1      44.140  27.182  35.254  1.00  0.00     0.173 A 
ATOM     63  C   UNL A   1      45.572  28.895  34.365  1.00  0.00     0.173 A 
ATOM     64  F   UNL A   1      42.920  26.666  35.477  1.00  0.00    -0.203 F 
ATOM     65  C   UNL A   1      45.251  26.524  35.771  1.00  0.00     0.198 A 
ATOM     66  C   UNL A   1      46.685  28.218  34.855  1.00  0.00     0.198 A 
ATOM     67  F   UNL A   1      45.759  30.044  33.698  1.00  0.00    -0.203 F 
ATOM     68  F   UNL A   1      45.092  25.400  36.484  1.00  0.00    -0.200 F 
ATOM     69  C   UNL A   1      46.524  27.038  35.565  1.00  0.00     0.200 A 
ATOM     70  F   UNL A   1      47.913  28.710  34.644  1.00  0.00    -0.200 F 
ATOM     71  F   UNL A   1      47.593  26.401  36.060  1.00  0.00    -0.200 F 
ENDBRANCH  38  61
ENDBRANCH  12  13
ENDBRANCH   5   7
ENDBRANCH   2   3
ENDBRANCH   1   2
BRANCH   1  72
ATOM     72  C   UNL A   1      31.437  30.787  26.615  1.00  0.00     0.002 C 
BRANCH  72  73
ATOM     73  C   UNL A   1      32.672  30.157  27.267  1.00  0.00     0.002 C 
BRANCH  73  74
ATOM     74  C   UNL A   1      32.893  28.665  26.993  1.00  0.00     0.021 C 
BRANCH  74  75
ATOM     75  C   UNL A   1      32.015  28.058  25.903  1.00  0.00     0.116 C 
BRANCH  75  76
ATOM     76  N   UNL A   1      32.529  28.286  24.569  1.00  0.00    -0.356 N 
ATOM     77  C   UNL A   1      31.862  28.816  23.488  1.00  0.00     0.224 C 
ATOM     78  H   UNL A   1      33.468  28.031  24.417  1.00  0.00     0.163 HD
ATOM     79  O   UNL A   1      32.519  28.968  22.452  1.00  0.00    -0.275 OA
BRANCH  77  80
ATOM     80  C   UNL A   1      30.354  29.175  23.633  1.00  0.00     0.093 C 
ATOM     81  C   UNL A   1      29.855  30.493  22.960  1.00  0.00     0.029 C 
ATOM     82  C   UNL A   1      29.375  28.365  22.717  1.00  0.00     0.029 C 
ATOM     83  C   UNL A   1      28.979  31.366  23.783  1.00  0.00    -0.026 C 
ATOM     84  C   UNL A   1      28.907  29.680  22.066  1.00  0.00     0.015 C 
ATOM     85  C   UNL A   1      28.163  27.792  23.357  1.00  0.00    -0.026 C 
ATOM     86  C   UNL A   1      27.690  31.063  23.578  1.00  0.00    -0.023 C 
ATOM     87  C   UNL A   1      27.487  29.942  22.598  1.00  0.00     0.038 C 
ATOM     88  C   UNL A   1      27.136  28.651  23.278  1.00  0.00    -0.023 C 
ENDBRANCH  77  80
ENDBRANCH  75  76
ENDBRANCH  74  75
ENDBRANCH  73  74
ENDBRANCH  72  73
ENDBRANCH   1  72
TORSDOF 13
ENDMDL
