MODEL 1
REMARK VINA RESULT:     -11.2      0.000      0.000
REMARK SMILES COc1ccc(-c2cccc(/C=C\C(=O)NCCCCCCNC(=O)c3ccc(-c4c5nc(c(-c6c(F)c(F)c(F)c(F)c6F)c6ccc([nH]6)c(-c6c(F)c(F)c(F)c(F)c6F)c6nc(c(-c7c(F)c(F)c(F)c(F)c7F)c7ccc4[nH]7)C=C6)C=C5)cc3)c2)c(Cl)c1OC
REMARK SMILES IDX 19 1 18 2 17 3 16 4 14 5 15 6 13 8 12 9 11 10 7 11 8 12
REMARK SMILES IDX 89 13 9 14 10 15 6 16 3 17 4 18 92 19 5 20 90 21 91 22 2 23
REMARK SMILES IDX 1 24 93 25 94 26 20 27 21 28 22 29 23 30 24 31 25 33 26 34
REMARK SMILES IDX 27 35 88 36 28 37 87 38 29 39 30 40 31 41 81 42 32 43 86 44
REMARK SMILES IDX 80 45 82 46 33 47 85 48 79 49 78 50 34 52 66 53 46 54 65 55
REMARK SMILES IDX 47 56 50 57 64 58 83 59 48 60 49 61 63 63 84 64 51 65 35 66
REMARK SMILES IDX 36 67 44 68 37 69 38 70 42 71 45 72 39 73 40 74 43 75 41 76
REMARK SMILES IDX 67 77 68 78 76 79 69 80 70 81 74 82 77 83 71 84 72 85 75 86
REMARK SMILES IDX 73 87 52 88 53 89 61 90 54 91 55 92 59 93 62 94 56 95 57 96
REMARK SMILES IDX 60 97 58 98
REMARK H PARENT 16 7 23 32 82 51 50 62
REMARK Flexibility Score: inf
ROOT
ATOM      1  C   UNL A   1      35.442  33.909  28.921  1.00  0.00     0.002 C 
ENDROOT
BRANCH   1   2
ATOM      2  C   UNL A   1      34.703  32.593  29.196  1.00  0.00     0.021 C 
BRANCH   2   3
ATOM      3  C   UNL A   1      34.036  31.915  28.005  1.00  0.00     0.116 C 
BRANCH   3   4
ATOM      4  N   UNL A   1      34.168  30.476  27.964  1.00  0.00    -0.353 N 
ATOM      5  C   UNL A   1      33.511  29.557  27.205  1.00  0.00     0.243 C 
ATOM      6  O   UNL A   1      33.825  28.370  27.313  1.00  0.00    -0.270 OA
ATOM      7  H   UNL A   1      34.836  30.102  28.582  1.00  0.00     0.163 HD
BRANCH   5   8
ATOM      8  C   UNL A   1      32.358  29.893  26.321  1.00  0.00     0.072 C 
ATOM      9  C   UNL A   1      31.977  29.482  25.099  1.00  0.00     0.014 C 
BRANCH   9  10
ATOM     10  C   UNL A   1      32.668  28.552  24.202  1.00  0.00    -0.025 A 
ATOM     11  C   UNL A   1      33.022  26.240  23.456  1.00  0.00    -0.016 A 
ATOM     12  C   UNL A   1      33.634  26.781  22.304  1.00  0.00     0.009 A 
ATOM     13  C   UNL A   1      32.535  27.161  24.399  1.00  0.00     0.017 A 
ATOM     14  C   UNL A   1      33.883  28.145  22.164  1.00  0.00     0.001 A 
ATOM     15  C   UNL A   1      33.429  29.029  23.133  1.00  0.00     0.008 A 
BRANCH  11  16
ATOM     16  C   UNL A   1      33.044  24.761  23.668  1.00  0.00     0.004 A 
ATOM     17  C   UNL A   1      32.888  21.927  23.775  1.00  0.00     0.162 A 
ATOM     18  C   UNL A   1      31.930  22.651  23.082  1.00  0.00     0.051 A 
ATOM     19  C   UNL A   1      33.891  22.595  24.503  1.00  0.00     0.180 A 
ATOM     20  C   UNL A   1      32.034  24.031  23.003  1.00  0.00     0.014 A 
ATOM     21  C   UNL A   1      33.956  24.015  24.466  1.00  0.00     0.094 A 
ATOM     22  Cl  UNL A   1      35.062  24.859  25.509  1.00  0.00    -0.079 Cl
BRANCH  17  23
ATOM     23  O   UNL A   1      32.846  20.553  23.800  1.00  0.00    -0.493 OA
ATOM     24  C   UNL A   1      32.119  19.998  22.700  1.00  0.00     0.278 C 
ENDBRANCH  17  23
BRANCH  19  25
ATOM     25  O   UNL A   1      34.652  21.783  25.313  1.00  0.00    -0.491 OA
ATOM     26  C   UNL A   1      35.984  21.508  24.896  1.00  0.00     0.278 C 
ENDBRANCH  19  25
ENDBRANCH  11  16
ENDBRANCH   9  10
ENDBRANCH   5   8
ENDBRANCH   3   4
ENDBRANCH   2   3
ENDBRANCH   1   2
BRANCH   1  27
ATOM     27  C   UNL A   1      34.728  34.995  28.105  1.00  0.00     0.002 C 
BRANCH  27  28
ATOM     28  C   UNL A   1      33.772  35.943  28.835  1.00  0.00     0.021 C 
BRANCH  28  29
ATOM     29  C   UNL A   1      32.654  35.320  29.667  1.00  0.00     0.116 C 
BRANCH  29  30
ATOM     30  N   UNL A   1      32.305  36.098  30.839  1.00  0.00    -0.352 N 
ATOM     31  C   UNL A   1      32.839  36.087  32.106  1.00  0.00     0.251 C 
ATOM     32  H   UNL A   1      31.569  36.738  30.707  1.00  0.00     0.163 HD
ATOM     33  O   UNL A   1      32.320  36.776  32.980  1.00  0.00    -0.269 OA
BRANCH  31  34
ATOM     34  C   UNL A   1      34.009  35.240  32.456  1.00  0.00     0.039 A 
ATOM     35  C   UNL A   1      35.287  35.747  32.191  1.00  0.00     0.014 A 
ATOM     36  C   UNL A   1      33.878  33.947  32.972  1.00  0.00     0.014 A 
ATOM     37  C   UNL A   1      36.424  34.988  32.487  1.00  0.00     0.010 A 
ATOM     38  C   UNL A   1      35.016  33.207  33.313  1.00  0.00     0.010 A 
ATOM     39  C   UNL A   1      36.301  33.719  33.074  1.00  0.00    -0.014 A 
BRANCH  39  40
ATOM     40  C   UNL A   1      37.507  32.933  33.447  1.00  0.00     0.031 A 
ATOM     41  C   UNL A   1      38.247  33.216  34.724  1.00  0.00     0.074 A 
ATOM     42  C   UNL A   1      37.958  31.974  32.615  1.00  0.00     0.049 A 
ATOM     43  N   UNL A   1      39.339  32.661  35.191  1.00  0.00    -0.248 NA
ATOM     44  C   UNL A   1      37.693  34.267  35.589  1.00  0.00     0.031 C 
ATOM     45  C   UNL A   1      37.348  31.611  31.337  1.00  0.00     0.029 A 
ATOM     46  N   UNL A   1      39.041  31.134  32.718  1.00  0.00    -0.354 N 
ATOM     47  C   UNL A   1      39.607  33.299  36.395  1.00  0.00     0.074 A 
ATOM     48  C   UNL A   1      38.582  34.307  36.572  1.00  0.00     0.031 C 
ATOM     49  C   UNL A   1      38.056  30.617  30.778  1.00  0.00     0.029 A 
ATOM     50  C   UNL A   1      39.192  30.297  31.640  1.00  0.00     0.049 A 
ATOM     51  H   UNL A   1      39.649  31.131  33.492  1.00  0.00     0.167 HD
ATOM     52  C   UNL A   1      40.606  33.055  37.278  1.00  0.00     0.037 A 
ATOM     53  C   UNL A   1      40.147  29.387  31.365  1.00  0.00     0.037 A 
ATOM     54  C   UNL A   1      41.617  32.044  37.112  1.00  0.00     0.049 A 
ATOM     55  C   UNL A   1      41.270  29.171  32.340  1.00  0.00     0.074 A 
ATOM     56  C   UNL A   1      42.630  31.684  37.986  1.00  0.00     0.029 A 
ATOM     57  N   UNL A   1      41.751  31.235  35.994  1.00  0.00    -0.354 N 
ATOM     58  N   UNL A   1      41.480  29.741  33.501  1.00  0.00    -0.248 NA
ATOM     59  C   UNL A   1      42.294  28.184  31.964  1.00  0.00     0.031 C 
ATOM     60  C   UNL A   1      43.403  30.689  37.379  1.00  0.00     0.029 A 
ATOM     61  C   UNL A   1      42.846  30.396  36.145  1.00  0.00     0.049 A 
ATOM     62  H   UNL A   1      41.157  31.253  35.210  1.00  0.00     0.167 HD
ATOM     63  C   UNL A   1      42.641  29.170  34.003  1.00  0.00     0.074 A 
ATOM     64  C   UNL A   1      43.086  28.198  33.027  1.00  0.00     0.031 C 
ATOM     65  C   UNL A   1      43.280  29.430  35.169  1.00  0.00     0.037 A 
BRANCH  52  66
ATOM     66  C   UNL A   1      40.658  33.902  38.517  1.00  0.00     0.064 A 
ATOM     67  C   UNL A   1      41.421  35.078  38.571  1.00  0.00     0.173 A 
ATOM     68  C   UNL A   1      39.892  33.564  39.643  1.00  0.00     0.173 A 
ATOM     69  F   UNL A   1      42.175  35.441  37.522  1.00  0.00    -0.203 F 
ATOM     70  C   UNL A   1      41.433  35.872  39.714  1.00  0.00     0.198 A 
ATOM     71  C   UNL A   1      39.887  34.374  40.775  1.00  0.00     0.198 A 
ATOM     72  F   UNL A   1      39.137  32.456  39.640  1.00  0.00    -0.203 F 
ATOM     73  F   UNL A   1      42.199  36.972  39.756  1.00  0.00    -0.200 F 
ATOM     74  C   UNL A   1      40.662  35.524  40.812  1.00  0.00     0.200 A 
ATOM     75  F   UNL A   1      39.130  34.044  41.832  1.00  0.00    -0.200 F 
ATOM     76  F   UNL A   1      40.668  36.294  41.909  1.00  0.00    -0.200 F 
ENDBRANCH  52  66
BRANCH  53  77
ATOM     77  C   UNL A   1      40.092  28.620  30.093  1.00  0.00     0.064 A 
ATOM     78  C   UNL A   1      39.442  27.383  30.016  1.00  0.00     0.173 A 
ATOM     79  C   UNL A   1      40.700  29.112  28.932  1.00  0.00     0.173 A 
ATOM     80  F   UNL A   1      38.869  26.857  31.109  1.00  0.00    -0.203 F 
ATOM     81  C   UNL A   1      39.415  26.660  28.824  1.00  0.00     0.198 A 
ATOM     82  C   UNL A   1      40.652  28.403  27.735  1.00  0.00     0.198 A 
ATOM     83  F   UNL A   1      41.331  30.293  28.958  1.00  0.00    -0.203 F 
ATOM     84  F   UNL A   1      38.822  25.459  28.785  1.00  0.00    -0.200 F 
ATOM     85  C   UNL A   1      40.014  27.174  27.683  1.00  0.00     0.200 A 
ATOM     86  F   UNL A   1      41.223  28.912  26.635  1.00  0.00    -0.200 F 
ATOM     87  F   UNL A   1      39.984  26.481  26.537  1.00  0.00    -0.200 F 
ENDBRANCH  53  77
BRANCH  65  88
ATOM     88  C   UNL A   1      44.511  28.627  35.471  1.00  0.00     0.064 A 
ATOM     89  C   UNL A   1      44.439  27.396  36.138  1.00  0.00     0.173 A 
ATOM     90  C   UNL A   1      45.774  29.082  35.064  1.00  0.00     0.173 A 
ATOM     91  F   UNL A   1      43.256  26.927  36.564  1.00  0.00    -0.203 F 
ATOM     92  C   UNL A   1      45.590  26.660  36.407  1.00  0.00     0.198 A 
ATOM     93  C   UNL A   1      46.920  28.332  35.312  1.00  0.00     0.198 A 
ATOM     94  F   UNL A   1      45.897  30.253  34.421  1.00  0.00    -0.203 F 
ATOM     95  F   UNL A   1      45.503  25.508  37.086  1.00  0.00    -0.200 F 
ATOM     96  C   UNL A   1      46.828  27.125  35.989  1.00  0.00     0.200 A 
ATOM     97  F   UNL A   1      48.114  28.779  34.900  1.00  0.00    -0.200 F 
ATOM     98  F   UNL A   1      47.935  26.414  36.246  1.00  0.00    -0.200 F 
ENDBRANCH  65  88
ENDBRANCH  39  40
ENDBRANCH  31  34
ENDBRANCH  29  30
ENDBRANCH  28  29
ENDBRANCH  27  28
ENDBRANCH   1  27
TORSDOF 17
ENDMDL
MODEL 2
REMARK VINA RESULT:     -11.0      0.978      2.287
REMARK SMILES COc1ccc(-c2cccc(/C=C\C(=O)NCCCCCCNC(=O)c3ccc(-c4c5nc(c(-c6c(F)c(F)c(F)c(F)c6F)c6ccc([nH]6)c(-c6c(F)c(F)c(F)c(F)c6F)c6nc(c(-c7c(F)c(F)c(F)c(F)c7F)c7ccc4[nH]7)C=C6)C=C5)cc3)c2)c(Cl)c1OC
REMARK SMILES IDX 19 1 18 2 17 3 16 4 14 5 15 6 13 8 12 9 11 10 7 11 8 12
REMARK SMILES IDX 89 13 9 14 10 15 6 16 3 17 4 18 92 19 5 20 90 21 91 22 2 23
REMARK SMILES IDX 1 24 93 25 94 26 20 27 21 28 22 29 23 30 24 31 25 33 26 34
REMARK SMILES IDX 27 35 88 36 28 37 87 38 29 39 30 40 31 41 81 42 32 43 86 44
REMARK SMILES IDX 80 45 82 46 33 47 85 48 79 49 78 50 34 52 66 53 46 54 65 55
REMARK SMILES IDX 47 56 50 57 64 58 83 59 48 60 49 61 63 63 84 64 51 65 35 66
REMARK SMILES IDX 36 67 44 68 37 69 38 70 42 71 45 72 39 73 40 74 43 75 41 76
REMARK SMILES IDX 67 77 68 78 76 79 69 80 70 81 74 82 77 83 71 84 72 85 75 86
REMARK SMILES IDX 73 87 52 88 53 89 61 90 54 91 55 92 59 93 62 94 56 95 57 96
REMARK SMILES IDX 60 97 58 98
REMARK H PARENT 16 7 23 32 82 51 50 62
REMARK Flexibility Score: inf
ROOT
ATOM      1  C   UNL A   1      35.385  34.033  29.207  1.00  0.00     0.002 C 
ENDROOT
BRANCH   1   2
ATOM      2  C   UNL A   1      34.845  32.603  29.076  1.00  0.00     0.021 C 
BRANCH   2   3
ATOM      3  C   UNL A   1      34.323  32.186  27.707  1.00  0.00     0.116 C 
BRANCH   3   4
ATOM      4  N   UNL A   1      34.804  30.909  27.228  1.00  0.00    -0.353 N 
ATOM      5  C   UNL A   1      34.142  29.733  27.055  1.00  0.00     0.243 C 
ATOM      6  O   UNL A   1      34.758  28.773  26.587  1.00  0.00    -0.270 OA
ATOM      7  H   UNL A   1      35.759  30.887  26.992  1.00  0.00     0.163 HD
BRANCH   5   8
ATOM      8  C   UNL A   1      32.735  29.507  27.495  1.00  0.00     0.072 C 
ATOM      9  C   UNL A   1      31.733  28.738  27.036  1.00  0.00     0.014 C 
BRANCH   9  10
ATOM     10  C   UNL A   1      31.726  27.875  25.853  1.00  0.00    -0.025 A 
ATOM     11  C   UNL A   1      32.216  25.683  24.860  1.00  0.00    -0.016 A 
ATOM     12  C   UNL A   1      31.394  26.069  23.778  1.00  0.00     0.009 A 
ATOM     13  C   UNL A   1      32.361  26.616  25.902  1.00  0.00     0.017 A 
ATOM     14  C   UNL A   1      30.870  27.356  23.664  1.00  0.00     0.001 A 
ATOM     15  C   UNL A   1      31.066  28.271  24.688  1.00  0.00     0.008 A 
BRANCH  11  16
ATOM     16  C   UNL A   1      32.972  24.396  24.780  1.00  0.00     0.004 A 
ATOM     17  C   UNL A   1      34.700  22.151  24.578  1.00  0.00     0.162 A 
ATOM     18  C   UNL A   1      35.067  23.365  24.016  1.00  0.00     0.051 A 
ATOM     19  C   UNL A   1      33.432  22.001  25.172  1.00  0.00     0.180 A 
ATOM     20  C   UNL A   1      34.236  24.466  24.152  1.00  0.00     0.014 A 
ATOM     21  C   UNL A   1      32.559  23.120  25.253  1.00  0.00     0.094 A 
ATOM     22  Cl  UNL A   1      30.924  22.905  25.806  1.00  0.00    -0.079 Cl
BRANCH  17  23
ATOM     23  O   UNL A   1      35.545  21.069  24.521  1.00  0.00    -0.493 OA
ATOM     24  C   UNL A   1      36.593  21.129  25.492  1.00  0.00     0.278 C 
ENDBRANCH  17  23
BRANCH  19  25
ATOM     25  O   UNL A   1      33.101  20.706  25.503  1.00  0.00    -0.491 OA
ATOM     26  C   UNL A   1      32.428  19.932  24.517  1.00  0.00     0.278 C 
ENDBRANCH  19  25
ENDBRANCH  11  16
ENDBRANCH   9  10
ENDBRANCH   5   8
ENDBRANCH   3   4
ENDBRANCH   2   3
ENDBRANCH   1   2
BRANCH   1  27
ATOM     27  C   UNL A   1      34.789  35.128  28.311  1.00  0.00     0.002 C 
BRANCH  27  28
ATOM     28  C   UNL A   1      33.644  35.979  28.867  1.00  0.00     0.021 C 
BRANCH  28  29
ATOM     29  C   UNL A   1      32.632  35.296  29.782  1.00  0.00     0.116 C 
BRANCH  29  30
ATOM     30  N   UNL A   1      32.297  36.078  30.956  1.00  0.00    -0.352 N 
ATOM     31  C   UNL A   1      32.847  36.070  32.216  1.00  0.00     0.251 C 
ATOM     32  H   UNL A   1      31.558  36.716  30.832  1.00  0.00     0.163 HD
ATOM     33  O   UNL A   1      32.339  36.762  33.095  1.00  0.00    -0.269 OA
BRANCH  31  34
ATOM     34  C   UNL A   1      34.022  35.226  32.554  1.00  0.00     0.039 A 
ATOM     35  C   UNL A   1      35.297  35.767  32.351  1.00  0.00     0.014 A 
ATOM     36  C   UNL A   1      33.900  33.906  32.999  1.00  0.00     0.014 A 
ATOM     37  C   UNL A   1      36.440  35.013  32.637  1.00  0.00     0.010 A 
ATOM     38  C   UNL A   1      35.042  33.168  33.332  1.00  0.00     0.010 A 
ATOM     39  C   UNL A   1      36.324  33.713  33.155  1.00  0.00    -0.014 A 
BRANCH  39  40
ATOM     40  C   UNL A   1      37.534  32.929  33.520  1.00  0.00     0.031 A 
ATOM     41  C   UNL A   1      38.265  33.193  34.805  1.00  0.00     0.074 A 
ATOM     42  C   UNL A   1      37.996  31.988  32.673  1.00  0.00     0.049 A 
ATOM     43  N   UNL A   1      39.359  32.637  35.267  1.00  0.00    -0.248 NA
ATOM     44  C   UNL A   1      37.700  34.225  35.686  1.00  0.00     0.031 C 
ATOM     45  C   UNL A   1      37.394  31.645  31.384  1.00  0.00     0.029 A 
ATOM     46  N   UNL A   1      39.084  31.153  32.765  1.00  0.00    -0.354 N 
ATOM     47  C   UNL A   1      39.616  33.255  36.484  1.00  0.00     0.074 A 
ATOM     48  C   UNL A   1      38.584  34.253  36.674  1.00  0.00     0.031 C 
ATOM     49  C   UNL A   1      38.111  30.666  30.811  1.00  0.00     0.029 A 
ATOM     50  C   UNL A   1      39.246  30.337  31.673  1.00  0.00     0.049 A 
ATOM     51  H   UNL A   1      39.689  31.141  33.542  1.00  0.00     0.167 HD
ATOM     52  C   UNL A   1      40.613  33.002  37.367  1.00  0.00     0.037 A 
ATOM     53  C   UNL A   1      40.208  29.440  31.386  1.00  0.00     0.037 A 
ATOM     54  C   UNL A   1      41.633  32.001  37.188  1.00  0.00     0.049 A 
ATOM     55  C   UNL A   1      41.329  29.214  32.363  1.00  0.00     0.074 A 
ATOM     56  C   UNL A   1      42.644  31.633  38.060  1.00  0.00     0.029 A 
ATOM     57  N   UNL A   1      41.777  31.213  36.056  1.00  0.00    -0.354 N 
ATOM     58  N   UNL A   1      41.529  29.764  33.534  1.00  0.00    -0.248 NA
ATOM     59  C   UNL A   1      42.361  28.241  31.973  1.00  0.00     0.031 C 
ATOM     60  C   UNL A   1      43.426  30.653  37.439  1.00  0.00     0.029 A 
ATOM     61  C   UNL A   1      42.877  30.380  36.197  1.00  0.00     0.049 A 
ATOM     62  H   UNL A   1      41.187  31.242  35.269  1.00  0.00     0.167 HD
ATOM     63  C   UNL A   1      42.691  29.192  34.032  1.00  0.00     0.074 A 
ATOM     64  C   UNL A   1      43.148  28.241  33.040  1.00  0.00     0.031 C 
ATOM     65  C   UNL A   1      43.323  29.435  35.206  1.00  0.00     0.037 A 
BRANCH  52  66
ATOM     66  C   UNL A   1      40.653  33.826  38.622  1.00  0.00     0.064 A 
ATOM     67  C   UNL A   1      39.917  33.465  39.760  1.00  0.00     0.173 A 
ATOM     68  C   UNL A   1      41.480  34.957  38.705  1.00  0.00     0.173 A 
ATOM     69  F   UNL A   1      39.108  32.396  39.729  1.00  0.00    -0.203 F 
ATOM     70  C   UNL A   1      39.991  34.218  40.929  1.00  0.00     0.198 A 
ATOM     71  C   UNL A   1      41.569  35.693  39.883  1.00  0.00     0.198 A 
ATOM     72  F   UNL A   1      42.212  35.339  37.648  1.00  0.00    -0.203 F 
ATOM     73  F   UNL A   1      39.250  33.875  41.993  1.00  0.00    -0.200 F 
ATOM     74  C   UNL A   1      40.820  35.327  40.992  1.00  0.00     0.200 A 
ATOM     75  F   UNL A   1      42.383  36.757  39.948  1.00  0.00    -0.200 F 
ATOM     76  F   UNL A   1      40.896  36.047  42.120  1.00  0.00    -0.200 F 
ENDBRANCH  52  66
BRANCH  53  77
ATOM     77  C   UNL A   1      40.165  28.696  30.100  1.00  0.00     0.064 A 
ATOM     78  C   UNL A   1      40.765  29.206  28.943  1.00  0.00     0.173 A 
ATOM     79  C   UNL A   1      39.510  27.461  30.007  1.00  0.00     0.173 A 
ATOM     80  F   UNL A   1      41.380  30.397  28.976  1.00  0.00    -0.203 F 
ATOM     81  C   UNL A   1      40.699  28.512  27.735  1.00  0.00     0.198 A 
ATOM     82  C   UNL A   1      39.466  26.756  28.808  1.00  0.00     0.198 A 
ATOM     83  F   UNL A   1      38.923  26.934  31.089  1.00  0.00    -0.203 F 
ATOM     84  F   UNL A   1      41.247  29.039  26.632  1.00  0.00    -0.200 F 
ATOM     85  C   UNL A   1      40.056  27.284  27.671  1.00  0.00     0.200 A 
ATOM     86  F   UNL A   1      38.852  25.566  28.757  1.00  0.00    -0.200 F 
ATOM     87  F   UNL A   1      39.997  26.616  26.511  1.00  0.00    -0.200 F 
ENDBRANCH  53  77
BRANCH  65  88
ATOM     88  C   UNL A   1      44.558  28.635  35.499  1.00  0.00     0.064 A 
ATOM     89  C   UNL A   1      45.834  29.103  35.153  1.00  0.00     0.173 A 
ATOM     90  C   UNL A   1      44.466  27.400  36.157  1.00  0.00     0.173 A 
ATOM     91  F   UNL A   1      45.973  30.269  34.505  1.00  0.00    -0.203 F 
ATOM     92  C   UNL A   1      46.972  28.351  35.435  1.00  0.00     0.198 A 
ATOM     93  C   UNL A   1      45.607  26.663  36.460  1.00  0.00     0.198 A 
ATOM     94  F   UNL A   1      43.268  26.910  36.511  1.00  0.00    -0.203 F 
ATOM     95  F   UNL A   1      48.178  28.795  35.054  1.00  0.00    -0.200 F 
ATOM     96  C   UNL A   1      46.858  27.135  36.094  1.00  0.00     0.200 A 
ATOM     97  F   UNL A   1      45.496  25.493  37.104  1.00  0.00    -0.200 F 
ATOM     98  F   UNL A   1      47.954  26.414  36.367  1.00  0.00    -0.200 F 
ENDBRANCH  65  88
ENDBRANCH  39  40
ENDBRANCH  31  34
ENDBRANCH  29  30
ENDBRANCH  28  29
ENDBRANCH  27  28
ENDBRANCH   1  27
TORSDOF 17
ENDMDL
MODEL 3
REMARK VINA RESULT:     -11.0      4.677      9.705
REMARK SMILES COc1ccc(-c2cccc(/C=C\C(=O)NCCCCCCNC(=O)c3ccc(-c4c5nc(c(-c6c(F)c(F)c(F)c(F)c6F)c6ccc([nH]6)c(-c6c(F)c(F)c(F)c(F)c6F)c6nc(c(-c7c(F)c(F)c(F)c(F)c7F)c7ccc4[nH]7)C=C6)C=C5)cc3)c2)c(Cl)c1OC
REMARK SMILES IDX 19 1 18 2 17 3 16 4 14 5 15 6 13 8 12 9 11 10 7 11 8 12
REMARK SMILES IDX 89 13 9 14 10 15 6 16 3 17 4 18 92 19 5 20 90 21 91 22 2 23
REMARK SMILES IDX 1 24 93 25 94 26 20 27 21 28 22 29 23 30 24 31 25 33 26 34
REMARK SMILES IDX 27 35 88 36 28 37 87 38 29 39 30 40 31 41 81 42 32 43 86 44
REMARK SMILES IDX 80 45 82 46 33 47 85 48 79 49 78 50 34 52 66 53 46 54 65 55
REMARK SMILES IDX 47 56 50 57 64 58 83 59 48 60 49 61 63 63 84 64 51 65 35 66
REMARK SMILES IDX 36 67 44 68 37 69 38 70 42 71 45 72 39 73 40 74 43 75 41 76
REMARK SMILES IDX 67 77 68 78 76 79 69 80 70 81 74 82 77 83 71 84 72 85 75 86
REMARK SMILES IDX 73 87 52 88 53 89 61 90 54 91 55 92 59 93 62 94 56 95 57 96
REMARK SMILES IDX 60 97 58 98
REMARK H PARENT 16 7 23 32 82 51 50 62
REMARK Flexibility Score: inf
ROOT
ATOM      1  C   UNL A   1      35.172  21.392  24.415  1.00  0.00     0.002 C 
ENDROOT
BRANCH   1   2
ATOM      2  C   UNL A   1      33.689  21.495  24.795  1.00  0.00     0.021 C 
BRANCH   2   3
ATOM      3  C   UNL A   1      33.348  21.395  26.276  1.00  0.00     0.116 C 
BRANCH   3   4
ATOM      4  N   UNL A   1      32.252  22.231  26.713  1.00  0.00    -0.353 N 
ATOM      5  C   UNL A   1      32.155  23.586  26.777  1.00  0.00     0.243 C 
ATOM      6  O   UNL A   1      31.089  24.084  27.147  1.00  0.00    -0.270 OA
ATOM      7  H   UNL A   1      31.450  21.743  27.010  1.00  0.00     0.163 HD
BRANCH   5   8
ATOM      8  C   UNL A   1      33.300  24.507  26.522  1.00  0.00     0.072 C 
ATOM      9  C   UNL A   1      33.618  25.333  25.510  1.00  0.00     0.014 C 
BRANCH   9  10
ATOM     10  C   UNL A   1      32.895  25.540  24.252  1.00  0.00    -0.025 A 
ATOM     11  C   UNL A   1      31.408  26.954  22.904  1.00  0.00    -0.016 A 
ATOM     12  C   UNL A   1      31.815  26.193  21.786  1.00  0.00     0.009 A 
ATOM     13  C   UNL A   1      31.976  26.606  24.141  1.00  0.00     0.017 A 
ATOM     14  C   UNL A   1      32.620  25.061  21.910  1.00  0.00     0.001 A 
ATOM     15  C   UNL A   1      33.133  24.715  23.152  1.00  0.00     0.008 A 
BRANCH  11  16
ATOM     16  C   UNL A   1      30.326  27.971  22.738  1.00  0.00     0.004 A 
ATOM     17  C   UNL A   1      28.481  30.057  22.181  1.00  0.00     0.162 A 
ATOM     18  C   UNL A   1      29.830  30.229  21.907  1.00  0.00     0.051 A 
ATOM     19  C   UNL A   1      28.032  28.885  22.820  1.00  0.00     0.180 A 
ATOM     20  C   UNL A   1      30.718  29.193  22.147  1.00  0.00     0.014 A 
ATOM     21  C   UNL A   1      28.961  27.850  23.118  1.00  0.00     0.094 A 
ATOM     22  Cl  UNL A   1      28.459  26.487  24.075  1.00  0.00    -0.079 Cl
BRANCH  17  23
ATOM     23  O   UNL A   1      27.573  31.044  21.879  1.00  0.00    -0.493 OA
ATOM     24  C   UNL A   1      28.189  32.314  21.644  1.00  0.00     0.278 C 
ENDBRANCH  17  23
BRANCH  19  25
ATOM     25  O   UNL A   1      26.718  28.918  23.226  1.00  0.00    -0.491 OA
ATOM     26  C   UNL A   1      26.220  27.780  23.921  1.00  0.00     0.278 C 
ENDBRANCH  19  25
ENDBRANCH  11  16
ENDBRANCH   9  10
ENDBRANCH   5   8
ENDBRANCH   3   4
ENDBRANCH   2   3
ENDBRANCH   1   2
BRANCH   1  27
ATOM     27  C   UNL A   1      35.827  22.574  23.688  1.00  0.00     0.002 C 
BRANCH  27  28
ATOM     28  C   UNL A   1      36.492  23.667  24.529  1.00  0.00     0.021 C 
BRANCH  28  29
ATOM     29  C   UNL A   1      36.855  23.330  25.973  1.00  0.00     0.116 C 
BRANCH  29  30
ATOM     30  N   UNL A   1      38.008  22.460  26.090  1.00  0.00    -0.352 N 
ATOM     31  C   UNL A   1      39.294  22.737  26.489  1.00  0.00     0.251 C 
ATOM     32  H   UNL A   1      37.845  21.521  25.844  1.00  0.00     0.163 HD
ATOM     33  O   UNL A   1      40.144  21.852  26.423  1.00  0.00    -0.269 OA
BRANCH  31  34
ATOM     34  C   UNL A   1      39.693  24.085  26.968  1.00  0.00     0.039 A 
ATOM     35  C   UNL A   1      39.564  24.358  28.336  1.00  0.00     0.014 A 
ATOM     36  C   UNL A   1      40.126  25.096  26.105  1.00  0.00     0.014 A 
ATOM     37  C   UNL A   1      39.910  25.615  28.842  1.00  0.00     0.010 A 
ATOM     38  C   UNL A   1      40.519  26.338  26.618  1.00  0.00     0.010 A 
ATOM     39  C   UNL A   1      40.415  26.611  27.991  1.00  0.00    -0.014 A 
BRANCH  39  40
ATOM     40  C   UNL A   1      40.844  27.929  28.533  1.00  0.00     0.031 A 
ATOM     41  C   UNL A   1      42.282  28.189  28.879  1.00  0.00     0.074 A 
ATOM     42  C   UNL A   1      39.925  28.891  28.741  1.00  0.00     0.049 A 
ATOM     43  N   UNL A   1      42.830  29.260  29.399  1.00  0.00    -0.248 NA
ATOM     44  C   UNL A   1      43.233  27.099  28.616  1.00  0.00     0.031 C 
ATOM     45  C   UNL A   1      38.494  28.765  28.467  1.00  0.00     0.029 A 
ATOM     46  N   UNL A   1      40.056  30.166  29.239  1.00  0.00    -0.354 N 
ATOM     47  C   UNL A   1      44.182  28.971  29.533  1.00  0.00     0.074 A 
ATOM     48  C   UNL A   1      44.367  27.611  29.071  1.00  0.00     0.031 C 
ATOM     49  C   UNL A   1      37.881  29.914  28.789  1.00  0.00     0.029 A 
ATOM     50  C   UNL A   1      38.868  30.848  29.327  1.00  0.00     0.049 A 
ATOM     51  H   UNL A   1      40.922  30.553  29.505  1.00  0.00     0.167 HD
ATOM     52  C   UNL A   1      45.178  29.772  29.984  1.00  0.00     0.037 A 
ATOM     53  C   UNL A   1      38.599  32.078  29.805  1.00  0.00     0.037 A 
ATOM     54  C   UNL A   1      44.999  31.130  30.430  1.00  0.00     0.049 A 
ATOM     55  C   UNL A   1      39.716  32.927  30.345  1.00  0.00     0.074 A 
ATOM     56  C   UNL A   1      45.961  32.037  30.844  1.00  0.00     0.029 A 
ATOM     57  N   UNL A   1      43.776  31.775  30.529  1.00  0.00    -0.354 N 
ATOM     58  N   UNL A   1      40.997  32.663  30.413  1.00  0.00    -0.248 NA
ATOM     59  C   UNL A   1      39.347  34.248  30.877  1.00  0.00     0.031 C 
ATOM     60  C   UNL A   1      45.316  33.215  31.235  1.00  0.00     0.029 A 
ATOM     61  C   UNL A   1      43.957  33.059  31.023  1.00  0.00     0.049 A 
ATOM     62  H   UNL A   1      42.908  31.381  30.285  1.00  0.00     0.167 HD
ATOM     63  C   UNL A   1      41.590  33.786  30.972  1.00  0.00     0.074 A 
ATOM     64  C   UNL A   1      40.530  34.742  31.214  1.00  0.00     0.031 C 
ATOM     65  C   UNL A   1      42.896  34.004  31.259  1.00  0.00     0.037 A 
BRANCH  52  66
ATOM     66  C   UNL A   1      46.566  29.200  30.020  1.00  0.00     0.064 A 
ATOM     67  C   UNL A   1      47.419  29.276  28.909  1.00  0.00     0.173 A 
ATOM     68  C   UNL A   1      47.067  28.621  31.195  1.00  0.00     0.173 A 
ATOM     69  F   UNL A   1      46.984  29.815  27.760  1.00  0.00    -0.203 F 
ATOM     70  C   UNL A   1      48.715  28.773  28.966  1.00  0.00     0.198 A 
ATOM     71  C   UNL A   1      48.373  28.141  31.256  1.00  0.00     0.198 A 
ATOM     72  F   UNL A   1      46.296  28.533  32.289  1.00  0.00    -0.203 F 
ATOM     73  F   UNL A   1      49.501  28.823  27.880  1.00  0.00    -0.200 F 
ATOM     74  C   UNL A   1      49.194  28.212  30.140  1.00  0.00     0.200 A 
ATOM     75  F   UNL A   1      48.839  27.611  32.396  1.00  0.00    -0.200 F 
ATOM     76  F   UNL A   1      50.445  27.735  30.197  1.00  0.00    -0.200 F 
ENDBRANCH  52  66
BRANCH  53  77
ATOM     77  C   UNL A   1      37.199  32.576  29.813  1.00  0.00     0.064 A 
ATOM     78  C   UNL A   1      36.348  32.340  30.899  1.00  0.00     0.173 A 
ATOM     79  C   UNL A   1      36.686  33.292  28.725  1.00  0.00     0.173 A 
ATOM     80  F   UNL A   1      36.785  31.636  31.953  1.00  0.00    -0.203 F 
ATOM     81  C   UNL A   1      35.028  32.793  30.888  1.00  0.00     0.198 A 
ATOM     82  C   UNL A   1      35.377  33.766  28.723  1.00  0.00     0.198 A 
ATOM     83  F   UNL A   1      37.464  33.543  27.664  1.00  0.00    -0.203 F 
ATOM     84  F   UNL A   1      34.221  32.520  31.922  1.00  0.00    -0.200 F 
ATOM     85  C   UNL A   1      34.546  33.511  29.803  1.00  0.00     0.200 A 
ATOM     86  F   UNL A   1      34.923  34.468  27.676  1.00  0.00    -0.200 F 
ATOM     87  F   UNL A   1      33.280  33.948  29.795  1.00  0.00    -0.200 F 
ENDBRANCH  53  77
BRANCH  65  88
ATOM     88  C   UNL A   1      43.258  35.341  31.836  1.00  0.00     0.064 A 
ATOM     89  C   UNL A   1      43.214  35.580  33.217  1.00  0.00     0.173 A 
ATOM     90  C   UNL A   1      43.679  36.386  31.000  1.00  0.00     0.173 A 
ATOM     91  F   UNL A   1      42.799  34.619  34.056  1.00  0.00    -0.203 F 
ATOM     92  C   UNL A   1      43.557  36.826  33.738  1.00  0.00     0.198 A 
ATOM     93  C   UNL A   1      44.046  37.621  31.526  1.00  0.00     0.198 A 
ATOM     94  F   UNL A   1      43.741  36.207  29.672  1.00  0.00    -0.203 F 
ATOM     95  F   UNL A   1      43.464  37.047  35.056  1.00  0.00    -0.200 F 
ATOM     96  C   UNL A   1      43.979  37.842  32.894  1.00  0.00     0.200 A 
ATOM     97  F   UNL A   1      44.461  38.599  30.710  1.00  0.00    -0.200 F 
ATOM     98  F   UNL A   1      44.311  39.040  33.397  1.00  0.00    -0.200 F 
ENDBRANCH  65  88
ENDBRANCH  39  40
ENDBRANCH  31  34
ENDBRANCH  29  30
ENDBRANCH  28  29
ENDBRANCH  27  28
ENDBRANCH   1  27
TORSDOF 17
ENDMDL
