MODEL 1
REMARK VINA RESULT:     -11.9      0.000      0.000
REMARK SMILES O=C(NCCCCCCNC(=O)c1cn(C[C@@H]2CCS(=O)(=O)C2)c(=O)[nH]c1=O)c1ccc(-c2c3nc(c(-c4c(F)c(F)c(F)c(F)c4F)c4ccc([nH]4)c(-c4c(F)c(F)c(F)c(F)c4F)c4nc(c(-c5c(F)c(F)c(F)c(F)c5F)c5ccc2[nH]5)C=C4)C=C3)cc1
REMARK SMILES IDX 6 1 5 2 4 3 3 4 1 5 2 6 29 8 30 9 91 10 31 11 90 12 32 13
REMARK SMILES IDX 33 14 34 15 84 16 35 17 89 18 83 19 85 20 36 21 88 22 82 23
REMARK SMILES IDX 81 24 37 26 69 27 49 28 68 29 50 30 53 31 67 32 86 33 51 34
REMARK SMILES IDX 52 35 66 37 87 38 54 39 38 40 39 41 47 42 40 43 41 44 45 45
REMARK SMILES IDX 48 46 42 47 43 48 46 49 44 50 70 51 71 52 79 53 72 54 73 55
REMARK SMILES IDX 77 56 80 57 74 58 75 59 78 60 76 61 55 62 56 63 64 64 57 65
REMARK SMILES IDX 58 66 62 67 65 68 59 69 60 70 63 71 61 72 7 73 8 74 9 75
REMARK SMILES IDX 10 76 11 77 12 79 13 80 14 81 27 82 15 83 26 84 28 85 24 86
REMARK SMILES IDX 25 88 16 89 17 90 18 91 23 92 19 93 20 94 21 95 22 96
REMARK H PARENT 3 7 85 25 53 36 10 78 26 87
REMARK Flexibility Score: inf
ROOT
ATOM      1  C   UNL A   1      35.306  22.700  23.871  1.00  0.00     0.002 C 
ENDROOT
BRANCH   1   2
ATOM      2  C   UNL A   1      36.205  23.684  24.627  1.00  0.00     0.021 C 
BRANCH   2   3
ATOM      3  C   UNL A   1      36.572  23.259  26.046  1.00  0.00     0.116 C 
BRANCH   3   4
ATOM      4  N   UNL A   1      37.762  22.428  26.068  1.00  0.00    -0.352 N 
ATOM      5  O   UNL A   1      39.967  21.981  26.068  1.00  0.00    -0.269 OA
ATOM      6  C   UNL A   1      39.064  22.776  26.313  1.00  0.00     0.251 C 
ATOM      7  H   UNL A   1      37.610  21.474  25.880  1.00  0.00     0.163 HD
BRANCH   6   8
ATOM      8  C   UNL A   1      39.392  24.104  26.875  1.00  0.00     0.039 A 
ATOM      9  C   UNL A   1      40.003  25.053  26.049  1.00  0.00     0.014 A 
ATOM     10  C   UNL A   1      39.174  24.389  28.226  1.00  0.00     0.014 A 
ATOM     11  C   UNL A   1      40.380  26.291  26.572  1.00  0.00     0.010 A 
ATOM     12  C   UNL A   1      39.496  25.647  28.732  1.00  0.00     0.010 A 
ATOM     13  C   UNL A   1      40.123  26.600  27.916  1.00  0.00    -0.014 A 
BRANCH  13  14
ATOM     14  C   UNL A   1      40.567  27.884  28.516  1.00  0.00     0.031 A 
ATOM     15  C   UNL A   1      42.024  28.085  28.833  1.00  0.00     0.074 A 
ATOM     16  C   UNL A   1      39.671  28.848  28.800  1.00  0.00     0.049 A 
ATOM     17  N   UNL A   1      42.605  29.065  29.479  1.00  0.00    -0.248 NA
ATOM     18  C   UNL A   1      42.952  27.037  28.374  1.00  0.00     0.031 C 
ATOM     19  C   UNL A   1      38.237  28.782  28.516  1.00  0.00     0.029 A 
ATOM     20  N   UNL A   1      39.837  30.072  29.398  1.00  0.00    -0.354 N 
ATOM     21  C   UNL A   1      43.958  28.750  29.504  1.00  0.00     0.074 A 
ATOM     22  C   UNL A   1      44.110  27.466  28.856  1.00  0.00     0.031 C 
ATOM     23  C   UNL A   1      37.657  29.924  28.920  1.00  0.00     0.029 A 
ATOM     24  C   UNL A   1      38.667  30.779  29.539  1.00  0.00     0.049 A 
ATOM     25  H   UNL A   1      40.710  30.412  29.697  1.00  0.00     0.167 HD
ATOM     26  C   UNL A   1      44.984  29.480  30.000  1.00  0.00     0.037 A 
ATOM     27  C   UNL A   1      38.437  31.975  30.115  1.00  0.00     0.037 A 
ATOM     28  C   UNL A   1      44.833  30.766  30.628  1.00  0.00     0.049 A 
ATOM     29  C   UNL A   1      39.591  32.727  30.727  1.00  0.00     0.074 A 
ATOM     30  C   UNL A   1      45.809  31.574  31.185  1.00  0.00     0.029 A 
ATOM     31  N   UNL A   1      43.629  31.440  30.767  1.00  0.00    -0.354 N 
ATOM     32  N   UNL A   1      40.863  32.412  30.763  1.00  0.00    -0.248 NA
ATOM     33  C   UNL A   1      39.274  34.007  31.380  1.00  0.00     0.031 C 
ATOM     34  C   UNL A   1      45.193  32.722  31.688  1.00  0.00     0.029 A 
ATOM     35  C   UNL A   1      43.841  32.655  31.398  1.00  0.00     0.049 A 
ATOM     36  H   UNL A   1      42.755  31.105  30.464  1.00  0.00     0.167 HD
ATOM     37  C   UNL A   1      41.502  33.472  31.393  1.00  0.00     0.074 A 
ATOM     38  C   UNL A   1      40.479  34.444  31.718  1.00  0.00     0.031 C 
ATOM     39  C   UNL A   1      42.817  33.628  31.678  1.00  0.00     0.037 A 
BRANCH  26  40
ATOM     40  C   UNL A   1      46.373  28.930  29.865  1.00  0.00     0.064 A 
ATOM     41  C   UNL A   1      46.917  28.087  30.846  1.00  0.00     0.173 A 
ATOM     42  C   UNL A   1      47.124  29.157  28.703  1.00  0.00     0.173 A 
ATOM     43  F   UNL A   1      46.243  27.851  31.982  1.00  0.00    -0.203 F 
ATOM     44  C   UNL A   1      48.162  27.491  30.667  1.00  0.00     0.198 A 
ATOM     45  C   UNL A   1      48.357  28.537  28.515  1.00  0.00     0.198 A 
ATOM     46  F   UNL A   1      46.648  29.953  27.734  1.00  0.00    -0.203 F 
ATOM     47  F   UNL A   1      48.670  26.705  31.626  1.00  0.00    -0.200 F 
ATOM     48  C   UNL A   1      48.875  27.705  29.497  1.00  0.00     0.200 A 
ATOM     49  F   UNL A   1      49.037  28.732  27.377  1.00  0.00    -0.200 F 
ATOM     50  F   UNL A   1      50.059  27.105  29.313  1.00  0.00    -0.200 F 
ENDBRANCH  26  40
BRANCH  27  51
ATOM     51  C   UNL A   1      37.068  32.556  30.130  1.00  0.00     0.064 A 
ATOM     52  C   UNL A   1      36.643  33.413  29.105  1.00  0.00     0.173 A 
ATOM     53  C   UNL A   1      36.170  32.298  31.176  1.00  0.00     0.173 A 
ATOM     54  F   UNL A   1      37.474  33.710  28.094  1.00  0.00    -0.203 F 
ATOM     55  C   UNL A   1      35.388  34.015  29.141  1.00  0.00     0.198 A 
ATOM     56  C   UNL A   1      34.901  32.874  31.194  1.00  0.00     0.198 A 
ATOM     57  F   UNL A   1      36.524  31.485  32.182  1.00  0.00    -0.203 F 
ATOM     58  F   UNL A   1      35.033  34.877  28.179  1.00  0.00    -0.200 F 
ATOM     59  C   UNL A   1      34.516  33.740  30.182  1.00  0.00     0.200 A 
ATOM     60  F   UNL A   1      34.055  32.595  32.196  1.00  0.00    -0.200 F 
ATOM     61  F   UNL A   1      33.307  34.320  30.218  1.00  0.00    -0.200 F 
ENDBRANCH  27  51
BRANCH  39  62
ATOM     62  C   UNL A   1      43.246  34.924  32.303  1.00  0.00     0.064 A 
ATOM     63  C   UNL A   1      43.618  36.033  31.530  1.00  0.00     0.173 A 
ATOM     64  C   UNL A   1      43.236  35.069  33.699  1.00  0.00     0.173 A 
ATOM     65  F   UNL A   1      43.654  35.942  30.192  1.00  0.00    -0.203 F 
ATOM     66  C   UNL A   1      43.992  37.232  32.133  1.00  0.00     0.198 A 
ATOM     67  C   UNL A   1      43.578  36.279  34.297  1.00  0.00     0.198 A 
ATOM     68  F   UNL A   1      42.878  34.043  34.485  1.00  0.00    -0.203 F 
ATOM     69  F   UNL A   1      44.392  38.263  31.375  1.00  0.00    -0.200 F 
ATOM     70  C   UNL A   1      43.964  37.356  33.513  1.00  0.00     0.200 A 
ATOM     71  F   UNL A   1      43.532  36.403  35.631  1.00  0.00    -0.200 F 
ATOM     72  F   UNL A   1      44.315  38.513  34.090  1.00  0.00    -0.200 F 
ENDBRANCH  39  62
ENDBRANCH  13  14
ENDBRANCH   6   8
ENDBRANCH   3   4
ENDBRANCH   2   3
ENDBRANCH   1   2
BRANCH   1  73
ATOM     73  C   UNL A   1      34.775  21.522  24.693  1.00  0.00     0.002 C 
BRANCH  73  74
ATOM     74  C   UNL A   1      33.447  20.934  24.215  1.00  0.00     0.021 C 
BRANCH  74  75
ATOM     75  C   UNL A   1      32.391  20.776  25.300  1.00  0.00     0.116 C 
BRANCH  75  76
ATOM     76  N   UNL A   1      32.841  21.235  26.606  1.00  0.00    -0.352 N 
ATOM     77  C   UNL A   1      32.631  22.442  27.225  1.00  0.00     0.258 C 
ATOM     78  H   UNL A   1      33.373  20.586  27.118  1.00  0.00     0.163 HD
ATOM     79  O   UNL A   1      33.105  22.651  28.336  1.00  0.00    -0.269 OA
BRANCH  77  80
ATOM     80  C   UNL A   1      31.810  23.441  26.516  1.00  0.00     0.121 A 
ATOM     81  C   UNL A   1      32.406  24.262  25.640  1.00  0.00     0.110 A 
ATOM     82  C   UNL A   1      30.375  23.627  26.789  1.00  0.00     0.266 A 
ATOM     83  N   UNL A   1      31.765  25.360  25.094  1.00  0.00    -0.299 N 
ATOM     84  N   UNL A   1      29.800  24.713  26.184  1.00  0.00    -0.273 N 
ATOM     85  O   UNL A   1      29.740  22.925  27.567  1.00  0.00    -0.268 OA
ATOM     86  C   UNL A   1      30.441  25.647  25.415  1.00  0.00     0.328 A 
ATOM     87  H   UNL A   1      28.832  24.834  26.313  1.00  0.00     0.175 HD
ATOM     88  O   UNL A   1      29.858  26.664  25.047  1.00  0.00    -0.248 OA
BRANCH  83  89
ATOM     89  C   UNL A   1      32.536  26.311  24.301  1.00  0.00     0.131 C 
BRANCH  89  90
ATOM     90  C   UNL A   1      33.505  27.235  25.063  1.00  0.00     0.025 C 
ATOM     91  C   UNL A   1      33.310  27.275  26.587  1.00  0.00     0.022 C 
ATOM     92  C   UNL A   1      33.526  28.688  24.589  1.00  0.00     0.142 C 
ATOM     93  C   UNL A   1      32.305  28.363  26.944  1.00  0.00     0.137 C 
ATOM     94  S   UNL A   1      32.450  29.605  25.678  1.00  0.00     0.150 S 
ATOM     95  O   UNL A   1      31.162  29.767  25.034  1.00  0.00    -0.229 OA
ATOM     96  O   UNL A   1      33.191  30.729  26.208  1.00  0.00    -0.229 OA
ENDBRANCH  89  90
ENDBRANCH  83  89
ENDBRANCH  77  80
ENDBRANCH  75  76
ENDBRANCH  74  75
ENDBRANCH  73  74
ENDBRANCH   1  73
TORSDOF 15
ENDMDL
MODEL 2
REMARK VINA RESULT:     -11.8      4.123      8.130
REMARK SMILES O=C(NCCCCCCNC(=O)c1cn(C[C@@H]2CCS(=O)(=O)C2)c(=O)[nH]c1=O)c1ccc(-c2c3nc(c(-c4c(F)c(F)c(F)c(F)c4F)c4ccc([nH]4)c(-c4c(F)c(F)c(F)c(F)c4F)c4nc(c(-c5c(F)c(F)c(F)c(F)c5F)c5ccc2[nH]5)C=C4)C=C3)cc1
REMARK SMILES IDX 6 1 5 2 4 3 3 4 1 5 2 6 29 8 30 9 91 10 31 11 90 12 32 13
REMARK SMILES IDX 33 14 34 15 84 16 35 17 89 18 83 19 85 20 36 21 88 22 82 23
REMARK SMILES IDX 81 24 37 26 69 27 49 28 68 29 50 30 53 31 67 32 86 33 51 34
REMARK SMILES IDX 52 35 66 37 87 38 54 39 38 40 39 41 47 42 40 43 41 44 45 45
REMARK SMILES IDX 48 46 42 47 43 48 46 49 44 50 70 51 71 52 79 53 72 54 73 55
REMARK SMILES IDX 77 56 80 57 74 58 75 59 78 60 76 61 55 62 56 63 64 64 57 65
REMARK SMILES IDX 58 66 62 67 65 68 59 69 60 70 63 71 61 72 7 73 8 74 9 75
REMARK SMILES IDX 10 76 11 77 12 79 13 80 14 81 27 82 15 83 26 84 28 85 24 86
REMARK SMILES IDX 25 88 16 89 17 90 18 91 23 92 19 93 20 94 21 95 22 96
REMARK H PARENT 3 7 85 25 53 36 10 78 26 87
REMARK Flexibility Score: inf
ROOT
ATOM      1  C   UNL A   1      31.633  30.643  26.124  1.00  0.00     0.002 C 
ENDROOT
BRANCH   1   2
ATOM      2  C   UNL A   1      31.451  32.071  26.649  1.00  0.00     0.021 C 
BRANCH   2   3
ATOM      3  C   UNL A   1      32.698  32.690  27.273  1.00  0.00     0.116 C 
BRANCH   3   4
ATOM      4  N   UNL A   1      32.492  34.085  27.617  1.00  0.00    -0.352 N 
ATOM      5  O   UNL A   1      32.592  35.931  28.900  1.00  0.00    -0.269 OA
ATOM      6  C   UNL A   1      33.053  34.827  28.621  1.00  0.00     0.251 C 
ATOM      7  H   UNL A   1      31.855  34.569  27.043  1.00  0.00     0.163 HD
BRANCH   6   8
ATOM      8  C   UNL A   1      34.218  34.312  29.374  1.00  0.00     0.039 A 
ATOM      9  C   UNL A   1      35.503  34.570  28.886  1.00  0.00     0.014 A 
ATOM     10  C   UNL A   1      34.047  33.514  30.509  1.00  0.00     0.014 A 
ATOM     11  C   UNL A   1      36.616  34.042  29.542  1.00  0.00     0.010 A 
ATOM     12  C   UNL A   1      35.161  33.038  31.198  1.00  0.00     0.010 A 
ATOM     13  C   UNL A   1      36.454  33.278  30.708  1.00  0.00    -0.014 A 
BRANCH  13  14
ATOM     14  C   UNL A   1      37.612  32.652  31.393  1.00  0.00     0.031 A 
ATOM     15  C   UNL A   1      38.340  31.517  30.726  1.00  0.00     0.074 A 
ATOM     16  C   UNL A   1      37.992  33.078  32.613  1.00  0.00     0.049 A 
ATOM     17  N   UNL A   1      39.284  30.743  31.200  1.00  0.00    -0.248 NA
ATOM     18  C   UNL A   1      37.944  31.200  29.342  1.00  0.00     0.031 C 
ATOM     19  C   UNL A   1      37.384  34.185  33.351  1.00  0.00     0.029 A 
ATOM     20  N   UNL A   1      38.980  32.622  33.450  1.00  0.00    -0.354 N 
ATOM     21  C   UNL A   1      39.589  29.852  30.178  1.00  0.00     0.074 A 
ATOM     22  C   UNL A   1      38.699  30.144  29.077  1.00  0.00     0.031 C 
ATOM     23  C   UNL A   1      38.026  34.336  34.521  1.00  0.00     0.029 A 
ATOM     24  C   UNL A   1      39.053  33.305  34.639  1.00  0.00     0.049 A 
ATOM     25  H   UNL A   1      39.580  31.876  33.219  1.00  0.00     0.167 HD
ATOM     26  C   UNL A   1      40.546  28.895  30.154  1.00  0.00     0.037 A 
ATOM     27  C   UNL A   1      39.851  33.109  35.708  1.00  0.00     0.037 A 
ATOM     28  C   UNL A   1      41.443  28.617  31.245  1.00  0.00     0.049 A 
ATOM     29  C   UNL A   1      40.853  31.984  35.678  1.00  0.00     0.074 A 
ATOM     30  C   UNL A   1      42.430  27.651  31.325  1.00  0.00     0.029 A 
ATOM     31  N   UNL A   1      41.472  29.321  32.440  1.00  0.00    -0.354 N 
ATOM     32  N   UNL A   1      41.121  31.135  34.715  1.00  0.00    -0.248 NA
ATOM     33  C   UNL A   1      41.666  31.791  36.888  1.00  0.00     0.031 C 
ATOM     34  C   UNL A   1      43.037  27.749  32.580  1.00  0.00     0.029 A 
ATOM     35  C   UNL A   1      42.464  28.810  33.261  1.00  0.00     0.049 A 
ATOM     36  H   UNL A   1      40.878  30.071  32.670  1.00  0.00     0.167 HD
ATOM     37  C   UNL A   1      42.163  30.345  35.182  1.00  0.00     0.074 A 
ATOM     38  C   UNL A   1      42.484  30.818  36.512  1.00  0.00     0.031 C 
ATOM     39  C   UNL A   1      42.797  29.319  34.565  1.00  0.00     0.037 A 
BRANCH  26  40
ATOM     40  C   UNL A   1      40.702  28.084  28.901  1.00  0.00     0.064 A 
ATOM     41  C   UNL A   1      39.976  26.900  28.709  1.00  0.00     0.173 A 
ATOM     42  C   UNL A   1      41.498  28.546  27.843  1.00  0.00     0.173 A 
ATOM     43  F   UNL A   1      39.212  26.408  29.697  1.00  0.00    -0.203 F 
ATOM     44  C   UNL A   1      40.041  26.207  27.503  1.00  0.00     0.198 A 
ATOM     45  C   UNL A   1      41.538  27.867  26.628  1.00  0.00     0.198 A 
ATOM     46  F   UNL A   1      42.210  29.675  27.975  1.00  0.00    -0.203 F 
ATOM     47  F   UNL A   1      39.352  25.068  27.349  1.00  0.00    -0.200 F 
ATOM     48  C   UNL A   1      40.810  26.699  26.459  1.00  0.00     0.200 A 
ATOM     49  F   UNL A   1      42.269  28.352  25.615  1.00  0.00    -0.200 F 
ATOM     50  F   UNL A   1      40.846  26.049  25.288  1.00  0.00    -0.200 F 
ENDBRANCH  26  40
BRANCH  27  51
ATOM     51  C   UNL A   1      39.758  34.003  36.893  1.00  0.00     0.064 A 
ATOM     52  C   UNL A   1      38.954  33.657  37.989  1.00  0.00     0.173 A 
ATOM     53  C   UNL A   1      40.436  35.230  36.945  1.00  0.00     0.173 A 
ATOM     54  F   UNL A   1      38.266  32.506  37.976  1.00  0.00    -0.203 F 
ATOM     55  C   UNL A   1      38.806  34.516  39.075  1.00  0.00     0.198 A 
ATOM     56  C   UNL A   1      40.315  36.073  38.049  1.00  0.00     0.198 A 
ATOM     57  F   UNL A   1      41.220  35.610  35.925  1.00  0.00    -0.203 F 
ATOM     58  F   UNL A   1      37.984  34.186  40.080  1.00  0.00    -0.200 F 
ATOM     59  C   UNL A   1      39.491  35.720  39.107  1.00  0.00     0.200 A 
ATOM     60  F   UNL A   1      40.990  37.230  38.081  1.00  0.00    -0.200 F 
ATOM     61  F   UNL A   1      39.349  36.548  40.152  1.00  0.00    -0.200 F 
ENDBRANCH  27  51
BRANCH  39  62
ATOM     62  C   UNL A   1      43.954  28.684  35.282  1.00  0.00     0.064 A 
ATOM     63  C   UNL A   1      43.780  27.609  36.165  1.00  0.00     0.173 A 
ATOM     64  C   UNL A   1      45.263  29.131  35.039  1.00  0.00     0.173 A 
ATOM     65  F   UNL A   1      42.549  27.152  36.438  1.00  0.00    -0.203 F 
ATOM     66  C   UNL A   1      44.872  27.023  36.801  1.00  0.00     0.198 A 
ATOM     67  C   UNL A   1      46.354  28.520  35.651  1.00  0.00     0.198 A 
ATOM     68  F   UNL A   1      45.486  30.148  34.194  1.00  0.00    -0.203 F 
ATOM     69  F   UNL A   1      44.677  26.030  37.681  1.00  0.00    -0.200 F 
ATOM     70  C   UNL A   1      46.157  27.473  36.538  1.00  0.00     0.200 A 
ATOM     71  F   UNL A   1      47.596  28.944  35.380  1.00  0.00    -0.200 F 
ATOM     72  F   UNL A   1      47.206  26.902  37.145  1.00  0.00    -0.200 F 
ENDBRANCH  39  62
ENDBRANCH  13  14
ENDBRANCH   6   8
ENDBRANCH   3   4
ENDBRANCH   2   3
ENDBRANCH   1   2
BRANCH   1  73
ATOM     73  C   UNL A   1      32.176  29.629  27.137  1.00  0.00     0.002 C 
BRANCH  73  74
ATOM     74  C   UNL A   1      33.383  28.817  26.668  1.00  0.00     0.021 C 
BRANCH  74  75
ATOM     75  C   UNL A   1      33.043  27.493  25.999  1.00  0.00     0.116 C 
BRANCH  75  76
ATOM     76  N   UNL A   1      31.791  26.921  26.471  1.00  0.00    -0.352 N 
ATOM     77  C   UNL A   1      30.996  25.966  25.889  1.00  0.00     0.258 C 
ATOM     78  H   UNL A   1      31.468  27.270  27.332  1.00  0.00     0.163 HD
ATOM     79  O   UNL A   1      29.958  25.614  26.440  1.00  0.00    -0.269 OA
BRANCH  77  80
ATOM     80  C   UNL A   1      31.448  25.383  24.612  1.00  0.00     0.121 A 
ATOM     81  C   UNL A   1      32.078  24.201  24.631  1.00  0.00     0.110 A 
ATOM     82  C   UNL A   1      31.306  26.084  23.325  1.00  0.00     0.266 A 
ATOM     83  N   UNL A   1      32.722  23.684  23.520  1.00  0.00    -0.299 N 
ATOM     84  N   UNL A   1      31.938  25.492  22.264  1.00  0.00    -0.273 N 
ATOM     85  O   UNL A   1      30.741  27.164  23.205  1.00  0.00    -0.268 OA
ATOM     86  C   UNL A   1      32.717  24.368  22.308  1.00  0.00     0.328 A 
ATOM     87  H   UNL A   1      31.820  25.916  21.384  1.00  0.00     0.175 HD
ATOM     88  O   UNL A   1      33.360  24.011  21.324  1.00  0.00    -0.248 OA
BRANCH  83  89
ATOM     89  C   UNL A   1      33.546  22.488  23.668  1.00  0.00     0.131 C 
BRANCH  89  90
ATOM     90  C   UNL A   1      33.340  21.651  24.944  1.00  0.00     0.025 C 
ATOM     91  C   UNL A   1      34.519  20.743  25.331  1.00  0.00     0.022 C 
ATOM     92  C   UNL A   1      32.092  20.768  24.948  1.00  0.00     0.142 C 
ATOM     93  C   UNL A   1      34.362  19.387  24.653  1.00  0.00     0.137 C 
ATOM     94  S   UNL A   1      32.611  19.133  24.455  1.00  0.00     0.150 S 
ATOM     95  O   UNL A   1      32.322  18.956  23.047  1.00  0.00    -0.229 OA
ATOM     96  O   UNL A   1      32.159  18.192  25.457  1.00  0.00    -0.229 OA
ENDBRANCH  89  90
ENDBRANCH  83  89
ENDBRANCH  77  80
ENDBRANCH  75  76
ENDBRANCH  74  75
ENDBRANCH  73  74
ENDBRANCH   1  73
TORSDOF 15
ENDMDL
MODEL 3
REMARK VINA RESULT:     -11.8      3.925      7.909
REMARK SMILES O=C(NCCCCCCNC(=O)c1cn(C[C@@H]2CCS(=O)(=O)C2)c(=O)[nH]c1=O)c1ccc(-c2c3nc(c(-c4c(F)c(F)c(F)c(F)c4F)c4ccc([nH]4)c(-c4c(F)c(F)c(F)c(F)c4F)c4nc(c(-c5c(F)c(F)c(F)c(F)c5F)c5ccc2[nH]5)C=C4)C=C3)cc1
REMARK SMILES IDX 6 1 5 2 4 3 3 4 1 5 2 6 29 8 30 9 91 10 31 11 90 12 32 13
REMARK SMILES IDX 33 14 34 15 84 16 35 17 89 18 83 19 85 20 36 21 88 22 82 23
REMARK SMILES IDX 81 24 37 26 69 27 49 28 68 29 50 30 53 31 67 32 86 33 51 34
REMARK SMILES IDX 52 35 66 37 87 38 54 39 38 40 39 41 47 42 40 43 41 44 45 45
REMARK SMILES IDX 48 46 42 47 43 48 46 49 44 50 70 51 71 52 79 53 72 54 73 55
REMARK SMILES IDX 77 56 80 57 74 58 75 59 78 60 76 61 55 62 56 63 64 64 57 65
REMARK SMILES IDX 58 66 62 67 65 68 59 69 60 70 63 71 61 72 7 73 8 74 9 75
REMARK SMILES IDX 10 76 11 77 12 79 13 80 14 81 27 82 15 83 26 84 28 85 24 86
REMARK SMILES IDX 25 88 16 89 17 90 18 91 23 92 19 93 20 94 21 95 22 96
REMARK H PARENT 3 7 85 25 53 36 10 78 26 87
REMARK Flexibility Score: inf
ROOT
ATOM      1  C   UNL A   1      31.454  30.277  26.445  1.00  0.00     0.002 C 
ENDROOT
BRANCH   1   2
ATOM      2  C   UNL A   1      31.375  31.802  26.564  1.00  0.00     0.021 C 
BRANCH   2   3
ATOM      3  C   UNL A   1      32.649  32.476  27.063  1.00  0.00     0.116 C 
BRANCH   3   4
ATOM      4  N   UNL A   1      32.417  33.859  27.438  1.00  0.00    -0.352 N 
ATOM      5  O   UNL A   1      32.493  35.680  28.756  1.00  0.00    -0.269 OA
ATOM      6  C   UNL A   1      32.974  34.593  28.449  1.00  0.00     0.251 C 
ATOM      7  H   UNL A   1      31.761  34.339  26.882  1.00  0.00     0.163 HD
BRANCH   6   8
ATOM      8  C   UNL A   1      34.161  34.090  29.176  1.00  0.00     0.039 A 
ATOM      9  C   UNL A   1      35.432  34.461  28.728  1.00  0.00     0.014 A 
ATOM     10  C   UNL A   1      34.028  33.196  30.242  1.00  0.00     0.014 A 
ATOM     11  C   UNL A   1      36.569  33.950  29.357  1.00  0.00     0.010 A 
ATOM     12  C   UNL A   1      35.161  32.734  30.907  1.00  0.00     0.010 A 
ATOM     13  C   UNL A   1      36.442  33.088  30.456  1.00  0.00    -0.014 A 
BRANCH  13  14
ATOM     14  C   UNL A   1      37.630  32.480  31.107  1.00  0.00     0.031 A 
ATOM     15  C   UNL A   1      38.370  31.373  30.406  1.00  0.00     0.074 A 
ATOM     16  C   UNL A   1      38.025  32.895  32.325  1.00  0.00     0.049 A 
ATOM     17  N   UNL A   1      39.341  30.615  30.848  1.00  0.00    -0.248 NA
ATOM     18  C   UNL A   1      37.952  31.068  29.026  1.00  0.00     0.031 C 
ATOM     19  C   UNL A   1      37.407  33.975  33.094  1.00  0.00     0.029 A 
ATOM     20  N   UNL A   1      39.041  32.450  33.134  1.00  0.00    -0.354 N 
ATOM     21  C   UNL A   1      39.646  29.748  29.806  1.00  0.00     0.074 A 
ATOM     22  C   UNL A   1      38.726  30.035  28.728  1.00  0.00     0.031 C 
ATOM     23  C   UNL A   1      38.069  34.124  34.253  1.00  0.00     0.029 A 
ATOM     24  C   UNL A   1      39.124  33.116  34.333  1.00  0.00     0.049 A 
ATOM     25  H   UNL A   1      39.653  31.723  32.879  1.00  0.00     0.167 HD
ATOM     26  C   UNL A   1      40.624  28.814  29.746  1.00  0.00     0.037 A 
ATOM     27  C   UNL A   1      39.948  32.923  35.381  1.00  0.00     0.037 A 
ATOM     28  C   UNL A   1      41.551  28.541  30.813  1.00  0.00     0.049 A 
ATOM     29  C   UNL A   1      40.976  31.823  35.311  1.00  0.00     0.074 A 
ATOM     30  C   UNL A   1      42.562  27.598  30.857  1.00  0.00     0.029 A 
ATOM     31  N   UNL A   1      41.589  29.227  32.019  1.00  0.00    -0.354 N 
ATOM     32  N   UNL A   1      41.243  30.996  34.330  1.00  0.00    -0.248 NA
ATOM     33  C   UNL A   1      41.819  31.631  36.501  1.00  0.00     0.031 C 
ATOM     34  C   UNL A   1      43.193  27.690  32.100  1.00  0.00     0.029 A 
ATOM     35  C   UNL A   1      42.610  28.727  32.810  1.00  0.00     0.049 A 
ATOM     36  H   UNL A   1      40.982  29.958  32.273  1.00  0.00     0.167 HD
ATOM     37  C   UNL A   1      42.313  30.224  34.762  1.00  0.00     0.074 A 
ATOM     38  C   UNL A   1      42.651  30.683  36.092  1.00  0.00     0.031 C 
ATOM     39  C   UNL A   1      42.959  29.223  34.116  1.00  0.00     0.037 A 
BRANCH  26  40
ATOM     40  C   UNL A   1      40.773  28.027  28.477  1.00  0.00     0.064 A 
ATOM     41  C   UNL A   1      41.607  28.473  27.441  1.00  0.00     0.173 A 
ATOM     42  C   UNL A   1      40.165  26.771  28.337  1.00  0.00     0.173 A 
ATOM     43  F   UNL A   1      42.199  29.675  27.520  1.00  0.00    -0.203 F 
ATOM     44  C   UNL A   1      41.827  27.690  26.312  1.00  0.00     0.198 A 
ATOM     45  C   UNL A   1      40.410  25.978  27.220  1.00  0.00     0.198 A 
ATOM     46  F   UNL A   1      39.361  26.298  29.301  1.00  0.00    -0.203 F 
ATOM     47  F   UNL A   1      42.614  28.144  25.326  1.00  0.00    -0.200 F 
ATOM     48  C   UNL A   1      41.241  26.437  26.208  1.00  0.00     0.200 A 
ATOM     49  F   UNL A   1      39.855  24.761  27.128  1.00  0.00    -0.200 F 
ATOM     50  F   UNL A   1      41.480  25.671  25.135  1.00  0.00    -0.200 F 
ENDBRANCH  26  40
BRANCH  27  51
ATOM     51  C   UNL A   1      39.859  33.796  36.582  1.00  0.00     0.064 A 
ATOM     52  C   UNL A   1      39.017  33.458  37.651  1.00  0.00     0.173 A 
ATOM     53  C   UNL A   1      40.580  34.995  36.675  1.00  0.00     0.173 A 
ATOM     54  F   UNL A   1      38.289  32.333  37.599  1.00  0.00    -0.203 F 
ATOM     55  C   UNL A   1      38.875  34.299  38.752  1.00  0.00     0.198 A 
ATOM     56  C   UNL A   1      40.463  35.821  37.793  1.00  0.00     0.198 A 
ATOM     57  F   UNL A   1      41.401  35.367  35.682  1.00  0.00    -0.203 F 
ATOM     58  F   UNL A   1      38.017  33.980  39.730  1.00  0.00    -0.200 F 
ATOM     59  C   UNL A   1      39.602  35.477  38.824  1.00  0.00     0.200 A 
ATOM     60  F   UNL A   1      41.179  36.951  37.866  1.00  0.00    -0.200 F 
ATOM     61  F   UNL A   1      39.465  36.288  39.883  1.00  0.00    -0.200 F 
ENDBRANCH  27  51
BRANCH  39  62
ATOM     62  C   UNL A   1      44.146  28.605  34.797  1.00  0.00     0.064 A 
ATOM     63  C   UNL A   1      45.422  29.183  34.731  1.00  0.00     0.173 A 
ATOM     64  C   UNL A   1      43.989  27.443  35.568  1.00  0.00     0.173 A 
ATOM     65  F   UNL A   1      45.626  30.287  33.998  1.00  0.00    -0.203 F 
ATOM     66  C   UNL A   1      46.504  28.603  35.389  1.00  0.00     0.198 A 
ATOM     67  C   UNL A   1      45.066  26.885  36.252  1.00  0.00     0.198 A 
ATOM     68  F   UNL A   1      42.787  26.858  35.675  1.00  0.00    -0.203 F 
ATOM     69  F   UNL A   1      47.725  29.143  35.270  1.00  0.00    -0.200 F 
ATOM     70  C   UNL A   1      46.323  27.461  36.155  1.00  0.00     0.200 A 
ATOM     71  F   UNL A   1      44.884  25.793  37.007  1.00  0.00    -0.200 F 
ATOM     72  F   UNL A   1      47.364  26.910  36.794  1.00  0.00    -0.200 F 
ENDBRANCH  39  62
ENDBRANCH  13  14
ENDBRANCH   6   8
ENDBRANCH   3   4
ENDBRANCH   2   3
ENDBRANCH   1   2
BRANCH   1  73
ATOM     73  C   UNL A   1      31.856  29.741  25.067  1.00  0.00     0.002 C 
BRANCH  73  74
ATOM     74  C   UNL A   1      30.696  29.377  24.141  1.00  0.00     0.021 C 
BRANCH  74  75
ATOM     75  C   UNL A   1      31.062  28.448  22.992  1.00  0.00     0.116 C 
BRANCH  75  76
ATOM     76  N   UNL A   1      32.366  28.740  22.416  1.00  0.00    -0.352 N 
ATOM     77  C   UNL A   1      33.388  27.884  22.095  1.00  0.00     0.258 C 
ATOM     78  H   UNL A   1      32.539  29.691  22.229  1.00  0.00     0.163 HD
ATOM     79  O   UNL A   1      34.430  28.323  21.622  1.00  0.00    -0.269 OA
BRANCH  77  80
ATOM     80  C   UNL A   1      33.171  26.443  22.323  1.00  0.00     0.121 A 
ATOM     81  C   UNL A   1      33.744  25.864  23.387  1.00  0.00     0.110 A 
ATOM     82  C   UNL A   1      32.414  25.597  21.384  1.00  0.00     0.266 A 
ATOM     83  N   UNL A   1      33.774  24.492  23.561  1.00  0.00    -0.299 N 
ATOM     84  N   UNL A   1      32.459  24.252  21.643  1.00  0.00    -0.273 N 
ATOM     85  O   UNL A   1      31.851  26.032  20.388  1.00  0.00    -0.268 OA
ATOM     86  C   UNL A   1      33.174  23.641  22.637  1.00  0.00     0.328 A 
ATOM     87  H   UNL A   1      31.924  23.669  21.058  1.00  0.00     0.175 HD
ATOM     88  O   UNL A   1      33.263  22.416  22.684  1.00  0.00    -0.248 OA
BRANCH  83  89
ATOM     89  C   UNL A   1      34.579  23.929  24.640  1.00  0.00     0.131 C 
BRANCH  89  90
ATOM     90  C   UNL A   1      34.035  24.084  26.073  1.00  0.00     0.025 C 
ATOM     91  C   UNL A   1      34.227  22.861  26.984  1.00  0.00     0.022 C 
ATOM     92  C   UNL A   1      32.558  24.469  26.169  1.00  0.00     0.142 C 
ATOM     93  C   UNL A   1      33.032  21.926  26.842  1.00  0.00     0.137 C 
ATOM     94  S   UNL A   1      31.643  22.959  26.427  1.00  0.00     0.150 S 
ATOM     95  O   UNL A   1      31.099  22.520  25.158  1.00  0.00    -0.229 OA
ATOM     96  O   UNL A   1      30.816  23.124  27.602  1.00  0.00    -0.229 OA
ENDBRANCH  89  90
ENDBRANCH  83  89
ENDBRANCH  77  80
ENDBRANCH  75  76
ENDBRANCH  74  75
ENDBRANCH  73  74
ENDBRANCH   1  73
TORSDOF 15
ENDMDL
