MODEL 1
REMARK VINA RESULT:     -13.9      0.000      0.000
REMARK SMILES Cc1ccc(NC(=O)c2cnn3c2NC2=C(C(=O)CCC2)[C@H]3c2ccc(C(=O)NCCCCCCNC(=O)c3ccc(-c4c5nc(c(-c6c(F)c(F)c(F)c(F)c6F)c6ccc([nH]6)c(-c6c(F)c(F)c(F)c(F)c6F)c6nc(c(-c7c(F)c(F)c(F)c(F)c7F)c7ccc4[nH]7)C=C6)C=C5)cc3)cc2)cc1
REMARK SMILES IDX 32 1 31 2 30 3 29 4 27 5 28 6 26 8 23 9 24 10 103 11 25 12
REMARK SMILES IDX 102 13 22 14 9 15 10 16 13 17 11 18 12 19 14 20 15 21 16 23
REMARK SMILES IDX 21 24 17 25 20 26 18 27 19 28 7 29 6 30 8 32 5 33 1 34 2 35
REMARK SMILES IDX 3 36 105 37 4 38 104 39 33 40 34 41 35 42 36 43 37 44 38 46
REMARK SMILES IDX 39 47 40 48 101 49 41 50 100 51 42 52 43 53 44 54 94 55
REMARK SMILES IDX 45 56 99 57 93 58 95 59 46 60 98 61 92 62 91 63 47 65 79 66
REMARK SMILES IDX 59 67 78 68 60 69 63 70 77 71 96 72 61 73 62 74 76 76 97 77
REMARK SMILES IDX 64 78 48 79 49 80 57 81 50 82 51 83 55 84 58 85 52 86 53 87
REMARK SMILES IDX 56 88 54 89 80 90 81 91 89 92 82 93 83 94 87 95 90 96 84 97
REMARK SMILES IDX 85 98 88 99 86 100 65 101 66 102 74 103 67 104 68 105 72 106
REMARK SMILES IDX 75 107 69 108 70 109 73 110 71 111
REMARK H PARENT 29 7 14 22 6 31 36 45 95 64 63 75
REMARK Flexibility Score: inf
ROOT
ATOM      1  C   UNL A   1      40.735  23.178  27.892  1.00  0.00     0.002 C 
ENDROOT
BRANCH   1   2
ATOM      2  C   UNL A   1      39.318  23.695  27.576  1.00  0.00     0.021 C 
BRANCH   2   3
ATOM      3  C   UNL A   1      39.040  24.008  26.102  1.00  0.00     0.116 C 
BRANCH   3   4
ATOM      4  N   UNL A   1      38.574  22.834  25.386  1.00  0.00    -0.352 N 
ATOM      5  C   UNL A   1      37.416  22.511  24.723  1.00  0.00     0.251 C 
ATOM      6  O   UNL A   1      37.413  21.436  24.118  1.00  0.00    -0.269 OA
ATOM      7  H   UNL A   1      39.237  22.107  25.373  1.00  0.00     0.163 HD
BRANCH   5   8
ATOM      8  C   UNL A   1      36.202  23.379  24.635  1.00  0.00     0.039 A 
ATOM      9  C   UNL A   1      34.070  25.220  24.175  1.00  0.00    -0.019 A 
ATOM     10  C   UNL A   1      34.512  24.369  23.153  1.00  0.00     0.007 A 
ATOM     11  C   UNL A   1      34.562  24.962  25.470  1.00  0.00     0.007 A 
ATOM     12  C   UNL A   1      35.574  23.478  23.380  1.00  0.00     0.014 A 
ATOM     13  C   UNL A   1      35.625  24.068  25.697  1.00  0.00     0.014 A 
BRANCH   9  14
ATOM     14  C   UNL A   1      33.234  26.505  23.837  1.00  0.00     0.175 C 
ATOM     15  C   UNL A   1      30.102  25.624  25.312  1.00  0.00     0.102 A 
ATOM     16  C   UNL A   1      29.784  25.854  23.939  1.00  0.00     0.151 A 
ATOM     17  C   UNL A   1      31.367  26.155  25.434  1.00  0.00     0.142 A 
ATOM     18  N   UNL A   1      30.846  26.199  23.203  1.00  0.00    -0.178 NA
ATOM     19  N   UNL A   1      31.817  26.257  24.126  1.00  0.00    -0.237 N 
ATOM     20  N   UNL A   1      32.225  26.546  26.431  1.00  0.00    -0.343 N 
ATOM     21  C   UNL A   1      33.266  27.442  26.119  1.00  0.00     0.026 C 
ATOM     22  H   UNL A   1      32.114  26.207  27.349  1.00  0.00     0.168 HD
ATOM     23  C   UNL A   1      33.568  27.622  24.808  1.00  0.00     0.044 C 
ATOM     24  C   UNL A   1      33.755  28.443  27.128  1.00  0.00     0.055 C 
ATOM     25  C   UNL A   1      33.326  29.030  24.374  1.00  0.00     0.163 C 
ATOM     26  C   UNL A   1      33.415  29.879  26.719  1.00  0.00     0.014 C 
ATOM     27  O   UNL A   1      33.506  29.365  23.207  1.00  0.00    -0.294 OA
ATOM     28  C   UNL A   1      32.659  29.945  25.398  1.00  0.00     0.081 C 
BRANCH  15  29
ATOM     29  C   UNL A   1      29.271  25.047  26.343  1.00  0.00     0.261 C 
ATOM     30  N   UNL A   1      29.547  23.768  26.798  1.00  0.00    -0.322 N 
ATOM     31  H   UNL A   1      28.795  23.336  27.263  1.00  0.00     0.170 HD
ATOM     32  O   UNL A   1      28.303  25.651  26.805  1.00  0.00    -0.269 OA
BRANCH  30  33
ATOM     33  C   UNL A   1      30.712  22.969  26.716  1.00  0.00     0.041 A 
ATOM     34  C   UNL A   1      34.325  20.646  26.174  1.00  0.00     0.044 C 
ATOM     35  C   UNL A   1      33.047  21.403  26.378  1.00  0.00    -0.051 A 
ATOM     36  C   UNL A   1      32.901  22.228  27.491  1.00  0.00     0.005 A 
ATOM     37  C   UNL A   1      32.000  21.337  25.452  1.00  0.00     0.005 A 
ATOM     38  C   UNL A   1      31.728  22.968  27.671  1.00  0.00     0.026 A 
ATOM     39  C   UNL A   1      30.840  22.105  25.625  1.00  0.00     0.026 A 
ENDBRANCH  30  33
ENDBRANCH  15  29
ENDBRANCH   9  14
ENDBRANCH   5   8
ENDBRANCH   3   4
ENDBRANCH   2   3
ENDBRANCH   1   2
BRANCH   1  40
ATOM     40  C   UNL A   1      41.024  21.692  27.610  1.00  0.00     0.002 C 
BRANCH  40  41
ATOM     41  C   UNL A   1      41.710  21.376  26.281  1.00  0.00     0.021 C 
BRANCH  41  42
ATOM     42  C   UNL A   1      42.895  20.428  26.395  1.00  0.00     0.116 C 
BRANCH  42  43
ATOM     43  N   UNL A   1      43.578  20.162  25.135  1.00  0.00    -0.352 N 
ATOM     44  C   UNL A   1      44.453  20.947  24.395  1.00  0.00     0.251 C 
ATOM     45  H   UNL A   1      43.386  19.280  24.743  1.00  0.00     0.163 HD
ATOM     46  O   UNL A   1      44.827  20.568  23.304  1.00  0.00    -0.269 OA
BRANCH  44  47
ATOM     47  C   UNL A   1      45.048  22.172  24.998  1.00  0.00     0.039 A 
ATOM     48  C   UNL A   1      45.381  22.140  26.363  1.00  0.00     0.014 A 
ATOM     49  C   UNL A   1      45.088  23.372  24.308  1.00  0.00     0.014 A 
ATOM     50  C   UNL A   1      45.491  23.335  27.074  1.00  0.00     0.010 A 
ATOM     51  C   UNL A   1      45.062  24.545  25.023  1.00  0.00     0.010 A 
ATOM     52  C   UNL A   1      45.204  24.523  26.415  1.00  0.00    -0.014 A 
BRANCH  52  53
ATOM     53  C   UNL A   1      44.962  25.807  27.055  1.00  0.00     0.031 A 
ATOM     54  C   UNL A   1      43.617  26.415  26.974  1.00  0.00     0.074 A 
ATOM     55  C   UNL A   1      45.873  26.248  27.950  1.00  0.00     0.049 A 
ATOM     56  N   UNL A   1      43.313  27.579  27.431  1.00  0.00    -0.248 NA
ATOM     57  C   UNL A   1      42.493  25.750  26.327  1.00  0.00     0.031 C 
ATOM     58  C   UNL A   1      45.647  27.170  29.060  1.00  0.00     0.029 A 
ATOM     59  N   UNL A   1      47.267  26.068  27.928  1.00  0.00    -0.354 N 
ATOM     60  C   UNL A   1      41.942  27.709  27.401  1.00  0.00     0.074 A 
ATOM     61  C   UNL A   1      41.486  26.570  26.642  1.00  0.00     0.031 C 
ATOM     62  C   UNL A   1      46.822  27.703  29.432  1.00  0.00     0.029 A 
ATOM     63  C   UNL A   1      47.803  27.271  28.453  1.00  0.00     0.049 A 
ATOM     64  H   UNL A   1      47.764  25.277  27.616  1.00  0.00     0.167 HD
ATOM     65  C   UNL A   1      41.373  28.712  28.131  1.00  0.00     0.037 A 
ATOM     66  C   UNL A   1      48.537  28.121  27.677  1.00  0.00     0.037 A 
ATOM     67  C   UNL A   1      42.409  29.588  28.679  1.00  0.00     0.049 A 
ATOM     68  C   UNL A   1      47.956  29.511  27.572  1.00  0.00     0.074 A 
ATOM     69  C   UNL A   1      43.014  29.680  29.923  1.00  0.00     0.029 A 
ATOM     70  N   UNL A   1      43.191  30.334  27.804  1.00  0.00    -0.354 N 
ATOM     71  N   UNL A   1      46.697  29.788  27.772  1.00  0.00    -0.248 NA
ATOM     72  C   UNL A   1      48.740  30.694  27.231  1.00  0.00     0.031 C 
ATOM     73  C   UNL A   1      44.194  30.455  29.779  1.00  0.00     0.029 A 
ATOM     74  C   UNL A   1      44.292  30.850  28.457  1.00  0.00     0.049 A 
ATOM     75  H   UNL A   1      42.989  30.474  26.850  1.00  0.00     0.167 HD
ATOM     76  C   UNL A   1      46.489  31.133  27.603  1.00  0.00     0.074 A 
ATOM     77  C   UNL A   1      47.801  31.657  27.273  1.00  0.00     0.031 C 
ATOM     78  C   UNL A   1      45.249  31.690  27.751  1.00  0.00     0.037 A 
BRANCH  65  79
ATOM     79  C   UNL A   1      39.918  28.800  28.561  1.00  0.00     0.064 A 
ATOM     80  C   UNL A   1      38.939  29.302  27.669  1.00  0.00     0.173 A 
ATOM     81  C   UNL A   1      39.419  28.473  29.835  1.00  0.00     0.173 A 
ATOM     82  F   UNL A   1      39.231  29.587  26.393  1.00  0.00    -0.203 F 
ATOM     83  C   UNL A   1      37.614  29.540  28.050  1.00  0.00     0.198 A 
ATOM     84  C   UNL A   1      38.102  28.743  30.228  1.00  0.00     0.198 A 
ATOM     85  F   UNL A   1      40.155  27.829  30.741  1.00  0.00    -0.203 F 
ATOM     86  F   UNL A   1      36.744  30.032  27.158  1.00  0.00    -0.200 F 
ATOM     87  C   UNL A   1      37.202  29.285  29.339  1.00  0.00     0.200 A 
ATOM     88  F   UNL A   1      37.719  28.466  31.483  1.00  0.00    -0.200 F 
ATOM     89  F   UNL A   1      35.942  29.539  29.717  1.00  0.00    -0.200 F 
ENDBRANCH  65  79
BRANCH  66  90
ATOM     90  C   UNL A   1      49.287  27.413  26.608  1.00  0.00     0.064 A 
ATOM     91  C   UNL A   1      48.743  27.426  25.309  1.00  0.00     0.173 A 
ATOM     92  C   UNL A   1      50.658  27.156  26.736  1.00  0.00     0.173 A 
ATOM     93  F   UNL A   1      47.433  27.668  25.137  1.00  0.00    -0.203 F 
ATOM     94  C   UNL A   1      49.558  27.332  24.183  1.00  0.00     0.198 A 
ATOM     95  C   UNL A   1      51.468  27.046  25.603  1.00  0.00     0.198 A 
ATOM     96  F   UNL A   1      51.236  27.145  27.944  1.00  0.00    -0.203 F 
ATOM     97  F   UNL A   1      49.027  27.480  22.961  1.00  0.00    -0.200 F 
ATOM     98  C   UNL A   1      50.925  27.176  24.332  1.00  0.00     0.200 A 
ATOM     99  F   UNL A   1      52.796  26.918  25.743  1.00  0.00    -0.200 F 
ATOM    100  F   UNL A   1      51.725  27.199  23.257  1.00  0.00    -0.200 F 
ENDBRANCH  66  90
BRANCH  78 101
ATOM    101  C   UNL A   1      44.812  33.081  27.339  1.00  0.00     0.064 A 
ATOM    102  C   UNL A   1      44.077  33.370  26.177  1.00  0.00     0.173 A 
ATOM    103  C   UNL A   1      44.995  34.178  28.221  1.00  0.00     0.173 A 
ATOM    104  F   UNL A   1      43.727  32.410  25.313  1.00  0.00    -0.203 F 
ATOM    105  C   UNL A   1      43.612  34.659  25.894  1.00  0.00     0.198 A 
ATOM    106  C   UNL A   1      44.472  35.446  27.967  1.00  0.00     0.198 A 
ATOM    107  F   UNL A   1      45.656  34.051  29.381  1.00  0.00    -0.203 F 
ATOM    108  F   UNL A   1      42.949  34.885  24.751  1.00  0.00    -0.200 F 
ATOM    109  C   UNL A   1      43.794  35.691  26.794  1.00  0.00     0.200 A 
ATOM    110  F   UNL A   1      44.611  36.419  28.880  1.00  0.00    -0.200 F 
ATOM    111  F   UNL A   1      43.297  36.909  26.543  1.00  0.00    -0.200 F 
ENDBRANCH  78 101
ENDBRANCH  52  53
ENDBRANCH  44  47
ENDBRANCH  42  43
ENDBRANCH  41  42
ENDBRANCH  40  41
ENDBRANCH   1  40
TORSDOF 16
ENDMDL
MODEL 2
REMARK VINA RESULT:     -12.7      4.759      7.092
REMARK SMILES Cc1ccc(NC(=O)c2cnn3c2NC2=C(C(=O)CCC2)[C@H]3c2ccc(C(=O)NCCCCCCNC(=O)c3ccc(-c4c5nc(c(-c6c(F)c(F)c(F)c(F)c6F)c6ccc([nH]6)c(-c6c(F)c(F)c(F)c(F)c6F)c6nc(c(-c7c(F)c(F)c(F)c(F)c7F)c7ccc4[nH]7)C=C6)C=C5)cc3)cc2)cc1
REMARK SMILES IDX 32 1 31 2 30 3 29 4 27 5 28 6 26 8 23 9 24 10 103 11 25 12
REMARK SMILES IDX 102 13 22 14 9 15 10 16 13 17 11 18 12 19 14 20 15 21 16 23
REMARK SMILES IDX 21 24 17 25 20 26 18 27 19 28 7 29 6 30 8 32 5 33 1 34 2 35
REMARK SMILES IDX 3 36 105 37 4 38 104 39 33 40 34 41 35 42 36 43 37 44 38 46
REMARK SMILES IDX 39 47 40 48 101 49 41 50 100 51 42 52 43 53 44 54 94 55
REMARK SMILES IDX 45 56 99 57 93 58 95 59 46 60 98 61 92 62 91 63 47 65 79 66
REMARK SMILES IDX 59 67 78 68 60 69 63 70 77 71 96 72 61 73 62 74 76 76 97 77
REMARK SMILES IDX 64 78 48 79 49 80 57 81 50 82 51 83 55 84 58 85 52 86 53 87
REMARK SMILES IDX 56 88 54 89 80 90 81 91 89 92 82 93 83 94 87 95 90 96 84 97
REMARK SMILES IDX 85 98 88 99 86 100 65 101 66 102 74 103 67 104 68 105 72 106
REMARK SMILES IDX 75 107 69 108 70 109 73 110 71 111
REMARK H PARENT 29 7 14 22 6 31 36 45 95 64 63 75
REMARK Flexibility Score: inf
ROOT
ATOM      1  C   UNL A   1      42.454  23.509  27.362  1.00  0.00     0.002 C 
ENDROOT
BRANCH   1   2
ATOM      2  C   UNL A   1      41.117  23.994  26.768  1.00  0.00     0.021 C 
BRANCH   2   3
ATOM      3  C   UNL A   1      39.870  23.244  27.246  1.00  0.00     0.116 C 
BRANCH   3   4
ATOM      4  N   UNL A   1      39.805  21.905  26.687  1.00  0.00    -0.352 N 
ATOM      5  C   UNL A   1      38.930  21.254  25.854  1.00  0.00     0.251 C 
ATOM      6  O   UNL A   1      39.261  20.123  25.488  1.00  0.00    -0.269 OA
ATOM      7  H   UNL A   1      40.558  21.337  26.970  1.00  0.00     0.163 HD
BRANCH   5   8
ATOM      8  C   UNL A   1      37.657  21.828  25.321  1.00  0.00     0.039 A 
ATOM      9  C   UNL A   1      35.178  22.582  24.123  1.00  0.00    -0.019 A 
ATOM     10  C   UNL A   1      35.252  21.471  24.973  1.00  0.00     0.007 A 
ATOM     11  C   UNL A   1      36.311  23.421  24.079  1.00  0.00     0.007 A 
ATOM     12  C   UNL A   1      36.478  21.094  25.545  1.00  0.00     0.014 A 
ATOM     13  C   UNL A   1      37.538  23.044  24.654  1.00  0.00     0.014 A 
BRANCH   9  14
ATOM     14  C   UNL A   1      33.973  22.751  23.132  1.00  0.00     0.175 C 
ATOM     15  C   UNL A   1      31.298  23.172  25.462  1.00  0.00     0.102 A 
ATOM     16  C   UNL A   1      30.914  22.027  24.699  1.00  0.00     0.151 A 
ATOM     17  C   UNL A   1      32.327  23.711  24.721  1.00  0.00     0.142 A 
ATOM     18  N   UNL A   1      31.804  21.699  23.757  1.00  0.00    -0.178 NA
ATOM     19  N   UNL A   1      32.712  22.679  23.879  1.00  0.00    -0.237 N 
ATOM     20  N   UNL A   1      33.020  24.892  24.635  1.00  0.00    -0.343 N 
ATOM     21  C   UNL A   1      33.717  25.185  23.447  1.00  0.00     0.026 C 
ATOM     22  H   UNL A   1      33.029  25.525  25.390  1.00  0.00     0.168 HD
ATOM     23  C   UNL A   1      33.938  24.164  22.579  1.00  0.00     0.044 C 
ATOM     24  C   UNL A   1      33.866  26.600  22.964  1.00  0.00     0.055 C 
ATOM     25  C   UNL A   1      33.254  24.393  21.271  1.00  0.00     0.163 C 
ATOM     26  C   UNL A   1      33.081  26.850  21.673  1.00  0.00     0.014 C 
ATOM     27  O   UNL A   1      33.310  23.551  20.381  1.00  0.00    -0.294 OA
ATOM     28  C   UNL A   1      32.336  25.610  21.196  1.00  0.00     0.081 C 
BRANCH  15  29
ATOM     29  C   UNL A   1      30.702  23.686  26.673  1.00  0.00     0.261 C 
ATOM     30  N   UNL A   1      30.457  25.046  26.782  1.00  0.00    -0.322 N 
ATOM     31  H   UNL A   1      30.335  25.358  27.707  1.00  0.00     0.170 HD
ATOM     32  O   UNL A   1      30.435  22.951  27.623  1.00  0.00    -0.269 OA
BRANCH  30  33
ATOM     33  C   UNL A   1      30.351  26.066  25.808  1.00  0.00     0.041 A 
ATOM     34  C   UNL A   1      30.342  29.169  22.788  1.00  0.00     0.044 C 
ATOM     35  C   UNL A   1      30.314  28.128  23.868  1.00  0.00    -0.051 A 
ATOM     36  C   UNL A   1      29.498  27.008  23.727  1.00  0.00     0.005 A 
ATOM     37  C   UNL A   1      31.122  28.230  25.005  1.00  0.00     0.005 A 
ATOM     38  C   UNL A   1      29.493  26.012  24.709  1.00  0.00     0.026 A 
ATOM     39  C   UNL A   1      31.132  27.212  25.970  1.00  0.00     0.026 A 
ENDBRANCH  30  33
ENDBRANCH  15  29
ENDBRANCH   9  14
ENDBRANCH   5   8
ENDBRANCH   3   4
ENDBRANCH   2   3
ENDBRANCH   1   2
BRANCH   1  40
ATOM     40  C   UNL A   1      43.736  24.215  26.884  1.00  0.00     0.002 C 
BRANCH  40  41
ATOM     41  C   UNL A   1      43.675  24.866  25.502  1.00  0.00     0.021 C 
BRANCH  41  42
ATOM     42  C   UNL A   1      44.472  26.157  25.380  1.00  0.00     0.116 C 
BRANCH  42  43
ATOM     43  N   UNL A   1      43.694  27.306  24.932  1.00  0.00    -0.352 N 
ATOM     44  C   UNL A   1      42.781  28.102  25.612  1.00  0.00     0.251 C 
ATOM     45  H   UNL A   1      43.840  27.559  23.992  1.00  0.00     0.163 HD
ATOM     46  O   UNL A   1      42.159  28.953  25.010  1.00  0.00    -0.269 OA
BRANCH  44  47
ATOM     47  C   UNL A   1      42.675  28.017  27.094  1.00  0.00     0.039 A 
ATOM     48  C   UNL A   1      41.632  27.248  27.638  1.00  0.00     0.014 A 
ATOM     49  C   UNL A   1      43.440  28.822  27.923  1.00  0.00     0.014 A 
ATOM     50  C   UNL A   1      41.201  27.493  28.941  1.00  0.00     0.010 A 
ATOM     51  C   UNL A   1      42.939  29.164  29.156  1.00  0.00     0.010 A 
ATOM     52  C   UNL A   1      41.783  28.542  29.642  1.00  0.00    -0.014 A 
BRANCH  52  53
ATOM     53  C   UNL A   1      41.260  29.135  30.863  1.00  0.00     0.031 A 
ATOM     54  C   UNL A   1      40.386  30.324  30.773  1.00  0.00     0.074 A 
ATOM     55  C   UNL A   1      41.336  28.411  32.001  1.00  0.00     0.049 A 
ATOM     56  N   UNL A   1      39.935  30.977  31.786  1.00  0.00    -0.248 NA
ATOM     57  C   UNL A   1      39.969  30.897  29.500  1.00  0.00     0.031 C 
ATOM     58  C   UNL A   1      40.476  28.518  33.176  1.00  0.00     0.029 A 
ATOM     59  N   UNL A   1      42.347  27.515  32.392  1.00  0.00    -0.354 N 
ATOM     60  C   UNL A   1      38.972  31.855  31.339  1.00  0.00     0.074 A 
ATOM     61  C   UNL A   1      39.083  31.813  29.901  1.00  0.00     0.031 C 
ATOM     62  C   UNL A   1      41.108  27.981  34.231  1.00  0.00     0.029 A 
ATOM     63  C   UNL A   1      42.459  27.678  33.796  1.00  0.00     0.049 A 
ATOM     64  H   UNL A   1      42.864  26.908  31.816  1.00  0.00     0.167 HD
ATOM     65  C   UNL A   1      38.130  32.413  32.257  1.00  0.00     0.037 A 
ATOM     66  C   UNL A   1      43.584  28.205  34.364  1.00  0.00     0.037 A 
ATOM     67  C   UNL A   1      38.566  32.073  33.613  1.00  0.00     0.049 A 
ATOM     68  C   UNL A   1      43.334  29.458  35.169  1.00  0.00     0.074 A 
ATOM     69  C   UNL A   1      38.156  31.119  34.530  1.00  0.00     0.029 A 
ATOM     70  N   UNL A   1      39.786  32.561  34.069  1.00  0.00    -0.354 N 
ATOM     71  N   UNL A   1      42.306  30.241  34.993  1.00  0.00    -0.248 NA
ATOM     72  C   UNL A   1      44.220  29.930  36.228  1.00  0.00     0.031 C 
ATOM     73  C   UNL A   1      39.163  31.005  35.523  1.00  0.00     0.029 A 
ATOM     74  C   UNL A   1      40.171  31.905  35.220  1.00  0.00     0.049 A 
ATOM     75  H   UNL A   1      40.304  33.275  33.632  1.00  0.00     0.167 HD
ATOM     76  C   UNL A   1      42.367  31.287  35.878  1.00  0.00     0.074 A 
ATOM     77  C   UNL A   1      43.580  31.042  36.635  1.00  0.00     0.031 C 
ATOM     78  C   UNL A   1      41.407  32.261  35.901  1.00  0.00     0.037 A 
BRANCH  65  79
ATOM     79  C   UNL A   1      36.789  33.066  31.971  1.00  0.00     0.064 A 
ATOM     80  C   UNL A   1      35.915  32.509  31.006  1.00  0.00     0.173 A 
ATOM     81  C   UNL A   1      36.318  34.259  32.549  1.00  0.00     0.173 A 
ATOM     82  F   UNL A   1      36.175  31.333  30.418  1.00  0.00    -0.203 F 
ATOM     83  C   UNL A   1      34.735  33.138  30.595  1.00  0.00     0.198 A 
ATOM     84  C   UNL A   1      35.155  34.907  32.115  1.00  0.00     0.198 A 
ATOM     85  F   UNL A   1      36.923  34.828  33.593  1.00  0.00    -0.203 F 
ATOM     86  F   UNL A   1      33.962  32.561  29.664  1.00  0.00    -0.200 F 
ATOM     87  C   UNL A   1      34.368  34.352  31.132  1.00  0.00     0.200 A 
ATOM     88  F   UNL A   1      34.808  36.079  32.668  1.00  0.00    -0.200 F 
ATOM     89  F   UNL A   1      33.254  34.972  30.722  1.00  0.00    -0.200 F 
ENDBRANCH  65  79
BRANCH  66  90
ATOM     90  C   UNL A   1      44.810  27.910  33.579  1.00  0.00     0.064 A 
ATOM     91  C   UNL A   1      45.407  26.645  33.749  1.00  0.00     0.173 A 
ATOM     92  C   UNL A   1      45.104  28.613  32.404  1.00  0.00     0.173 A 
ATOM     93  F   UNL A   1      45.155  25.933  34.860  1.00  0.00    -0.203 F 
ATOM     94  C   UNL A   1      46.144  26.050  32.728  1.00  0.00     0.198 A 
ATOM     95  C   UNL A   1      45.858  28.018  31.390  1.00  0.00     0.198 A 
ATOM     96  F   UNL A   1      44.555  29.815  32.178  1.00  0.00    -0.203 F 
ATOM     97  F   UNL A   1      46.587  24.793  32.870  1.00  0.00    -0.200 F 
ATOM     98  C   UNL A   1      46.339  26.724  31.535  1.00  0.00     0.200 A 
ATOM     99  F   UNL A   1      46.030  28.659  30.223  1.00  0.00    -0.200 F 
ATOM    100  F   UNL A   1      46.949  26.113  30.510  1.00  0.00    -0.200 F 
ENDBRANCH  66  90
BRANCH  78 101
ATOM    101  C   UNL A   1      41.473  33.597  36.613  1.00  0.00     0.064 A 
ATOM    102  C   UNL A   1      41.073  33.807  37.943  1.00  0.00     0.173 A 
ATOM    103  C   UNL A   1      42.114  34.704  35.997  1.00  0.00     0.173 A 
ATOM    104  F   UNL A   1      40.562  32.818  38.686  1.00  0.00    -0.203 F 
ATOM    105  C   UNL A   1      41.248  35.038  38.585  1.00  0.00     0.198 A 
ATOM    106  C   UNL A   1      42.346  35.907  36.663  1.00  0.00     0.198 A 
ATOM    107  F   UNL A   1      42.571  34.646  34.738  1.00  0.00    -0.203 F 
ATOM    108  F   UNL A   1      40.812  35.194  39.843  1.00  0.00    -0.200 F 
ATOM    109  C   UNL A   1      41.898  36.081  37.953  1.00  0.00     0.200 A 
ATOM    110  F   UNL A   1      43.030  36.886  36.051  1.00  0.00    -0.200 F 
ATOM    111  F   UNL A   1      42.113  37.237  38.593  1.00  0.00    -0.200 F 
ENDBRANCH  78 101
ENDBRANCH  52  53
ENDBRANCH  44  47
ENDBRANCH  42  43
ENDBRANCH  41  42
ENDBRANCH  40  41
ENDBRANCH   1  40
TORSDOF 16
ENDMDL
MODEL 3
REMARK VINA RESULT:     -12.7      5.558      9.938
REMARK SMILES Cc1ccc(NC(=O)c2cnn3c2NC2=C(C(=O)CCC2)[C@H]3c2ccc(C(=O)NCCCCCCNC(=O)c3ccc(-c4c5nc(c(-c6c(F)c(F)c(F)c(F)c6F)c6ccc([nH]6)c(-c6c(F)c(F)c(F)c(F)c6F)c6nc(c(-c7c(F)c(F)c(F)c(F)c7F)c7ccc4[nH]7)C=C6)C=C5)cc3)cc2)cc1
REMARK SMILES IDX 32 1 31 2 30 3 29 4 27 5 28 6 26 8 23 9 24 10 103 11 25 12
REMARK SMILES IDX 102 13 22 14 9 15 10 16 13 17 11 18 12 19 14 20 15 21 16 23
REMARK SMILES IDX 21 24 17 25 20 26 18 27 19 28 7 29 6 30 8 32 5 33 1 34 2 35
REMARK SMILES IDX 3 36 105 37 4 38 104 39 33 40 34 41 35 42 36 43 37 44 38 46
REMARK SMILES IDX 39 47 40 48 101 49 41 50 100 51 42 52 43 53 44 54 94 55
REMARK SMILES IDX 45 56 99 57 93 58 95 59 46 60 98 61 92 62 91 63 47 65 79 66
REMARK SMILES IDX 59 67 78 68 60 69 63 70 77 71 96 72 61 73 62 74 76 76 97 77
REMARK SMILES IDX 64 78 48 79 49 80 57 81 50 82 51 83 55 84 58 85 52 86 53 87
REMARK SMILES IDX 56 88 54 89 80 90 81 91 89 92 82 93 83 94 87 95 90 96 84 97
REMARK SMILES IDX 85 98 88 99 86 100 65 101 66 102 74 103 67 104 68 105 72 106
REMARK SMILES IDX 75 107 69 108 70 109 73 110 71 111
REMARK H PARENT 29 7 14 22 6 31 36 45 95 64 63 75
REMARK Flexibility Score: inf
ROOT
ATOM      1  C   UNL A   1      42.059  24.693  28.291  1.00  0.00     0.002 C 
ENDROOT
BRANCH   1   2
ATOM      2  C   UNL A   1      41.008  24.521  27.177  1.00  0.00     0.021 C 
BRANCH   2   3
ATOM      3  C   UNL A   1      39.769  23.704  27.556  1.00  0.00     0.116 C 
BRANCH   3   4
ATOM      4  N   UNL A   1      39.815  22.369  26.985  1.00  0.00    -0.352 N 
ATOM      5  C   UNL A   1      39.011  21.665  26.123  1.00  0.00     0.251 C 
ATOM      6  O   UNL A   1      39.432  20.565  25.758  1.00  0.00    -0.269 OA
ATOM      7  H   UNL A   1      40.599  21.854  27.283  1.00  0.00     0.163 HD
BRANCH   5   8
ATOM      8  C   UNL A   1      37.714  22.153  25.561  1.00  0.00     0.039 A 
ATOM      9  C   UNL A   1      35.225  22.743  24.296  1.00  0.00    -0.019 A 
ATOM     10  C   UNL A   1      35.360  21.615  25.116  1.00  0.00     0.007 A 
ATOM     11  C   UNL A   1      36.286  23.671  24.317  1.00  0.00     0.007 A 
ATOM     12  C   UNL A   1      36.592  21.319  25.721  1.00  0.00     0.014 A 
ATOM     13  C   UNL A   1      37.520  23.375  24.925  1.00  0.00     0.014 A 
BRANCH   9  14
ATOM     14  C   UNL A   1      34.044  22.846  23.267  1.00  0.00     0.175 C 
ATOM     15  C   UNL A   1      31.290  23.236  25.508  1.00  0.00     0.102 A 
ATOM     16  C   UNL A   1      30.966  22.059  24.765  1.00  0.00     0.151 A 
ATOM     17  C   UNL A   1      32.321  23.790  24.783  1.00  0.00     0.142 A 
ATOM     18  N   UNL A   1      31.894  21.738  23.858  1.00  0.00    -0.178 NA
ATOM     19  N   UNL A   1      32.765  22.751  23.979  1.00  0.00    -0.237 N 
ATOM     20  N   UNL A   1      32.978  24.991  24.685  1.00  0.00    -0.343 N 
ATOM     21  C   UNL A   1      33.699  25.277  23.509  1.00  0.00     0.026 C 
ATOM     22  H   UNL A   1      32.944  25.643  25.423  1.00  0.00     0.168 HD
ATOM     23  C   UNL A   1      33.978  24.242  22.676  1.00  0.00     0.044 C 
ATOM     24  C   UNL A   1      33.816  26.684  22.994  1.00  0.00     0.055 C 
ATOM     25  C   UNL A   1      33.327  24.414  21.344  1.00  0.00     0.163 C 
ATOM     26  C   UNL A   1      33.061  26.874  21.675  1.00  0.00     0.014 C 
ATOM     27  O   UNL A   1      33.435  23.552  20.478  1.00  0.00    -0.294 OA
ATOM     28  C   UNL A   1      32.371  25.598  21.210  1.00  0.00     0.081 C 
BRANCH  15  29
ATOM     29  C   UNL A   1      30.642  23.760  26.688  1.00  0.00     0.261 C 
ATOM     30  N   UNL A   1      30.368  25.117  26.762  1.00  0.00    -0.322 N 
ATOM     31  H   UNL A   1      30.207  25.444  27.676  1.00  0.00     0.170 HD
ATOM     32  O   UNL A   1      30.356  23.038  27.642  1.00  0.00    -0.269 OA
BRANCH  30  33
ATOM     33  C   UNL A   1      30.276  26.116  25.765  1.00  0.00     0.041 A 
ATOM     34  C   UNL A   1      30.313  29.158  22.684  1.00  0.00     0.044 C 
ATOM     35  C   UNL A   1      30.268  28.139  23.784  1.00  0.00    -0.051 A 
ATOM     36  C   UNL A   1      29.461  27.011  23.649  1.00  0.00     0.005 A 
ATOM     37  C   UNL A   1      31.053  28.267  24.934  1.00  0.00     0.005 A 
ATOM     38  C   UNL A   1      29.441  26.036  24.651  1.00  0.00     0.026 A 
ATOM     39  C   UNL A   1      31.049  27.270  25.920  1.00  0.00     0.026 A 
ENDBRANCH  30  33
ENDBRANCH  15  29
ENDBRANCH   9  14
ENDBRANCH   5   8
ENDBRANCH   3   4
ENDBRANCH   2   3
ENDBRANCH   1   2
BRANCH   1  40
ATOM     40  C   UNL A   1      43.363  25.425  27.924  1.00  0.00     0.002 C 
BRANCH  40  41
ATOM     41  C   UNL A   1      43.481  25.914  26.480  1.00  0.00     0.021 C 
BRANCH  41  42
ATOM     42  C   UNL A   1      43.464  27.428  26.326  1.00  0.00     0.116 C 
BRANCH  42  43
ATOM     43  N   UNL A   1      42.149  27.990  26.042  1.00  0.00    -0.352 N 
ATOM     44  C   UNL A   1      41.201  28.550  26.888  1.00  0.00     0.251 C 
ATOM     45  H   UNL A   1      41.890  27.968  25.092  1.00  0.00     0.163 HD
ATOM     46  O   UNL A   1      40.113  28.863  26.450  1.00  0.00    -0.269 OA
BRANCH  44  47
ATOM     47  C   UNL A   1      41.566  28.904  28.287  1.00  0.00     0.039 A 
ATOM     48  C   UNL A   1      40.799  28.353  29.328  1.00  0.00     0.014 A 
ATOM     49  C   UNL A   1      42.491  29.897  28.566  1.00  0.00     0.014 A 
ATOM     50  C   UNL A   1      40.777  28.978  30.574  1.00  0.00     0.010 A 
ATOM     51  C   UNL A   1      42.373  30.596  29.743  1.00  0.00     0.010 A 
ATOM     52  C   UNL A   1      41.472  30.171  30.726  1.00  0.00    -0.014 A 
BRANCH  52  53
ATOM     53  C   UNL A   1      41.313  31.108  31.827  1.00  0.00     0.031 A 
ATOM     54  C   UNL A   1      42.141  30.946  33.041  1.00  0.00     0.074 A 
ATOM     55  C   UNL A   1      40.647  32.259  31.587  1.00  0.00     0.049 A 
ATOM     56  N   UNL A   1      42.028  31.664  34.103  1.00  0.00    -0.248 NA
ATOM     57  C   UNL A   1      43.165  29.916  33.161  1.00  0.00     0.031 C 
ATOM     58  C   UNL A   1      40.788  33.527  32.298  1.00  0.00     0.029 A 
ATOM     59  N   UNL A   1      39.555  32.464  30.725  1.00  0.00    -0.354 N 
ATOM     60  C   UNL A   1      43.107  31.399  34.919  1.00  0.00     0.074 A 
ATOM     61  C   UNL A   1      43.745  30.255  34.315  1.00  0.00     0.031 C 
ATOM     62  C   UNL A   1      39.691  34.271  32.086  1.00  0.00     0.029 A 
ATOM     63  C   UNL A   1      38.745  33.426  31.380  1.00  0.00     0.049 A 
ATOM     64  H   UNL A   1      39.389  32.034  29.856  1.00  0.00     0.167 HD
ATOM     65  C   UNL A   1      43.375  32.268  35.936  1.00  0.00     0.037 A 
ATOM     66  C   UNL A   1      37.503  33.109  31.850  1.00  0.00     0.037 A 
ATOM     67  C   UNL A   1      42.298  33.254  36.056  1.00  0.00     0.049 A 
ATOM     68  C   UNL A   1      37.338  33.315  33.337  1.00  0.00     0.074 A 
ATOM     69  C   UNL A   1      42.156  34.561  35.620  1.00  0.00     0.029 A 
ATOM     70  N   UNL A   1      41.030  32.822  36.428  1.00  0.00    -0.354 N 
ATOM     71  N   UNL A   1      38.332  33.332  34.181  1.00  0.00    -0.248 NA
ATOM     72  C   UNL A   1      36.049  33.513  33.990  1.00  0.00     0.031 C 
ATOM     73  C   UNL A   1      40.781  34.900  35.694  1.00  0.00     0.029 A 
ATOM     74  C   UNL A   1      40.094  33.808  36.194  1.00  0.00     0.049 A 
ATOM     75  H   UNL A   1      40.827  31.935  36.807  1.00  0.00     0.167 HD
ATOM     76  C   UNL A   1      37.855  33.541  35.450  1.00  0.00     0.074 A 
ATOM     77  C   UNL A   1      36.420  33.656  35.275  1.00  0.00     0.031 C 
ATOM     78  C   UNL A   1      38.693  33.598  36.529  1.00  0.00     0.037 A 
BRANCH  65  79
ATOM     79  C   UNL A   1      44.690  32.403  36.683  1.00  0.00     0.064 A 
ATOM     80  C   UNL A   1      44.997  31.526  37.752  1.00  0.00     0.173 A 
ATOM     81  C   UNL A   1      45.666  33.391  36.455  1.00  0.00     0.173 A 
ATOM     82  F   UNL A   1      44.214  30.481  38.051  1.00  0.00    -0.203 F 
ATOM     83  C   UNL A   1      46.123  31.687  38.568  1.00  0.00     0.198 A 
ATOM     84  C   UNL A   1      46.773  33.574  37.292  1.00  0.00     0.198 A 
ATOM     85  F   UNL A   1      45.629  34.190  35.388  1.00  0.00    -0.203 F 
ATOM     86  F   UNL A   1      46.343  30.828  39.573  1.00  0.00    -0.200 F 
ATOM     87  C   UNL A   1      46.998  32.728  38.354  1.00  0.00     0.200 A 
ATOM     88  F   UNL A   1      47.623  34.584  37.049  1.00  0.00    -0.200 F 
ATOM     89  F   UNL A   1      48.061  32.903  39.150  1.00  0.00    -0.200 F 
ENDBRANCH  65  79
BRANCH  66  90
ATOM     90  C   UNL A   1      36.843  32.049  31.044  1.00  0.00     0.064 A 
ATOM     91  C   UNL A   1      36.234  32.432  29.834  1.00  0.00     0.173 A 
ATOM     92  C   UNL A   1      37.191  30.701  31.197  1.00  0.00     0.173 A 
ATOM     93  F   UNL A   1      35.881  33.714  29.640  1.00  0.00    -0.203 F 
ATOM     94  C   UNL A   1      36.113  31.540  28.770  1.00  0.00     0.198 A 
ATOM     95  C   UNL A   1      37.053  29.807  30.134  1.00  0.00     0.198 A 
ATOM     96  F   UNL A   1      37.787  30.278  32.321  1.00  0.00    -0.203 F 
ATOM     97  F   UNL A   1      35.651  31.969  27.588  1.00  0.00    -0.200 F 
ATOM     98  C   UNL A   1      36.556  30.236  28.911  1.00  0.00     0.200 A 
ATOM     99  F   UNL A   1      37.501  28.548  30.258  1.00  0.00    -0.200 F 
ATOM    100  F   UNL A   1      36.546  29.406  27.859  1.00  0.00    -0.200 F 
ENDBRANCH  66  90
BRANCH  78 101
ATOM    101  C   UNL A   1      38.307  33.548  37.994  1.00  0.00     0.064 A 
ATOM    102  C   UNL A   1      37.746  32.428  38.628  1.00  0.00     0.173 A 
ATOM    103  C   UNL A   1      38.656  34.616  38.861  1.00  0.00     0.173 A 
ATOM    104  F   UNL A   1      37.476  31.303  37.955  1.00  0.00    -0.203 F 
ATOM    105  C   UNL A   1      37.501  32.399  40.006  1.00  0.00     0.198 A 
ATOM    106  C   UNL A   1      38.472  34.557  40.243  1.00  0.00     0.198 A 
ATOM    107  F   UNL A   1      39.222  35.742  38.405  1.00  0.00    -0.203 F 
ATOM    108  F   UNL A   1      36.927  31.318  40.552  1.00  0.00    -0.200 F 
ATOM    109  C   UNL A   1      37.879  33.454  40.814  1.00  0.00     0.200 A 
ATOM    110  F   UNL A   1      38.898  35.568  41.015  1.00  0.00    -0.200 F 
ATOM    111  F   UNL A   1      37.693  33.397  42.139  1.00  0.00    -0.200 F 
ENDBRANCH  78 101
ENDBRANCH  52  53
ENDBRANCH  44  47
ENDBRANCH  42  43
ENDBRANCH  41  42
ENDBRANCH  40  41
ENDBRANCH   1  40
TORSDOF 16
ENDMDL
