MODEL 1
REMARK VINA RESULT:     -11.2      0.000      0.000
REMARK SMILES CC(C)n1ccc(C#CC(=O)NCCCCCCNC(=O)c2ccc(-c3c4nc(c(-c5c(F)c(F)c(F)c(F)c5F)c5ccc([nH]5)c(-c5c(F)c(F)c(F)c(F)c5F)c5nc(c(-c6c(F)c(F)c(F)c(F)c6F)c6ccc3[nH]6)C=C5)C=C4)cc2)n1
REMARK SMILES IDX 15 1 14 2 13 3 12 4 10 5 11 6 9 8 8 9 7 10 4 11 5 12 85 13
REMARK SMILES IDX 6 14 2 15 1 16 3 17 16 18 17 19 18 20 19 21 20 22 21 24
REMARK SMILES IDX 22 25 23 26 84 27 24 28 83 29 25 30 26 31 27 32 77 33 28 34
REMARK SMILES IDX 82 35 76 36 78 37 29 38 81 39 75 40 74 41 30 43 62 44 42 45
REMARK SMILES IDX 61 46 43 47 46 48 60 49 79 50 44 51 45 52 59 54 80 55 47 56
REMARK SMILES IDX 31 57 32 58 40 59 33 60 34 61 38 62 41 63 35 64 36 65 39 66
REMARK SMILES IDX 37 67 63 68 64 69 72 70 65 71 66 72 70 73 73 74 67 75 68 76
REMARK SMILES IDX 71 77 69 78 48 79 49 80 57 81 50 82 51 83 55 84 58 85 52 86
REMARK SMILES IDX 53 87 56 88 54 89
REMARK H PARENT 12 7 19 23 78 42 46 53
REMARK Flexibility Score: inf
ROOT
ATOM      1  C   UNL A   1      40.072  20.131  26.015  1.00  0.00     0.002 C 
ENDROOT
BRANCH   1   2
ATOM      2  C   UNL A   1      39.375  21.490  26.162  1.00  0.00     0.021 C 
BRANCH   2   3
ATOM      3  C   UNL A   1      38.087  21.629  25.354  1.00  0.00     0.117 C 
BRANCH   3   4
ATOM      4  N   UNL A   1      37.300  22.759  25.807  1.00  0.00    -0.345 N 
ATOM      5  C   UNL A   1      35.942  22.906  25.760  1.00  0.00     0.296 C 
ATOM      6  O   UNL A   1      35.403  23.935  26.144  1.00  0.00    -0.260 OA
ATOM      7  H   UNL A   1      37.803  23.509  26.196  1.00  0.00     0.164 HD
BRANCH   5   8
ATOM      8  C   UNL A   1      35.135  21.806  25.291  1.00  0.00     0.002 C 
ATOM      9  C   UNL A   1      34.517  20.845  24.949  1.00  0.00    -0.034 C 
BRANCH   9  10
ATOM     10  C   UNL A   1      33.834  19.642  24.609  1.00  0.00     0.135 A 
ATOM     11  N   UNL A   1      33.514  17.565  24.398  1.00  0.00    -0.269 N 
ATOM     12  C   UNL A   1      32.391  18.158  23.881  1.00  0.00     0.110 A 
ATOM     13  N   UNL A   1      34.386  18.466  24.906  1.00  0.00    -0.164 NA
ATOM     14  C   UNL A   1      32.583  19.515  23.989  1.00  0.00     0.059 A 
BRANCH  11  15
ATOM     15  C   UNL A   1      33.798  16.133  24.515  1.00  0.00     0.101 C 
ATOM     16  C   UNL A   1      35.143  15.838  25.191  1.00  0.00     0.033 C 
ATOM     17  C   UNL A   1      32.693  15.378  25.264  1.00  0.00     0.033 C 
ENDBRANCH  11  15
ENDBRANCH   9  10
ENDBRANCH   5   8
ENDBRANCH   3   4
ENDBRANCH   2   3
ENDBRANCH   1   2
BRANCH   1  18
ATOM     18  C   UNL A   1      41.539  20.071  26.476  1.00  0.00     0.002 C 
BRANCH  18  19
ATOM     19  C   UNL A   1      42.376  18.896  25.951  1.00  0.00     0.021 C 
BRANCH  19  20
ATOM     20  C   UNL A   1      43.796  18.870  26.490  1.00  0.00     0.116 C 
BRANCH  20  21
ATOM     21  N   UNL A   1      44.828  18.961  25.449  1.00  0.00    -0.352 N 
ATOM     22  C   UNL A   1      45.115  20.037  24.616  1.00  0.00     0.251 C 
ATOM     23  H   UNL A   1      45.387  18.160  25.325  1.00  0.00     0.163 HD
ATOM     24  O   UNL A   1      45.725  19.893  23.565  1.00  0.00    -0.269 OA
BRANCH  22  25
ATOM     25  C   UNL A   1      44.716  21.385  25.058  1.00  0.00     0.039 A 
ATOM     26  C   UNL A   1      43.645  22.124  24.544  1.00  0.00     0.014 A 
ATOM     27  C   UNL A   1      45.496  21.931  26.052  1.00  0.00     0.014 A 
ATOM     28  C   UNL A   1      43.414  23.399  25.075  1.00  0.00     0.010 A 
ATOM     29  C   UNL A   1      44.902  22.848  26.844  1.00  0.00     0.010 A 
ATOM     30  C   UNL A   1      44.112  23.777  26.223  1.00  0.00    -0.014 A 
BRANCH  30  31
ATOM     31  C   UNL A   1      43.915  24.986  26.998  1.00  0.00     0.031 A 
ATOM     32  C   UNL A   1      44.927  26.013  26.674  1.00  0.00     0.074 A 
ATOM     33  C   UNL A   1      42.787  25.210  27.721  1.00  0.00     0.049 A 
ATOM     34  N   UNL A   1      45.957  26.320  27.386  1.00  0.00    -0.248 NA
ATOM     35  C   UNL A   1      44.956  26.580  25.313  1.00  0.00     0.031 C 
ATOM     36  C   UNL A   1      41.580  24.380  27.860  1.00  0.00     0.029 A 
ATOM     37  N   UNL A   1      42.464  26.303  28.474  1.00  0.00    -0.354 N 
ATOM     38  C   UNL A   1      46.609  27.321  26.678  1.00  0.00     0.074 A 
ATOM     39  C   UNL A   1      46.118  27.237  25.331  1.00  0.00     0.031 C 
ATOM     40  C   UNL A   1      40.588  25.092  28.451  1.00  0.00     0.029 A 
ATOM     41  C   UNL A   1      41.122  26.368  28.879  1.00  0.00     0.049 A 
ATOM     42  H   UNL A   1      43.124  26.994  28.714  1.00  0.00     0.167 HD
ATOM     43  C   UNL A   1      47.230  28.327  27.350  1.00  0.00     0.037 A 
ATOM     44  C   UNL A   1      40.539  27.434  29.501  1.00  0.00     0.037 A 
ATOM     45  C   UNL A   1      47.405  27.967  28.740  1.00  0.00     0.049 A 
ATOM     46  C   UNL A   1      41.653  28.236  30.086  1.00  0.00     0.074 A 
ATOM     47  C   UNL A   1      48.052  26.937  29.395  1.00  0.00     0.029 A 
ATOM     48  N   UNL A   1      46.485  28.458  29.635  1.00  0.00    -0.354 N 
ATOM     49  N   UNL A   1      42.411  27.795  31.053  1.00  0.00    -0.248 NA
ATOM     50  C   UNL A   1      42.251  29.244  29.219  1.00  0.00     0.031 C 
ATOM     51  C   UNL A   1      47.157  26.543  30.436  1.00  0.00     0.029 A 
ATOM     52  C   UNL A   1      46.076  27.423  30.439  1.00  0.00     0.049 A 
ATOM     53  H   UNL A   1      46.173  29.391  29.690  1.00  0.00     0.167 HD
ATOM     54  C   UNL A   1      43.701  28.122  30.658  1.00  0.00     0.074 A 
ATOM     55  C   UNL A   1      43.534  29.031  29.521  1.00  0.00     0.031 C 
ATOM     56  C   UNL A   1      44.774  27.380  31.061  1.00  0.00     0.037 A 
BRANCH  43  57
ATOM     57  C   UNL A   1      47.263  29.767  26.890  1.00  0.00     0.064 A 
ATOM     58  C   UNL A   1      48.472  30.480  27.014  1.00  0.00     0.173 A 
ATOM     59  C   UNL A   1      46.120  30.556  26.631  1.00  0.00     0.173 A 
ATOM     60  F   UNL A   1      49.621  29.835  27.267  1.00  0.00    -0.203 F 
ATOM     61  C   UNL A   1      48.514  31.876  26.983  1.00  0.00     0.198 A 
ATOM     62  C   UNL A   1      46.176  31.946  26.548  1.00  0.00     0.198 A 
ATOM     63  F   UNL A   1      44.888  30.045  26.555  1.00  0.00    -0.203 F 
ATOM     64  F   UNL A   1      49.665  32.510  27.243  1.00  0.00    -0.200 F 
ATOM     65  C   UNL A   1      47.364  32.608  26.760  1.00  0.00     0.200 A 
ATOM     66  F   UNL A   1      45.044  32.637  26.350  1.00  0.00    -0.200 F 
ATOM     67  F   UNL A   1      47.388  33.946  26.795  1.00  0.00    -0.200 F 
ENDBRANCH  43  57
BRANCH  44  68
ATOM     68  C   UNL A   1      39.185  28.025  29.311  1.00  0.00     0.064 A 
ATOM     69  C   UNL A   1      38.328  28.258  30.405  1.00  0.00     0.173 A 
ATOM     70  C   UNL A   1      38.839  28.671  28.109  1.00  0.00     0.173 A 
ATOM     71  F   UNL A   1      38.601  27.720  31.602  1.00  0.00    -0.203 F 
ATOM     72  C   UNL A   1      37.223  29.117  30.311  1.00  0.00     0.198 A 
ATOM     73  C   UNL A   1      37.740  29.530  28.018  1.00  0.00     0.198 A 
ATOM     74  F   UNL A   1      39.624  28.565  27.027  1.00  0.00    -0.203 F 
ATOM     75  F   UNL A   1      36.472  29.368  31.394  1.00  0.00    -0.200 F 
ATOM     76  C   UNL A   1      36.941  29.766  29.121  1.00  0.00     0.200 A 
ATOM     77  F   UNL A   1      37.502  30.185  26.873  1.00  0.00    -0.200 F 
ATOM     78  F   UNL A   1      35.934  30.649  29.050  1.00  0.00    -0.200 F 
ENDBRANCH  44  68
BRANCH  56  79
ATOM     79  C   UNL A   1      44.551  26.324  32.111  1.00  0.00     0.064 A 
ATOM     80  C   UNL A   1      44.318  24.962  31.844  1.00  0.00     0.173 A 
ATOM     81  C   UNL A   1      44.725  26.691  33.451  1.00  0.00     0.173 A 
ATOM     82  F   UNL A   1      44.240  24.509  30.588  1.00  0.00    -0.203 F 
ATOM     83  C   UNL A   1      44.218  24.026  32.875  1.00  0.00     0.198 A 
ATOM     84  C   UNL A   1      44.659  25.751  34.476  1.00  0.00     0.198 A 
ATOM     85  F   UNL A   1      45.006  27.965  33.764  1.00  0.00    -0.203 F 
ATOM     86  F   UNL A   1      43.986  22.734  32.595  1.00  0.00    -0.200 F 
ATOM     87  C   UNL A   1      44.395  24.422  34.190  1.00  0.00     0.200 A 
ATOM     88  F   UNL A   1      44.882  26.134  35.740  1.00  0.00    -0.200 F 
ATOM     89  F   UNL A   1      44.332  23.521  35.181  1.00  0.00    -0.200 F 
ENDBRANCH  56  79
ENDBRANCH  30  31
ENDBRANCH  22  25
ENDBRANCH  20  21
ENDBRANCH  19  20
ENDBRANCH  18  19
ENDBRANCH   1  18
TORSDOF 15
ENDMDL
MODEL 2
REMARK VINA RESULT:     -11.1      5.505     10.551
REMARK SMILES CC(C)n1ccc(C#CC(=O)NCCCCCCNC(=O)c2ccc(-c3c4nc(c(-c5c(F)c(F)c(F)c(F)c5F)c5ccc([nH]5)c(-c5c(F)c(F)c(F)c(F)c5F)c5nc(c(-c6c(F)c(F)c(F)c(F)c6F)c6ccc3[nH]6)C=C5)C=C4)cc2)n1
REMARK SMILES IDX 15 1 14 2 13 3 12 4 10 5 11 6 9 8 8 9 7 10 4 11 5 12 85 13
REMARK SMILES IDX 6 14 2 15 1 16 3 17 16 18 17 19 18 20 19 21 20 22 21 24
REMARK SMILES IDX 22 25 23 26 84 27 24 28 83 29 25 30 26 31 27 32 77 33 28 34
REMARK SMILES IDX 82 35 76 36 78 37 29 38 81 39 75 40 74 41 30 43 62 44 42 45
REMARK SMILES IDX 61 46 43 47 46 48 60 49 79 50 44 51 45 52 59 54 80 55 47 56
REMARK SMILES IDX 31 57 32 58 40 59 33 60 34 61 38 62 41 63 35 64 36 65 39 66
REMARK SMILES IDX 37 67 63 68 64 69 72 70 65 71 66 72 70 73 73 74 67 75 68 76
REMARK SMILES IDX 71 77 69 78 48 79 49 80 57 81 50 82 51 83 55 84 58 85 52 86
REMARK SMILES IDX 53 87 56 88 54 89
REMARK H PARENT 12 7 19 23 78 42 46 53
REMARK Flexibility Score: inf
ROOT
ATOM      1  C   UNL A   1      33.569  30.669  26.914  1.00  0.00     0.002 C 
ENDROOT
BRANCH   1   2
ATOM      2  C   UNL A   1      33.992  29.283  27.421  1.00  0.00     0.021 C 
BRANCH   2   3
ATOM      3  C   UNL A   1      33.865  28.167  26.387  1.00  0.00     0.117 C 
BRANCH   3   4
ATOM      4  N   UNL A   1      32.888  27.178  26.796  1.00  0.00    -0.345 N 
ATOM      5  C   UNL A   1      31.624  26.998  26.309  1.00  0.00     0.296 C 
ATOM      6  O   UNL A   1      30.883  26.143  26.774  1.00  0.00    -0.260 OA
ATOM      7  H   UNL A   1      33.169  26.561  27.510  1.00  0.00     0.164 HD
BRANCH   5   8
ATOM      8  C   UNL A   1      31.182  27.802  25.197  1.00  0.00     0.002 C 
ATOM      9  C   UNL A   1      30.753  28.495  24.326  1.00  0.00    -0.034 C 
BRANCH   9  10
ATOM     10  C   UNL A   1      30.174  29.362  23.355  1.00  0.00     0.135 A 
ATOM     11  N   UNL A   1      29.118  31.028  22.600  1.00  0.00    -0.269 N 
ATOM     12  C   UNL A   1      29.467  30.292  21.498  1.00  0.00     0.110 A 
ATOM     13  N   UNL A   1      29.600  30.499  23.748  1.00  0.00    -0.164 NA
ATOM     14  C   UNL A   1      30.141  29.188  21.965  1.00  0.00     0.059 A 
BRANCH  11  15
ATOM     15  C   UNL A   1      28.387  32.297  22.636  1.00  0.00     0.101 C 
ATOM     16  C   UNL A   1      29.206  33.449  23.231  1.00  0.00     0.033 C 
ATOM     17  C   UNL A   1      27.878  32.717  21.251  1.00  0.00     0.033 C 
ENDBRANCH  11  15
ENDBRANCH   9  10
ENDBRANCH   5   8
ENDBRANCH   3   4
ENDBRANCH   2   3
ENDBRANCH   1   2
BRANCH   1  18
ATOM     18  C   UNL A   1      32.058  30.960  26.927  1.00  0.00     0.002 C 
BRANCH  18  19
ATOM     19  C   UNL A   1      31.645  32.437  27.007  1.00  0.00     0.021 C 
BRANCH  19  20
ATOM     20  C   UNL A   1      32.818  33.391  27.152  1.00  0.00     0.116 C 
BRANCH  20  21
ATOM     21  N   UNL A   1      32.582  34.481  28.108  1.00  0.00    -0.352 N 
ATOM     22  C   UNL A   1      33.121  34.638  29.380  1.00  0.00     0.251 C 
ATOM     23  H   UNL A   1      31.965  35.188  27.812  1.00  0.00     0.163 HD
ATOM     24  O   UNL A   1      32.595  35.360  30.218  1.00  0.00    -0.269 OA
BRANCH  22  25
ATOM     25  C   UNL A   1      34.390  33.956  29.688  1.00  0.00     0.039 A 
ATOM     26  C   UNL A   1      34.551  32.921  30.615  1.00  0.00     0.014 A 
ATOM     27  C   UNL A   1      35.486  34.414  28.992  1.00  0.00     0.014 A 
ATOM     28  C   UNL A   1      35.836  32.391  30.791  1.00  0.00     0.010 A 
ATOM     29  C   UNL A   1      36.492  33.533  28.813  1.00  0.00     0.010 A 
ATOM     30  C   UNL A   1      36.835  32.764  29.890  1.00  0.00    -0.014 A 
BRANCH  30  31
ATOM     31  C   UNL A   1      38.180  32.225  29.818  1.00  0.00     0.031 A 
ATOM     32  C   UNL A   1      38.203  30.899  29.166  1.00  0.00     0.074 A 
ATOM     33  C   UNL A   1      39.278  32.977  30.086  1.00  0.00     0.049 A 
ATOM     34  N   UNL A   1      38.312  29.760  29.757  1.00  0.00    -0.248 NA
ATOM     35  C   UNL A   1      37.807  30.796  27.748  1.00  0.00     0.031 C 
ATOM     36  C   UNL A   1      39.379  34.401  30.445  1.00  0.00     0.029 A 
ATOM     37  N   UNL A   1      40.593  32.606  30.039  1.00  0.00    -0.354 N 
ATOM     38  C   UNL A   1      38.276  28.813  28.742  1.00  0.00     0.074 A 
ATOM     39  C   UNL A   1      37.700  29.474  27.604  1.00  0.00     0.031 C 
ATOM     40  C   UNL A   1      40.668  34.815  30.359  1.00  0.00     0.029 A 
ATOM     41  C   UNL A   1      41.510  33.667  30.096  1.00  0.00     0.049 A 
ATOM     42  H   UNL A   1      40.874  31.665  29.969  1.00  0.00     0.167 HD
ATOM     43  C   UNL A   1      39.031  27.686  28.843  1.00  0.00     0.037 A 
ATOM     44  C   UNL A   1      42.857  33.552  29.912  1.00  0.00     0.037 A 
ATOM     45  C   UNL A   1      39.483  27.508  30.206  1.00  0.00     0.049 A 
ATOM     46  C   UNL A   1      43.188  32.116  30.142  1.00  0.00     0.074 A 
ATOM     47  C   UNL A   1      38.845  27.361  31.423  1.00  0.00     0.029 A 
ATOM     48  N   UNL A   1      40.759  27.925  30.502  1.00  0.00    -0.354 N 
ATOM     49  N   UNL A   1      43.069  31.539  31.308  1.00  0.00    -0.248 NA
ATOM     50  C   UNL A   1      43.095  31.236  28.985  1.00  0.00     0.031 C 
ATOM     51  C   UNL A   1      39.594  28.171  32.331  1.00  0.00     0.029 A 
ATOM     52  C   UNL A   1      40.709  28.665  31.657  1.00  0.00     0.049 A 
ATOM     53  H   UNL A   1      41.568  27.726  29.977  1.00  0.00     0.167 HD
ATOM     54  C   UNL A   1      42.446  30.329  31.032  1.00  0.00     0.074 A 
ATOM     55  C   UNL A   1      42.502  30.193  29.574  1.00  0.00     0.031 C 
ATOM     56  C   UNL A   1      41.656  29.713  31.959  1.00  0.00     0.037 A 
BRANCH  43  57
ATOM     57  C   UNL A   1      39.727  27.018  27.680  1.00  0.00     0.064 A 
ATOM     58  C   UNL A   1      39.716  25.611  27.613  1.00  0.00     0.173 A 
ATOM     59  C   UNL A   1      40.647  27.657  26.818  1.00  0.00     0.173 A 
ATOM     60  F   UNL A   1      38.887  24.898  28.391  1.00  0.00    -0.203 F 
ATOM     61  C   UNL A   1      40.622  24.901  26.823  1.00  0.00     0.198 A 
ATOM     62  C   UNL A   1      41.514  26.944  25.992  1.00  0.00     0.198 A 
ATOM     63  F   UNL A   1      40.834  28.980  26.808  1.00  0.00    -0.203 F 
ATOM     64  F   UNL A   1      40.662  23.564  26.898  1.00  0.00    -0.200 F 
ATOM     65  C   UNL A   1      41.527  25.568  26.020  1.00  0.00     0.200 A 
ATOM     66  F   UNL A   1      42.397  27.612  25.235  1.00  0.00    -0.200 F 
ATOM     67  F   UNL A   1      42.441  24.892  25.312  1.00  0.00    -0.200 F 
ENDBRANCH  43  57
BRANCH  44  68
ATOM     68  C   UNL A   1      43.801  34.453  29.193  1.00  0.00     0.064 A 
ATOM     69  C   UNL A   1      44.956  34.957  29.823  1.00  0.00     0.173 A 
ATOM     70  C   UNL A   1      43.765  34.567  27.790  1.00  0.00     0.173 A 
ATOM     71  F   UNL A   1      45.099  34.853  31.152  1.00  0.00    -0.203 F 
ATOM     72  C   UNL A   1      46.023  35.500  29.092  1.00  0.00     0.198 A 
ATOM     73  C   UNL A   1      44.831  35.105  27.062  1.00  0.00     0.198 A 
ATOM     74  F   UNL A   1      42.739  34.061  27.090  1.00  0.00    -0.203 F 
ATOM     75  F   UNL A   1      47.135  35.905  29.723  1.00  0.00    -0.200 F 
ATOM     76  C   UNL A   1      45.966  35.556  27.710  1.00  0.00     0.200 A 
ATOM     77  F   UNL A   1      44.781  35.115  25.723  1.00  0.00    -0.200 F 
ATOM     78  F   UNL A   1      47.015  36.001  27.003  1.00  0.00    -0.200 F 
ENDBRANCH  44  68
BRANCH  56  79
ATOM     79  C   UNL A   1      41.640  30.268  33.358  1.00  0.00     0.064 A 
ATOM     80  C   UNL A   1      40.733  31.236  33.829  1.00  0.00     0.173 A 
ATOM     81  C   UNL A   1      42.495  29.684  34.300  1.00  0.00     0.173 A 
ATOM     82  F   UNL A   1      39.815  31.773  33.017  1.00  0.00    -0.203 F 
ATOM     83  C   UNL A   1      40.720  31.629  35.169  1.00  0.00     0.198 A 
ATOM     84  C   UNL A   1      42.458  30.051  35.642  1.00  0.00     0.198 A 
ATOM     85  F   UNL A   1      43.343  28.714  33.923  1.00  0.00    -0.203 F 
ATOM     86  F   UNL A   1      39.852  32.561  35.590  1.00  0.00    -0.200 F 
ATOM     87  C   UNL A   1      41.580  31.031  36.074  1.00  0.00     0.200 A 
ATOM     88  F   UNL A   1      43.257  29.432  36.521  1.00  0.00    -0.200 F 
ATOM     89  F   UNL A   1      41.548  31.382  37.368  1.00  0.00    -0.200 F 
ENDBRANCH  56  79
ENDBRANCH  30  31
ENDBRANCH  22  25
ENDBRANCH  20  21
ENDBRANCH  19  20
ENDBRANCH  18  19
ENDBRANCH   1  18
TORSDOF 15
ENDMDL
MODEL 3
REMARK VINA RESULT:     -11.0      4.821     10.480
REMARK SMILES CC(C)n1ccc(C#CC(=O)NCCCCCCNC(=O)c2ccc(-c3c4nc(c(-c5c(F)c(F)c(F)c(F)c5F)c5ccc([nH]5)c(-c5c(F)c(F)c(F)c(F)c5F)c5nc(c(-c6c(F)c(F)c(F)c(F)c6F)c6ccc3[nH]6)C=C5)C=C4)cc2)n1
REMARK SMILES IDX 15 1 14 2 13 3 12 4 10 5 11 6 9 8 8 9 7 10 4 11 5 12 85 13
REMARK SMILES IDX 6 14 2 15 1 16 3 17 16 18 17 19 18 20 19 21 20 22 21 24
REMARK SMILES IDX 22 25 23 26 84 27 24 28 83 29 25 30 26 31 27 32 77 33 28 34
REMARK SMILES IDX 82 35 76 36 78 37 29 38 81 39 75 40 74 41 30 43 62 44 42 45
REMARK SMILES IDX 61 46 43 47 46 48 60 49 79 50 44 51 45 52 59 54 80 55 47 56
REMARK SMILES IDX 31 57 32 58 40 59 33 60 34 61 38 62 41 63 35 64 36 65 39 66
REMARK SMILES IDX 37 67 63 68 64 69 72 70 65 71 66 72 70 73 73 74 67 75 68 76
REMARK SMILES IDX 71 77 69 78 48 79 49 80 57 81 50 82 51 83 55 84 58 85 52 86
REMARK SMILES IDX 53 87 56 88 54 89
REMARK H PARENT 12 7 19 23 78 42 46 53
REMARK Flexibility Score: inf
ROOT
ATOM      1  C   UNL A   1      34.400  32.613  28.532  1.00  0.00     0.002 C 
ENDROOT
BRANCH   1   2
ATOM      2  C   UNL A   1      34.613  31.434  27.574  1.00  0.00     0.021 C 
BRANCH   2   3
ATOM      3  C   UNL A   1      33.540  30.351  27.658  1.00  0.00     0.117 C 
BRANCH   3   4
ATOM      4  N   UNL A   1      32.436  30.632  26.761  1.00  0.00    -0.345 N 
ATOM      5  C   UNL A   1      31.998  29.877  25.710  1.00  0.00     0.296 C 
ATOM      6  O   UNL A   1      31.072  30.252  25.004  1.00  0.00    -0.260 OA
ATOM      7  H   UNL A   1      31.942  31.467  26.930  1.00  0.00     0.164 HD
BRANCH   5   8
ATOM      8  C   UNL A   1      32.613  28.596  25.465  1.00  0.00     0.002 C 
ATOM      9  C   UNL A   1      33.101  27.545  25.180  1.00  0.00    -0.034 C 
BRANCH   9  10
ATOM     10  C   UNL A   1      33.665  26.313  24.741  1.00  0.00     0.135 A 
ATOM     11  N   UNL A   1      34.742  24.500  24.861  1.00  0.00    -0.269 N 
ATOM     12  C   UNL A   1      34.323  24.586  23.558  1.00  0.00     0.110 A 
ATOM     13  N   UNL A   1      34.292  25.528  25.616  1.00  0.00    -0.164 NA
ATOM     14  C   UNL A   1      33.634  25.771  23.449  1.00  0.00     0.059 A 
BRANCH  11  15
ATOM     15  C   UNL A   1      35.515  23.423  25.484  1.00  0.00     0.101 C 
ATOM     16  C   UNL A   1      35.361  22.076  24.767  1.00  0.00     0.033 C 
ATOM     17  C   UNL A   1      37.008  23.760  25.588  1.00  0.00     0.033 C 
ENDBRANCH  11  15
ENDBRANCH   9  10
ENDBRANCH   5   8
ENDBRANCH   3   4
ENDBRANCH   2   3
ENDBRANCH   1   2
BRANCH   1  18
ATOM     18  C   UNL A   1      34.955  33.970  28.066  1.00  0.00     0.002 C 
BRANCH  18  19
ATOM     19  C   UNL A   1      34.333  35.221  28.702  1.00  0.00     0.021 C 
BRANCH  19  20
ATOM     20  C   UNL A   1      33.193  34.916  29.660  1.00  0.00     0.116 C 
BRANCH  20  21
ATOM     21  N   UNL A   1      33.258  35.669  30.920  1.00  0.00    -0.352 N 
ATOM     22  C   UNL A   1      33.820  35.273  32.127  1.00  0.00     0.251 C 
ATOM     23  H   UNL A   1      32.852  36.565  30.907  1.00  0.00     0.163 HD
ATOM     24  O   UNL A   1      33.507  35.800  33.187  1.00  0.00    -0.269 OA
BRANCH  22  25
ATOM     25  C   UNL A   1      34.861  34.230  32.103  1.00  0.00     0.039 A 
ATOM     26  C   UNL A   1      34.631  32.852  32.177  1.00  0.00     0.014 A 
ATOM     27  C   UNL A   1      36.154  34.694  32.012  1.00  0.00     0.014 A 
ATOM     28  C   UNL A   1      35.743  31.999  32.151  1.00  0.00     0.010 A 
ATOM     29  C   UNL A   1      37.053  33.856  31.454  1.00  0.00     0.010 A 
ATOM     30  C   UNL A   1      36.989  32.544  31.835  1.00  0.00    -0.014 A 
BRANCH  30  31
ATOM     31  C   UNL A   1      38.224  31.814  31.623  1.00  0.00     0.031 A 
ATOM     32  C   UNL A   1      38.900  31.501  32.899  1.00  0.00     0.074 A 
ATOM     33  C   UNL A   1      38.552  31.276  30.420  1.00  0.00     0.049 A 
ATOM     34  N   UNL A   1      39.926  32.109  33.388  1.00  0.00    -0.248 NA
ATOM     35  C   UNL A   1      38.230  30.603  33.859  1.00  0.00     0.031 C 
ATOM     36  C   UNL A   1      37.795  31.265  29.158  1.00  0.00     0.029 A 
ATOM     37  N   UNL A   1      39.663  30.554  30.087  1.00  0.00    -0.354 N 
ATOM     38  C   UNL A   1      40.190  31.474  34.594  1.00  0.00     0.074 A 
ATOM     39  C   UNL A   1      38.987  30.773  34.945  1.00  0.00     0.031 C 
ATOM     40  C   UNL A   1      38.356  30.393  28.283  1.00  0.00     0.029 A 
ATOM     41  C   UNL A   1      39.594  29.898  28.848  1.00  0.00     0.049 A 
ATOM     42  H   UNL A   1      40.452  30.498  30.674  1.00  0.00     0.167 HD
ATOM     43  C   UNL A   1      41.477  31.318  35.007  1.00  0.00     0.037 A 
ATOM     44  C   UNL A   1      40.512  29.003  28.381  1.00  0.00     0.037 A 
ATOM     45  C   UNL A   1      42.353  32.187  34.252  1.00  0.00     0.049 A 
ATOM     46  C   UNL A   1      41.763  29.245  29.157  1.00  0.00     0.074 A 
ATOM     47  C   UNL A   1      42.428  33.555  34.065  1.00  0.00     0.029 A 
ATOM     48  N   UNL A   1      43.030  31.630  33.195  1.00  0.00    -0.354 N 
ATOM     49  N   UNL A   1      42.454  30.349  29.063  1.00  0.00    -0.248 NA
ATOM     50  C   UNL A   1      41.897  28.516  30.412  1.00  0.00     0.031 C 
ATOM     51  C   UNL A   1      42.697  33.722  32.672  1.00  0.00     0.029 A 
ATOM     52  C   UNL A   1      42.892  32.461  32.111  1.00  0.00     0.049 A 
ATOM     53  H   UNL A   1      43.530  30.781  33.211  1.00  0.00     0.167 HD
ATOM     54  C   UNL A   1      42.745  30.687  30.377  1.00  0.00     0.074 A 
ATOM     55  C   UNL A   1      42.387  29.505  31.165  1.00  0.00     0.031 C 
ATOM     56  C   UNL A   1      42.933  31.987  30.748  1.00  0.00     0.037 A 
BRANCH  43  57
ATOM     57  C   UNL A   1      41.998  30.099  35.733  1.00  0.00     0.064 A 
ATOM     58  C   UNL A   1      42.952  30.287  36.753  1.00  0.00     0.173 A 
ATOM     59  C   UNL A   1      41.848  28.768  35.284  1.00  0.00     0.173 A 
ATOM     60  F   UNL A   1      43.184  31.510  37.253  1.00  0.00    -0.203 F 
ATOM     61  C   UNL A   1      43.761  29.244  37.210  1.00  0.00     0.198 A 
ATOM     62  C   UNL A   1      42.621  27.721  35.781  1.00  0.00     0.198 A 
ATOM     63  F   UNL A   1      41.038  28.430  34.276  1.00  0.00    -0.203 F 
ATOM     64  F   UNL A   1      44.745  29.501  38.081  1.00  0.00    -0.200 F 
ATOM     65  C   UNL A   1      43.600  27.963  36.717  1.00  0.00     0.200 A 
ATOM     66  F   UNL A   1      42.461  26.489  35.274  1.00  0.00    -0.200 F 
ATOM     67  F   UNL A   1      44.416  26.975  37.104  1.00  0.00    -0.200 F 
ENDBRANCH  43  57
BRANCH  44  68
ATOM     68  C   UNL A   1      40.308  27.734  27.627  1.00  0.00     0.064 A 
ATOM     69  C   UNL A   1      41.081  27.425  26.490  1.00  0.00     0.173 A 
ATOM     70  C   UNL A   1      39.591  26.663  28.194  1.00  0.00     0.173 A 
ATOM     71  F   UNL A   1      41.832  28.371  25.908  1.00  0.00    -0.203 F 
ATOM     72  C   UNL A   1      41.163  26.121  25.982  1.00  0.00     0.198 A 
ATOM     73  C   UNL A   1      39.677  25.363  27.689  1.00  0.00     0.198 A 
ATOM     74  F   UNL A   1      38.876  26.838  29.314  1.00  0.00    -0.203 F 
ATOM     75  F   UNL A   1      41.966  25.854  24.940  1.00  0.00    -0.200 F 
ATOM     76  C   UNL A   1      40.475  25.087  26.594  1.00  0.00     0.200 A 
ATOM     77  F   UNL A   1      39.040  24.364  28.314  1.00  0.00    -0.200 F 
ATOM     78  F   UNL A   1      40.614  23.826  26.159  1.00  0.00    -0.200 F 
ENDBRANCH  44  68
BRANCH  56  79
ATOM     79  C   UNL A   1      43.022  33.028  29.663  1.00  0.00     0.064 A 
ATOM     80  C   UNL A   1      41.981  33.904  29.303  1.00  0.00     0.173 A 
ATOM     81  C   UNL A   1      44.268  33.237  29.062  1.00  0.00     0.173 A 
ATOM     82  F   UNL A   1      40.786  33.838  29.902  1.00  0.00    -0.203 F 
ATOM     83  C   UNL A   1      42.172  34.909  28.353  1.00  0.00     0.198 A 
ATOM     84  C   UNL A   1      44.467  34.260  28.140  1.00  0.00     0.198 A 
ATOM     85  F   UNL A   1      45.314  32.470  29.407  1.00  0.00    -0.203 F 
ATOM     86  F   UNL A   1      41.161  35.725  28.020  1.00  0.00    -0.200 F 
ATOM     87  C   UNL A   1      43.418  35.088  27.776  1.00  0.00     0.200 A 
ATOM     88  F   UNL A   1      45.688  34.460  27.625  1.00  0.00    -0.200 F 
ATOM     89  F   UNL A   1      43.615  36.072  26.887  1.00  0.00    -0.200 F 
ENDBRANCH  56  79
ENDBRANCH  30  31
ENDBRANCH  22  25
ENDBRANCH  20  21
ENDBRANCH  19  20
ENDBRANCH  18  19
ENDBRANCH   1  18
TORSDOF 15
ENDMDL
