MODEL 1
REMARK VINA RESULT:     -12.6      0.000      0.000
REMARK SMILES O=C(NCCCCCCNC(=O)c1csc(-c2cnc3ccccc3c2)c1)c1ccc(-c2c3nc(c(-c4c(F)c(F)c(F)c(F)c4F)c4ccc([nH]4)c(-c4c(F)c(F)c(F)c(F)c4F)c4nc(c(-c5c(F)c(F)c(F)c(F)c5F)c5ccc2[nH]5)C=C4)C=C3)cc1
REMARK SMILES IDX 6 1 5 2 4 3 3 4 1 5 2 6 28 8 29 9 90 10 30 11 89 12 31 13
REMARK SMILES IDX 32 14 33 15 83 16 34 17 88 18 82 19 84 20 35 21 87 22 81 23
REMARK SMILES IDX 80 24 36 26 68 27 48 28 67 29 49 30 52 31 66 32 85 33 50 34
REMARK SMILES IDX 51 35 65 37 86 38 53 39 37 40 38 41 46 42 39 43 40 44 44 45
REMARK SMILES IDX 47 46 41 47 42 48 45 49 43 50 69 51 70 52 78 53 71 54 72 55
REMARK SMILES IDX 76 56 79 57 73 58 74 59 77 60 75 61 54 62 55 63 63 64 56 65
REMARK SMILES IDX 57 66 61 67 64 68 58 69 59 70 62 71 60 72 7 73 8 74 9 75
REMARK SMILES IDX 10 76 11 77 12 79 13 80 14 81 27 82 15 83 16 84 17 85 18 86
REMARK SMILES IDX 26 87 19 88 25 89 20 90 24 91 21 92 23 93 22 94
REMARK H PARENT 3 7 84 25 52 36 10 78
REMARK Flexibility Score: inf
ROOT
ATOM      1  C   UNL A   1      31.444  30.276  26.354  1.00  0.00     0.002 C 
ENDROOT
BRANCH   1   2
ATOM      2  C   UNL A   1      31.369  31.803  26.429  1.00  0.00     0.021 C 
BRANCH   2   3
ATOM      3  C   UNL A   1      32.591  32.509  27.009  1.00  0.00     0.116 C 
BRANCH   3   4
ATOM      4  N   UNL A   1      32.312  33.853  27.478  1.00  0.00    -0.352 N 
ATOM      5  O   UNL A   1      32.515  35.690  28.768  1.00  0.00    -0.269 OA
ATOM      6  C   UNL A   1      32.962  34.596  28.435  1.00  0.00     0.251 C 
ATOM      7  H   UNL A   1      31.544  34.297  27.052  1.00  0.00     0.163 HD
BRANCH   6   8
ATOM      8  C   UNL A   1      34.182  34.075  29.098  1.00  0.00     0.039 A 
ATOM      9  C   UNL A   1      35.462  34.470  28.702  1.00  0.00     0.014 A 
ATOM     10  C   UNL A   1      34.029  33.185  30.169  1.00  0.00     0.014 A 
ATOM     11  C   UNL A   1      36.584  33.892  29.297  1.00  0.00     0.010 A 
ATOM     12  C   UNL A   1      35.154  32.638  30.795  1.00  0.00     0.010 A 
ATOM     13  C   UNL A   1      36.439  32.960  30.338  1.00  0.00    -0.014 A 
BRANCH  13  14
ATOM     14  C   UNL A   1      37.647  32.334  30.929  1.00  0.00     0.031 A 
ATOM     15  C   UNL A   1      38.081  32.678  32.324  1.00  0.00     0.074 A 
ATOM     16  C   UNL A   1      38.332  31.417  30.222  1.00  0.00     0.049 A 
ATOM     17  N   UNL A   1      39.045  32.158  33.041  1.00  0.00    -0.248 NA
ATOM     18  C   UNL A   1      37.337  33.748  33.005  1.00  0.00     0.031 C 
ATOM     19  C   UNL A   1      38.031  31.012  28.849  1.00  0.00     0.029 A 
ATOM     20  N   UNL A   1      39.408  30.642  30.574  1.00  0.00    -0.354 N 
ATOM     21  C   UNL A   1      39.039  32.847  34.245  1.00  0.00     0.074 A 
ATOM     22  C   UNL A   1      37.977  33.829  34.165  1.00  0.00     0.031 C 
ATOM     23  C   UNL A   1      38.875  30.031  28.488  1.00  0.00     0.029 A 
ATOM     24  C   UNL A   1      39.777  29.746  29.602  1.00  0.00     0.049 A 
ATOM     25  H   UNL A   1      39.871  30.721  31.439  1.00  0.00     0.167 HD
ATOM     26  C   UNL A   1      39.840  32.674  35.323  1.00  0.00     0.037 A 
ATOM     27  C   UNL A   1      40.719  28.787  29.616  1.00  0.00     0.037 A 
ATOM     28  C   UNL A   1      40.878  31.684  35.426  1.00  0.00     0.049 A 
ATOM     29  C   UNL A   1      41.555  28.575  30.844  1.00  0.00     0.074 A 
ATOM     30  C   UNL A   1      41.718  31.420  36.495  1.00  0.00     0.029 A 
ATOM     31  N   UNL A   1      41.212  30.789  34.423  1.00  0.00    -0.354 N 
ATOM     32  N   UNL A   1      41.513  29.209  31.989  1.00  0.00    -0.248 NA
ATOM     33  C   UNL A   1      42.566  27.510  30.780  1.00  0.00     0.031 C 
ATOM     34  C   UNL A   1      42.568  30.367  36.134  1.00  0.00     0.029 A 
ATOM     35  C   UNL A   1      42.247  29.972  34.847  1.00  0.00     0.049 A 
ATOM     36  H   UNL A   1      40.778  30.740  33.542  1.00  0.00     0.167 HD
ATOM     37  C   UNL A   1      42.483  28.620  32.785  1.00  0.00     0.074 A 
ATOM     38  C   UNL A   1      43.094  27.569  31.996  1.00  0.00     0.031 C 
ATOM     39  C   UNL A   1      42.837  28.927  34.054  1.00  0.00     0.037 A 
BRANCH  26  40
ATOM     40  C   UNL A   1      39.626  33.588  36.485  1.00  0.00     0.064 A 
ATOM     41  C   UNL A   1      38.768  33.237  37.536  1.00  0.00     0.173 A 
ATOM     42  C   UNL A   1      40.313  34.807  36.568  1.00  0.00     0.173 A 
ATOM     43  F   UNL A   1      38.081  32.085  37.490  1.00  0.00    -0.203 F 
ATOM     44  C   UNL A   1      38.599  34.081  38.629  1.00  0.00     0.198 A 
ATOM     45  C   UNL A   1      40.147  35.645  37.666  1.00  0.00     0.198 A 
ATOM     46  F   UNL A   1      41.141  35.184  35.582  1.00  0.00    -0.203 F 
ATOM     47  F   UNL A   1      37.760  33.738  39.616  1.00  0.00    -0.200 F 
ATOM     48  C   UNL A   1      39.291  35.282  38.696  1.00  0.00     0.200 A 
ATOM     49  F   UNL A   1      40.814  36.807  37.728  1.00  0.00    -0.200 F 
ATOM     50  F   UNL A   1      39.125  36.095  39.749  1.00  0.00    -0.200 F 
ENDBRANCH  26  40
BRANCH  27  51
ATOM     51  C   UNL A   1      40.877  27.909  28.435  1.00  0.00     0.064 A 
ATOM     52  C   UNL A   1      40.169  26.705  28.344  1.00  0.00     0.173 A 
ATOM     53  C   UNL A   1      41.716  28.268  27.372  1.00  0.00     0.173 A 
ATOM     54  F   UNL A   1      39.369  26.322  29.349  1.00  0.00    -0.203 F 
ATOM     55  C   UNL A   1      40.294  25.885  27.226  1.00  0.00     0.198 A 
ATOM     56  C   UNL A   1      41.833  27.450  26.251  1.00  0.00     0.198 A 
ATOM     57  F   UNL A   1      42.413  29.411  27.424  1.00  0.00    -0.203 F 
ATOM     58  F   UNL A   1      39.616  24.730  27.165  1.00  0.00    -0.200 F 
ATOM     59  C   UNL A   1      41.124  26.260  26.179  1.00  0.00     0.200 A 
ATOM     60  F   UNL A   1      42.634  27.814  25.240  1.00  0.00    -0.200 F 
ATOM     61  F   UNL A   1      41.242  25.471  25.102  1.00  0.00    -0.200 F 
ENDBRANCH  27  51
BRANCH  39  62
ATOM     62  C   UNL A   1      43.928  28.113  34.673  1.00  0.00     0.064 A 
ATOM     63  C   UNL A   1      43.642  26.916  35.343  1.00  0.00     0.173 A 
ATOM     64  C   UNL A   1      45.267  28.510  34.564  1.00  0.00     0.173 A 
ATOM     65  F   UNL A   1      42.372  26.506  35.480  1.00  0.00    -0.203 F 
ATOM     66  C   UNL A   1      44.662  26.146  35.892  1.00  0.00     0.198 A 
ATOM     67  C   UNL A   1      46.287  27.734  35.108  1.00  0.00     0.198 A 
ATOM     68  F   UNL A   1      45.584  29.651  33.933  1.00  0.00    -0.203 F 
ATOM     69  F   UNL A   1      44.370  25.013  36.545  1.00  0.00    -0.200 F 
ATOM     70  C   UNL A   1      45.983  26.554  35.771  1.00  0.00     0.200 A 
ATOM     71  F   UNL A   1      47.561  28.130  34.993  1.00  0.00    -0.200 F 
ATOM     72  F   UNL A   1      46.965  25.813  36.303  1.00  0.00    -0.200 F 
ENDBRANCH  39  62
ENDBRANCH  13  14
ENDBRANCH   6   8
ENDBRANCH   3   4
ENDBRANCH   2   3
ENDBRANCH   1   2
BRANCH   1  73
ATOM     73  C   UNL A   1      31.866  29.678  25.009  1.00  0.00     0.002 C 
BRANCH  73  74
ATOM     74  C   UNL A   1      30.736  29.332  24.031  1.00  0.00     0.021 C 
BRANCH  74  75
ATOM     75  C   UNL A   1      30.858  27.984  23.320  1.00  0.00     0.116 C 
BRANCH  75  76
ATOM     76  N   UNL A   1      31.958  27.960  22.376  1.00  0.00    -0.352 N 
ATOM     77  C   UNL A   1      33.171  27.325  22.447  1.00  0.00     0.252 C 
ATOM     78  H   UNL A   1      31.812  28.482  21.555  1.00  0.00     0.163 HD
ATOM     79  O   UNL A   1      34.047  27.639  21.644  1.00  0.00    -0.269 OA
BRANCH  77  80
ATOM     80  C   UNL A   1      33.409  26.318  23.474  1.00  0.00     0.051 A 
ATOM     81  C   UNL A   1      33.870  26.573  24.752  1.00  0.00     0.079 A 
ATOM     82  C   UNL A   1      33.087  24.925  23.331  1.00  0.00     0.034 A 
ATOM     83  S   UNL A   1      33.999  25.163  25.707  1.00  0.00    -0.143 S 
ATOM     84  C   UNL A   1      33.365  24.176  24.458  1.00  0.00     0.037 A 
BRANCH  84  85
ATOM     85  C   UNL A   1      33.200  22.737  24.659  1.00  0.00     0.011 A 
ATOM     86  C   UNL A   1      33.451  22.156  25.897  1.00  0.00     0.121 A 
ATOM     87  C   UNL A   1      32.822  21.876  23.628  1.00  0.00     0.021 A 
ATOM     88  N   UNL A   1      33.346  20.831  26.164  1.00  0.00    -0.256 NA
ATOM     89  C   UNL A   1      32.709  20.496  23.861  1.00  0.00     0.001 A 
ATOM     90  C   UNL A   1      32.984  20.016  25.159  1.00  0.00     0.070 A 
ATOM     91  C   UNL A   1      32.341  19.603  22.840  1.00  0.00     0.010 A 
ATOM     92  C   UNL A   1      32.877  18.651  25.392  1.00  0.00     0.029 A 
ATOM     93  C   UNL A   1      32.243  18.236  23.100  1.00  0.00     0.001 A 
ATOM     94  C   UNL A   1      32.511  17.760  24.378  1.00  0.00     0.002 A 
ENDBRANCH  84  85
ENDBRANCH  77  80
ENDBRANCH  75  76
ENDBRANCH  74  75
ENDBRANCH  73  74
ENDBRANCH   1  73
TORSDOF 14
ENDMDL
MODEL 2
REMARK VINA RESULT:     -12.6      2.328      3.592
REMARK SMILES O=C(NCCCCCCNC(=O)c1csc(-c2cnc3ccccc3c2)c1)c1ccc(-c2c3nc(c(-c4c(F)c(F)c(F)c(F)c4F)c4ccc([nH]4)c(-c4c(F)c(F)c(F)c(F)c4F)c4nc(c(-c5c(F)c(F)c(F)c(F)c5F)c5ccc2[nH]5)C=C4)C=C3)cc1
REMARK SMILES IDX 6 1 5 2 4 3 3 4 1 5 2 6 28 8 29 9 90 10 30 11 89 12 31 13
REMARK SMILES IDX 32 14 33 15 83 16 34 17 88 18 82 19 84 20 35 21 87 22 81 23
REMARK SMILES IDX 80 24 36 26 68 27 48 28 67 29 49 30 52 31 66 32 85 33 50 34
REMARK SMILES IDX 51 35 65 37 86 38 53 39 37 40 38 41 46 42 39 43 40 44 44 45
REMARK SMILES IDX 47 46 41 47 42 48 45 49 43 50 69 51 70 52 78 53 71 54 72 55
REMARK SMILES IDX 76 56 79 57 73 58 74 59 77 60 75 61 54 62 55 63 63 64 56 65
REMARK SMILES IDX 57 66 61 67 64 68 58 69 59 70 62 71 60 72 7 73 8 74 9 75
REMARK SMILES IDX 10 76 11 77 12 79 13 80 14 81 27 82 15 83 16 84 17 85 18 86
REMARK SMILES IDX 26 87 19 88 25 89 20 90 24 91 21 92 23 93 22 94
REMARK H PARENT 3 7 84 25 52 36 10 78
REMARK Flexibility Score: inf
ROOT
ATOM      1  C   UNL A   1      33.389  26.305  25.749  1.00  0.00     0.002 C 
ENDROOT
BRANCH   1   2
ATOM      2  C   UNL A   1      33.274  27.639  26.492  1.00  0.00     0.021 C 
BRANCH   2   3
ATOM      3  C   UNL A   1      33.815  28.865  25.761  1.00  0.00     0.116 C 
BRANCH   3   4
ATOM      4  N   UNL A   1      33.259  30.115  26.243  1.00  0.00    -0.352 N 
ATOM      5  O   UNL A   1      33.092  31.959  27.527  1.00  0.00    -0.269 OA
ATOM      6  C   UNL A   1      33.761  30.992  27.175  1.00  0.00     0.251 C 
ATOM      7  H   UNL A   1      32.396  30.373  25.846  1.00  0.00     0.163 HD
BRANCH   6   8
ATOM      8  C   UNL A   1      35.090  30.762  27.792  1.00  0.00     0.039 A 
ATOM      9  C   UNL A   1      35.451  29.520  28.321  1.00  0.00     0.014 A 
ATOM     10  C   UNL A   1      36.008  31.818  27.810  1.00  0.00     0.014 A 
ATOM     11  C   UNL A   1      36.679  29.369  28.966  1.00  0.00     0.010 A 
ATOM     12  C   UNL A   1      37.256  31.655  28.420  1.00  0.00     0.010 A 
ATOM     13  C   UNL A   1      37.585  30.440  29.034  1.00  0.00    -0.014 A 
BRANCH  13  14
ATOM     14  C   UNL A   1      38.868  30.264  29.757  1.00  0.00     0.031 A 
ATOM     15  C   UNL A   1      39.030  30.773  31.160  1.00  0.00     0.074 A 
ATOM     16  C   UNL A   1      39.879  29.604  29.163  1.00  0.00     0.049 A 
ATOM     17  N   UNL A   1      40.038  30.621  31.982  1.00  0.00    -0.248 NA
ATOM     18  C   UNL A   1      37.916  31.557  31.714  1.00  0.00     0.031 C 
ATOM     19  C   UNL A   1      39.859  29.083  27.798  1.00  0.00     0.029 A 
ATOM     20  N   UNL A   1      41.110  29.238  29.647  1.00  0.00    -0.354 N 
ATOM     21  C   UNL A   1      39.692  31.305  33.139  1.00  0.00     0.074 A 
ATOM     22  C   UNL A   1      38.381  31.878  32.915  1.00  0.00     0.031 C 
ATOM     23  C   UNL A   1      41.007  28.425  27.565  1.00  0.00     0.029 A 
ATOM     24  C   UNL A   1      41.842  28.486  28.763  1.00  0.00     0.049 A 
ATOM     25  H   UNL A   1      41.437  29.491  30.541  1.00  0.00     0.167 HD
ATOM     26  C   UNL A   1      40.399  31.437  34.286  1.00  0.00     0.037 A 
ATOM     27  C   UNL A   1      43.039  27.891  28.910  1.00  0.00     0.037 A 
ATOM     28  C   UNL A   1      41.687  30.848  34.532  1.00  0.00     0.049 A 
ATOM     29  C   UNL A   1      43.776  28.003  30.212  1.00  0.00     0.074 A 
ATOM     30  C   UNL A   1      42.461  30.907  35.680  1.00  0.00     0.029 A 
ATOM     31  N   UNL A   1      42.389  30.084  33.614  1.00  0.00    -0.354 N 
ATOM     32  N   UNL A   1      43.421  28.621  31.310  1.00  0.00    -0.248 NA
ATOM     33  C   UNL A   1      45.081  27.330  30.294  1.00  0.00     0.031 C 
ATOM     34  C   UNL A   1      43.638  30.183  35.451  1.00  0.00     0.029 A 
ATOM     35  C   UNL A   1      43.588  29.667  34.168  1.00  0.00     0.049 A 
ATOM     36  H   UNL A   1      42.082  29.870  32.705  1.00  0.00     0.167 HD
ATOM     37  C   UNL A   1      44.448  28.408  32.215  1.00  0.00     0.074 A 
ATOM     38  C   UNL A   1      45.441  27.595  31.543  1.00  0.00     0.031 C 
ATOM     39  C   UNL A   1      44.560  28.853  33.489  1.00  0.00     0.037 A 
BRANCH  26  40
ATOM     40  C   UNL A   1      39.788  32.264  35.372  1.00  0.00     0.064 A 
ATOM     41  C   UNL A   1      38.904  31.700  36.301  1.00  0.00     0.173 A 
ATOM     42  C   UNL A   1      40.119  33.619  35.505  1.00  0.00     0.173 A 
ATOM     43  F   UNL A   1      38.551  30.410  36.202  1.00  0.00    -0.203 F 
ATOM     44  C   UNL A   1      38.364  32.471  37.327  1.00  0.00     0.198 A 
ATOM     45  C   UNL A   1      39.583  34.384  36.537  1.00  0.00     0.198 A 
ATOM     46  F   UNL A   1      40.958  34.199  34.634  1.00  0.00    -0.203 F 
ATOM     47  F   UNL A   1      37.506  31.920  38.196  1.00  0.00    -0.200 F 
ATOM     48  C   UNL A   1      38.706  33.810  37.447  1.00  0.00     0.200 A 
ATOM     49  F   UNL A   1      39.912  35.679  36.650  1.00  0.00    -0.200 F 
ATOM     50  F   UNL A   1      38.184  34.551  38.434  1.00  0.00    -0.200 F 
ENDBRANCH  26  40
BRANCH  27  51
ATOM     51  C   UNL A   1      43.587  27.081  27.800  1.00  0.00     0.064 A 
ATOM     52  C   UNL A   1      43.427  25.690  27.788  1.00  0.00     0.173 A 
ATOM     53  C   UNL A   1      44.256  27.681  26.725  1.00  0.00     0.173 A 
ATOM     54  F   UNL A   1      42.805  25.080  28.808  1.00  0.00    -0.203 F 
ATOM     55  C   UNL A   1      43.919  24.923  26.736  1.00  0.00     0.198 A 
ATOM     56  C   UNL A   1      44.740  26.912  25.670  1.00  0.00     0.198 A 
ATOM     57  F   UNL A   1      44.432  29.009  26.702  1.00  0.00    -0.203 F 
ATOM     58  F   UNL A   1      43.765  23.591  26.751  1.00  0.00    -0.200 F 
ATOM     59  C   UNL A   1      44.572  25.535  25.676  1.00  0.00     0.200 A 
ATOM     60  F   UNL A   1      45.370  27.505  24.647  1.00  0.00    -0.200 F 
ATOM     61  F   UNL A   1      45.043  24.796  24.663  1.00  0.00    -0.200 F 
ENDBRANCH  27  51
BRANCH  39  62
ATOM     62  C   UNL A   1      45.792  28.462  34.241  1.00  0.00     0.064 A 
ATOM     63  C   UNL A   1      45.829  27.285  35.001  1.00  0.00     0.173 A 
ATOM     64  C   UNL A   1      46.950  29.247  34.173  1.00  0.00     0.173 A 
ATOM     65  F   UNL A   1      44.738  26.512  35.101  1.00  0.00    -0.203 F 
ATOM     66  C   UNL A   1      46.987  26.910  35.675  1.00  0.00     0.198 A 
ATOM     67  C   UNL A   1      48.109  28.866  34.844  1.00  0.00     0.198 A 
ATOM     68  F   UNL A   1      46.955  30.384  33.460  1.00  0.00    -0.203 F 
ATOM     69  F   UNL A   1      47.000  25.790  36.411  1.00  0.00    -0.200 F 
ATOM     70  C   UNL A   1      48.125  27.699  35.594  1.00  0.00     0.200 A 
ATOM     71  F   UNL A   1      49.207  29.629  34.767  1.00  0.00    -0.200 F 
ATOM     72  F   UNL A   1      49.239  27.337  36.246  1.00  0.00    -0.200 F 
ENDBRANCH  39  62
ENDBRANCH  13  14
ENDBRANCH   6   8
ENDBRANCH   3   4
ENDBRANCH   2   3
ENDBRANCH   1   2
BRANCH   1  73
ATOM     73  C   UNL A   1      32.086  25.531  25.530  1.00  0.00     0.002 C 
BRANCH  73  74
ATOM     74  C   UNL A   1      31.121  26.100  24.483  1.00  0.00     0.021 C 
BRANCH  74  75
ATOM     75  C   UNL A   1      30.663  25.126  23.398  1.00  0.00     0.116 C 
BRANCH  75  76
ATOM     76  N   UNL A   1      31.425  25.271  22.173  1.00  0.00    -0.352 N 
ATOM     77  C   UNL A   1      32.675  24.811  21.850  1.00  0.00     0.252 C 
ATOM     78  H   UNL A   1      30.975  25.780  21.462  1.00  0.00     0.163 HD
ATOM     79  O   UNL A   1      33.224  25.258  20.844  1.00  0.00    -0.269 OA
BRANCH  77  80
ATOM     80  C   UNL A   1      33.337  23.832  22.703  1.00  0.00     0.051 A 
ATOM     81  C   UNL A   1      32.835  22.586  23.026  1.00  0.00     0.079 A 
ATOM     82  C   UNL A   1      34.662  23.989  23.236  1.00  0.00     0.034 A 
ATOM     83  S   UNL A   1      33.891  21.680  24.018  1.00  0.00    -0.143 S 
ATOM     84  C   UNL A   1      35.088  22.905  23.981  1.00  0.00     0.037 A 
BRANCH  84  85
ATOM     85  C   UNL A   1      36.353  22.731  24.695  1.00  0.00     0.011 A 
ATOM     86  C   UNL A   1      37.019  21.511  24.678  1.00  0.00     0.121 A 
ATOM     87  C   UNL A   1      36.933  23.752  25.449  1.00  0.00     0.021 A 
ATOM     88  N   UNL A   1      38.180  21.257  25.329  1.00  0.00    -0.256 NA
ATOM     89  C   UNL A   1      38.131  23.527  26.144  1.00  0.00     0.001 A 
ATOM     90  C   UNL A   1      38.724  22.250  26.054  1.00  0.00     0.070 A 
ATOM     91  C   UNL A   1      38.734  24.532  26.921  1.00  0.00     0.010 A 
ATOM     92  C   UNL A   1      39.907  22.023  26.743  1.00  0.00     0.029 A 
ATOM     93  C   UNL A   1      39.921  24.277  27.606  1.00  0.00     0.001 A 
ATOM     94  C   UNL A   1      40.509  23.021  27.517  1.00  0.00     0.002 A 
ENDBRANCH  84  85
ENDBRANCH  77  80
ENDBRANCH  75  76
ENDBRANCH  74  75
ENDBRANCH  73  74
ENDBRANCH   1  73
TORSDOF 14
ENDMDL
MODEL 3
REMARK VINA RESULT:     -12.5      2.198      4.629
REMARK SMILES O=C(NCCCCCCNC(=O)c1csc(-c2cnc3ccccc3c2)c1)c1ccc(-c2c3nc(c(-c4c(F)c(F)c(F)c(F)c4F)c4ccc([nH]4)c(-c4c(F)c(F)c(F)c(F)c4F)c4nc(c(-c5c(F)c(F)c(F)c(F)c5F)c5ccc2[nH]5)C=C4)C=C3)cc1
REMARK SMILES IDX 6 1 5 2 4 3 3 4 1 5 2 6 28 8 29 9 90 10 30 11 89 12 31 13
REMARK SMILES IDX 32 14 33 15 83 16 34 17 88 18 82 19 84 20 35 21 87 22 81 23
REMARK SMILES IDX 80 24 36 26 68 27 48 28 67 29 49 30 52 31 66 32 85 33 50 34
REMARK SMILES IDX 51 35 65 37 86 38 53 39 37 40 38 41 46 42 39 43 40 44 44 45
REMARK SMILES IDX 47 46 41 47 42 48 45 49 43 50 69 51 70 52 78 53 71 54 72 55
REMARK SMILES IDX 76 56 79 57 73 58 74 59 77 60 75 61 54 62 55 63 63 64 56 65
REMARK SMILES IDX 57 66 61 67 64 68 58 69 59 70 62 71 60 72 7 73 8 74 9 75
REMARK SMILES IDX 10 76 11 77 12 79 13 80 14 81 27 82 15 83 16 84 17 85 18 86
REMARK SMILES IDX 26 87 19 88 25 89 20 90 24 91 21 92 23 93 22 94
REMARK H PARENT 3 7 84 25 52 36 10 78
REMARK Flexibility Score: inf
ROOT
ATOM      1  C   UNL A   1      33.698  26.464  24.692  1.00  0.00     0.002 C 
ENDROOT
BRANCH   1   2
ATOM      2  C   UNL A   1      33.271  27.654  25.555  1.00  0.00     0.021 C 
BRANCH   2   3
ATOM      3  C   UNL A   1      33.798  29.020  25.125  1.00  0.00     0.116 C 
BRANCH   3   4
ATOM      4  N   UNL A   1      33.040  30.129  25.674  1.00  0.00    -0.352 N 
ATOM      5  O   UNL A   1      32.472  31.729  27.156  1.00  0.00    -0.269 OA
ATOM      6  C   UNL A   1      33.289  30.887  26.793  1.00  0.00     0.251 C 
ATOM      7  H   UNL A   1      32.228  30.373  25.174  1.00  0.00     0.163 HD
BRANCH   6   8
ATOM      8  C   UNL A   1      34.520  30.675  27.593  1.00  0.00     0.039 A 
ATOM      9  C   UNL A   1      35.533  31.634  27.653  1.00  0.00     0.014 A 
ATOM     10  C   UNL A   1      34.642  29.488  28.325  1.00  0.00     0.014 A 
ATOM     11  C   UNL A   1      36.711  31.359  28.350  1.00  0.00     0.010 A 
ATOM     12  C   UNL A   1      35.805  29.230  29.059  1.00  0.00     0.010 A 
ATOM     13  C   UNL A   1      36.862  30.149  29.045  1.00  0.00    -0.014 A 
BRANCH  13  14
ATOM     14  C   UNL A   1      38.138  29.866  29.747  1.00  0.00     0.031 A 
ATOM     15  C   UNL A   1      38.376  30.383  31.137  1.00  0.00     0.074 A 
ATOM     16  C   UNL A   1      39.070  29.104  29.148  1.00  0.00     0.049 A 
ATOM     17  N   UNL A   1      39.382  30.151  31.943  1.00  0.00    -0.248 NA
ATOM     18  C   UNL A   1      37.352  31.278  31.696  1.00  0.00     0.031 C 
ATOM     19  C   UNL A   1      38.973  28.562  27.793  1.00  0.00     0.029 A 
ATOM     20  N   UNL A   1      40.271  28.632  29.615  1.00  0.00    -0.354 N 
ATOM     21  C   UNL A   1      39.125  30.885  33.092  1.00  0.00     0.074 A 
ATOM     22  C   UNL A   1      37.869  31.575  32.882  1.00  0.00     0.031 C 
ATOM     23  C   UNL A   1      40.049  27.794  27.552  1.00  0.00     0.029 A 
ATOM     24  C   UNL A   1      40.910  27.798  28.733  1.00  0.00     0.049 A 
ATOM     25  H   UNL A   1      40.638  28.868  30.498  1.00  0.00     0.167 HD
ATOM     26  C   UNL A   1      39.864  30.971  34.223  1.00  0.00     0.037 A 
ATOM     27  C   UNL A   1      42.049  27.096  28.870  1.00  0.00     0.037 A 
ATOM     28  C   UNL A   1      41.096  30.267  34.457  1.00  0.00     0.049 A 
ATOM     29  C   UNL A   1      42.820  27.161  30.155  1.00  0.00     0.074 A 
ATOM     30  C   UNL A   1      41.896  30.273  35.588  1.00  0.00     0.029 A 
ATOM     31  N   UNL A   1      41.705  29.424  33.540  1.00  0.00    -0.354 N 
ATOM     32  N   UNL A   1      42.547  27.830  31.247  1.00  0.00    -0.248 NA
ATOM     33  C   UNL A   1      44.057  26.370  30.225  1.00  0.00     0.031 C 
ATOM     34  C   UNL A   1      42.995  29.438  35.352  1.00  0.00     0.029 A 
ATOM     35  C   UNL A   1      42.871  28.906  34.080  1.00  0.00     0.049 A 
ATOM     36  H   UNL A   1      41.360  29.223  32.642  1.00  0.00     0.167 HD
ATOM     37  C   UNL A   1      43.568  27.537  32.137  1.00  0.00     0.074 A 
ATOM     38  C   UNL A   1      44.466  26.622  31.462  1.00  0.00     0.031 C 
ATOM     39  C   UNL A   1      43.747  27.992  33.399  1.00  0.00     0.037 A 
BRANCH  26  40
ATOM     40  C   UNL A   1      39.356  31.870  35.303  1.00  0.00     0.064 A 
ATOM     41  C   UNL A   1      39.690  33.230  35.331  1.00  0.00     0.173 A 
ATOM     42  C   UNL A   1      38.498  31.376  36.296  1.00  0.00     0.173 A 
ATOM     43  F   UNL A   1      40.519  33.741  34.408  1.00  0.00    -0.203 F 
ATOM     44  C   UNL A   1      39.188  34.066  36.323  1.00  0.00     0.198 A 
ATOM     45  C   UNL A   1      37.991  32.217  37.281  1.00  0.00     0.198 A 
ATOM     46  F   UNL A   1      38.156  30.079  36.308  1.00  0.00    -0.203 F 
ATOM     47  F   UNL A   1      39.533  35.361  36.345  1.00  0.00    -0.200 F 
ATOM     48  C   UNL A   1      38.335  33.561  37.295  1.00  0.00     0.200 A 
ATOM     49  F   UNL A   1      37.170  31.726  38.222  1.00  0.00    -0.200 F 
ATOM     50  F   UNL A   1      37.854  34.367  38.251  1.00  0.00    -0.200 F 
ENDBRANCH  26  40
BRANCH  27  51
ATOM     51  C   UNL A   1      42.496  26.218  27.766  1.00  0.00     0.064 A 
ATOM     52  C   UNL A   1      41.958  24.934  27.615  1.00  0.00     0.173 A 
ATOM     53  C   UNL A   1      43.446  26.652  26.832  1.00  0.00     0.173 A 
ATOM     54  F   UNL A   1      41.057  24.479  28.499  1.00  0.00    -0.203 F 
ATOM     55  C   UNL A   1      42.355  24.111  26.565  1.00  0.00     0.198 A 
ATOM     56  C   UNL A   1      43.836  25.830  25.779  1.00  0.00     0.198 A 
ATOM     57  F   UNL A   1      43.987  27.873  26.944  1.00  0.00    -0.203 F 
ATOM     58  F   UNL A   1      41.835  22.881  26.448  1.00  0.00    -0.200 F 
ATOM     59  C   UNL A   1      43.292  24.561  25.646  1.00  0.00     0.200 A 
ATOM     60  F   UNL A   1      44.740  26.266  24.891  1.00  0.00    -0.200 F 
ATOM     61  F   UNL A   1      43.672  23.768  24.635  1.00  0.00    -0.200 F 
ENDBRANCH  27  51
BRANCH  39  62
ATOM     62  C   UNL A   1      44.952  27.500  34.135  1.00  0.00     0.064 A 
ATOM     63  C   UNL A   1      46.162  28.205  34.089  1.00  0.00     0.173 A 
ATOM     64  C   UNL A   1      44.887  26.340  34.918  1.00  0.00     0.173 A 
ATOM     65  F   UNL A   1      46.269  29.313  33.342  1.00  0.00    -0.203 F 
ATOM     66  C   UNL A   1      47.272  27.759  34.799  1.00  0.00     0.198 A 
ATOM     67  C   UNL A   1      45.998  25.900  35.633  1.00  0.00     0.198 A 
ATOM     68  F   UNL A   1      43.749  25.633  34.987  1.00  0.00    -0.203 F 
ATOM     69  F   UNL A   1      48.428  28.435  34.730  1.00  0.00    -0.200 F 
ATOM     70  C   UNL A   1      47.189  26.610  35.572  1.00  0.00     0.200 A 
ATOM     71  F   UNL A   1      45.917  24.789  36.377  1.00  0.00    -0.200 F 
ATOM     72  F   UNL A   1      48.260  26.180  36.253  1.00  0.00    -0.200 F 
ENDBRANCH  39  62
ENDBRANCH  13  14
ENDBRANCH   6   8
ENDBRANCH   3   4
ENDBRANCH   2   3
ENDBRANCH   1   2
BRANCH   1  73
ATOM     73  C   UNL A   1      34.386  25.305  25.419  1.00  0.00     0.002 C 
BRANCH  73  74
ATOM     74  C   UNL A   1      34.954  24.187  24.537  1.00  0.00     0.021 C 
BRANCH  74  75
ATOM     75  C   UNL A   1      34.707  22.759  25.026  1.00  0.00     0.116 C 
BRANCH  75  76
ATOM     76  N   UNL A   1      33.951  21.975  24.070  1.00  0.00    -0.352 N 
ATOM     77  C   UNL A   1      32.605  21.950  23.814  1.00  0.00     0.252 C 
ATOM     78  H   UNL A   1      34.489  21.364  23.517  1.00  0.00     0.163 HD
ATOM     79  O   UNL A   1      32.153  21.033  23.130  1.00  0.00    -0.269 OA
BRANCH  77  80
ATOM     80  C   UNL A   1      31.736  22.981  24.369  1.00  0.00     0.051 A 
ATOM     81  C   UNL A   1      31.381  23.095  25.699  1.00  0.00     0.079 A 
ATOM     82  C   UNL A   1      31.219  24.091  23.619  1.00  0.00     0.034 A 
ATOM     83  S   UNL A   1      30.379  24.444  26.007  1.00  0.00    -0.143 S 
ATOM     84  C   UNL A   1      30.455  24.959  24.375  1.00  0.00     0.037 A 
BRANCH  84  85
ATOM     85  C   UNL A   1      29.749  26.165  23.943  1.00  0.00     0.011 A 
ATOM     86  C   UNL A   1      28.392  26.327  24.196  1.00  0.00     0.121 A 
ATOM     87  C   UNL A   1      30.381  27.187  23.233  1.00  0.00     0.021 A 
ATOM     88  N   UNL A   1      27.657  27.399  23.811  1.00  0.00    -0.256 NA
ATOM     89  C   UNL A   1      29.654  28.311  22.809  1.00  0.00     0.001 A 
ATOM     90  C   UNL A   1      28.280  28.373  23.125  1.00  0.00     0.070 A 
ATOM     91  C   UNL A   1      30.260  29.351  22.083  1.00  0.00     0.010 A 
ATOM     92  C   UNL A   1      27.558  29.482  22.704  1.00  0.00     0.029 A 
ATOM     93  C   UNL A   1      29.511  30.452  21.670  1.00  0.00     0.001 A 
ATOM     94  C   UNL A   1      28.158  30.518  21.981  1.00  0.00     0.002 A 
ENDBRANCH  84  85
ENDBRANCH  77  80
ENDBRANCH  75  76
ENDBRANCH  74  75
ENDBRANCH  73  74
ENDBRANCH   1  73
TORSDOF 14
ENDMDL
