MODEL 1
REMARK VINA RESULT:     -13.3      0.000      0.000
REMARK SMILES CCc1ccc(-c2cc(Cl)cc3c2O[C@H](C(F)(F)F)C(C(=O)NCCCCCCNC(=O)c2ccc(-c4c5nc(c(-c6c(F)c(F)c(F)c(F)c6F)c6ccc([nH]6)c(-c6c(F)c(F)c(F)c(F)c6F)c6nc(c(-c7c(F)c(F)c(F)c(F)c7F)c7ccc4[nH]7)C=C6)C=C5)cc2)=C3)cc1
REMARK SMILES IDX 26 1 25 2 24 3 23 4 21 5 22 6 20 8 7 9 8 10 13 11 9 12 12 13
REMARK SMILES IDX 14 14 10 15 11 16 96 17 15 18 6 19 3 20 4 21 98 22 5 23
REMARK SMILES IDX 97 24 2 25 1 26 16 27 17 28 18 29 19 30 27 31 28 32 29 33
REMARK SMILES IDX 30 34 31 35 32 37 33 38 34 39 95 40 35 41 94 42 36 43 37 44
REMARK SMILES IDX 38 45 88 46 39 47 93 48 87 49 89 50 40 51 92 52 86 53 85 54
REMARK SMILES IDX 41 56 73 57 53 58 72 59 54 60 57 61 71 62 90 63 55 64 56 65
REMARK SMILES IDX 70 67 91 68 58 69 42 70 43 71 51 72 44 73 45 74 49 75 52 76
REMARK SMILES IDX 46 77 47 78 50 79 48 80 74 81 75 82 83 83 76 84 77 85 81 86
REMARK SMILES IDX 84 87 78 88 79 89 82 90 80 91 59 92 60 93 68 94 61 95 62 96
REMARK SMILES IDX 66 97 69 98 63 99 64 100 67 101 65 102
REMARK H PARENT 23 7 30 36 89 55 57 66
REMARK Flexibility Score: inf
ROOT
ATOM      1  C   UNL A   1      32.163  29.399  26.730  1.00  0.00     0.002 C 
ENDROOT
BRANCH   1   2
ATOM      2  C   UNL A   1      32.170  27.983  26.129  1.00  0.00     0.021 C 
BRANCH   2   3
ATOM      3  C   UNL A   1      33.339  27.694  25.175  1.00  0.00     0.116 C 
BRANCH   3   4
ATOM      4  N   UNL A   1      34.068  26.527  25.628  1.00  0.00    -0.352 N 
ATOM      5  C   UNL A   1      33.583  25.259  25.619  1.00  0.00     0.251 C 
ATOM      6  O   UNL A   1      33.618  24.581  26.638  1.00  0.00    -0.270 OA
ATOM      7  H   UNL A   1      34.982  26.664  25.967  1.00  0.00     0.163 HD
BRANCH   5   8
ATOM      8  C   UNL A   1      33.187  24.716  24.288  1.00  0.00     0.067 C 
ATOM      9  C   UNL A   1      34.471  20.884  24.738  1.00  0.00     0.026 A 
ATOM     10  C   UNL A   1      35.751  20.977  25.351  1.00  0.00     0.033 A 
ATOM     11  C   UNL A   1      33.948  22.084  24.219  1.00  0.00     0.135 A 
ATOM     12  C   UNL A   1      36.543  22.120  25.274  1.00  0.00     0.042 A 
ATOM     13  C   UNL A   1      34.817  23.192  24.041  1.00  0.00     0.019 A 
ATOM     14  O   UNL A   1      32.600  22.283  23.930  1.00  0.00    -0.475 OA
ATOM     15  Cl  UNL A   1      38.069  22.158  26.061  1.00  0.00    -0.084 Cl
ATOM     16  C   UNL A   1      36.114  23.208  24.544  1.00  0.00     0.032 A 
ATOM     17  C   UNL A   1      34.244  24.443  23.498  1.00  0.00     0.025 C 
ATOM     18  C   UNL A   1      32.106  23.646  24.315  1.00  0.00     0.314 C 
BRANCH   9  19
ATOM     19  C   UNL A   1      34.003  19.484  24.521  1.00  0.00    -0.015 A 
ATOM     20  C   UNL A   1      33.517  16.748  25.225  1.00  0.00    -0.048 A 
ATOM     21  C   UNL A   1      32.527  17.719  25.400  1.00  0.00     0.004 A 
ATOM     22  C   UNL A   1      34.711  17.134  24.604  1.00  0.00     0.004 A 
ATOM     23  C   UNL A   1      32.756  19.056  25.028  1.00  0.00     0.009 A 
ATOM     24  C   UNL A   1      34.946  18.477  24.247  1.00  0.00     0.009 A 
BRANCH  20  25
ATOM     25  C   UNL A   1      33.306  15.331  25.715  1.00  0.00     0.032 C 
ATOM     26  C   UNL A   1      31.867  15.008  26.107  1.00  0.00     0.009 C 
ENDBRANCH  20  25
ENDBRANCH   9  19
BRANCH  18  27
ATOM     27  C   UNL A   1      30.949  24.139  23.413  1.00  0.00     0.429 C 
ATOM     28  F   UNL A   1      30.031  24.867  24.086  1.00  0.00    -0.167 F 
ATOM     29  F   UNL A   1      31.412  24.898  22.391  1.00  0.00    -0.167 F 
ATOM     30  F   UNL A   1      30.271  23.110  22.832  1.00  0.00    -0.167 F 
ENDBRANCH  18  27
ENDBRANCH   5   8
ENDBRANCH   3   4
ENDBRANCH   2   3
ENDBRANCH   1   2
BRANCH   1  31
ATOM     31  C   UNL A   1      31.596  30.485  25.814  1.00  0.00     0.002 C 
BRANCH  31  32
ATOM     32  C   UNL A   1      31.343  31.826  26.503  1.00  0.00     0.021 C 
BRANCH  32  33
ATOM     33  C   UNL A   1      32.562  32.424  27.195  1.00  0.00     0.116 C 
BRANCH  33  34
ATOM     34  N   UNL A   1      32.373  33.824  27.543  1.00  0.00    -0.352 N 
ATOM     35  C   UNL A   1      33.033  34.586  28.469  1.00  0.00     0.251 C 
ATOM     36  H   UNL A   1      31.669  34.292  27.038  1.00  0.00     0.163 HD
ATOM     37  O   UNL A   1      32.621  35.712  28.750  1.00  0.00    -0.269 OA
BRANCH  35  38
ATOM     38  C   UNL A   1      34.225  34.050  29.158  1.00  0.00     0.039 A 
ATOM     39  C   UNL A   1      34.041  33.176  30.232  1.00  0.00     0.014 A 
ATOM     40  C   UNL A   1      35.516  34.405  28.754  1.00  0.00     0.014 A 
ATOM     41  C   UNL A   1      35.151  32.616  30.862  1.00  0.00     0.010 A 
ATOM     42  C   UNL A   1      36.620  33.781  29.331  1.00  0.00     0.010 A 
ATOM     43  C   UNL A   1      36.449  32.884  30.394  1.00  0.00    -0.014 A 
BRANCH  43  44
ATOM     44  C   UNL A   1      37.622  32.205  31.003  1.00  0.00     0.031 A 
ATOM     45  C   UNL A   1      38.089  32.567  32.384  1.00  0.00     0.074 A 
ATOM     46  C   UNL A   1      38.283  31.274  30.290  1.00  0.00     0.049 A 
ATOM     47  N   UNL A   1      39.071  32.057  33.084  1.00  0.00    -0.248 NA
ATOM     48  C   UNL A   1      37.378  33.662  33.061  1.00  0.00     0.031 C 
ATOM     49  C   UNL A   1      37.964  30.881  28.915  1.00  0.00     0.029 A 
ATOM     50  N   UNL A   1      39.355  30.483  30.620  1.00  0.00    -0.354 N 
ATOM     51  C   UNL A   1      39.095  32.767  34.279  1.00  0.00     0.074 A 
ATOM     52  C   UNL A   1      38.072  33.786  34.182  1.00  0.00     0.031 C 
ATOM     53  C   UNL A   1      38.792  29.895  28.537  1.00  0.00     0.029 A 
ATOM     54  C   UNL A   1      39.723  29.612  29.624  1.00  0.00     0.049 A 
ATOM     55  H   UNL A   1      39.816  30.536  31.488  1.00  0.00     0.167 HD
ATOM     56  C   UNL A   1      39.878  32.567  35.366  1.00  0.00     0.037 A 
ATOM     57  C   UNL A   1      40.700  28.687  29.593  1.00  0.00     0.037 A 
ATOM     58  C   UNL A   1      40.891  31.546  35.457  1.00  0.00     0.049 A 
ATOM     59  C   UNL A   1      41.561  28.492  30.810  1.00  0.00     0.074 A 
ATOM     60  C   UNL A   1      41.699  31.224  36.533  1.00  0.00     0.029 A 
ATOM     61  N   UNL A   1      41.242  30.685  34.426  1.00  0.00    -0.354 N 
ATOM     62  N   UNL A   1      41.517  29.109  31.965  1.00  0.00    -0.248 NA
ATOM     63  C   UNL A   1      42.603  27.460  30.720  1.00  0.00     0.031 C 
ATOM     64  C   UNL A   1      42.581  30.213  36.135  1.00  0.00     0.029 A 
ATOM     65  C   UNL A   1      42.277  29.856  34.830  1.00  0.00     0.049 A 
ATOM     66  H   UNL A   1      40.818  30.667  33.537  1.00  0.00     0.167 HD
ATOM     67  C   UNL A   1      42.507  28.530  32.747  1.00  0.00     0.074 A 
ATOM     68  C   UNL A   1      43.114  27.489  31.942  1.00  0.00     0.031 C 
ATOM     69  C   UNL A   1      42.883  28.833  34.015  1.00  0.00     0.037 A 
BRANCH  56  70
ATOM     70  C   UNL A   1      39.673  33.477  36.546  1.00  0.00     0.064 A 
ATOM     71  C   UNL A   1      40.300  34.730  36.627  1.00  0.00     0.173 A 
ATOM     72  C   UNL A   1      38.814  33.106  37.592  1.00  0.00     0.173 A 
ATOM     73  F   UNL A   1      41.139  35.131  35.661  1.00  0.00    -0.203 F 
ATOM     74  C   UNL A   1      40.103  35.562  37.729  1.00  0.00     0.198 A 
ATOM     75  C   UNL A   1      38.591  33.956  38.673  1.00  0.00     0.198 A 
ATOM     76  F   UNL A   1      38.183  31.924  37.563  1.00  0.00    -0.203 F 
ATOM     77  F   UNL A   1      40.758  36.728  37.811  1.00  0.00    -0.200 F 
ATOM     78  C   UNL A   1      39.244  35.177  38.746  1.00  0.00     0.200 A 
ATOM     79  F   UNL A   1      37.749  33.588  39.648  1.00  0.00    -0.200 F 
ATOM     80  F   UNL A   1      39.049  35.980  39.801  1.00  0.00    -0.200 F 
ENDBRANCH  56  70
BRANCH  57  81
ATOM     81  C   UNL A   1      40.893  27.853  28.376  1.00  0.00     0.064 A 
ATOM     82  C   UNL A   1      40.270  26.603  28.252  1.00  0.00     0.173 A 
ATOM     83  C   UNL A   1      41.703  28.285  27.317  1.00  0.00     0.173 A 
ATOM     84  F   UNL A   1      39.499  26.137  29.245  1.00  0.00    -0.203 F 
ATOM     85  C   UNL A   1      40.469  25.808  27.124  1.00  0.00     0.198 A 
ATOM     86  C   UNL A   1      41.875  27.504  26.176  1.00  0.00     0.198 A 
ATOM     87  F   UNL A   1      42.317  29.476  27.383  1.00  0.00    -0.203 F 
ATOM     88  F   UNL A   1      39.901  24.597  27.053  1.00  0.00    -0.200 F 
ATOM     89  C   UNL A   1      41.265  26.263  26.085  1.00  0.00     0.200 A 
ATOM     90  F   UNL A   1      42.632  27.956  25.166  1.00  0.00    -0.200 F 
ATOM     91  F   UNL A   1      41.451  25.502  24.998  1.00  0.00    -0.200 F 
ENDBRANCH  57  81
BRANCH  69  92
ATOM     92  C   UNL A   1      43.993  28.012  34.611  1.00  0.00     0.064 A 
ATOM     93  C   UNL A   1      45.336  28.412  34.524  1.00  0.00     0.173 A 
ATOM     94  C   UNL A   1      43.709  26.812  35.280  1.00  0.00     0.173 A 
ATOM     95  F   UNL A   1      45.663  29.545  33.883  1.00  0.00    -0.203 F 
ATOM     96  C   UNL A   1      46.355  27.619  35.044  1.00  0.00     0.198 A 
ATOM     97  C   UNL A   1      44.728  26.040  35.833  1.00  0.00     0.198 A 
ATOM     98  F   UNL A   1      42.443  26.386  35.401  1.00  0.00    -0.203 F 
ATOM     99  F   UNL A   1      47.634  27.986  34.885  1.00  0.00    -0.200 F 
ATOM    100  C   UNL A   1      46.050  26.437  35.702  1.00  0.00     0.200 A 
ATOM    101  F   UNL A   1      44.432  24.907  36.484  1.00  0.00    -0.200 F 
ATOM    102  F   UNL A   1      47.033  25.673  36.199  1.00  0.00    -0.200 F 
ENDBRANCH  69  92
ENDBRANCH  43  44
ENDBRANCH  35  38
ENDBRANCH  33  34
ENDBRANCH  32  33
ENDBRANCH  31  32
ENDBRANCH   1  31
TORSDOF 16
ENDMDL
MODEL 2
REMARK VINA RESULT:     -13.3      0.906      6.954
REMARK SMILES CCc1ccc(-c2cc(Cl)cc3c2O[C@H](C(F)(F)F)C(C(=O)NCCCCCCNC(=O)c2ccc(-c4c5nc(c(-c6c(F)c(F)c(F)c(F)c6F)c6ccc([nH]6)c(-c6c(F)c(F)c(F)c(F)c6F)c6nc(c(-c7c(F)c(F)c(F)c(F)c7F)c7ccc4[nH]7)C=C6)C=C5)cc2)=C3)cc1
REMARK SMILES IDX 26 1 25 2 24 3 23 4 21 5 22 6 20 8 7 9 8 10 13 11 9 12 12 13
REMARK SMILES IDX 14 14 10 15 11 16 96 17 15 18 6 19 3 20 4 21 98 22 5 23
REMARK SMILES IDX 97 24 2 25 1 26 16 27 17 28 18 29 19 30 27 31 28 32 29 33
REMARK SMILES IDX 30 34 31 35 32 37 33 38 34 39 95 40 35 41 94 42 36 43 37 44
REMARK SMILES IDX 38 45 88 46 39 47 93 48 87 49 89 50 40 51 92 52 86 53 85 54
REMARK SMILES IDX 41 56 73 57 53 58 72 59 54 60 57 61 71 62 90 63 55 64 56 65
REMARK SMILES IDX 70 67 91 68 58 69 42 70 43 71 51 72 44 73 45 74 49 75 52 76
REMARK SMILES IDX 46 77 47 78 50 79 48 80 74 81 75 82 83 83 76 84 77 85 81 86
REMARK SMILES IDX 84 87 78 88 79 89 82 90 80 91 59 92 60 93 68 94 61 95 62 96
REMARK SMILES IDX 66 97 69 98 63 99 64 100 67 101 65 102
REMARK H PARENT 23 7 30 36 89 55 57 66
REMARK Flexibility Score: inf
ROOT
ATOM      1  C   UNL A   1      32.145  29.723  27.133  1.00  0.00     0.002 C 
ENDROOT
BRANCH   1   2
ATOM      2  C   UNL A   1      32.306  28.314  26.538  1.00  0.00     0.021 C 
BRANCH   2   3
ATOM      3  C   UNL A   1      33.041  28.263  25.190  1.00  0.00     0.116 C 
BRANCH   3   4
ATOM      4  N   UNL A   1      34.024  27.200  25.203  1.00  0.00    -0.352 N 
ATOM      5  C   UNL A   1      33.732  25.875  25.244  1.00  0.00     0.251 C 
ATOM      6  O   UNL A   1      34.245  25.159  26.094  1.00  0.00    -0.270 OA
ATOM      7  H   UNL A   1      34.975  27.457  25.181  1.00  0.00     0.163 HD
BRANCH   5   8
ATOM      8  C   UNL A   1      32.913  25.347  24.115  1.00  0.00     0.067 C 
ATOM      9  C   UNL A   1      33.741  21.385  24.506  1.00  0.00     0.026 A 
ATOM     10  C   UNL A   1      35.141  21.306  24.744  1.00  0.00     0.033 A 
ATOM     11  C   UNL A   1      33.262  22.630  24.052  1.00  0.00     0.135 A 
ATOM     12  C   UNL A   1      36.028  22.312  24.369  1.00  0.00     0.042 A 
ATOM     13  C   UNL A   1      34.190  23.585  23.562  1.00  0.00     0.019 A 
ATOM     14  O   UNL A   1      31.927  23.019  24.120  1.00  0.00    -0.475 OA
ATOM     15  Cl  UNL A   1      37.703  22.149  24.714  1.00  0.00    -0.084 Cl
ATOM     16  C   UNL A   1      35.565  23.424  23.696  1.00  0.00     0.032 A 
ATOM     17  C   UNL A   1      33.664  24.886  23.095  1.00  0.00     0.025 C 
ATOM     18  C   UNL A   1      31.748  24.455  24.514  1.00  0.00     0.314 C 
BRANCH   9  19
ATOM     19  C   UNL A   1      33.046  20.065  24.533  1.00  0.00    -0.015 A 
ATOM     20  C   UNL A   1      32.862  17.205  24.590  1.00  0.00    -0.048 A 
ATOM     21  C   UNL A   1      32.841  17.947  25.773  1.00  0.00     0.004 A 
ATOM     22  C   UNL A   1      32.873  17.905  23.377  1.00  0.00     0.004 A 
ATOM     23  C   UNL A   1      32.904  19.352  25.744  1.00  0.00     0.009 A 
ATOM     24  C   UNL A   1      32.952  19.312  23.348  1.00  0.00     0.009 A 
BRANCH  20  25
ATOM     25  C   UNL A   1      32.894  15.692  24.626  1.00  0.00     0.032 C 
ATOM     26  C   UNL A   1      32.219  15.077  25.849  1.00  0.00     0.009 C 
ENDBRANCH  20  25
ENDBRANCH   9  19
BRANCH  18  27
ATOM     27  C   UNL A   1      30.464  25.083  23.919  1.00  0.00     0.429 C 
ATOM     28  F   UNL A   1      29.895  24.312  22.967  1.00  0.00    -0.167 F 
ATOM     29  F   UNL A   1      29.537  25.310  24.880  1.00  0.00    -0.167 F 
ATOM     30  F   UNL A   1      30.701  26.293  23.341  1.00  0.00    -0.167 F 
ENDBRANCH  18  27
ENDBRANCH   5   8
ENDBRANCH   3   4
ENDBRANCH   2   3
ENDBRANCH   1   2
BRANCH   1  31
ATOM     31  C   UNL A   1      31.635  30.782  26.153  1.00  0.00     0.002 C 
BRANCH  31  32
ATOM     32  C   UNL A   1      31.406  32.160  26.773  1.00  0.00     0.021 C 
BRANCH  32  33
ATOM     33  C   UNL A   1      32.678  32.880  27.208  1.00  0.00     0.116 C 
BRANCH  33  34
ATOM     34  N   UNL A   1      32.427  34.249  27.629  1.00  0.00    -0.352 N 
ATOM     35  C   UNL A   1      32.991  34.962  28.652  1.00  0.00     0.251 C 
ATOM     36  H   UNL A   1      31.752  34.734  27.100  1.00  0.00     0.163 HD
ATOM     37  O   UNL A   1      32.529  36.058  28.970  1.00  0.00    -0.269 OA
BRANCH  35  38
ATOM     38  C   UNL A   1      34.140  34.407  29.398  1.00  0.00     0.039 A 
ATOM     39  C   UNL A   1      33.898  33.745  30.603  1.00  0.00     0.014 A 
ATOM     40  C   UNL A   1      35.447  34.537  28.919  1.00  0.00     0.014 A 
ATOM     41  C   UNL A   1      34.958  33.166  31.298  1.00  0.00     0.010 A 
ATOM     42  C   UNL A   1      36.493  33.888  29.570  1.00  0.00     0.010 A 
ATOM     43  C   UNL A   1      36.260  33.200  30.768  1.00  0.00    -0.014 A 
BRANCH  43  44
ATOM     44  C   UNL A   1      37.371  32.495  31.460  1.00  0.00     0.031 A 
ATOM     45  C   UNL A   1      38.071  31.337  30.808  1.00  0.00     0.074 A 
ATOM     46  C   UNL A   1      37.727  32.889  32.697  1.00  0.00     0.049 A 
ATOM     47  N   UNL A   1      39.079  30.627  31.248  1.00  0.00    -0.248 NA
ATOM     48  C   UNL A   1      37.560  30.902  29.499  1.00  0.00     0.031 C 
ATOM     49  C   UNL A   1      37.081  33.959  33.460  1.00  0.00     0.029 A 
ATOM     50  N   UNL A   1      38.724  32.444  33.529  1.00  0.00    -0.354 N 
ATOM     51  C   UNL A   1      39.321  29.665  30.275  1.00  0.00     0.074 A 
ATOM     52  C   UNL A   1      38.313  29.841  29.252  1.00  0.00     0.031 C 
ATOM     53  C   UNL A   1      37.724  34.116  34.628  1.00  0.00     0.029 A 
ATOM     54  C   UNL A   1      38.801  33.136  34.713  1.00  0.00     0.049 A 
ATOM     55  H   UNL A   1      39.325  31.700  33.299  1.00  0.00     0.167 HD
ATOM     56  C   UNL A   1      40.310  28.740  30.227  1.00  0.00     0.037 A 
ATOM     57  C   UNL A   1      39.649  32.998  35.749  1.00  0.00     0.037 A 
ATOM     58  C   UNL A   1      41.313  28.574  31.248  1.00  0.00     0.049 A 
ATOM     59  C   UNL A   1      40.732  31.957  35.674  1.00  0.00     0.074 A 
ATOM     60  C   UNL A   1      42.391  27.706  31.267  1.00  0.00     0.029 A 
ATOM     61  N   UNL A   1      41.358  29.288  32.437  1.00  0.00    -0.354 N 
ATOM     62  N   UNL A   1      41.004  31.111  34.710  1.00  0.00    -0.248 NA
ATOM     63  C   UNL A   1      41.632  31.860  36.830  1.00  0.00     0.031 C 
ATOM     64  C   UNL A   1      43.049  27.849  32.494  1.00  0.00     0.029 A 
ATOM     65  C   UNL A   1      42.423  28.856  33.212  1.00  0.00     0.049 A 
ATOM     66  H   UNL A   1      40.724  29.998  32.694  1.00  0.00     0.167 HD
ATOM     67  C   UNL A   1      42.117  30.397  35.132  1.00  0.00     0.074 A 
ATOM     68  C   UNL A   1      42.488  30.933  36.426  1.00  0.00     0.031 C 
ATOM     69  C   UNL A   1      42.774  29.388  34.505  1.00  0.00     0.037 A 
BRANCH  56  70
ATOM     70  C   UNL A   1      40.351  27.830  29.030  1.00  0.00     0.064 A 
ATOM     71  C   UNL A   1      41.114  28.139  27.894  1.00  0.00     0.173 A 
ATOM     72  C   UNL A   1      39.644  26.617  29.032  1.00  0.00     0.173 A 
ATOM     73  F   UNL A   1      41.801  29.290  27.834  1.00  0.00    -0.203 F 
ATOM     74  C   UNL A   1      41.139  27.288  26.791  1.00  0.00     0.198 A 
ATOM     75  C   UNL A   1      39.700  25.751  27.942  1.00  0.00     0.198 A 
ATOM     76  F   UNL A   1      38.904  26.266  30.094  1.00  0.00    -0.203 F 
ATOM     77  F   UNL A   1      41.828  27.635  25.695  1.00  0.00    -0.200 F 
ATOM     78  C   UNL A   1      40.439  26.092  26.819  1.00  0.00     0.200 A 
ATOM     79  F   UNL A   1      39.034  24.589  27.978  1.00  0.00    -0.200 F 
ATOM     80  F   UNL A   1      40.469  25.270  25.761  1.00  0.00    -0.200 F 
ENDBRANCH  56  70
BRANCH  57  81
ATOM     81  C   UNL A   1      39.525  33.890  36.932  1.00  0.00     0.064 A 
ATOM     82  C   UNL A   1      38.795  33.494  38.062  1.00  0.00     0.173 A 
ATOM     83  C   UNL A   1      40.130  35.155  36.958  1.00  0.00     0.173 A 
ATOM     84  F   UNL A   1      38.182  32.301  38.079  1.00  0.00    -0.203 F 
ATOM     85  C   UNL A   1      38.656  34.338  39.162  1.00  0.00     0.198 A 
ATOM     86  C   UNL A   1      40.018  35.985  38.072  1.00  0.00     0.198 A 
ATOM     87  F   UNL A   1      40.845  35.579  35.906  1.00  0.00    -0.203 F 
ATOM     88  F   UNL A   1      37.911  33.954  40.208  1.00  0.00    -0.200 F 
ATOM     89  C   UNL A   1      39.274  35.579  39.169  1.00  0.00     0.200 A 
ATOM     90  F   UNL A   1      40.632  37.176  38.081  1.00  0.00    -0.200 F 
ATOM     91  F   UNL A   1      39.146  36.388  40.230  1.00  0.00    -0.200 F 
ENDBRANCH  57  81
BRANCH  69  92
ATOM     92  C   UNL A   1      43.969  28.812  35.212  1.00  0.00     0.064 A 
ATOM     93  C   UNL A   1      45.258  29.339  35.033  1.00  0.00     0.173 A 
ATOM     94  C   UNL A   1      43.823  27.721  36.083  1.00  0.00     0.173 A 
ATOM     95  F   UNL A   1      45.455  30.373  34.201  1.00  0.00    -0.203 F 
ATOM     96  C   UNL A   1      46.360  28.767  35.662  1.00  0.00     0.198 A 
ATOM     97  C   UNL A   1      44.923  27.175  36.740  1.00  0.00     0.198 A 
ATOM     98  F   UNL A   1      42.614  27.183  36.298  1.00  0.00    -0.203 F 
ATOM     99  F   UNL A   1      47.589  29.242  35.419  1.00  0.00    -0.200 F 
ATOM    100  C   UNL A   1      46.191  27.690  36.519  1.00  0.00     0.200 A 
ATOM    101  F   UNL A   1      44.756  26.146  37.581  1.00  0.00    -0.200 F 
ATOM    102  F   UNL A   1      47.254  27.138  37.121  1.00  0.00    -0.200 F 
ENDBRANCH  69  92
ENDBRANCH  43  44
ENDBRANCH  35  38
ENDBRANCH  33  34
ENDBRANCH  32  33
ENDBRANCH  31  32
ENDBRANCH   1  31
TORSDOF 16
ENDMDL
MODEL 3
REMARK VINA RESULT:     -13.1      5.376     10.196
REMARK SMILES CCc1ccc(-c2cc(Cl)cc3c2O[C@H](C(F)(F)F)C(C(=O)NCCCCCCNC(=O)c2ccc(-c4c5nc(c(-c6c(F)c(F)c(F)c(F)c6F)c6ccc([nH]6)c(-c6c(F)c(F)c(F)c(F)c6F)c6nc(c(-c7c(F)c(F)c(F)c(F)c7F)c7ccc4[nH]7)C=C6)C=C5)cc2)=C3)cc1
REMARK SMILES IDX 26 1 25 2 24 3 23 4 21 5 22 6 20 8 7 9 8 10 13 11 9 12 12 13
REMARK SMILES IDX 14 14 10 15 11 16 96 17 15 18 6 19 3 20 4 21 98 22 5 23
REMARK SMILES IDX 97 24 2 25 1 26 16 27 17 28 18 29 19 30 27 31 28 32 29 33
REMARK SMILES IDX 30 34 31 35 32 37 33 38 34 39 95 40 35 41 94 42 36 43 37 44
REMARK SMILES IDX 38 45 88 46 39 47 93 48 87 49 89 50 40 51 92 52 86 53 85 54
REMARK SMILES IDX 41 56 73 57 53 58 72 59 54 60 57 61 71 62 90 63 55 64 56 65
REMARK SMILES IDX 70 67 91 68 58 69 42 70 43 71 51 72 44 73 45 74 49 75 52 76
REMARK SMILES IDX 46 77 47 78 50 79 48 80 74 81 75 82 83 83 76 84 77 85 81 86
REMARK SMILES IDX 84 87 78 88 79 89 82 90 80 91 59 92 60 93 68 94 61 95 62 96
REMARK SMILES IDX 66 97 69 98 63 99 64 100 67 101 65 102
REMARK H PARENT 23 7 30 36 89 55 57 66
REMARK Flexibility Score: inf
ROOT
ATOM      1  C   UNL A   1      35.995  20.267  24.983  1.00  0.00     0.002 C 
ENDROOT
BRANCH   1   2
ATOM      2  C   UNL A   1      35.135  21.540  25.058  1.00  0.00     0.021 C 
BRANCH   2   3
ATOM      3  C   UNL A   1      34.964  22.120  26.470  1.00  0.00     0.116 C 
BRANCH   3   4
ATOM      4  N   UNL A   1      34.742  23.549  26.393  1.00  0.00    -0.352 N 
ATOM      5  C   UNL A   1      34.121  24.182  25.365  1.00  0.00     0.251 C 
ATOM      6  O   UNL A   1      34.661  25.130  24.810  1.00  0.00    -0.270 OA
ATOM      7  H   UNL A   1      35.065  24.103  27.141  1.00  0.00     0.163 HD
BRANCH   5   8
ATOM      8  C   UNL A   1      32.715  23.767  25.090  1.00  0.00     0.067 C 
ATOM      9  C   UNL A   1      31.123  27.404  24.207  1.00  0.00     0.026 A 
ATOM     10  C   UNL A   1      31.646  28.299  25.180  1.00  0.00     0.033 A 
ATOM     11  C   UNL A   1      31.300  26.032  24.474  1.00  0.00     0.135 A 
ATOM     12  C   UNL A   1      32.122  27.874  26.418  1.00  0.00     0.042 A 
ATOM     13  C   UNL A   1      31.668  25.629  25.783  1.00  0.00     0.019 A 
ATOM     14  O   UNL A   1      31.206  25.034  23.507  1.00  0.00    -0.475 OA
ATOM     15  Cl  UNL A   1      32.758  29.019  27.529  1.00  0.00    -0.084 Cl
ATOM     16  C   UNL A   1      32.057  26.539  26.761  1.00  0.00     0.032 A 
ATOM     17  C   UNL A   1      31.852  24.183  26.038  1.00  0.00     0.025 C 
ATOM     18  C   UNL A   1      32.244  23.963  23.657  1.00  0.00     0.314 C 
BRANCH   9  19
ATOM     19  C   UNL A   1      30.251  28.057  23.188  1.00  0.00    -0.015 A 
ATOM     20  C   UNL A   1      28.511  30.083  22.144  1.00  0.00    -0.048 A 
ATOM     21  C   UNL A   1      29.888  30.134  21.914  1.00  0.00     0.004 A 
ATOM     22  C   UNL A   1      27.999  28.963  22.811  1.00  0.00     0.004 A 
ATOM     23  C   UNL A   1      30.738  29.125  22.403  1.00  0.00     0.009 A 
ATOM     24  C   UNL A   1      28.853  27.960  23.315  1.00  0.00     0.009 A 
BRANCH  20  25
ATOM     25  C   UNL A   1      27.610  31.217  21.704  1.00  0.00     0.032 C 
ATOM     26  C   UNL A   1      28.015  31.865  20.382  1.00  0.00     0.009 C 
ENDBRANCH  20  25
ENDBRANCH   9  19
BRANCH  18  27
ATOM     27  C   UNL A   1      31.761  22.586  23.141  1.00  0.00     0.429 C 
ATOM     28  F   UNL A   1      31.920  21.598  24.049  1.00  0.00    -0.167 F 
ATOM     29  F   UNL A   1      30.453  22.623  22.792  1.00  0.00    -0.167 F 
ATOM     30  F   UNL A   1      32.430  22.189  22.023  1.00  0.00    -0.167 F 
ENDBRANCH  18  27
ENDBRANCH   5   8
ENDBRANCH   3   4
ENDBRANCH   2   3
ENDBRANCH   1   2
BRANCH   1  31
ATOM     31  C   UNL A   1      37.482  20.509  24.716  1.00  0.00     0.002 C 
BRANCH  31  32
ATOM     32  C   UNL A   1      38.403  19.391  25.205  1.00  0.00     0.021 C 
BRANCH  32  33
ATOM     33  C   UNL A   1      39.626  19.870  25.980  1.00  0.00     0.116 C 
BRANCH  33  34
ATOM     34  N   UNL A   1      40.713  18.903  25.956  1.00  0.00    -0.352 N 
ATOM     35  C   UNL A   1      42.064  19.114  26.020  1.00  0.00     0.251 C 
ATOM     36  H   UNL A   1      40.437  17.961  25.883  1.00  0.00     0.163 HD
ATOM     37  O   UNL A   1      42.845  18.184  25.811  1.00  0.00    -0.269 OA
BRANCH  35  38
ATOM     38  C   UNL A   1      42.592  20.462  26.312  1.00  0.00     0.039 A 
ATOM     39  C   UNL A   1      43.125  21.214  25.263  1.00  0.00     0.014 A 
ATOM     40  C   UNL A   1      42.568  20.986  27.609  1.00  0.00     0.014 A 
ATOM     41  C   UNL A   1      43.580  22.509  25.503  1.00  0.00     0.010 A 
ATOM     42  C   UNL A   1      42.946  22.308  27.831  1.00  0.00     0.010 A 
ATOM     43  C   UNL A   1      43.460  23.081  26.782  1.00  0.00    -0.014 A 
BRANCH  43  44
ATOM     44  C   UNL A   1      43.852  24.496  27.011  1.00  0.00     0.031 A 
ATOM     45  C   UNL A   1      42.846  25.506  27.488  1.00  0.00     0.074 A 
ATOM     46  C   UNL A   1      45.120  24.873  26.760  1.00  0.00     0.049 A 
ATOM     47  N   UNL A   1      43.019  26.772  27.771  1.00  0.00    -0.248 NA
ATOM     48  C   UNL A   1      41.460  25.040  27.644  1.00  0.00     0.031 C 
ATOM     49  C   UNL A   1      46.171  24.000  26.235  1.00  0.00     0.029 A 
ATOM     50  N   UNL A   1      45.744  26.085  26.919  1.00  0.00    -0.354 N 
ATOM     51  C   UNL A   1      41.767  27.253  28.138  1.00  0.00     0.074 A 
ATOM     52  C   UNL A   1      40.834  26.159  27.977  1.00  0.00     0.031 C 
ATOM     53  C   UNL A   1      47.319  24.691  26.156  1.00  0.00     0.029 A 
ATOM     54  C   UNL A   1      47.077  26.064  26.588  1.00  0.00     0.049 A 
ATOM     55  H   UNL A   1      45.281  26.892  27.239  1.00  0.00     0.167 HD
ATOM     56  C   UNL A   1      41.434  28.485  28.593  1.00  0.00     0.037 A 
ATOM     57  C   UNL A   1      48.002  27.041  26.632  1.00  0.00     0.037 A 
ATOM     58  C   UNL A   1      42.371  29.568  28.755  1.00  0.00     0.049 A 
ATOM     59  C   UNL A   1      47.603  28.402  27.133  1.00  0.00     0.074 A 
ATOM     60  C   UNL A   1      42.146  30.836  29.262  1.00  0.00     0.029 A 
ATOM     61  N   UNL A   1      43.713  29.514  28.404  1.00  0.00    -0.354 N 
ATOM     62  N   UNL A   1      46.437  28.820  27.559  1.00  0.00    -0.248 NA
ATOM     63  C   UNL A   1      48.658  29.424  27.167  1.00  0.00     0.031 C 
ATOM     64  C   UNL A   1      43.334  31.568  29.158  1.00  0.00     0.029 A 
ATOM     65  C   UNL A   1      44.319  30.736  28.651  1.00  0.00     0.049 A 
ATOM     66  H   UNL A   1      44.167  28.722  28.032  1.00  0.00     0.167 HD
ATOM     67  C   UNL A   1      46.619  30.145  27.932  1.00  0.00     0.074 A 
ATOM     68  C   UNL A   1      48.018  30.449  27.711  1.00  0.00     0.031 C 
ATOM     69  C   UNL A   1      45.710  31.031  28.413  1.00  0.00     0.037 A 
BRANCH  56  70
ATOM     70  C   UNL A   1      39.992  28.729  28.944  1.00  0.00     0.064 A 
ATOM     71  C   UNL A   1      39.495  28.478  30.232  1.00  0.00     0.173 A 
ATOM     72  C   UNL A   1      39.104  29.249  27.990  1.00  0.00     0.173 A 
ATOM     73  F   UNL A   1      40.297  27.971  31.180  1.00  0.00    -0.203 F 
ATOM     74  C   UNL A   1      38.155  28.705  30.541  1.00  0.00     0.198 A 
ATOM     75  C   UNL A   1      37.774  29.509  28.313  1.00  0.00     0.198 A 
ATOM     76  F   UNL A   1      39.527  29.515  26.745  1.00  0.00    -0.203 F 
ATOM     77  F   UNL A   1      37.690  28.403  31.762  1.00  0.00    -0.200 F 
ATOM     78  C   UNL A   1      37.298  29.227  29.584  1.00  0.00     0.200 A 
ATOM     79  F   UNL A   1      36.952  30.027  27.391  1.00  0.00    -0.200 F 
ATOM     80  F   UNL A   1      36.012  29.452  29.885  1.00  0.00    -0.200 F 
ENDBRANCH  56  70
BRANCH  57  81
ATOM     81  C   UNL A   1      49.402  26.756  26.219  1.00  0.00     0.064 A 
ATOM     82  C   UNL A   1      49.812  26.934  24.890  1.00  0.00     0.173 A 
ATOM     83  C   UNL A   1      50.355  26.300  27.139  1.00  0.00     0.173 A 
ATOM     84  F   UNL A   1      48.933  27.351  23.967  1.00  0.00    -0.203 F 
ATOM     85  C   UNL A   1      51.116  26.644  24.494  1.00  0.00     0.198 A 
ATOM     86  C   UNL A   1      51.668  26.043  26.749  1.00  0.00     0.198 A 
ATOM     87  F   UNL A   1      50.017  26.120  28.424  1.00  0.00    -0.203 F 
ATOM     88  F   UNL A   1      51.468  26.776  23.207  1.00  0.00    -0.200 F 
ATOM     89  C   UNL A   1      52.045  26.206  25.425  1.00  0.00     0.200 A 
ATOM     90  F   UNL A   1      52.567  25.636  27.657  1.00  0.00    -0.200 F 
ATOM     91  F   UNL A   1      53.301  25.934  25.046  1.00  0.00    -0.200 F 
ENDBRANCH  57  81
BRANCH  69  92
ATOM     92  C   UNL A   1      46.212  32.408  28.745  1.00  0.00     0.064 A 
ATOM     93  C   UNL A   1      46.196  33.448  27.802  1.00  0.00     0.173 A 
ATOM     94  C   UNL A   1      46.712  32.693  30.025  1.00  0.00     0.173 A 
ATOM     95  F   UNL A   1      45.741  33.226  26.560  1.00  0.00    -0.203 F 
ATOM     96  C   UNL A   1      46.705  34.706  28.114  1.00  0.00     0.198 A 
ATOM     97  C   UNL A   1      47.185  33.964  30.345  1.00  0.00     0.198 A 
ATOM     98  F   UNL A   1      46.743  31.740  30.969  1.00  0.00    -0.203 F 
ATOM     99  F   UNL A   1      46.745  35.661  27.174  1.00  0.00    -0.200 F 
ATOM    100  C   UNL A   1      47.193  34.964  29.385  1.00  0.00     0.200 A 
ATOM    101  F   UNL A   1      47.640  34.217  31.579  1.00  0.00    -0.200 F 
ATOM    102  F   UNL A   1      47.685  36.175  29.683  1.00  0.00    -0.200 F 
ENDBRANCH  69  92
ENDBRANCH  43  44
ENDBRANCH  35  38
ENDBRANCH  33  34
ENDBRANCH  32  33
ENDBRANCH  31  32
ENDBRANCH   1  31
TORSDOF 16
ENDMDL
