MODEL 1
REMARK VINA RESULT:     -13.4      0.000      0.000
REMARK SMILES O=C(/C=C\c1ccc(OCc2ccc(Br)cc2)cc1)NCCCCCCNC(=O)c1ccc(-c2c3nc(c(-c4c(F)c(F)c(F)c(F)c4F)c4ccc([nH]4)c(-c4c(F)c(F)c(F)c(F)c4F)c4nc(c(-c5c(F)c(F)c(F)c(F)c5F)c5ccc2[nH]5)C=C4)C=C3)cc1
REMARK SMILES IDX 22 1 21 2 20 3 1 4 2 5 3 7 4 8 5 9 6 10 19 11 7 12 18 13
REMARK SMILES IDX 8 14 9 15 10 16 11 17 12 18 17 19 13 20 16 21 14 22 15 23
REMARK SMILES IDX 23 24 24 25 25 26 26 27 27 28 28 29 29 31 30 32 31 33 92 34
REMARK SMILES IDX 32 35 91 36 33 37 34 38 35 39 85 40 36 41 90 42 84 43 86 44
REMARK SMILES IDX 37 45 89 46 83 47 82 48 38 50 70 51 50 52 69 53 51 54 54 55
REMARK SMILES IDX 68 56 87 57 52 58 53 59 67 61 88 62 55 63 39 64 40 65 48 66
REMARK SMILES IDX 41 67 42 68 46 69 49 70 43 71 44 72 47 73 45 74 71 75 72 76
REMARK SMILES IDX 80 77 73 78 74 79 78 80 81 81 75 82 76 83 79 84 77 85 56 86
REMARK SMILES IDX 57 87 65 88 58 89 59 90 63 91 66 92 60 93 61 94 64 95 62 96
REMARK H PARENT 20 6 27 30 86 49 54 60
REMARK Flexibility Score: inf
ROOT
ATOM      1  C   UNL A   1      34.145  28.211  24.143  1.00  0.00     0.021 C 
ENDROOT
BRANCH   1   2
ATOM      2  C   UNL A   1      33.214  28.994  23.199  1.00  0.00     0.116 C 
BRANCH   2   3
ATOM      3  N   UNL A   1      31.900  28.386  23.056  1.00  0.00    -0.353 N 
ATOM      4  O   UNL A   1      30.824  29.858  24.437  1.00  0.00    -0.270 OA
ATOM      5  C   UNL A   1      30.805  28.864  23.714  1.00  0.00     0.243 C 
ATOM      6  H   UNL A   1      31.797  27.606  22.466  1.00  0.00     0.163 HD
BRANCH   5   7
ATOM      7  C   UNL A   1      29.501  28.176  23.498  1.00  0.00     0.072 C 
ATOM      8  C   UNL A   1      29.054  26.924  23.692  1.00  0.00     0.014 C 
BRANCH   8   9
ATOM      9  C   UNL A   1      29.753  25.748  24.202  1.00  0.00    -0.025 A 
ATOM     10  C   UNL A   1      30.176  24.773  23.290  1.00  0.00     0.012 A 
ATOM     11  C   UNL A   1      29.980  25.556  25.568  1.00  0.00     0.012 A 
ATOM     12  C   UNL A   1      30.922  23.682  23.727  1.00  0.00     0.047 A 
ATOM     13  C   UNL A   1      30.725  24.460  26.007  1.00  0.00     0.047 A 
ATOM     14  C   UNL A   1      31.265  23.577  25.073  1.00  0.00     0.119 A 
BRANCH  14  15
ATOM     15  O   UNL A   1      32.233  22.653  25.350  1.00  0.00    -0.489 OA
BRANCH  15  16
ATOM     16  C   UNL A   1      33.106  22.314  24.266  1.00  0.00     0.265 C 
BRANCH  16  17
ATOM     17  C   UNL A   1      34.586  22.194  24.579  1.00  0.00    -0.011 A 
ATOM     18  C   UNL A   1      35.491  23.715  24.931  1.00  0.00     0.008 A 
ATOM     19  C   UNL A   1      35.401  20.589  24.816  1.00  0.00     0.008 A 
ATOM     20  C   UNL A   1      37.240  23.634  25.393  1.00  0.00     0.016 A 
ATOM     21  C   UNL A   1      37.144  20.509  25.268  1.00  0.00     0.016 A 
ATOM     22  C   UNL A   1      38.036  22.030  25.628  1.00  0.00     0.017 A 
ATOM     23  Br  UNL A   1      39.802  21.954  26.312  1.00  0.00    -0.051 Br
ENDBRANCH  16  17
ENDBRANCH  15  16
ENDBRANCH  14  15
ENDBRANCH   8   9
ENDBRANCH   5   7
ENDBRANCH   2   3
ENDBRANCH   1   2
BRANCH   1  24
ATOM     24  C   UNL A   1      33.965  28.419  25.848  1.00  0.00     0.002 C 
BRANCH  24  25
ATOM     25  C   UNL A   1      33.976  30.090  27.268  1.00  0.00     0.002 C 
BRANCH  25  26
ATOM     26  C   UNL A   1      33.103  31.494  27.540  1.00  0.00     0.021 C 
BRANCH  26  27
ATOM     27  C   UNL A   1      33.781  32.846  27.650  1.00  0.00     0.116 C 
BRANCH  27  28
ATOM     28  N   UNL A   1      32.934  34.025  27.790  1.00  0.00    -0.352 N 
ATOM     29  C   UNL A   1      33.124  35.009  28.744  1.00  0.00     0.251 C 
ATOM     30  H   UNL A   1      32.179  34.128  27.165  1.00  0.00     0.163 HD
ATOM     31  O   UNL A   1      32.447  36.023  28.812  1.00  0.00    -0.269 OA
BRANCH  29  32
ATOM     32  C   UNL A   1      34.194  34.727  29.722  1.00  0.00     0.039 A 
ATOM     33  C   UNL A   1      33.854  34.028  30.881  1.00  0.00     0.014 A 
ATOM     34  C   UNL A   1      35.513  34.779  29.261  1.00  0.00     0.014 A 
ATOM     35  C   UNL A   1      34.848  33.327  31.560  1.00  0.00     0.010 A 
ATOM     36  C   UNL A   1      36.457  33.952  29.853  1.00  0.00     0.010 A 
ATOM     37  C   UNL A   1      36.149  33.254  31.034  1.00  0.00    -0.014 A 
BRANCH  37  38
ATOM     38  C   UNL A   1      37.232  32.561  31.778  1.00  0.00     0.031 A 
ATOM     39  C   UNL A   1      37.925  31.403  31.105  1.00  0.00     0.074 A 
ATOM     40  C   UNL A   1      37.602  32.961  33.011  1.00  0.00     0.049 A 
ATOM     41  N   UNL A   1      38.896  30.646  31.544  1.00  0.00    -0.248 NA
ATOM     42  C   UNL A   1      37.435  31.017  29.769  1.00  0.00     0.031 C 
ATOM     43  C   UNL A   1      36.969  34.031  33.789  1.00  0.00     0.029 A 
ATOM     44  N   UNL A   1      38.618  32.524  33.826  1.00  0.00    -0.354 N 
ATOM     45  C   UNL A   1      39.115  29.708  30.545  1.00  0.00     0.074 A 
ATOM     46  C   UNL A   1      38.108  29.906  29.533  1.00  0.00     0.031 C 
ATOM     47  C   UNL A   1      37.642  34.198  34.941  1.00  0.00     0.029 A 
ATOM     48  C   UNL A   1      38.731  33.228  35.003  1.00  0.00     0.049 A 
ATOM     49  H   UNL A   1      39.211  31.775  33.589  1.00  0.00     0.167 HD
ATOM     50  C   UNL A   1      40.110  28.800  30.440  1.00  0.00     0.037 A 
ATOM     51  C   UNL A   1      39.621  33.100  36.008  1.00  0.00     0.037 A 
ATOM     52  C   UNL A   1      41.139  28.637  31.425  1.00  0.00     0.049 A 
ATOM     53  C   UNL A   1      40.710  32.060  35.877  1.00  0.00     0.074 A 
ATOM     54  C   UNL A   1      42.211  27.768  31.414  1.00  0.00     0.029 A 
ATOM     55  N   UNL A   1      41.221  29.373  32.597  1.00  0.00    -0.354 N 
ATOM     56  N   UNL A   1      40.943  31.224  34.893  1.00  0.00    -0.248 NA
ATOM     57  C   UNL A   1      41.666  31.956  36.987  1.00  0.00     0.031 C 
ATOM     58  C   UNL A   1      42.917  27.940  32.607  1.00  0.00     0.029 A 
ATOM     59  C   UNL A   1      42.322  28.966  33.327  1.00  0.00     0.049 A 
ATOM     60  H   UNL A   1      40.591  30.080  32.867  1.00  0.00     0.167 HD
ATOM     61  C   UNL A   1      42.090  30.525  35.249  1.00  0.00     0.074 A 
ATOM     62  C   UNL A   1      42.518  31.051  36.528  1.00  0.00     0.031 C 
ATOM     63  C   UNL A   1      42.735  29.533  34.584  1.00  0.00     0.037 A 
BRANCH  50  64
ATOM     64  C   UNL A   1      40.142  27.945  29.208  1.00  0.00     0.064 A 
ATOM     65  C   UNL A   1      40.861  28.329  28.063  1.00  0.00     0.173 A 
ATOM     66  C   UNL A   1      39.467  26.716  29.175  1.00  0.00     0.173 A 
ATOM     67  F   UNL A   1      41.502  29.507  28.032  1.00  0.00    -0.203 F 
ATOM     68  C   UNL A   1      40.881  27.529  26.926  1.00  0.00     0.198 A 
ATOM     69  C   UNL A   1      39.520  25.901  28.048  1.00  0.00     0.198 A 
ATOM     70  F   UNL A   1      38.759  26.306  30.238  1.00  0.00    -0.203 F 
ATOM     71  F   UNL A   1      41.525  27.945  25.827  1.00  0.00    -0.200 F 
ATOM     72  C   UNL A   1      40.220  26.310  26.923  1.00  0.00     0.200 A 
ATOM     73  F   UNL A   1      38.890  24.719  28.050  1.00  0.00    -0.200 F 
ATOM     74  F   UNL A   1      40.252  25.532  25.833  1.00  0.00    -0.200 F 
ENDBRANCH  50  64
BRANCH  51  75
ATOM     75  C   UNL A   1      39.543  33.969  37.219  1.00  0.00     0.064 A 
ATOM     76  C   UNL A   1      38.827  33.574  38.360  1.00  0.00     0.173 A 
ATOM     77  C   UNL A   1      40.129  35.244  37.237  1.00  0.00     0.173 A 
ATOM     78  F   UNL A   1      38.231  32.373  38.395  1.00  0.00    -0.203 F 
ATOM     79  C   UNL A   1      38.661  34.435  39.446  1.00  0.00     0.198 A 
ATOM     80  C   UNL A   1      39.996  36.088  38.338  1.00  0.00     0.198 A 
ATOM     81  F   UNL A   1      40.830  35.676  36.178  1.00  0.00    -0.203 F 
ATOM     82  F   UNL A   1      37.906  34.058  40.488  1.00  0.00    -0.200 F 
ATOM     83  C   UNL A   1      39.248  35.690  39.435  1.00  0.00     0.200 A 
ATOM     84  F   UNL A   1      40.580  37.294  38.329  1.00  0.00    -0.200 F 
ATOM     85  F   UNL A   1      39.080  36.521  40.473  1.00  0.00    -0.200 F 
ENDBRANCH  51  75
BRANCH  63  86
ATOM     86  C   UNL A   1      43.997  28.997  35.194  1.00  0.00     0.064 A 
ATOM     87  C   UNL A   1      45.253  29.546  34.904  1.00  0.00     0.173 A 
ATOM     88  C   UNL A   1      43.934  27.953  36.130  1.00  0.00     0.173 A 
ATOM     89  F   UNL A   1      45.365  30.541  34.010  1.00  0.00    -0.203 F 
ATOM     90  C   UNL A   1      46.406  29.047  35.502  1.00  0.00     0.198 A 
ATOM     91  C   UNL A   1      45.084  27.484  36.757  1.00  0.00     0.198 A 
ATOM     92  F   UNL A   1      42.755  27.403  36.456  1.00  0.00    -0.203 F 
ATOM     93  F   UNL A   1      47.602  29.549  35.167  1.00  0.00    -0.200 F 
ATOM     94  C   UNL A   1      46.319  28.024  36.435  1.00  0.00     0.200 A 
ATOM     95  F   UNL A   1      44.995  26.512  37.676  1.00  0.00    -0.200 F 
ATOM     96  F   UNL A   1      47.430  27.554  37.019  1.00  0.00    -0.200 F 
ENDBRANCH  63  86
ENDBRANCH  37  38
ENDBRANCH  29  32
ENDBRANCH  27  28
ENDBRANCH  26  27
ENDBRANCH  25  26
ENDBRANCH  24  25
ENDBRANCH   1  24
TORSDOF 17
ENDMDL
MODEL 2
REMARK VINA RESULT:     -13.3      1.183      7.332
REMARK SMILES O=C(/C=C\c1ccc(OCc2ccc(Br)cc2)cc1)NCCCCCCNC(=O)c1ccc(-c2c3nc(c(-c4c(F)c(F)c(F)c(F)c4F)c4ccc([nH]4)c(-c4c(F)c(F)c(F)c(F)c4F)c4nc(c(-c5c(F)c(F)c(F)c(F)c5F)c5ccc2[nH]5)C=C4)C=C3)cc1
REMARK SMILES IDX 22 1 21 2 20 3 1 4 2 5 3 7 4 8 5 9 6 10 19 11 7 12 18 13
REMARK SMILES IDX 8 14 9 15 10 16 11 17 12 18 17 19 13 20 16 21 14 22 15 23
REMARK SMILES IDX 23 24 24 25 25 26 26 27 27 28 28 29 29 31 30 32 31 33 92 34
REMARK SMILES IDX 32 35 91 36 33 37 34 38 35 39 85 40 36 41 90 42 84 43 86 44
REMARK SMILES IDX 37 45 89 46 83 47 82 48 38 50 70 51 50 52 69 53 51 54 54 55
REMARK SMILES IDX 68 56 87 57 52 58 53 59 67 61 88 62 55 63 39 64 40 65 48 66
REMARK SMILES IDX 41 67 42 68 46 69 49 70 43 71 44 72 47 73 45 74 71 75 72 76
REMARK SMILES IDX 80 77 73 78 74 79 78 80 81 81 75 82 76 83 79 84 77 85 56 86
REMARK SMILES IDX 57 87 65 88 58 89 59 90 63 91 66 92 60 93 61 94 64 95 62 96
REMARK H PARENT 20 6 27 30 86 49 54 60
REMARK Flexibility Score: inf
ROOT
ATOM      1  C   UNL A   1      33.412  29.352  26.860  1.00  0.00     0.021 C 
ENDROOT
BRANCH   1   2
ATOM      2  C   UNL A   1      32.904  29.716  25.453  1.00  0.00     0.116 C 
BRANCH   2   3
ATOM      3  N   UNL A   1      31.613  29.125  25.139  1.00  0.00    -0.353 N 
ATOM      4  O   UNL A   1      31.986  28.960  22.889  1.00  0.00    -0.270 OA
ATOM      5  C   UNL A   1      31.249  28.813  23.861  1.00  0.00     0.243 C 
ATOM      6  H   UNL A   1      30.980  28.944  25.871  1.00  0.00     0.163 HD
BRANCH   5   7
ATOM      7  C   UNL A   1      29.906  28.207  23.642  1.00  0.00     0.072 C 
ATOM      8  C   UNL A   1      29.384  26.982  23.825  1.00  0.00     0.014 C 
BRANCH   8   9
ATOM      9  C   UNL A   1      30.011  25.761  24.322  1.00  0.00    -0.025 A 
ATOM     10  C   UNL A   1      30.364  24.768  23.401  1.00  0.00     0.012 A 
ATOM     11  C   UNL A   1      30.238  25.547  25.685  1.00  0.00     0.012 A 
ATOM     12  C   UNL A   1      31.043  23.628  23.825  1.00  0.00     0.047 A 
ATOM     13  C   UNL A   1      30.916  24.403  26.111  1.00  0.00     0.047 A 
ATOM     14  C   UNL A   1      31.391  23.494  25.168  1.00  0.00     0.119 A 
BRANCH  14  15
ATOM     15  O   UNL A   1      32.301  22.508  25.430  1.00  0.00    -0.489 OA
BRANCH  15  16
ATOM     16  C   UNL A   1      33.202  22.186  24.365  1.00  0.00     0.265 C 
BRANCH  16  17
ATOM     17  C   UNL A   1      34.684  22.169  24.692  1.00  0.00    -0.011 A 
ATOM     18  C   UNL A   1      35.431  23.708  25.266  1.00  0.00     0.008 A 
ATOM     19  C   UNL A   1      35.652  20.632  24.729  1.00  0.00     0.008 A 
ATOM     20  C   UNL A   1      37.175  23.735  25.752  1.00  0.00     0.016 A 
ATOM     21  C   UNL A   1      37.390  20.661  25.205  1.00  0.00     0.016 A 
ATOM     22  C   UNL A   1      38.124  22.198  25.786  1.00  0.00     0.017 A 
ATOM     23  Br  UNL A   1      39.883  22.201  26.493  1.00  0.00    -0.051 Br
ENDBRANCH  16  17
ENDBRANCH  15  16
ENDBRANCH  14  15
ENDBRANCH   8   9
ENDBRANCH   5   7
ENDBRANCH   2   3
ENDBRANCH   1   2
BRANCH   1  24
ATOM     24  C   UNL A   1      34.559  30.392  27.624  1.00  0.00     0.002 C 
BRANCH  24  25
ATOM     25  C   UNL A   1      34.536  32.343  28.625  1.00  0.00     0.002 C 
BRANCH  25  26
ATOM     26  C   UNL A   1      33.619  33.745  28.591  1.00  0.00     0.021 C 
BRANCH  26  27
ATOM     27  C   UNL A   1      33.887  34.896  29.541  1.00  0.00     0.116 C 
BRANCH  27  28
ATOM     28  N   UNL A   1      32.757  35.447  30.282  1.00  0.00    -0.352 N 
ATOM     29  C   UNL A   1      32.701  35.531  31.662  1.00  0.00     0.251 C 
ATOM     30  H   UNL A   1      31.986  35.780  29.768  1.00  0.00     0.163 HD
ATOM     31  O   UNL A   1      31.777  36.052  32.269  1.00  0.00    -0.269 OA
BRANCH  29  32
ATOM     32  C   UNL A   1      33.834  34.902  32.369  1.00  0.00     0.039 A 
ATOM     33  C   UNL A   1      33.767  33.530  32.621  1.00  0.00     0.014 A 
ATOM     34  C   UNL A   1      35.054  35.584  32.360  1.00  0.00     0.014 A 
ATOM     35  C   UNL A   1      34.951  32.824  32.817  1.00  0.00     0.010 A 
ATOM     36  C   UNL A   1      36.228  34.845  32.398  1.00  0.00     0.010 A 
ATOM     37  C   UNL A   1      36.192  33.468  32.673  1.00  0.00    -0.014 A 
BRANCH  37  38
ATOM     38  C   UNL A   1      37.460  32.741  32.937  1.00  0.00     0.031 A 
ATOM     39  C   UNL A   1      38.191  33.034  34.222  1.00  0.00     0.074 A 
ATOM     40  C   UNL A   1      37.940  31.830  32.065  1.00  0.00     0.049 A 
ATOM     41  N   UNL A   1      39.308  32.529  34.678  1.00  0.00    -0.248 NA
ATOM     42  C   UNL A   1      37.609  34.065  35.101  1.00  0.00     0.031 C 
ATOM     43  C   UNL A   1      37.354  31.502  30.763  1.00  0.00     0.029 A 
ATOM     44  N   UNL A   1      39.029  30.997  32.152  1.00  0.00    -0.354 N 
ATOM     45  C   UNL A   1      39.549  33.186  35.878  1.00  0.00     0.074 A 
ATOM     46  C   UNL A   1      38.540  34.204  36.027  1.00  0.00     0.031 C 
ATOM     47  C   UNL A   1      38.058  30.504  30.199  1.00  0.00     0.029 A 
ATOM     48  C   UNL A   1      39.165  30.145  31.080  1.00  0.00     0.049 A 
ATOM     49  H   UNL A   1      39.654  31.007  32.913  1.00  0.00     0.167 HD
ATOM     50  C   UNL A   1      40.487  32.922  36.813  1.00  0.00     0.037 A 
ATOM     51  C   UNL A   1      40.082  29.183  30.847  1.00  0.00     0.037 A 
ATOM     52  C   UNL A   1      41.460  31.877  36.684  1.00  0.00     0.049 A 
ATOM     53  C   UNL A   1      41.136  28.925  31.899  1.00  0.00     0.074 A 
ATOM     54  C   UNL A   1      42.444  31.502  37.577  1.00  0.00     0.029 A 
ATOM     55  N   UNL A   1      41.560  31.035  35.588  1.00  0.00    -0.354 N 
ATOM     56  N   UNL A   1      41.311  29.511  33.060  1.00  0.00    -0.248 NA
ATOM     57  C   UNL A   1      42.112  27.864  31.616  1.00  0.00     0.031 C 
ATOM     58  C   UNL A   1      43.176  30.463  36.999  1.00  0.00     0.029 A 
ATOM     59  C   UNL A   1      42.603  30.147  35.776  1.00  0.00     0.049 A 
ATOM     60  H   UNL A   1      40.976  31.064  34.796  1.00  0.00     0.167 HD
ATOM     61  C   UNL A   1      42.386  28.866  33.657  1.00  0.00     0.074 A 
ATOM     62  C   UNL A   1      42.810  27.829  32.740  1.00  0.00     0.031 C 
ATOM     63  C   UNL A   1      42.978  29.107  34.854  1.00  0.00     0.037 A 
BRANCH  50  64
ATOM     64  C   UNL A   1      40.480  33.759  38.058  1.00  0.00     0.064 A 
ATOM     65  C   UNL A   1      39.642  33.455  39.144  1.00  0.00     0.173 A 
ATOM     66  C   UNL A   1      41.334  34.864  38.180  1.00  0.00     0.173 A 
ATOM     67  F   UNL A   1      38.786  32.424  39.069  1.00  0.00    -0.203 F 
ATOM     68  C   UNL A   1      39.642  34.239  40.293  1.00  0.00     0.198 A 
ATOM     69  C   UNL A   1      41.358  35.624  39.346  1.00  0.00     0.198 A 
ATOM     70  F   UNL A   1      42.149  35.203  37.170  1.00  0.00    -0.203 F 
ATOM     71  F   UNL A   1      38.792  33.963  41.291  1.00  0.00    -0.200 F 
ATOM     72  C   UNL A   1      40.509  35.316  40.398  1.00  0.00     0.200 A 
ATOM     73  F   UNL A   1      42.204  36.658  39.450  1.00  0.00    -0.200 F 
ATOM     74  F   UNL A   1      40.519  36.063  41.509  1.00  0.00    -0.200 F 
ENDBRANCH  50  64
BRANCH  51  75
ATOM     75  C   UNL A   1      40.054  28.382  29.588  1.00  0.00     0.064 A 
ATOM     76  C   UNL A   1      39.398  27.142  29.523  1.00  0.00     0.173 A 
ATOM     77  C   UNL A   1      40.739  28.809  28.440  1.00  0.00     0.173 A 
ATOM     78  F   UNL A   1      38.741  26.675  30.594  1.00  0.00    -0.203 F 
ATOM     79  C   UNL A   1      39.469  26.344  28.381  1.00  0.00     0.198 A 
ATOM     80  C   UNL A   1      40.776  28.028  27.286  1.00  0.00     0.198 A 
ATOM     81  F   UNL A   1      41.381  29.987  28.439  1.00  0.00    -0.203 F 
ATOM     82  F   UNL A   1      38.899  25.131  28.377  1.00  0.00    -0.200 F 
ATOM     83  C   UNL A   1      40.156  26.789  27.263  1.00  0.00     0.200 A 
ATOM     84  F   UNL A   1      41.428  28.471  26.202  1.00  0.00    -0.200 F 
ATOM     85  F   UNL A   1      40.234  26.018  26.169  1.00  0.00    -0.200 F 
ENDBRANCH  51  75
BRANCH  63  86
ATOM     86  C   UNL A   1      44.102  28.202  35.266  1.00  0.00     0.064 A 
ATOM     87  C   UNL A   1      45.439  28.495  34.967  1.00  0.00     0.173 A 
ATOM     88  C   UNL A   1      43.834  27.051  36.025  1.00  0.00     0.173 A 
ATOM     89  F   UNL A   1      45.745  29.580  34.239  1.00  0.00    -0.203 F 
ATOM     90  C   UNL A   1      46.465  27.652  35.382  1.00  0.00     0.198 A 
ATOM     91  C   UNL A   1      44.865  26.233  36.473  1.00  0.00     0.198 A 
ATOM     92  F   UNL A   1      42.572  26.733  36.352  1.00  0.00    -0.203 F 
ATOM     93  F   UNL A   1      47.731  27.922  35.036  1.00  0.00    -0.200 F 
ATOM     94  C   UNL A   1      46.178  26.528  36.143  1.00  0.00     0.200 A 
ATOM     95  F   UNL A   1      44.588  25.161  37.229  1.00  0.00    -0.200 F 
ATOM     96  F   UNL A   1      47.170  25.725  36.552  1.00  0.00    -0.200 F 
ENDBRANCH  63  86
ENDBRANCH  37  38
ENDBRANCH  29  32
ENDBRANCH  27  28
ENDBRANCH  26  27
ENDBRANCH  25  26
ENDBRANCH  24  25
ENDBRANCH   1  24
TORSDOF 17
ENDMDL
MODEL 3
REMARK VINA RESULT:     -13.2      0.872      7.267
REMARK SMILES O=C(/C=C\c1ccc(OCc2ccc(Br)cc2)cc1)NCCCCCCNC(=O)c1ccc(-c2c3nc(c(-c4c(F)c(F)c(F)c(F)c4F)c4ccc([nH]4)c(-c4c(F)c(F)c(F)c(F)c4F)c4nc(c(-c5c(F)c(F)c(F)c(F)c5F)c5ccc2[nH]5)C=C4)C=C3)cc1
REMARK SMILES IDX 22 1 21 2 20 3 1 4 2 5 3 7 4 8 5 9 6 10 19 11 7 12 18 13
REMARK SMILES IDX 8 14 9 15 10 16 11 17 12 18 17 19 13 20 16 21 14 22 15 23
REMARK SMILES IDX 23 24 24 25 25 26 26 27 27 28 28 29 29 31 30 32 31 33 92 34
REMARK SMILES IDX 32 35 91 36 33 37 34 38 35 39 85 40 36 41 90 42 84 43 86 44
REMARK SMILES IDX 37 45 89 46 83 47 82 48 38 50 70 51 50 52 69 53 51 54 54 55
REMARK SMILES IDX 68 56 87 57 52 58 53 59 67 61 88 62 55 63 39 64 40 65 48 66
REMARK SMILES IDX 41 67 42 68 46 69 49 70 43 71 44 72 47 73 45 74 71 75 72 76
REMARK SMILES IDX 80 77 73 78 74 79 78 80 81 81 75 82 76 83 79 84 77 85 56 86
REMARK SMILES IDX 57 87 65 88 58 89 59 90 63 91 66 92 60 93 61 94 64 95 62 96
REMARK H PARENT 20 6 27 30 86 49 54 60
REMARK Flexibility Score: inf
ROOT
ATOM      1  C   UNL A   1      34.270  28.468  23.999  1.00  0.00     0.021 C 
ENDROOT
BRANCH   1   2
ATOM      2  C   UNL A   1      33.287  29.288  23.144  1.00  0.00     0.116 C 
BRANCH   2   3
ATOM      3  N   UNL A   1      32.011  28.620  22.938  1.00  0.00    -0.353 N 
ATOM      4  O   UNL A   1      30.930  29.673  24.655  1.00  0.00    -0.270 OA
ATOM      5  C   UNL A   1      30.931  28.856  23.737  1.00  0.00     0.243 C 
ATOM      6  H   UNL A   1      31.924  27.976  22.199  1.00  0.00     0.163 HD
BRANCH   5   7
ATOM      7  C   UNL A   1      29.667  28.125  23.443  1.00  0.00     0.072 C 
ATOM      8  C   UNL A   1      29.235  26.870  23.648  1.00  0.00     0.014 C 
BRANCH   8   9
ATOM      9  C   UNL A   1      29.917  25.733  24.259  1.00  0.00    -0.025 A 
ATOM     10  C   UNL A   1      30.350  24.689  23.433  1.00  0.00     0.012 A 
ATOM     11  C   UNL A   1      30.119  25.646  25.640  1.00  0.00     0.012 A 
ATOM     12  C   UNL A   1      31.080  23.630  23.966  1.00  0.00     0.047 A 
ATOM     13  C   UNL A   1      30.850  24.583  26.175  1.00  0.00     0.047 A 
ATOM     14  C   UNL A   1      31.400  23.628  25.322  1.00  0.00     0.119 A 
BRANCH  14  15
ATOM     15  O   UNL A   1      32.357  22.723  25.686  1.00  0.00    -0.489 OA
BRANCH  15  16
ATOM     16  C   UNL A   1      33.113  22.144  24.617  1.00  0.00     0.265 C 
BRANCH  16  17
ATOM     17  C   UNL A   1      34.613  22.021  24.816  1.00  0.00    -0.011 A 
ATOM     18  C   UNL A   1      35.521  23.512  25.273  1.00  0.00     0.008 A 
ATOM     19  C   UNL A   1      35.463  20.416  24.818  1.00  0.00     0.008 A 
ATOM     20  C   UNL A   1      37.297  23.417  25.605  1.00  0.00     0.016 A 
ATOM     21  C   UNL A   1      37.233  20.323  25.142  1.00  0.00     0.016 A 
ATOM     22  C   UNL A   1      38.128  21.813  25.608  1.00  0.00     0.017 A 
ATOM     23  Br  UNL A   1      39.938  21.698  26.161  1.00  0.00    -0.051 Br
ENDBRANCH  16  17
ENDBRANCH  15  16
ENDBRANCH  14  15
ENDBRANCH   8   9
ENDBRANCH   5   7
ENDBRANCH   2   3
ENDBRANCH   1   2
BRANCH   1  24
ATOM     24  C   UNL A   1      34.031  28.407  25.709  1.00  0.00     0.002 C 
BRANCH  24  25
ATOM     25  C   UNL A   1      33.307  29.760  27.275  1.00  0.00     0.002 C 
BRANCH  25  26
ATOM     26  C   UNL A   1      32.601  31.275  27.377  1.00  0.00     0.021 C 
BRANCH  26  27
ATOM     27  C   UNL A   1      33.427  32.526  27.607  1.00  0.00     0.116 C 
BRANCH  27  28
ATOM     28  N   UNL A   1      32.719  33.792  27.764  1.00  0.00    -0.352 N 
ATOM     29  C   UNL A   1      33.121  34.805  28.618  1.00  0.00     0.251 C 
ATOM     30  H   UNL A   1      31.905  33.936  27.230  1.00  0.00     0.163 HD
ATOM     31  O   UNL A   1      32.558  35.885  28.696  1.00  0.00    -0.269 OA
BRANCH  29  32
ATOM     32  C   UNL A   1      34.276  34.471  29.476  1.00  0.00     0.039 A 
ATOM     33  C   UNL A   1      34.095  33.506  30.469  1.00  0.00     0.014 A 
ATOM     34  C   UNL A   1      35.547  34.794  28.994  1.00  0.00     0.014 A 
ATOM     35  C   UNL A   1      35.208  32.819  30.950  1.00  0.00     0.010 A 
ATOM     36  C   UNL A   1      36.620  33.995  29.365  1.00  0.00     0.010 A 
ATOM     37  C   UNL A   1      36.474  33.033  30.378  1.00  0.00    -0.014 A 
BRANCH  37  38
ATOM     38  C   UNL A   1      37.677  32.351  30.920  1.00  0.00     0.031 A 
ATOM     39  C   UNL A   1      38.140  32.725  32.304  1.00  0.00     0.074 A 
ATOM     40  C   UNL A   1      38.330  31.410  30.206  1.00  0.00     0.049 A 
ATOM     41  N   UNL A   1      39.154  32.270  32.993  1.00  0.00    -0.248 NA
ATOM     42  C   UNL A   1      37.383  33.783  32.999  1.00  0.00     0.031 C 
ATOM     43  C   UNL A   1      38.011  31.004  28.834  1.00  0.00     0.029 A 
ATOM     44  N   UNL A   1      39.393  30.609  30.546  1.00  0.00    -0.354 N 
ATOM     45  C   UNL A   1      39.148  32.991  34.180  1.00  0.00     0.074 A 
ATOM     46  C   UNL A   1      38.115  33.990  34.078  1.00  0.00     0.031 C 
ATOM     47  C   UNL A   1      38.826  29.998  28.471  1.00  0.00     0.029 A 
ATOM     48  C   UNL A   1      39.747  29.710  29.566  1.00  0.00     0.049 A 
ATOM     49  H   UNL A   1      39.858  30.672  31.411  1.00  0.00     0.167 HD
ATOM     50  C   UNL A   1      39.891  32.796  35.292  1.00  0.00     0.037 A 
ATOM     51  C   UNL A   1      40.705  28.760  29.566  1.00  0.00     0.037 A 
ATOM     52  C   UNL A   1      40.885  31.770  35.409  1.00  0.00     0.049 A 
ATOM     53  C   UNL A   1      41.539  28.579  30.814  1.00  0.00     0.074 A 
ATOM     54  C   UNL A   1      41.683  31.463  36.494  1.00  0.00     0.029 A 
ATOM     55  N   UNL A   1      41.209  30.878  34.398  1.00  0.00    -0.354 N 
ATOM     56  N   UNL A   1      41.477  29.226  31.954  1.00  0.00    -0.248 NA
ATOM     57  C   UNL A   1      42.566  27.529  30.780  1.00  0.00     0.031 C 
ATOM     58  C   UNL A   1      42.528  30.415  36.123  1.00  0.00     0.029 A 
ATOM     59  C   UNL A   1      42.208  30.025  34.831  1.00  0.00     0.049 A 
ATOM     60  H   UNL A   1      40.789  30.853  33.508  1.00  0.00     0.167 HD
ATOM     61  C   UNL A   1      42.425  28.637  32.781  1.00  0.00     0.074 A 
ATOM     62  C   UNL A   1      43.033  27.567  32.019  1.00  0.00     0.031 C 
ATOM     63  C   UNL A   1      42.770  28.951  34.055  1.00  0.00     0.037 A 
BRANCH  50  64
ATOM     64  C   UNL A   1      39.631  33.692  36.466  1.00  0.00     0.064 A 
ATOM     65  C   UNL A   1      40.193  34.977  36.551  1.00  0.00     0.173 A 
ATOM     66  C   UNL A   1      38.793  33.274  37.510  1.00  0.00     0.173 A 
ATOM     67  F   UNL A   1      41.023  35.415  35.592  1.00  0.00    -0.203 F 
ATOM     68  C   UNL A   1      39.946  35.798  37.647  1.00  0.00     0.198 A 
ATOM     69  C   UNL A   1      38.519  34.114  38.587  1.00  0.00     0.198 A 
ATOM     70  F   UNL A   1      38.237  32.054  37.483  1.00  0.00    -0.203 F 
ATOM     71  F   UNL A   1      40.541  36.996  37.732  1.00  0.00    -0.200 F 
ATOM     72  C   UNL A   1      39.100  35.370  38.658  1.00  0.00     0.200 A 
ATOM     73  F   UNL A   1      37.692  33.703  39.558  1.00  0.00    -0.200 F 
ATOM     74  F   UNL A   1      38.851  36.166  39.706  1.00  0.00    -0.200 F 
ENDBRANCH  50  64
BRANCH  51  75
ATOM     75  C   UNL A   1      40.933  27.898  28.370  1.00  0.00     0.064 A 
ATOM     76  C   UNL A   1      41.740  28.323  27.303  1.00  0.00     0.173 A 
ATOM     77  C   UNL A   1      40.294  26.655  28.237  1.00  0.00     0.173 A 
ATOM     78  F   UNL A   1      42.363  29.509  27.366  1.00  0.00    -0.203 F 
ATOM     79  C   UNL A   1      41.861  27.565  26.137  1.00  0.00     0.198 A 
ATOM     80  C   UNL A   1      40.446  25.881  27.088  1.00  0.00     0.198 A 
ATOM     81  F   UNL A   1      39.513  26.193  29.225  1.00  0.00    -0.203 F 
ATOM     82  F   UNL A   1      42.575  28.035  25.105  1.00  0.00    -0.200 F 
ATOM     83  C   UNL A   1      41.215  26.344  26.032  1.00  0.00     0.200 A 
ATOM     84  F   UNL A   1      39.833  24.692  26.999  1.00  0.00    -0.200 F 
ATOM     85  F   UNL A   1      41.321  25.620  24.909  1.00  0.00    -0.200 F 
ENDBRANCH  51  75
BRANCH  63  86
ATOM     86  C   UNL A   1      43.805  28.095  34.723  1.00  0.00     0.064 A 
ATOM     87  C   UNL A   1      45.166  28.425  34.703  1.00  0.00     0.173 A 
ATOM     88  C   UNL A   1      43.413  26.956  35.446  1.00  0.00     0.173 A 
ATOM     89  F   UNL A   1      45.590  29.499  34.020  1.00  0.00    -0.203 F 
ATOM     90  C   UNL A   1      46.104  27.627  35.352  1.00  0.00     0.198 A 
ATOM     91  C   UNL A   1      44.348  26.185  36.128  1.00  0.00     0.198 A 
ATOM     92  F   UNL A   1      42.120  26.605  35.511  1.00  0.00    -0.203 F 
ATOM     93  F   UNL A   1      47.407  27.930  35.271  1.00  0.00    -0.200 F 
ATOM     94  C   UNL A   1      45.693  26.514  36.071  1.00  0.00     0.200 A 
ATOM     95  F   UNL A   1      43.947  25.124  36.842  1.00  0.00    -0.200 F 
ATOM     96  F   UNL A   1      46.597  25.756  36.706  1.00  0.00    -0.200 F 
ENDBRANCH  63  86
ENDBRANCH  37  38
ENDBRANCH  29  32
ENDBRANCH  27  28
ENDBRANCH  26  27
ENDBRANCH  25  26
ENDBRANCH  24  25
ENDBRANCH   1  24
TORSDOF 17
ENDMDL
