MODEL 1
REMARK VINA RESULT:     -11.3      0.000      0.000
REMARK SMILES CC[C@@](C)([NH2+][C@H]1CC[C@H](C)[C@H](C)C1)C(=O)NCCCCCCNC(=O)c1ccc(-c2c3nc(c(-c4c(F)c(F)c(F)c(F)c4F)c4ccc([nH]4)c(-c4c(F)c(F)c(F)c(F)c4F)c4nc(c(-c5c(F)c(F)c(F)c(F)c5F)c5ccc2[nH]5)C=C4)C=C3)cc1
REMARK SMILES IDX 19 1 18 2 17 3 16 4 14 5 15 6 3 8 4 9 2 10 1 11 5 12 6 15
REMARK SMILES IDX 7 16 13 17 8 18 11 19 9 20 12 21 10 22 20 23 21 24 22 25
REMARK SMILES IDX 23 26 24 27 25 29 26 30 27 31 88 32 28 33 87 34 29 35 30 36
REMARK SMILES IDX 31 37 81 38 32 39 86 40 80 41 82 42 33 43 85 44 79 45 78 46
REMARK SMILES IDX 34 48 66 49 46 50 65 51 47 52 50 53 64 54 83 55 48 56 49 57
REMARK SMILES IDX 63 59 84 60 51 61 35 62 36 63 44 64 37 65 38 66 42 67 45 68
REMARK SMILES IDX 39 69 40 70 43 71 41 72 67 73 68 74 76 75 69 76 70 77 74 78
REMARK SMILES IDX 77 79 71 80 72 81 75 82 73 83 52 84 53 85 61 86 54 87 55 88
REMARK SMILES IDX 59 89 62 90 56 91 57 92 60 93 58 94
REMARK H PARENT 16 7 5 13 5 14 23 28 82 47 50 58
REMARK Flexibility Score: inf
ROOT
ATOM      1  C   UNL A   1      32.091  29.989  25.828  1.00  0.00     0.002 C 
ENDROOT
BRANCH   1   2
ATOM      2  C   UNL A   1      31.796  29.010  26.959  1.00  0.00     0.021 C 
BRANCH   2   3
ATOM      3  C   UNL A   1      32.491  27.650  26.874  1.00  0.00     0.116 C 
BRANCH   3   4
ATOM      4  N   UNL A   1      31.500  26.594  26.898  1.00  0.00    -0.351 N 
ATOM      5  C   UNL A   1      30.785  25.974  25.917  1.00  0.00     0.281 C 
ATOM      6  O   UNL A   1      29.701  25.516  26.306  1.00  0.00    -0.268 OA
ATOM      7  H   UNL A   1      31.305  26.256  27.803  1.00  0.00     0.163 HD
BRANCH   5   8
ATOM      8  C   UNL A   1      31.262  25.787  24.423  1.00  0.00     0.172 C 
ATOM      9  C   UNL A   1      30.543  24.679  23.644  1.00  0.00     0.090 C 
BRANCH   8  10
ATOM     10  C   UNL A   1      30.912  27.149  23.706  1.00  0.00     0.075 C 
ATOM     11  C   UNL A   1      29.418  27.441  23.549  1.00  0.00     0.011 C 
ENDBRANCH   8  10
BRANCH   8  12
ATOM     12  N   UNL A   1      32.754  25.722  24.321  1.00  0.00    -0.331 N 
ATOM     13  H   UNL A   1      33.127  26.391  24.995  1.00  0.00     0.347 HD
ATOM     14  H   UNL A   1      32.934  25.909  23.334  1.00  0.00     0.347 HD
BRANCH  12  15
ATOM     15  C   UNL A   1      33.437  24.455  24.559  1.00  0.00     0.183 C 
ATOM     16  C   UNL A   1      34.281  23.978  23.373  1.00  0.00     0.065 C 
ATOM     17  C   UNL A   1      34.372  24.610  25.773  1.00  0.00     0.068 C 
ATOM     18  C   UNL A   1      34.844  22.593  23.680  1.00  0.00     0.010 C 
ATOM     19  C   UNL A   1      35.154  23.326  26.148  1.00  0.00    -0.006 C 
ATOM     20  C   UNL A   1      35.758  22.596  24.915  1.00  0.00    -0.011 C 
ATOM     21  C   UNL A   1      34.337  22.416  27.070  1.00  0.00     0.008 C 
ATOM     22  C   UNL A   1      36.207  21.157  25.210  1.00  0.00     0.008 C 
ENDBRANCH  12  15
ENDBRANCH   8  12
ENDBRANCH   5   8
ENDBRANCH   3   4
ENDBRANCH   2   3
ENDBRANCH   1   2
BRANCH   1  23
ATOM     23  C   UNL A   1      31.111  31.161  25.735  1.00  0.00     0.002 C 
BRANCH  23  24
ATOM     24  C   UNL A   1      31.208  32.210  26.852  1.00  0.00     0.021 C 
BRANCH  24  25
ATOM     25  C   UNL A   1      32.563  32.901  26.998  1.00  0.00     0.116 C 
BRANCH  25  26
ATOM     26  N   UNL A   1      32.453  34.224  27.585  1.00  0.00    -0.352 N 
ATOM     27  C   UNL A   1      33.116  34.789  28.645  1.00  0.00     0.251 C 
ATOM     28  H   UNL A   1      31.795  34.812  27.151  1.00  0.00     0.163 HD
ATOM     29  O   UNL A   1      32.746  35.875  29.080  1.00  0.00    -0.269 OA
BRANCH  27  30
ATOM     30  C   UNL A   1      34.262  34.104  29.288  1.00  0.00     0.039 A 
ATOM     31  C   UNL A   1      35.552  34.424  28.854  1.00  0.00     0.014 A 
ATOM     32  C   UNL A   1      34.083  33.109  30.254  1.00  0.00     0.014 A 
ATOM     33  C   UNL A   1      36.660  33.782  29.414  1.00  0.00     0.010 A 
ATOM     34  C   UNL A   1      35.193  32.515  30.861  1.00  0.00     0.010 A 
ATOM     35  C   UNL A   1      36.493  32.836  30.439  1.00  0.00    -0.014 A 
BRANCH  35  36
ATOM     36  C   UNL A   1      37.670  32.157  31.043  1.00  0.00     0.031 A 
ATOM     37  C   UNL A   1      38.150  32.549  32.415  1.00  0.00     0.074 A 
ATOM     38  C   UNL A   1      38.319  31.197  30.355  1.00  0.00     0.049 A 
ATOM     39  N   UNL A   1      39.176  32.099  33.096  1.00  0.00    -0.248 NA
ATOM     40  C   UNL A   1      37.389  33.601  33.107  1.00  0.00     0.031 C 
ATOM     41  C   UNL A   1      37.976  30.745  29.006  1.00  0.00     0.029 A 
ATOM     42  N   UNL A   1      39.408  30.430  30.694  1.00  0.00    -0.354 N 
ATOM     43  C   UNL A   1      39.178  32.808  34.290  1.00  0.00     0.074 A 
ATOM     44  C   UNL A   1      38.093  33.761  34.219  1.00  0.00     0.031 C 
ATOM     45  C   UNL A   1      38.825  29.771  28.639  1.00  0.00     0.029 A 
ATOM     46  C   UNL A   1      39.793  29.551  29.711  1.00  0.00     0.049 A 
ATOM     47  H   UNL A   1      39.869  30.505  31.560  1.00  0.00     0.167 HD
ATOM     48  C   UNL A   1      39.993  32.658  35.363  1.00  0.00     0.037 A 
ATOM     49  C   UNL A   1      40.813  28.673  29.674  1.00  0.00     0.037 A 
ATOM     50  C   UNL A   1      41.066  31.702  35.443  1.00  0.00     0.049 A 
ATOM     51  C   UNL A   1      41.711  28.539  30.877  1.00  0.00     0.074 A 
ATOM     52  C   UNL A   1      41.944  31.473  36.488  1.00  0.00     0.029 A 
ATOM     53  N   UNL A   1      41.404  30.809  34.437  1.00  0.00    -0.354 N 
ATOM     54  N   UNL A   1      41.675  29.186  32.016  1.00  0.00    -0.248 NA
ATOM     55  C   UNL A   1      42.784  27.537  30.794  1.00  0.00     0.031 C 
ATOM     56  C   UNL A   1      42.833  30.464  36.103  1.00  0.00     0.029 A 
ATOM     57  C   UNL A   1      42.477  30.030  34.838  1.00  0.00     0.049 A 
ATOM     58  H   UNL A   1      40.948  30.741  33.566  1.00  0.00     0.167 HD
ATOM     59  C   UNL A   1      42.688  28.643  32.796  1.00  0.00     0.074 A 
ATOM     60  C   UNL A   1      43.313  27.605  32.006  1.00  0.00     0.031 C 
ATOM     61  C   UNL A   1      43.068  28.977  34.054  1.00  0.00     0.037 A 
BRANCH  48  62
ATOM     62  C   UNL A   1      39.741  33.537  36.554  1.00  0.00     0.064 A 
ATOM     63  C   UNL A   1      40.334  34.805  36.664  1.00  0.00     0.173 A 
ATOM     64  C   UNL A   1      38.857  33.138  37.567  1.00  0.00     0.173 A 
ATOM     65  F   UNL A   1      41.195  35.230  35.727  1.00  0.00    -0.203 F 
ATOM     66  C   UNL A   1      40.068  35.629  37.753  1.00  0.00     0.198 A 
ATOM     67  C   UNL A   1      38.570  33.977  38.641  1.00  0.00     0.198 A 
ATOM     68  F   UNL A   1      38.257  31.938  37.509  1.00  0.00    -0.203 F 
ATOM     69  F   UNL A   1      40.678  36.818  37.856  1.00  0.00    -0.200 F 
ATOM     70  C   UNL A   1      39.180  35.219  38.735  1.00  0.00     0.200 A 
ATOM     71  F   UNL A   1      37.701  33.587  39.582  1.00  0.00    -0.200 F 
ATOM     72  F   UNL A   1      38.915  36.021  39.777  1.00  0.00    -0.200 F 
ENDBRANCH  48  62
BRANCH  49  73
ATOM     73  C   UNL A   1      41.042  27.836  28.466  1.00  0.00     0.064 A 
ATOM     74  C   UNL A   1      41.880  28.271  27.429  1.00  0.00     0.173 A 
ATOM     75  C   UNL A   1      40.390  26.605  28.302  1.00  0.00     0.173 A 
ATOM     76  F   UNL A   1      42.510  29.451  27.529  1.00  0.00    -0.203 F 
ATOM     77  C   UNL A   1      42.027  27.527  26.261  1.00  0.00     0.198 A 
ATOM     78  C   UNL A   1      40.564  25.845  27.147  1.00  0.00     0.198 A 
ATOM     79  F   UNL A   1      39.582  26.139  29.265  1.00  0.00    -0.203 F 
ATOM     80  F   UNL A   1      42.782  28.000  25.259  1.00  0.00    -0.200 F 
ATOM     81  C   UNL A   1      41.372  26.313  26.122  1.00  0.00     0.200 A 
ATOM     82  F   UNL A   1      39.940  24.666  27.023  1.00  0.00    -0.200 F 
ATOM     83  F   UNL A   1      41.507  25.602  24.995  1.00  0.00    -0.200 F 
ENDBRANCH  49  73
BRANCH  61  84
ATOM     84  C   UNL A   1      44.165  28.167  34.682  1.00  0.00     0.064 A 
ATOM     85  C   UNL A   1      43.904  26.988  35.393  1.00  0.00     0.173 A 
ATOM     86  C   UNL A   1      45.503  28.568  34.545  1.00  0.00     0.173 A 
ATOM     87  F   UNL A   1      42.641  26.569  35.566  1.00  0.00    -0.203 F 
ATOM     88  C   UNL A   1      44.938  26.256  35.971  1.00  0.00     0.198 A 
ATOM     89  C   UNL A   1      46.538  27.817  35.096  1.00  0.00     0.198 A 
ATOM     90  F   UNL A   1      45.809  29.685  33.867  1.00  0.00    -0.203 F 
ATOM     91  F   UNL A   1      44.660  25.162  36.693  1.00  0.00    -0.200 F 
ATOM     92  C   UNL A   1      46.254  26.668  35.816  1.00  0.00     0.200 A 
ATOM     93  F   UNL A   1      47.809  28.208  34.933  1.00  0.00    -0.200 F 
ATOM     94  F   UNL A   1      47.248  25.960  36.370  1.00  0.00    -0.200 F 
ENDBRANCH  61  84
ENDBRANCH  35  36
ENDBRANCH  27  30
ENDBRANCH  25  26
ENDBRANCH  24  25
ENDBRANCH  23  24
ENDBRANCH   1  23
TORSDOF 16
ENDMDL
MODEL 2
REMARK VINA RESULT:     -11.1      0.551      7.476
REMARK SMILES CC[C@@](C)([NH2+][C@H]1CC[C@H](C)[C@H](C)C1)C(=O)NCCCCCCNC(=O)c1ccc(-c2c3nc(c(-c4c(F)c(F)c(F)c(F)c4F)c4ccc([nH]4)c(-c4c(F)c(F)c(F)c(F)c4F)c4nc(c(-c5c(F)c(F)c(F)c(F)c5F)c5ccc2[nH]5)C=C4)C=C3)cc1
REMARK SMILES IDX 19 1 18 2 17 3 16 4 14 5 15 6 3 8 4 9 2 10 1 11 5 12 6 15
REMARK SMILES IDX 7 16 13 17 8 18 11 19 9 20 12 21 10 22 20 23 21 24 22 25
REMARK SMILES IDX 23 26 24 27 25 29 26 30 27 31 88 32 28 33 87 34 29 35 30 36
REMARK SMILES IDX 31 37 81 38 32 39 86 40 80 41 82 42 33 43 85 44 79 45 78 46
REMARK SMILES IDX 34 48 66 49 46 50 65 51 47 52 50 53 64 54 83 55 48 56 49 57
REMARK SMILES IDX 63 59 84 60 51 61 35 62 36 63 44 64 37 65 38 66 42 67 45 68
REMARK SMILES IDX 39 69 40 70 43 71 41 72 67 73 68 74 76 75 69 76 70 77 74 78
REMARK SMILES IDX 77 79 71 80 72 81 75 82 73 83 52 84 53 85 61 86 54 87 55 88
REMARK SMILES IDX 59 89 62 90 56 91 57 92 60 93 58 94
REMARK H PARENT 16 7 5 13 5 14 23 28 82 47 50 58
REMARK Flexibility Score: inf
ROOT
ATOM      1  C   UNL A   1      31.721  29.747  25.545  1.00  0.00     0.002 C 
ENDROOT
BRANCH   1   2
ATOM      2  C   UNL A   1      31.731  28.997  26.871  1.00  0.00     0.021 C 
BRANCH   2   3
ATOM      3  C   UNL A   1      32.416  27.628  26.868  1.00  0.00     0.116 C 
BRANCH   3   4
ATOM      4  N   UNL A   1      31.417  26.583  26.946  1.00  0.00    -0.351 N 
ATOM      5  C   UNL A   1      30.668  25.947  26.001  1.00  0.00     0.281 C 
ATOM      6  O   UNL A   1      29.591  25.509  26.432  1.00  0.00    -0.268 OA
ATOM      7  H   UNL A   1      31.244  26.269  27.864  1.00  0.00     0.163 HD
BRANCH   5   8
ATOM      8  C   UNL A   1      31.100  25.720  24.499  1.00  0.00     0.172 C 
ATOM      9  C   UNL A   1      30.588  24.421  23.864  1.00  0.00     0.090 C 
BRANCH   8  10
ATOM     10  C   UNL A   1      30.442  26.910  23.697  1.00  0.00     0.075 C 
ATOM     11  C   UNL A   1      31.109  27.247  22.362  1.00  0.00     0.011 C 
ENDBRANCH   8  10
BRANCH   8  12
ATOM     12  N   UNL A   1      32.567  25.946  24.303  1.00  0.00    -0.331 N 
ATOM     13  H   UNL A   1      32.867  26.595  25.031  1.00  0.00     0.347 HD
ATOM     14  H   UNL A   1      32.631  26.271  23.337  1.00  0.00     0.347 HD
BRANCH  12  15
ATOM     15  C   UNL A   1      33.482  24.811  24.344  1.00  0.00     0.183 C 
ATOM     16  C   UNL A   1      34.112  24.479  22.988  1.00  0.00     0.065 C 
ATOM     17  C   UNL A   1      34.622  25.122  25.332  1.00  0.00     0.068 C 
ATOM     18  C   UNL A   1      34.946  23.207  23.118  1.00  0.00     0.010 C 
ATOM     19  C   UNL A   1      35.665  23.986  25.484  1.00  0.00    -0.006 C 
ATOM     20  C   UNL A   1      36.096  23.364  24.125  1.00  0.00    -0.011 C 
ATOM     21  C   UNL A   1      35.230  22.955  26.529  1.00  0.00     0.008 C 
ATOM     22  C   UNL A   1      36.826  22.021  24.266  1.00  0.00     0.008 C 
ENDBRANCH  12  15
ENDBRANCH   8  12
ENDBRANCH   5   8
ENDBRANCH   3   4
ENDBRANCH   2   3
ENDBRANCH   1   2
BRANCH   1  23
ATOM     23  C   UNL A   1      31.025  31.110  25.594  1.00  0.00     0.002 C 
BRANCH  23  24
ATOM     24  C   UNL A   1      31.248  31.933  26.870  1.00  0.00     0.021 C 
BRANCH  24  25
ATOM     25  C   UNL A   1      32.561  32.711  26.938  1.00  0.00     0.116 C 
BRANCH  25  26
ATOM     26  N   UNL A   1      32.392  34.043  27.491  1.00  0.00    -0.352 N 
ATOM     27  C   UNL A   1      33.050  34.673  28.517  1.00  0.00     0.251 C 
ATOM     28  H   UNL A   1      31.691  34.581  27.060  1.00  0.00     0.163 HD
ATOM     29  O   UNL A   1      32.630  35.748  28.933  1.00  0.00    -0.269 OA
BRANCH  27  30
ATOM     30  C   UNL A   1      34.249  34.071  29.146  1.00  0.00     0.039 A 
ATOM     31  C   UNL A   1      34.059  33.099  30.134  1.00  0.00     0.014 A 
ATOM     32  C   UNL A   1      35.543  34.495  28.831  1.00  0.00     0.014 A 
ATOM     33  C   UNL A   1      35.161  32.526  30.774  1.00  0.00     0.010 A 
ATOM     34  C   UNL A   1      36.647  33.874  29.423  1.00  0.00     0.010 A 
ATOM     35  C   UNL A   1      36.467  32.891  30.409  1.00  0.00    -0.014 A 
BRANCH  35  36
ATOM     36  C   UNL A   1      37.642  32.275  31.082  1.00  0.00     0.031 A 
ATOM     37  C   UNL A   1      38.422  31.185  30.397  1.00  0.00     0.074 A 
ATOM     38  C   UNL A   1      38.002  32.684  32.314  1.00  0.00     0.049 A 
ATOM     39  N   UNL A   1      39.453  30.503  30.833  1.00  0.00    -0.248 NA
ATOM     40  C   UNL A   1      37.974  30.795  29.051  1.00  0.00     0.031 C 
ATOM     41  C   UNL A   1      37.313  33.709  33.100  1.00  0.00     0.029 A 
ATOM     42  N   UNL A   1      39.036  32.284  33.127  1.00  0.00    -0.354 N 
ATOM     43  C   UNL A   1      39.774  29.611  29.818  1.00  0.00     0.074 A 
ATOM     44  C   UNL A   1      38.794  29.793  28.770  1.00  0.00     0.031 C 
ATOM     45  C   UNL A   1      37.951  33.868  34.272  1.00  0.00     0.029 A 
ATOM     46  C   UNL A   1      39.073  32.936  34.335  1.00  0.00     0.049 A 
ATOM     47  H   UNL A   1      39.688  31.594  32.866  1.00  0.00     0.167 HD
ATOM     48  C   UNL A   1      40.811  28.740  29.751  1.00  0.00     0.037 A 
ATOM     49  C   UNL A   1      39.912  32.793  35.379  1.00  0.00     0.037 A 
ATOM     50  C   UNL A   1      41.796  28.565  30.787  1.00  0.00     0.049 A 
ATOM     51  C   UNL A   1      41.046  31.806  35.282  1.00  0.00     0.074 A 
ATOM     52  C   UNL A   1      42.884  27.710  30.809  1.00  0.00     0.029 A 
ATOM     53  N   UNL A   1      41.815  29.267  31.983  1.00  0.00    -0.354 N 
ATOM     54  N   UNL A   1      41.362  31.000  34.298  1.00  0.00    -0.248 NA
ATOM     55  C   UNL A   1      41.952  31.721  36.437  1.00  0.00     0.031 C 
ATOM     56  C   UNL A   1      43.543  27.871  32.032  1.00  0.00     0.029 A 
ATOM     57  C   UNL A   1      42.895  28.862  32.750  1.00  0.00     0.049 A 
ATOM     58  H   UNL A   1      41.157  29.950  32.247  1.00  0.00     0.167 HD
ATOM     59  C   UNL A   1      42.522  30.346  34.697  1.00  0.00     0.074 A 
ATOM     60  C   UNL A   1      42.861  30.859  36.007  1.00  0.00     0.031 C 
ATOM     61  C   UNL A   1      43.240  29.405  34.038  1.00  0.00     0.037 A 
BRANCH  48  62
ATOM     62  C   UNL A   1      40.948  27.919  28.501  1.00  0.00     0.064 A 
ATOM     63  C   UNL A   1      41.737  28.354  27.425  1.00  0.00     0.173 A 
ATOM     64  C   UNL A   1      40.334  26.661  28.398  1.00  0.00     0.173 A 
ATOM     65  F   UNL A   1      42.336  29.553  27.470  1.00  0.00    -0.203 F 
ATOM     66  C   UNL A   1      41.888  27.570  26.284  1.00  0.00     0.198 A 
ATOM     67  C   UNL A   1      40.511  25.868  27.267  1.00  0.00     0.198 A 
ATOM     68  F   UNL A   1      39.573  26.194  29.400  1.00  0.00    -0.203 F 
ATOM     69  F   UNL A   1      42.614  28.026  25.253  1.00  0.00    -0.200 F 
ATOM     70  C   UNL A   1      41.283  26.326  26.210  1.00  0.00     0.200 A 
ATOM     71  F   UNL A   1      39.939  24.659  27.202  1.00  0.00    -0.200 F 
ATOM     72  F   UNL A   1      41.442  25.567  25.116  1.00  0.00    -0.200 F 
ENDBRANCH  48  62
BRANCH  49  73
ATOM     73  C   UNL A   1      39.728  33.611  36.609  1.00  0.00     0.064 A 
ATOM     74  C   UNL A   1      38.896  33.177  37.651  1.00  0.00     0.173 A 
ATOM     75  C   UNL A   1      40.343  34.863  36.745  1.00  0.00     0.173 A 
ATOM     76  F   UNL A   1      38.268  31.996  37.559  1.00  0.00    -0.203 F 
ATOM     77  C   UNL A   1      38.657  33.981  38.764  1.00  0.00     0.198 A 
ATOM     78  C   UNL A   1      40.130  35.652  37.875  1.00  0.00     0.198 A 
ATOM     79  F   UNL A   1      41.154  35.323  35.781  1.00  0.00    -0.203 F 
ATOM     80  F   UNL A   1      37.804  33.570  39.713  1.00  0.00    -0.200 F 
ATOM     81  C   UNL A   1      39.276  35.216  38.876  1.00  0.00     0.200 A 
ATOM     82  F   UNL A   1      40.742  36.839  37.985  1.00  0.00    -0.200 F 
ATOM     83  F   UNL A   1      39.040  35.992  39.942  1.00  0.00    -0.200 F 
ENDBRANCH  49  73
BRANCH  61  84
ATOM     84  C   UNL A   1      44.501  28.916  34.689  1.00  0.00     0.064 A 
ATOM     85  C   UNL A   1      45.736  29.548  34.484  1.00  0.00     0.173 A 
ATOM     86  C   UNL A   1      44.465  27.812  35.555  1.00  0.00     0.173 A 
ATOM     87  F   UNL A   1      45.827  30.599  33.655  1.00  0.00    -0.203 F 
ATOM     88  C   UNL A   1      46.893  29.073  35.096  1.00  0.00     0.198 A 
ATOM     89  C   UNL A   1      45.618  27.359  36.190  1.00  0.00     0.198 A 
ATOM     90  F   UNL A   1      43.308  27.174  35.791  1.00  0.00    -0.203 F 
ATOM     91  F   UNL A   1      48.071  29.660  34.843  1.00  0.00    -0.200 F 
ATOM     92  C   UNL A   1      46.832  27.985  35.953  1.00  0.00     0.200 A 
ATOM     93  F   UNL A   1      45.554  26.316  37.029  1.00  0.00    -0.200 F 
ATOM     94  F   UNL A   1      47.947  27.532  36.544  1.00  0.00    -0.200 F 
ENDBRANCH  61  84
ENDBRANCH  35  36
ENDBRANCH  27  30
ENDBRANCH  25  26
ENDBRANCH  24  25
ENDBRANCH  23  24
ENDBRANCH   1  23
TORSDOF 16
ENDMDL
MODEL 3
REMARK VINA RESULT:     -11.1      1.259      2.599
REMARK SMILES CC[C@@](C)([NH2+][C@H]1CC[C@H](C)[C@H](C)C1)C(=O)NCCCCCCNC(=O)c1ccc(-c2c3nc(c(-c4c(F)c(F)c(F)c(F)c4F)c4ccc([nH]4)c(-c4c(F)c(F)c(F)c(F)c4F)c4nc(c(-c5c(F)c(F)c(F)c(F)c5F)c5ccc2[nH]5)C=C4)C=C3)cc1
REMARK SMILES IDX 19 1 18 2 17 3 16 4 14 5 15 6 3 8 4 9 2 10 1 11 5 12 6 15
REMARK SMILES IDX 7 16 13 17 8 18 11 19 9 20 12 21 10 22 20 23 21 24 22 25
REMARK SMILES IDX 23 26 24 27 25 29 26 30 27 31 88 32 28 33 87 34 29 35 30 36
REMARK SMILES IDX 31 37 81 38 32 39 86 40 80 41 82 42 33 43 85 44 79 45 78 46
REMARK SMILES IDX 34 48 66 49 46 50 65 51 47 52 50 53 64 54 83 55 48 56 49 57
REMARK SMILES IDX 63 59 84 60 51 61 35 62 36 63 44 64 37 65 38 66 42 67 45 68
REMARK SMILES IDX 39 69 40 70 43 71 41 72 67 73 68 74 76 75 69 76 70 77 74 78
REMARK SMILES IDX 77 79 71 80 72 81 75 82 73 83 52 84 53 85 61 86 54 87 55 88
REMARK SMILES IDX 59 89 62 90 56 91 57 92 60 93 58 94
REMARK H PARENT 16 7 5 13 5 14 23 28 82 47 50 58
REMARK Flexibility Score: inf
ROOT
ATOM      1  C   UNL A   1      33.191  30.249  26.874  1.00  0.00     0.002 C 
ENDROOT
BRANCH   1   2
ATOM      2  C   UNL A   1      33.404  28.781  27.224  1.00  0.00     0.021 C 
BRANCH   2   3
ATOM      3  C   UNL A   1      33.935  27.889  26.100  1.00  0.00     0.116 C 
BRANCH   3   4
ATOM      4  N   UNL A   1      33.992  28.644  24.865  1.00  0.00    -0.351 N 
ATOM      5  C   UNL A   1      33.320  28.537  23.684  1.00  0.00     0.281 C 
ATOM      6  O   UNL A   1      33.952  28.975  22.711  1.00  0.00    -0.268 OA
ATOM      7  H   UNL A   1      34.645  29.381  24.883  1.00  0.00     0.163 HD
BRANCH   5   8
ATOM      8  C   UNL A   1      31.858  27.962  23.517  1.00  0.00     0.172 C 
ATOM      9  C   UNL A   1      31.110  27.694  24.828  1.00  0.00     0.090 C 
BRANCH   8  10
ATOM     10  C   UNL A   1      31.057  29.090  22.757  1.00  0.00     0.075 C 
ATOM     11  C   UNL A   1      29.886  29.698  23.533  1.00  0.00     0.011 C 
ENDBRANCH   8  10
BRANCH   8  12
ATOM     12  N   UNL A   1      31.821  26.812  22.559  1.00  0.00    -0.331 N 
ATOM     13  H   UNL A   1      32.512  27.008  21.834  1.00  0.00     0.347 HD
ATOM     14  H   UNL A   1      30.843  26.776  22.269  1.00  0.00     0.347 HD
BRANCH  12  15
ATOM     15  C   UNL A   1      32.084  25.462  23.044  1.00  0.00     0.183 C 
ATOM     16  C   UNL A   1      30.837  24.576  23.109  1.00  0.00     0.065 C 
ATOM     17  C   UNL A   1      33.100  24.782  22.106  1.00  0.00     0.068 C 
ATOM     18  C   UNL A   1      31.202  23.238  23.745  1.00  0.00     0.010 C 
ATOM     19  C   UNL A   1      33.483  23.338  22.516  1.00  0.00    -0.006 C 
ATOM     20  C   UNL A   1      32.258  22.474  22.931  1.00  0.00    -0.011 C 
ATOM     21  C   UNL A   1      34.627  23.324  23.534  1.00  0.00     0.008 C 
ATOM     22  C   UNL A   1      32.636  21.189  23.681  1.00  0.00     0.008 C 
ENDBRANCH  12  15
ENDBRANCH   8  12
ENDBRANCH   5   8
ENDBRANCH   3   4
ENDBRANCH   2   3
ENDBRANCH   1   2
BRANCH   1  23
ATOM     23  C   UNL A   1      31.722  30.669  26.777  1.00  0.00     0.002 C 
BRANCH  23  24
ATOM     24  C   UNL A   1      31.444  32.176  26.881  1.00  0.00     0.021 C 
BRANCH  24  25
ATOM     25  C   UNL A   1      32.675  33.080  26.863  1.00  0.00     0.116 C 
BRANCH  25  26
ATOM     26  N   UNL A   1      32.484  34.298  27.631  1.00  0.00    -0.352 N 
ATOM     27  C   UNL A   1      33.117  34.749  28.761  1.00  0.00     0.251 C 
ATOM     28  H   UNL A   1      31.785  34.897  27.283  1.00  0.00     0.163 HD
ATOM     29  O   UNL A   1      32.679  35.736  29.345  1.00  0.00    -0.269 OA
BRANCH  27  30
ATOM     30  C   UNL A   1      34.309  34.056  29.303  1.00  0.00     0.039 A 
ATOM     31  C   UNL A   1      34.110  33.001  30.199  1.00  0.00     0.014 A 
ATOM     32  C   UNL A   1      35.609  34.472  28.999  1.00  0.00     0.014 A 
ATOM     33  C   UNL A   1      35.207  32.338  30.756  1.00  0.00     0.010 A 
ATOM     34  C   UNL A   1      36.705  33.766  29.504  1.00  0.00     0.010 A 
ATOM     35  C   UNL A   1      36.515  32.700  30.398  1.00  0.00    -0.014 A 
BRANCH  35  36
ATOM     36  C   UNL A   1      37.685  31.990  30.982  1.00  0.00     0.031 A 
ATOM     37  C   UNL A   1      38.154  32.319  32.374  1.00  0.00     0.074 A 
ATOM     38  C   UNL A   1      38.336  31.058  30.259  1.00  0.00     0.049 A 
ATOM     39  N   UNL A   1      39.172  31.835  33.043  1.00  0.00    -0.248 NA
ATOM     40  C   UNL A   1      37.392  33.343  33.105  1.00  0.00     0.031 C 
ATOM     41  C   UNL A   1      38.002  30.666  28.888  1.00  0.00     0.029 A 
ATOM     42  N   UNL A   1      39.418  30.272  30.573  1.00  0.00    -0.354 N 
ATOM     43  C   UNL A   1      39.167  32.491  34.267  1.00  0.00     0.074 A 
ATOM     44  C   UNL A   1      38.086  33.452  34.228  1.00  0.00     0.031 C 
ATOM     45  C   UNL A   1      38.851  29.705  28.486  1.00  0.00     0.029 A 
ATOM     46  C   UNL A   1      39.807  29.435  29.556  1.00  0.00     0.049 A 
ATOM     47  H   UNL A   1      39.872  30.306  31.446  1.00  0.00     0.167 HD
ATOM     48  C   UNL A   1      39.971  32.291  35.340  1.00  0.00     0.037 A 
ATOM     49  C   UNL A   1      40.824  28.554  29.490  1.00  0.00     0.037 A 
ATOM     50  C   UNL A   1      41.040  31.327  35.387  1.00  0.00     0.049 A 
ATOM     51  C   UNL A   1      41.711  28.363  30.693  1.00  0.00     0.074 A 
ATOM     52  C   UNL A   1      41.907  31.049  36.429  1.00  0.00     0.029 A 
ATOM     53  N   UNL A   1      41.382  30.477  34.346  1.00  0.00    -0.354 N 
ATOM     54  N   UNL A   1      41.668  28.960  31.859  1.00  0.00    -0.248 NA
ATOM     55  C   UNL A   1      42.781  27.361  30.576  1.00  0.00     0.031 C 
ATOM     56  C   UNL A   1      42.795  30.053  36.008  1.00  0.00     0.029 A 
ATOM     57  C   UNL A   1      42.448  29.676  34.722  1.00  0.00     0.049 A 
ATOM     58  H   UNL A   1      40.934  30.449  33.469  1.00  0.00     0.167 HD
ATOM     59  C   UNL A   1      42.672  28.379  32.623  1.00  0.00     0.074 A 
ATOM     60  C   UNL A   1      43.299  27.373  31.794  1.00  0.00     0.031 C 
ATOM     61  C   UNL A   1      43.042  28.655  33.898  1.00  0.00     0.037 A 
BRANCH  48  62
ATOM     62  C   UNL A   1      39.713  33.118  36.566  1.00  0.00     0.064 A 
ATOM     63  C   UNL A   1      38.811  32.695  37.555  1.00  0.00     0.173 A 
ATOM     64  C   UNL A   1      40.412  34.315  36.784  1.00  0.00     0.173 A 
ATOM     65  F   UNL A   1      38.110  31.564  37.389  1.00  0.00    -0.203 F 
ATOM     66  C   UNL A   1      38.603  33.450  38.706  1.00  0.00     0.198 A 
ATOM     67  C   UNL A   1      40.223  35.052  37.951  1.00  0.00     0.198 A 
ATOM     68  F   UNL A   1      41.290  34.763  35.874  1.00  0.00    -0.203 F 
ATOM     69  F   UNL A   1      37.707  33.046  39.617  1.00  0.00    -0.200 F 
ATOM     70  C   UNL A   1      39.315  34.622  38.907  1.00  0.00     0.200 A 
ATOM     71  F   UNL A   1      40.922  36.177  38.152  1.00  0.00    -0.200 F 
ATOM     72  F   UNL A   1      39.123  35.340  40.023  1.00  0.00    -0.200 F 
ENDBRANCH  48  62
BRANCH  49  73
ATOM     73  C   UNL A   1      41.060  27.769  28.248  1.00  0.00     0.064 A 
ATOM     74  C   UNL A   1      40.494  26.498  28.075  1.00  0.00     0.173 A 
ATOM     75  C   UNL A   1      41.894  28.254  27.230  1.00  0.00     0.173 A 
ATOM     76  F   UNL A   1      39.707  25.980  29.028  1.00  0.00    -0.203 F 
ATOM     77  C   UNL A   1      40.784  25.727  26.950  1.00  0.00     0.198 A 
ATOM     78  C   UNL A   1      42.155  27.497  26.090  1.00  0.00     0.198 A 
ATOM     79  F   UNL A   1      42.455  29.467  27.342  1.00  0.00    -0.203 F 
ATOM     80  F   UNL A   1      40.283  24.489  26.843  1.00  0.00    -0.200 F 
ATOM     81  C   UNL A   1      41.612  26.229  25.957  1.00  0.00     0.200 A 
ATOM     82  F   UNL A   1      42.945  27.992  25.126  1.00  0.00    -0.200 F 
ATOM     83  F   UNL A   1      41.896  25.485  24.880  1.00  0.00    -0.200 F 
ENDBRANCH  49  73
BRANCH  61  84
ATOM     84  C   UNL A   1      44.130  27.814  34.500  1.00  0.00     0.064 A 
ATOM     85  C   UNL A   1      45.476  28.203  34.460  1.00  0.00     0.173 A 
ATOM     86  C   UNL A   1      43.812  26.613  35.151  1.00  0.00     0.173 A 
ATOM     87  F   UNL A   1      45.834  29.337  33.837  1.00  0.00    -0.203 F 
ATOM     88  C   UNL A   1      46.468  27.404  35.022  1.00  0.00     0.198 A 
ATOM     89  C   UNL A   1      44.803  25.832  35.740  1.00  0.00     0.198 A 
ATOM     90  F   UNL A   1      42.538  26.198  35.224  1.00  0.00    -0.203 F 
ATOM     91  F   UNL A   1      47.754  27.769  34.924  1.00  0.00    -0.200 F 
ATOM     92  C   UNL A   1      46.131  26.224  35.667  1.00  0.00     0.200 A 
ATOM     93  F   UNL A   1      44.473  24.699  36.375  1.00  0.00    -0.200 F 
ATOM     94  F   UNL A   1      47.087  25.458  36.210  1.00  0.00    -0.200 F 
ENDBRANCH  61  84
ENDBRANCH  35  36
ENDBRANCH  27  30
ENDBRANCH  25  26
ENDBRANCH  24  25
ENDBRANCH  23  24
ENDBRANCH   1  23
TORSDOF 16
ENDMDL
