MODEL 1
REMARK VINA RESULT:     -11.2      0.000      0.000
REMARK SMILES CC[C@](C)(NC(=O)CCSc1ccccc1Cl)C(=O)NCCCCCCNC(=O)c1ccc(-c2c3nc(c(-c4c(F)c(F)c(F)c(F)c4F)c4ccc([nH]4)c(-c4c(F)c(F)c(F)c(F)c4F)c4nc(c(-c5c(F)c(F)c(F)c(F)c5F)c5ccc2[nH]5)C=C4)C=C3)cc1
REMARK SMILES IDX 22 1 21 2 20 3 18 4 19 5 3 7 4 8 2 9 1 10 5 11 6 12 7 14
REMARK SMILES IDX 8 15 9 16 10 17 11 18 12 19 16 20 13 21 15 22 17 23 14 24
REMARK SMILES IDX 23 25 24 26 25 27 26 28 27 29 28 30 29 32 30 33 31 34 92 35
REMARK SMILES IDX 32 36 91 37 33 38 34 39 35 40 85 41 36 42 90 43 84 44 86 45
REMARK SMILES IDX 37 46 89 47 83 48 82 49 38 51 70 52 50 53 69 54 51 55 54 56
REMARK SMILES IDX 68 57 87 58 52 59 53 60 67 62 88 63 55 64 39 65 40 66 48 67
REMARK SMILES IDX 41 68 42 69 46 70 49 71 43 72 44 73 47 74 45 75 71 76 72 77
REMARK SMILES IDX 80 78 73 79 74 80 78 81 81 82 75 83 76 84 79 85 77 86 56 87
REMARK SMILES IDX 57 88 65 89 58 90 59 91 63 92 66 93 60 94 61 95 64 96 62 97
REMARK H PARENT 20 6 5 13 27 31 86 50 54 61
REMARK Flexibility Score: inf
ROOT
ATOM      1  C   UNL A   1      31.540  28.708  27.531  1.00  0.00     0.021 C 
ENDROOT
BRANCH   1   2
ATOM      2  C   UNL A   1      31.797  27.361  26.854  1.00  0.00     0.116 C 
BRANCH   2   3
ATOM      3  N   UNL A   1      31.103  27.246  25.581  1.00  0.00    -0.354 N 
ATOM      4  C   UNL A   1      31.551  27.055  24.309  1.00  0.00     0.245 C 
ATOM      5  O   UNL A   1      30.688  26.981  23.429  1.00  0.00    -0.272 OA
ATOM      6  H   UNL A   1      30.124  27.320  25.652  1.00  0.00     0.163 HD
BRANCH   4   7
ATOM      7  C   UNL A   1      33.052  26.814  23.994  1.00  0.00     0.116 C 
ATOM      8  C   UNL A   1      33.747  26.025  25.108  1.00  0.00     0.045 C 
BRANCH   7   9
ATOM      9  C   UNL A   1      33.756  28.210  23.905  1.00  0.00     0.035 C 
ATOM     10  C   UNL A   1      34.263  28.611  22.525  1.00  0.00     0.007 C 
ENDBRANCH   7   9
BRANCH   7  11
ATOM     11  N   UNL A   1      33.212  26.172  22.669  1.00  0.00    -0.342 N 
ATOM     12  C   UNL A   1      32.844  24.997  22.109  1.00  0.00     0.221 C 
ATOM     13  H   UNL A   1      33.709  26.741  22.039  1.00  0.00     0.164 HD
ATOM     14  O   UNL A   1      33.019  24.935  20.885  1.00  0.00    -0.275 OA
BRANCH  12  15
ATOM     15  C   UNL A   1      32.104  23.877  22.808  1.00  0.00     0.111 C 
BRANCH  15  16
ATOM     16  C   UNL A   1      32.627  22.451  22.742  1.00  0.00     0.085 C 
BRANCH  16  17
ATOM     17  S   UNL A   1      33.206  21.601  24.266  1.00  0.00    -0.124 SA
BRANCH  17  18
ATOM     18  C   UNL A   1      34.739  22.437  24.653  1.00  0.00     0.026 A 
ATOM     19  C   UNL A   1      35.618  22.765  23.610  1.00  0.00     0.016 A 
ATOM     20  C   UNL A   1      35.093  22.797  25.965  1.00  0.00     0.054 A 
ATOM     21  C   UNL A   1      36.866  23.338  23.878  1.00  0.00     0.001 A 
ATOM     22  C   UNL A   1      36.347  23.358  26.230  1.00  0.00     0.022 A 
ATOM     23  Cl  UNL A   1      34.037  22.535  27.314  1.00  0.00    -0.083 Cl
ATOM     24  C   UNL A   1      37.240  23.611  25.190  1.00  0.00     0.002 A 
ENDBRANCH  17  18
ENDBRANCH  16  17
ENDBRANCH  15  16
ENDBRANCH  12  15
ENDBRANCH   7  11
ENDBRANCH   4   7
ENDBRANCH   2   3
ENDBRANCH   1   2
BRANCH   1  25
ATOM     25  C   UNL A   1      32.313  29.885  26.928  1.00  0.00     0.002 C 
BRANCH  25  26
ATOM     26  C   UNL A   1      31.488  30.812  26.033  1.00  0.00     0.002 C 
BRANCH  26  27
ATOM     27  C   UNL A   1      31.313  32.234  26.565  1.00  0.00     0.021 C 
BRANCH  27  28
ATOM     28  C   UNL A   1      32.546  32.808  27.247  1.00  0.00     0.116 C 
BRANCH  28  29
ATOM     29  N   UNL A   1      32.365  34.200  27.616  1.00  0.00    -0.352 N 
ATOM     30  C   UNL A   1      33.007  34.910  28.599  1.00  0.00     0.251 C 
ATOM     31  H   UNL A   1      31.695  34.699  27.095  1.00  0.00     0.163 HD
ATOM     32  O   UNL A   1      32.618  36.026  28.923  1.00  0.00    -0.269 OA
BRANCH  30  33
ATOM     33  C   UNL A   1      34.168  34.302  29.279  1.00  0.00     0.039 A 
ATOM     34  C   UNL A   1      33.953  33.526  30.419  1.00  0.00     0.014 A 
ATOM     35  C   UNL A   1      35.463  34.503  28.791  1.00  0.00     0.014 A 
ATOM     36  C   UNL A   1      35.038  32.925  31.057  1.00  0.00     0.010 A 
ATOM     37  C   UNL A   1      36.535  33.845  29.385  1.00  0.00     0.010 A 
ATOM     38  C   UNL A   1      36.334  33.069  30.537  1.00  0.00    -0.014 A 
BRANCH  38  39
ATOM     39  C   UNL A   1      37.504  32.474  31.227  1.00  0.00     0.031 A 
ATOM     40  C   UNL A   1      38.263  31.356  30.566  1.00  0.00     0.074 A 
ATOM     41  C   UNL A   1      37.861  32.911  32.449  1.00  0.00     0.049 A 
ATOM     42  N   UNL A   1      39.273  30.658  31.020  1.00  0.00    -0.248 NA
ATOM     43  C   UNL A   1      37.807  30.950  29.226  1.00  0.00     0.031 C 
ATOM     44  C   UNL A   1      37.176  33.961  33.207  1.00  0.00     0.029 A 
ATOM     45  N   UNL A   1      38.885  32.520  33.273  1.00  0.00    -0.354 N 
ATOM     46  C   UNL A   1      39.566  29.732  30.026  1.00  0.00     0.074 A 
ATOM     47  C   UNL A   1      38.590  29.912  28.975  1.00  0.00     0.031 C 
ATOM     48  C   UNL A   1      37.809  34.139  34.378  1.00  0.00     0.029 A 
ATOM     49  C   UNL A   1      38.925  33.200  34.465  1.00  0.00     0.049 A 
ATOM     50  H   UNL A   1      39.532  31.818  33.032  1.00  0.00     0.167 HD
ATOM     51  C   UNL A   1      40.579  28.835  29.979  1.00  0.00     0.037 A 
ATOM     52  C   UNL A   1      39.767  33.076  35.508  1.00  0.00     0.037 A 
ATOM     53  C   UNL A   1      41.562  28.674  31.016  1.00  0.00     0.049 A 
ATOM     54  C   UNL A   1      40.893  32.079  35.423  1.00  0.00     0.074 A 
ATOM     55  C   UNL A   1      42.633  27.799  31.065  1.00  0.00     0.029 A 
ATOM     56  N   UNL A   1      41.600  29.421  32.185  1.00  0.00    -0.354 N 
ATOM     57  N   UNL A   1      41.184  31.237  34.461  1.00  0.00    -0.248 NA
ATOM     58  C   UNL A   1      41.819  32.027  36.563  1.00  0.00     0.031 C 
ATOM     59  C   UNL A   1      43.306  28.000  32.275  1.00  0.00     0.029 A 
ATOM     60  C   UNL A   1      42.679  29.029  32.959  1.00  0.00     0.049 A 
ATOM     61  H   UNL A   1      40.954  30.123  32.429  1.00  0.00     0.167 HD
ATOM     62  C   UNL A   1      42.344  30.586  34.860  1.00  0.00     0.074 A 
ATOM     63  C   UNL A   1      42.710  31.139  36.147  1.00  0.00     0.031 C 
ATOM     64  C   UNL A   1      43.043  29.617  34.222  1.00  0.00     0.037 A 
BRANCH  51  65
ATOM     65  C   UNL A   1      40.686  27.975  28.754  1.00  0.00     0.064 A 
ATOM     66  C   UNL A   1      40.001  26.755  28.659  1.00  0.00     0.173 A 
ATOM     67  C   UNL A   1      41.446  28.389  27.650  1.00  0.00     0.173 A 
ATOM     68  F   UNL A   1      39.274  26.307  29.694  1.00  0.00    -0.203 F 
ATOM     69  C   UNL A   1      40.091  25.968  27.514  1.00  0.00     0.198 A 
ATOM     70  C   UNL A   1      41.511  27.614  26.495  1.00  0.00     0.198 A 
ATOM     71  F   UNL A   1      42.118  29.550  27.687  1.00  0.00    -0.203 F 
ATOM     72  F   UNL A   1      39.464  24.786  27.463  1.00  0.00    -0.200 F 
ATOM     73  C   UNL A   1      40.839  26.403  26.430  1.00  0.00     0.200 A 
ATOM     74  F   UNL A   1      42.224  28.041  25.443  1.00  0.00    -0.200 F 
ATOM     75  F   UNL A   1      40.916  25.651  25.323  1.00  0.00    -0.200 F 
ENDBRANCH  51  65
BRANCH  52  76
ATOM     76  C   UNL A   1      39.601  33.932  36.712  1.00  0.00     0.064 A 
ATOM     77  C   UNL A   1      40.196  35.199  36.785  1.00  0.00     0.173 A 
ATOM     78  C   UNL A   1      38.874  33.488  37.826  1.00  0.00     0.173 A 
ATOM     79  F   UNL A   1      40.918  35.661  35.752  1.00  0.00    -0.203 F 
ATOM     80  C   UNL A   1      40.100  35.975  37.938  1.00  0.00     0.198 A 
ATOM     81  C   UNL A   1      38.753  34.278  38.967  1.00  0.00     0.198 A 
ATOM     82  F   UNL A   1      38.278  32.287  37.804  1.00  0.00    -0.203 F 
ATOM     83  F   UNL A   1      40.729  37.156  38.003  1.00  0.00    -0.200 F 
ATOM     84  C   UNL A   1      39.376  35.514  39.028  1.00  0.00     0.200 A 
ATOM     85  F   UNL A   1      38.040  33.835  40.013  1.00  0.00    -0.200 F 
ATOM     86  F   UNL A   1      39.289  36.258  40.139  1.00  0.00    -0.200 F 
ENDBRANCH  52  76
BRANCH  64  87
ATOM     87  C   UNL A   1      44.307  29.139  34.873  1.00  0.00     0.064 A 
ATOM     88  C   UNL A   1      45.545  29.745  34.616  1.00  0.00     0.173 A 
ATOM     89  C   UNL A   1      44.269  28.079  35.791  1.00  0.00     0.173 A 
ATOM     90  F   UNL A   1      45.634  30.753  33.736  1.00  0.00    -0.203 F 
ATOM     91  C   UNL A   1      46.705  29.286  35.234  1.00  0.00     0.198 A 
ATOM     92  C   UNL A   1      45.427  27.643  36.429  1.00  0.00     0.198 A 
ATOM     93  F   UNL A   1      43.108  27.471  36.077  1.00  0.00    -0.203 F 
ATOM     94  F   UNL A   1      47.886  29.847  34.936  1.00  0.00    -0.200 F 
ATOM     95  C   UNL A   1      46.644  28.241  36.143  1.00  0.00     0.200 A 
ATOM     96  F   UNL A   1      45.364  26.641  37.317  1.00  0.00    -0.200 F 
ATOM     97  F   UNL A   1      47.762  27.803  36.739  1.00  0.00    -0.200 F 
ENDBRANCH  64  87
ENDBRANCH  38  39
ENDBRANCH  30  33
ENDBRANCH  28  29
ENDBRANCH  27  28
ENDBRANCH  26  27
ENDBRANCH  25  26
ENDBRANCH   1  25
TORSDOF 19
ENDMDL
MODEL 2
REMARK VINA RESULT:     -11.1      0.981      7.367
REMARK SMILES CC[C@](C)(NC(=O)CCSc1ccccc1Cl)C(=O)NCCCCCCNC(=O)c1ccc(-c2c3nc(c(-c4c(F)c(F)c(F)c(F)c4F)c4ccc([nH]4)c(-c4c(F)c(F)c(F)c(F)c4F)c4nc(c(-c5c(F)c(F)c(F)c(F)c5F)c5ccc2[nH]5)C=C4)C=C3)cc1
REMARK SMILES IDX 22 1 21 2 20 3 18 4 19 5 3 7 4 8 2 9 1 10 5 11 6 12 7 14
REMARK SMILES IDX 8 15 9 16 10 17 11 18 12 19 16 20 13 21 15 22 17 23 14 24
REMARK SMILES IDX 23 25 24 26 25 27 26 28 27 29 28 30 29 32 30 33 31 34 92 35
REMARK SMILES IDX 32 36 91 37 33 38 34 39 35 40 85 41 36 42 90 43 84 44 86 45
REMARK SMILES IDX 37 46 89 47 83 48 82 49 38 51 70 52 50 53 69 54 51 55 54 56
REMARK SMILES IDX 68 57 87 58 52 59 53 60 67 62 88 63 55 64 39 65 40 66 48 67
REMARK SMILES IDX 41 68 42 69 46 70 49 71 43 72 44 73 47 74 45 75 71 76 72 77
REMARK SMILES IDX 80 78 73 79 74 80 78 81 81 82 75 83 76 84 79 85 77 86 56 87
REMARK SMILES IDX 57 88 65 89 58 90 59 91 63 92 66 93 60 94 61 95 64 96 62 97
REMARK H PARENT 20 6 5 13 27 31 86 50 54 61
REMARK Flexibility Score: inf
ROOT
ATOM      1  C   UNL A   1      31.519  28.549  27.405  1.00  0.00     0.021 C 
ENDROOT
BRANCH   1   2
ATOM      2  C   UNL A   1      31.685  27.156  26.795  1.00  0.00     0.116 C 
BRANCH   2   3
ATOM      3  N   UNL A   1      31.090  27.063  25.472  1.00  0.00    -0.354 N 
ATOM      4  C   UNL A   1      31.633  26.889  24.235  1.00  0.00     0.245 C 
ATOM      5  O   UNL A   1      30.839  26.831  23.290  1.00  0.00    -0.272 OA
ATOM      6  H   UNL A   1      30.108  27.140  25.469  1.00  0.00     0.163 HD
BRANCH   4   7
ATOM      7  C   UNL A   1      33.153  26.646  24.031  1.00  0.00     0.116 C 
ATOM      8  C   UNL A   1      33.796  26.007  25.266  1.00  0.00     0.045 C 
BRANCH   7   9
ATOM      9  C   UNL A   1      33.839  28.039  23.820  1.00  0.00     0.035 C 
ATOM     10  C   UNL A   1      34.092  28.440  22.371  1.00  0.00     0.007 C 
ENDBRANCH   7   9
BRANCH   7  11
ATOM     11  N   UNL A   1      33.397  25.860  22.801  1.00  0.00    -0.342 N 
ATOM     12  C   UNL A   1      33.071  24.625  22.358  1.00  0.00     0.221 C 
ATOM     13  H   UNL A   1      33.930  26.360  22.141  1.00  0.00     0.164 HD
ATOM     14  O   UNL A   1      33.321  24.426  21.161  1.00  0.00    -0.275 OA
BRANCH  12  15
ATOM     15  C   UNL A   1      32.295  23.583  23.135  1.00  0.00     0.111 C 
BRANCH  15  16
ATOM     16  C   UNL A   1      32.999  22.350  23.681  1.00  0.00     0.085 C 
BRANCH  16  17
ATOM     17  S   UNL A   1      33.442  22.244  25.462  1.00  0.00    -0.124 SA
BRANCH  17  18
ATOM     18  C   UNL A   1      35.213  22.002  25.436  1.00  0.00     0.026 A 
ATOM     19  C   UNL A   1      36.051  23.062  25.811  1.00  0.00     0.016 A 
ATOM     20  C   UNL A   1      35.804  20.779  25.073  1.00  0.00     0.054 A 
ATOM     21  C   UNL A   1      37.442  22.944  25.718  1.00  0.00     0.001 A 
ATOM     22  C   UNL A   1      37.195  20.668  24.970  1.00  0.00     0.022 A 
ATOM     23  Cl  UNL A   1      34.864  19.373  24.695  1.00  0.00    -0.083 Cl
ATOM     24  C   UNL A   1      38.013  21.756  25.275  1.00  0.00     0.002 A 
ENDBRANCH  17  18
ENDBRANCH  16  17
ENDBRANCH  15  16
ENDBRANCH  12  15
ENDBRANCH   7  11
ENDBRANCH   4   7
ENDBRANCH   2   3
ENDBRANCH   1   2
BRANCH   1  25
ATOM     25  C   UNL A   1      32.263  29.665  26.667  1.00  0.00     0.002 C 
BRANCH  25  26
ATOM     26  C   UNL A   1      31.376  30.606  25.849  1.00  0.00     0.002 C 
BRANCH  26  27
ATOM     27  C   UNL A   1      31.273  32.030  26.395  1.00  0.00     0.021 C 
BRANCH  27  28
ATOM     28  C   UNL A   1      32.523  32.524  27.107  1.00  0.00     0.116 C 
BRANCH  28  29
ATOM     29  N   UNL A   1      32.394  33.903  27.540  1.00  0.00    -0.352 N 
ATOM     30  C   UNL A   1      33.105  34.559  28.512  1.00  0.00     0.251 C 
ATOM     31  H   UNL A   1      31.706  34.436  27.078  1.00  0.00     0.163 HD
ATOM     32  O   UNL A   1      32.760  35.669  28.901  1.00  0.00    -0.269 OA
BRANCH  30  33
ATOM     33  C   UNL A   1      34.289  33.902  29.101  1.00  0.00     0.039 A 
ATOM     34  C   UNL A   1      35.561  34.330  28.714  1.00  0.00     0.014 A 
ATOM     35  C   UNL A   1      34.140  32.866  30.029  1.00  0.00     0.014 A 
ATOM     36  C   UNL A   1      36.688  33.736  29.281  1.00  0.00     0.010 A 
ATOM     37  C   UNL A   1      35.262  32.325  30.646  1.00  0.00     0.010 A 
ATOM     38  C   UNL A   1      36.546  32.739  30.260  1.00  0.00    -0.014 A 
BRANCH  38  39
ATOM     39  C   UNL A   1      37.733  32.066  30.841  1.00  0.00     0.031 A 
ATOM     40  C   UNL A   1      38.225  32.478  32.202  1.00  0.00     0.074 A 
ATOM     41  C   UNL A   1      38.382  31.118  30.140  1.00  0.00     0.049 A 
ATOM     42  N   UNL A   1      39.275  32.062  32.865  1.00  0.00    -0.248 NA
ATOM     43  C   UNL A   1      37.448  33.516  32.899  1.00  0.00     0.031 C 
ATOM     44  C   UNL A   1      38.023  30.664  28.795  1.00  0.00     0.029 A 
ATOM     45  N   UNL A   1      39.487  30.370  30.459  1.00  0.00    -0.354 N 
ATOM     46  C   UNL A   1      39.284  32.791  34.048  1.00  0.00     0.074 A 
ATOM     47  C   UNL A   1      38.177  33.718  33.986  1.00  0.00     0.031 C 
ATOM     48  C   UNL A   1      38.883  29.706  28.411  1.00  0.00     0.029 A 
ATOM     49  C   UNL A   1      39.867  29.498  29.470  1.00  0.00     0.049 A 
ATOM     50  H   UNL A   1      39.961  30.450  31.319  1.00  0.00     0.167 HD
ATOM     51  C   UNL A   1      40.121  32.674  35.105  1.00  0.00     0.037 A 
ATOM     52  C   UNL A   1      40.896  28.631  29.426  1.00  0.00     0.037 A 
ATOM     53  C   UNL A   1      41.208  31.735  35.174  1.00  0.00     0.049 A 
ATOM     54  C   UNL A   1      41.804  28.512  30.621  1.00  0.00     0.074 A 
ATOM     55  C   UNL A   1      42.112  31.530  36.202  1.00  0.00     0.029 A 
ATOM     56  N   UNL A   1      41.528  30.830  34.172  1.00  0.00    -0.354 N 
ATOM     57  N   UNL A   1      41.778  29.177  31.751  1.00  0.00    -0.248 NA
ATOM     58  C   UNL A   1      42.874  27.507  30.544  1.00  0.00     0.031 C 
ATOM     59  C   UNL A   1      42.994  30.516  35.812  1.00  0.00     0.029 A 
ATOM     60  C   UNL A   1      42.612  30.061  34.560  1.00  0.00     0.049 A 
ATOM     61  H   UNL A   1      41.055  30.748  33.312  1.00  0.00     0.167 HD
ATOM     62  C   UNL A   1      42.798  28.648  32.530  1.00  0.00     0.074 A 
ATOM     63  C   UNL A   1      43.416  27.597  31.750  1.00  0.00     0.031 C 
ATOM     64  C   UNL A   1      43.190  28.999  33.779  1.00  0.00     0.037 A 
BRANCH  51  65
ATOM     65  C   UNL A   1      39.876  33.569  36.284  1.00  0.00     0.064 A 
ATOM     66  C   UNL A   1      40.507  34.818  36.393  1.00  0.00     0.173 A 
ATOM     67  C   UNL A   1      38.977  33.197  37.295  1.00  0.00     0.173 A 
ATOM     68  F   UNL A   1      41.387  35.212  35.461  1.00  0.00    -0.203 F 
ATOM     69  C   UNL A   1      40.264  35.652  37.481  1.00  0.00     0.198 A 
ATOM     70  C   UNL A   1      38.714  34.047  38.367  1.00  0.00     0.198 A 
ATOM     71  F   UNL A   1      38.345  32.016  37.237  1.00  0.00    -0.203 F 
ATOM     72  F   UNL A   1      40.911  36.821  37.585  1.00  0.00    -0.200 F 
ATOM     73  C   UNL A   1      39.362  35.269  38.462  1.00  0.00     0.200 A 
ATOM     74  F   UNL A   1      37.833  33.681  39.308  1.00  0.00    -0.200 F 
ATOM     75  F   UNL A   1      39.120  36.078  39.503  1.00  0.00    -0.200 F 
ENDBRANCH  51  65
BRANCH  52  76
ATOM     76  C   UNL A   1      41.114  27.785  28.222  1.00  0.00     0.064 A 
ATOM     77  C   UNL A   1      40.579  26.492  28.141  1.00  0.00     0.173 A 
ATOM     78  C   UNL A   1      41.886  28.240  27.143  1.00  0.00     0.173 A 
ATOM     79  F   UNL A   1      39.849  26.005  29.156  1.00  0.00    -0.203 F 
ATOM     80  C   UNL A   1      40.838  25.672  27.045  1.00  0.00     0.198 A 
ATOM     81  C   UNL A   1      42.119  27.430  26.034  1.00  0.00     0.198 A 
ATOM     82  F   UNL A   1      42.413  29.473  27.166  1.00  0.00    -0.203 F 
ATOM     83  F   UNL A   1      40.365  24.418  27.022  1.00  0.00    -0.200 F 
ATOM     84  C   UNL A   1      41.606  26.143  25.991  1.00  0.00     0.200 A 
ATOM     85  F   UNL A   1      42.850  27.894  25.010  1.00  0.00    -0.200 F 
ATOM     86  F   UNL A   1      41.860  25.352  24.940  1.00  0.00    -0.200 F 
ENDBRANCH  52  76
BRANCH  64  87
ATOM     87  C   UNL A   1      44.296  28.200  34.403  1.00  0.00     0.064 A 
ATOM     88  C   UNL A   1      45.640  28.585  34.291  1.00  0.00     0.173 A 
ATOM     89  C   UNL A   1      43.999  27.051  35.151  1.00  0.00     0.173 A 
ATOM     90  F   UNL A   1      45.975  29.668  33.575  1.00  0.00    -0.203 F 
ATOM     91  C   UNL A   1      46.649  27.829  34.881  1.00  0.00     0.198 A 
ATOM     92  C   UNL A   1      45.008  26.315  35.764  1.00  0.00     0.198 A 
ATOM     93  F   UNL A   1      42.728  26.646  35.294  1.00  0.00    -0.203 F 
ATOM     94  F   UNL A   1      47.931  28.186  34.719  1.00  0.00    -0.200 F 
ATOM     95  C   UNL A   1      46.333  26.700  35.621  1.00  0.00     0.200 A 
ATOM     96  F   UNL A   1      44.699  25.231  36.490  1.00  0.00    -0.200 F 
ATOM     97  F   UNL A   1      47.306  25.976  36.191  1.00  0.00    -0.200 F 
ENDBRANCH  64  87
ENDBRANCH  38  39
ENDBRANCH  30  33
ENDBRANCH  28  29
ENDBRANCH  27  28
ENDBRANCH  26  27
ENDBRANCH  25  26
ENDBRANCH   1  25
TORSDOF 19
ENDMDL
MODEL 3
REMARK VINA RESULT:     -10.7      5.972     10.263
REMARK SMILES CC[C@](C)(NC(=O)CCSc1ccccc1Cl)C(=O)NCCCCCCNC(=O)c1ccc(-c2c3nc(c(-c4c(F)c(F)c(F)c(F)c4F)c4ccc([nH]4)c(-c4c(F)c(F)c(F)c(F)c4F)c4nc(c(-c5c(F)c(F)c(F)c(F)c5F)c5ccc2[nH]5)C=C4)C=C3)cc1
REMARK SMILES IDX 22 1 21 2 20 3 18 4 19 5 3 7 4 8 2 9 1 10 5 11 6 12 7 14
REMARK SMILES IDX 8 15 9 16 10 17 11 18 12 19 16 20 13 21 15 22 17 23 14 24
REMARK SMILES IDX 23 25 24 26 25 27 26 28 27 29 28 30 29 32 30 33 31 34 92 35
REMARK SMILES IDX 32 36 91 37 33 38 34 39 35 40 85 41 36 42 90 43 84 44 86 45
REMARK SMILES IDX 37 46 89 47 83 48 82 49 38 51 70 52 50 53 69 54 51 55 54 56
REMARK SMILES IDX 68 57 87 58 52 59 53 60 67 62 88 63 55 64 39 65 40 66 48 67
REMARK SMILES IDX 41 68 42 69 46 70 49 71 43 72 44 73 47 74 45 75 71 76 72 77
REMARK SMILES IDX 80 78 73 79 74 80 78 81 81 82 75 83 76 84 79 85 77 86 56 87
REMARK SMILES IDX 57 88 65 89 58 90 59 91 63 92 66 93 60 94 61 95 64 96 62 97
REMARK H PARENT 20 6 5 13 27 31 86 50 54 61
REMARK Flexibility Score: inf
ROOT
ATOM      1  C   UNL A   1      39.236  23.542  26.937  1.00  0.00     0.021 C 
ENDROOT
BRANCH   1   2
ATOM      2  C   UNL A   1      38.042  23.570  25.981  1.00  0.00     0.116 C 
BRANCH   2   3
ATOM      3  N   UNL A   1      37.142  22.449  26.196  1.00  0.00    -0.354 N 
ATOM      4  C   UNL A   1      35.973  22.087  25.599  1.00  0.00     0.245 C 
ATOM      5  O   UNL A   1      35.449  21.045  26.005  1.00  0.00    -0.272 OA
ATOM      6  H   UNL A   1      37.433  21.835  26.908  1.00  0.00     0.163 HD
BRANCH   4   7
ATOM      7  C   UNL A   1      35.394  22.865  24.387  1.00  0.00     0.116 C 
ATOM      8  C   UNL A   1      36.437  23.051  23.280  1.00  0.00     0.045 C 
BRANCH   7   9
ATOM      9  C   UNL A   1      34.985  24.294  24.882  1.00  0.00     0.035 C 
ATOM     10  C   UNL A   1      34.020  24.336  26.062  1.00  0.00     0.007 C 
ENDBRANCH   7   9
BRANCH   7  11
ATOM     11  N   UNL A   1      34.158  22.218  23.890  1.00  0.00    -0.342 N 
ATOM     12  C   UNL A   1      33.175  22.542  23.019  1.00  0.00     0.221 C 
ATOM     13  H   UNL A   1      34.018  21.330  24.292  1.00  0.00     0.164 HD
ATOM     14  O   UNL A   1      32.406  21.611  22.744  1.00  0.00    -0.275 OA
BRANCH  12  15
ATOM     15  C   UNL A   1      33.062  23.846  22.259  1.00  0.00     0.111 C 
BRANCH  15  16
ATOM     16  C   UNL A   1      31.988  24.858  22.626  1.00  0.00     0.085 C 
BRANCH  16  17
ATOM     17  S   UNL A   1      32.323  26.661  22.487  1.00  0.00    -0.124 SA
BRANCH  17  18
ATOM     18  C   UNL A   1      32.455  27.193  24.189  1.00  0.00     0.026 A 
ATOM     19  C   UNL A   1      33.660  27.756  24.634  1.00  0.00     0.016 A 
ATOM     20  C   UNL A   1      31.389  27.087  25.098  1.00  0.00     0.054 A 
ATOM     21  C   UNL A   1      33.836  28.102  25.979  1.00  0.00     0.001 A 
ATOM     22  C   UNL A   1      31.572  27.423  26.445  1.00  0.00     0.022 A 
ATOM     23  Cl  UNL A   1      29.825  26.506  24.629  1.00  0.00    -0.083 Cl
ATOM     24  C   UNL A   1      32.800  27.912  26.888  1.00  0.00     0.002 A 
ENDBRANCH  17  18
ENDBRANCH  16  17
ENDBRANCH  15  16
ENDBRANCH  12  15
ENDBRANCH   7  11
ENDBRANCH   4   7
ENDBRANCH   2   3
ENDBRANCH   1   2
BRANCH   1  25
ATOM     25  C   UNL A   1      40.316  22.515  26.582  1.00  0.00     0.002 C 
BRANCH  25  26
ATOM     26  C   UNL A   1      40.849  21.701  27.764  1.00  0.00     0.002 C 
BRANCH  26  27
ATOM     27  C   UNL A   1      41.225  20.257  27.433  1.00  0.00     0.021 C 
BRANCH  27  28
ATOM     28  C   UNL A   1      41.124  19.901  25.958  1.00  0.00     0.116 C 
BRANCH  28  29
ATOM     29  N   UNL A   1      42.309  19.211  25.483  1.00  0.00    -0.352 N 
ATOM     30  C   UNL A   1      43.536  19.742  25.175  1.00  0.00     0.251 C 
ATOM     31  H   UNL A   1      42.222  18.238  25.365  1.00  0.00     0.163 HD
ATOM     32  O   UNL A   1      44.387  19.068  24.606  1.00  0.00    -0.269 OA
BRANCH  30  33
ATOM     33  C   UNL A   1      43.816  21.149  25.524  1.00  0.00     0.039 A 
ATOM     34  C   UNL A   1      43.526  22.147  24.592  1.00  0.00     0.014 A 
ATOM     35  C   UNL A   1      44.365  21.478  26.768  1.00  0.00     0.014 A 
ATOM     36  C   UNL A   1      43.761  23.483  24.918  1.00  0.00     0.010 A 
ATOM     37  C   UNL A   1      44.531  22.813  27.119  1.00  0.00     0.010 A 
ATOM     38  C   UNL A   1      44.253  23.826  26.188  1.00  0.00    -0.014 A 
BRANCH  38  39
ATOM     39  C   UNL A   1      44.550  25.236  26.535  1.00  0.00     0.031 A 
ATOM     40  C   UNL A   1      45.954  25.755  26.383  1.00  0.00     0.074 A 
ATOM     41  C   UNL A   1      43.577  26.033  27.012  1.00  0.00     0.049 A 
ATOM     42  N   UNL A   1      46.440  26.933  26.685  1.00  0.00    -0.248 NA
ATOM     43  C   UNL A   1      46.952  24.816  25.844  1.00  0.00     0.031 C 
ATOM     44  C   UNL A   1      42.188  25.630  27.241  1.00  0.00     0.029 A 
ATOM     45  N   UNL A   1      43.609  27.349  27.399  1.00  0.00    -0.354 N 
ATOM     46  C   UNL A   1      47.793  26.871  26.379  1.00  0.00     0.074 A 
ATOM     47  C   UNL A   1      48.067  25.524  25.930  1.00  0.00     0.031 C 
ATOM     48  C   UNL A   1      41.499  26.682  27.715  1.00  0.00     0.029 A 
ATOM     49  C   UNL A   1      42.401  27.822  27.848  1.00  0.00     0.049 A 
ATOM     50  H   UNL A   1      44.423  27.903  27.358  1.00  0.00     0.167 HD
ATOM     51  C   UNL A   1      48.719  27.857  26.436  1.00  0.00     0.037 A 
ATOM     52  C   UNL A   1      42.065  29.039  28.315  1.00  0.00     0.037 A 
ATOM     53  C   UNL A   1      48.440  29.202  26.861  1.00  0.00     0.049 A 
ATOM     54  C   UNL A   1      43.111  30.121  28.355  1.00  0.00     0.074 A 
ATOM     55  C   UNL A   1      49.303  30.279  26.950  1.00  0.00     0.029 A 
ATOM     56  N   UNL A   1      47.190  29.656  27.258  1.00  0.00    -0.354 N 
ATOM     57  N   UNL A   1      44.379  30.062  28.025  1.00  0.00    -0.248 NA
ATOM     58  C   UNL A   1      42.676  31.447  28.816  1.00  0.00     0.031 C 
ATOM     59  C   UNL A   1      48.581  31.381  27.422  1.00  0.00     0.029 A 
ATOM     60  C   UNL A   1      47.259  30.999  27.586  1.00  0.00     0.049 A 
ATOM     61  H   UNL A   1      46.375  29.104  27.300  1.00  0.00     0.167 HD
ATOM     62  C   UNL A   1      44.881  31.344  28.200  1.00  0.00     0.074 A 
ATOM     63  C   UNL A   1      43.778  32.165  28.654  1.00  0.00     0.031 C 
ATOM     64  C   UNL A   1      46.141  31.803  28.005  1.00  0.00     0.037 A 
BRANCH  51  65
ATOM     65  C   UNL A   1      50.117  27.521  26.004  1.00  0.00     0.064 A 
ATOM     66  C   UNL A   1      51.095  27.141  26.935  1.00  0.00     0.173 A 
ATOM     67  C   UNL A   1      50.473  27.540  24.648  1.00  0.00     0.173 A 
ATOM     68  F   UNL A   1      50.808  27.123  28.246  1.00  0.00    -0.203 F 
ATOM     69  C   UNL A   1      52.385  26.815  26.528  1.00  0.00     0.198 A 
ATOM     70  C   UNL A   1      51.757  27.184  24.241  1.00  0.00     0.198 A 
ATOM     71  F   UNL A   1      49.575  27.892  23.716  1.00  0.00    -0.203 F 
ATOM     72  F   UNL A   1      53.315  26.499  27.439  1.00  0.00    -0.200 F 
ATOM     73  C   UNL A   1      52.712  26.829  25.181  1.00  0.00     0.200 A 
ATOM     74  F   UNL A   1      52.069  27.186  22.937  1.00  0.00    -0.200 F 
ATOM     75  F   UNL A   1      53.952  26.504  24.788  1.00  0.00    -0.200 F 
ENDBRANCH  51  65
BRANCH  52  76
ATOM     76  C   UNL A   1      40.673  29.314  28.758  1.00  0.00     0.064 A 
ATOM     77  C   UNL A   1      40.348  29.382  30.121  1.00  0.00     0.173 A 
ATOM     78  C   UNL A   1      39.633  29.482  27.832  1.00  0.00     0.173 A 
ATOM     79  F   UNL A   1      41.305  29.209  31.046  1.00  0.00    -0.203 F 
ATOM     80  C   UNL A   1      39.034  29.571  30.540  1.00  0.00     0.198 A 
ATOM     81  C   UNL A   1      38.324  29.702  28.253  1.00  0.00     0.198 A 
ATOM     82  F   UNL A   1      39.891  29.436  26.517  1.00  0.00    -0.203 F 
ATOM     83  F   UNL A   1      38.743  29.570  31.848  1.00  0.00    -0.200 F 
ATOM     84  C   UNL A   1      38.022  29.733  29.606  1.00  0.00     0.200 A 
ATOM     85  F   UNL A   1      37.351  29.873  27.346  1.00  0.00    -0.200 F 
ATOM     86  F   UNL A   1      36.757  29.909  30.010  1.00  0.00    -0.200 F 
ENDBRANCH  52  76
BRANCH  64  87
ATOM     87  C   UNL A   1      46.380  33.269  28.218  1.00  0.00     0.064 A 
ATOM     88  C   UNL A   1      46.232  34.200  27.181  1.00  0.00     0.173 A 
ATOM     89  C   UNL A   1      46.729  33.747  29.490  1.00  0.00     0.173 A 
ATOM     90  F   UNL A   1      45.912  33.789  25.945  1.00  0.00    -0.203 F 
ATOM     91  C   UNL A   1      46.456  35.556  27.404  1.00  0.00     0.198 A 
ATOM     92  C   UNL A   1      46.924  35.107  29.715  1.00  0.00     0.198 A 
ATOM     93  F   UNL A   1      46.875  32.897  30.517  1.00  0.00    -0.203 F 
ATOM     94  F   UNL A   1      46.359  36.424  26.386  1.00  0.00    -0.200 F 
ATOM     95  C   UNL A   1      46.795  36.008  28.669  1.00  0.00     0.200 A 
ATOM     96  F   UNL A   1      47.239  35.543  30.942  1.00  0.00    -0.200 F 
ATOM     97  F   UNL A   1      47.008  37.315  28.881  1.00  0.00    -0.200 F 
ENDBRANCH  64  87
ENDBRANCH  38  39
ENDBRANCH  30  33
ENDBRANCH  28  29
ENDBRANCH  27  28
ENDBRANCH  26  27
ENDBRANCH  25  26
ENDBRANCH   1  25
TORSDOF 19
ENDMDL
