MODEL 1
REMARK VINA RESULT:     -12.0      0.000      0.000
REMARK SMILES COc1cc(-c2cc(C(=O)NCCCCCCNC(=O)c3ccc(-c4c5nc(c(-c6c(F)c(F)c(F)c(F)c6F)c6ccc([nH]6)c(-c6c(F)c(F)c(F)c(F)c6F)c6nc(c(-c7c(F)c(F)c(F)c(F)c7F)c7ccc4[nH]7)C=C6)C=C5)cc3)c3cc(C)ccc3n2)cc(OC)c1OC
REMARK SMILES IDX 14 1 13 2 12 3 11 4 9 5 10 6 8 8 6 9 7 10 91 11 90 12 84 13
REMARK SMILES IDX 89 14 85 15 88 16 86 17 87 18 5 19 3 20 4 21 96 22 93 23
REMARK SMILES IDX 92 24 2 25 1 26 97 27 98 28 94 29 95 30 15 31 16 32 17 33
REMARK SMILES IDX 18 34 19 35 20 37 21 38 22 39 83 40 23 41 82 42 24 43 25 44
REMARK SMILES IDX 26 45 76 46 27 47 81 48 75 49 77 50 28 51 80 52 74 53 73 54
REMARK SMILES IDX 29 56 61 57 41 58 60 59 42 60 45 61 59 62 78 63 43 64 44 65
REMARK SMILES IDX 58 67 79 68 46 69 30 70 31 71 39 72 32 73 33 74 37 75 40 76
REMARK SMILES IDX 34 77 35 78 38 79 36 80 62 81 63 82 71 83 64 84 65 85 69 86
REMARK SMILES IDX 72 87 66 88 67 89 70 90 68 91 47 92 48 93 56 94 49 95 50 96
REMARK SMILES IDX 54 97 57 98 51 99 52 100 55 101 53 102
REMARK H PARENT 11 7 18 36 77 55 45 66
REMARK Flexibility Score: inf
ROOT
ATOM      1  C   UNL A   1      34.796  32.914  28.701  1.00  0.00     0.002 C 
ENDROOT
BRANCH   1   2
ATOM      2  C   UNL A   1      35.815  32.000  28.001  1.00  0.00     0.021 C 
BRANCH   2   3
ATOM      3  C   UNL A   1      35.184  30.771  27.344  1.00  0.00     0.116 C 
BRANCH   3   4
ATOM      4  N   UNL A   1      33.799  30.676  27.754  1.00  0.00    -0.352 N 
ATOM      5  C   UNL A   1      32.756  30.340  26.924  1.00  0.00     0.252 C 
ATOM      6  O   UNL A   1      31.779  31.074  26.842  1.00  0.00    -0.269 OA
ATOM      7  H   UNL A   1      33.589  30.866  28.697  1.00  0.00     0.163 HD
BRANCH   5   8
ATOM      8  C   UNL A   1      32.741  28.946  26.432  1.00  0.00     0.051 A 
ATOM      9  C   UNL A   1      33.276  26.669  26.533  1.00  0.00     0.072 A 
ATOM     10  C   UNL A   1      33.663  27.968  26.793  1.00  0.00     0.043 A 
ATOM     11  N   UNL A   1      31.948  26.396  26.437  1.00  0.00    -0.248 NA
ATOM     12  C   UNL A   1      31.246  27.267  25.714  1.00  0.00     0.072 A 
ATOM     13  C   UNL A   1      31.697  28.576  25.574  1.00  0.00     0.013 A 
ATOM     14  C   UNL A   1      30.230  26.802  24.898  1.00  0.00     0.029 A 
ATOM     15  C   UNL A   1      31.286  29.328  24.455  1.00  0.00     0.014 A 
ATOM     16  C   UNL A   1      29.870  27.519  23.755  1.00  0.00     0.005 A 
ATOM     17  C   UNL A   1      30.495  28.732  23.471  1.00  0.00    -0.050 A 
ATOM     18  C   UNL A   1      30.451  29.328  22.095  1.00  0.00     0.044 C 
BRANCH   9  19
ATOM     19  C   UNL A   1      33.990  25.793  25.547  1.00  0.00     0.008 A 
ATOM     20  C   UNL A   1      33.793  23.580  24.630  1.00  0.00     0.165 A 
ATOM     21  C   UNL A   1      34.031  24.413  25.728  1.00  0.00     0.061 A 
ATOM     22  C   UNL A   1      33.369  24.116  23.401  1.00  0.00     0.203 A 
ATOM     23  C   UNL A   1      33.566  25.474  23.164  1.00  0.00     0.165 A 
ATOM     24  C   UNL A   1      34.028  26.277  24.212  1.00  0.00     0.061 A 
BRANCH  20  25
ATOM     25  O   UNL A   1      33.885  22.229  24.848  1.00  0.00    -0.493 OA
ATOM     26  C   UNL A   1      34.738  21.956  25.966  1.00  0.00     0.278 C 
ENDBRANCH  20  25
BRANCH  22  27
ATOM     27  O   UNL A   1      32.503  23.349  22.663  1.00  0.00    -0.490 OA
ATOM     28  C   UNL A   1      31.167  23.290  23.126  1.00  0.00     0.278 C 
ENDBRANCH  22  27
BRANCH  23  29
ATOM     29  O   UNL A   1      33.311  26.149  22.001  1.00  0.00    -0.493 OA
ATOM     30  C   UNL A   1      33.653  27.532  22.001  1.00  0.00     0.278 C 
ENDBRANCH  23  29
ENDBRANCH   9  19
ENDBRANCH   5   8
ENDBRANCH   3   4
ENDBRANCH   2   3
ENDBRANCH   1   2
BRANCH   1  31
ATOM     31  C   UNL A   1      35.268  34.356  28.919  1.00  0.00     0.002 C 
BRANCH  31  32
ATOM     32  C   UNL A   1      34.142  35.389  28.971  1.00  0.00     0.021 C 
BRANCH  32  33
ATOM     33  C   UNL A   1      32.860  34.877  29.615  1.00  0.00     0.116 C 
BRANCH  33  34
ATOM     34  N   UNL A   1      32.375  35.775  30.649  1.00  0.00    -0.352 N 
ATOM     35  C   UNL A   1      32.761  35.859  31.963  1.00  0.00     0.251 C 
ATOM     36  H   UNL A   1      31.675  36.409  30.368  1.00  0.00     0.163 HD
ATOM     37  O   UNL A   1      32.117  36.524  32.763  1.00  0.00    -0.269 OA
BRANCH  35  38
ATOM     38  C   UNL A   1      33.959  35.118  32.410  1.00  0.00     0.039 A 
ATOM     39  C   UNL A   1      33.808  33.810  32.876  1.00  0.00     0.014 A 
ATOM     40  C   UNL A   1      35.224  35.710  32.359  1.00  0.00     0.014 A 
ATOM     41  C   UNL A   1      34.937  33.078  33.244  1.00  0.00     0.010 A 
ATOM     42  C   UNL A   1      36.354  34.953  32.652  1.00  0.00     0.010 A 
ATOM     43  C   UNL A   1      36.220  33.632  33.107  1.00  0.00    -0.014 A 
BRANCH  43  44
ATOM     44  C   UNL A   1      37.433  32.847  33.446  1.00  0.00     0.031 A 
ATOM     45  C   UNL A   1      38.173  33.121  34.727  1.00  0.00     0.074 A 
ATOM     46  C   UNL A   1      37.891  31.920  32.582  1.00  0.00     0.049 A 
ATOM     47  N   UNL A   1      39.280  32.582  35.175  1.00  0.00    -0.248 NA
ATOM     48  C   UNL A   1      37.610  34.153  35.611  1.00  0.00     0.031 C 
ATOM     49  C   UNL A   1      37.283  31.593  31.290  1.00  0.00     0.029 A 
ATOM     50  N   UNL A   1      38.979  31.086  32.656  1.00  0.00    -0.354 N 
ATOM     51  C   UNL A   1      39.542  33.211  36.384  1.00  0.00     0.074 A 
ATOM     52  C   UNL A   1      38.518  34.215  36.574  1.00  0.00     0.031 C 
ATOM     53  C   UNL A   1      37.990  30.613  30.706  1.00  0.00     0.029 A 
ATOM     54  C   UNL A   1      39.124  30.271  31.558  1.00  0.00     0.049 A 
ATOM     55  H   UNL A   1      39.597  31.073  33.421  1.00  0.00     0.167 HD
ATOM     56  C   UNL A   1      40.531  32.953  37.273  1.00  0.00     0.037 A 
ATOM     57  C   UNL A   1      40.071  29.357  31.272  1.00  0.00     0.037 A 
ATOM     58  C   UNL A   1      41.538  31.941  37.090  1.00  0.00     0.049 A 
ATOM     59  C   UNL A   1      41.176  29.114  32.267  1.00  0.00     0.074 A 
ATOM     60  C   UNL A   1      42.562  31.578  37.948  1.00  0.00     0.029 A 
ATOM     61  N   UNL A   1      41.647  31.129  35.971  1.00  0.00    -0.354 N 
ATOM     62  N   UNL A   1      41.376  29.671  33.437  1.00  0.00    -0.248 NA
ATOM     63  C   UNL A   1      42.184  28.108  31.903  1.00  0.00     0.031 C 
ATOM     64  C   UNL A   1      43.318  30.579  37.328  1.00  0.00     0.029 A 
ATOM     65  C   UNL A   1      42.732  30.279  36.109  1.00  0.00     0.049 A 
ATOM     66  H   UNL A   1      41.043  31.153  35.194  1.00  0.00     0.167 HD
ATOM     67  C   UNL A   1      42.505  29.058  33.962  1.00  0.00     0.074 A 
ATOM     68  C   UNL A   1      42.937  28.074  32.992  1.00  0.00     0.031 C 
ATOM     69  C   UNL A   1      43.134  29.290  35.141  1.00  0.00     0.037 A 
BRANCH  56  70
ATOM     70  C   UNL A   1      40.569  33.767  38.534  1.00  0.00     0.064 A 
ATOM     71  C   UNL A   1      41.368  34.916  38.640  1.00  0.00     0.173 A 
ATOM     72  C   UNL A   1      39.755  33.432  39.627  1.00  0.00     0.173 A 
ATOM     73  F   UNL A   1      42.174  35.274  37.629  1.00  0.00    -0.203 F 
ATOM     74  C   UNL A   1      41.364  35.688  39.798  1.00  0.00     0.198 A 
ATOM     75  C   UNL A   1      39.730  34.224  40.772  1.00  0.00     0.198 A 
ATOM     76  F   UNL A   1      38.969  32.346  39.577  1.00  0.00    -0.203 F 
ATOM     77  F   UNL A   1      42.165  36.759  39.891  1.00  0.00    -0.200 F 
ATOM     78  C   UNL A   1      40.538  35.347  40.859  1.00  0.00     0.200 A 
ATOM     79  F   UNL A   1      38.920  33.902  41.790  1.00  0.00    -0.200 F 
ATOM     80  F   UNL A   1      40.522  36.101  41.968  1.00  0.00    -0.200 F 
ENDBRANCH  56  70
BRANCH  57  81
ATOM     81  C   UNL A   1      40.020  28.592  29.997  1.00  0.00     0.064 A 
ATOM     82  C   UNL A   1      39.410  27.331  29.936  1.00  0.00     0.173 A 
ATOM     83  C   UNL A   1      40.616  29.082  28.826  1.00  0.00     0.173 A 
ATOM     84  F   UNL A   1      38.842  26.808  31.034  1.00  0.00    -0.203 F 
ATOM     85  C   UNL A   1      39.433  26.573  28.767  1.00  0.00     0.198 A 
ATOM     86  C   UNL A   1      40.608  28.339  27.648  1.00  0.00     0.198 A 
ATOM     87  F   UNL A   1      41.209  30.285  28.826  1.00  0.00    -0.203 F 
ATOM     88  F   UNL A   1      38.902  25.343  28.757  1.00  0.00    -0.200 F 
ATOM     89  C   UNL A   1      40.029  27.079  27.622  1.00  0.00     0.200 A 
ATOM     90  F   UNL A   1      41.173  28.839  26.539  1.00  0.00    -0.200 F 
ATOM     91  F   UNL A   1      40.058  26.349  26.499  1.00  0.00    -0.200 F 
ENDBRANCH  57  81
BRANCH  69  92
ATOM     92  C   UNL A   1      44.320  28.432  35.471  1.00  0.00     0.064 A 
ATOM     93  C   UNL A   1      44.187  27.221  36.166  1.00  0.00     0.173 A 
ATOM     94  C   UNL A   1      45.606  28.811  35.055  1.00  0.00     0.173 A 
ATOM     95  F   UNL A   1      42.982  26.820  36.598  1.00  0.00    -0.203 F 
ATOM     96  C   UNL A   1      45.300  26.438  36.460  1.00  0.00     0.198 A 
ATOM     97  C   UNL A   1      46.713  28.009  35.320  1.00  0.00     0.198 A 
ATOM     98  F   UNL A   1      45.788  29.956  34.379  1.00  0.00    -0.203 F 
ATOM     99  F   UNL A   1      45.156  25.314  37.174  1.00  0.00    -0.200 F 
ATOM    100  C   UNL A   1      46.560  26.829  36.031  1.00  0.00     0.200 A 
ATOM    101  F   UNL A   1      47.926  28.379  34.888  1.00  0.00    -0.200 F 
ATOM    102  F   UNL A   1      47.629  26.069  36.308  1.00  0.00    -0.200 F 
ENDBRANCH  69  92
ENDBRANCH  43  44
ENDBRANCH  35  38
ENDBRANCH  33  34
ENDBRANCH  32  33
ENDBRANCH  31  32
ENDBRANCH   1  31
TORSDOF 17
ENDMDL
MODEL 2
REMARK VINA RESULT:     -11.9      6.613     12.199
REMARK SMILES COc1cc(-c2cc(C(=O)NCCCCCCNC(=O)c3ccc(-c4c5nc(c(-c6c(F)c(F)c(F)c(F)c6F)c6ccc([nH]6)c(-c6c(F)c(F)c(F)c(F)c6F)c6nc(c(-c7c(F)c(F)c(F)c(F)c7F)c7ccc4[nH]7)C=C6)C=C5)cc3)c3cc(C)ccc3n2)cc(OC)c1OC
REMARK SMILES IDX 14 1 13 2 12 3 11 4 9 5 10 6 8 8 6 9 7 10 91 11 90 12 84 13
REMARK SMILES IDX 89 14 85 15 88 16 86 17 87 18 5 19 3 20 4 21 96 22 93 23
REMARK SMILES IDX 92 24 2 25 1 26 97 27 98 28 94 29 95 30 15 31 16 32 17 33
REMARK SMILES IDX 18 34 19 35 20 37 21 38 22 39 83 40 23 41 82 42 24 43 25 44
REMARK SMILES IDX 26 45 76 46 27 47 81 48 75 49 77 50 28 51 80 52 74 53 73 54
REMARK SMILES IDX 29 56 61 57 41 58 60 59 42 60 45 61 59 62 78 63 43 64 44 65
REMARK SMILES IDX 58 67 79 68 46 69 30 70 31 71 39 72 32 73 33 74 37 75 40 76
REMARK SMILES IDX 34 77 35 78 38 79 36 80 62 81 63 82 71 83 64 84 65 85 69 86
REMARK SMILES IDX 72 87 66 88 67 89 70 90 68 91 47 92 48 93 56 94 49 95 50 96
REMARK SMILES IDX 54 97 57 98 51 99 52 100 55 101 53 102
REMARK H PARENT 11 7 18 36 77 55 45 66
REMARK Flexibility Score: inf
ROOT
ATOM      1  C   UNL A   1      40.265  21.451  26.867  1.00  0.00     0.002 C 
ENDROOT
BRANCH   1   2
ATOM      2  C   UNL A   1      40.071  22.943  27.182  1.00  0.00     0.021 C 
BRANCH   2   3
ATOM      3  C   UNL A   1      38.792  23.533  26.584  1.00  0.00     0.116 C 
BRANCH   3   4
ATOM      4  N   UNL A   1      38.479  22.832  25.356  1.00  0.00    -0.352 N 
ATOM      5  C   UNL A   1      37.369  22.044  25.164  1.00  0.00     0.252 C 
ATOM      6  O   UNL A   1      37.499  20.891  24.771  1.00  0.00    -0.269 OA
ATOM      7  H   UNL A   1      39.107  22.927  24.605  1.00  0.00     0.163 HD
BRANCH   5   8
ATOM      8  C   UNL A   1      36.070  22.748  25.133  1.00  0.00     0.051 A 
ATOM      9  C   UNL A   1      34.700  24.647  25.152  1.00  0.00     0.072 A 
ATOM     10  C   UNL A   1      35.859  24.043  25.596  1.00  0.00     0.043 A 
ATOM     11  N   UNL A   1      34.144  24.206  23.993  1.00  0.00    -0.248 NA
ATOM     12  C   UNL A   1      34.081  22.881  23.869  1.00  0.00     0.072 A 
ATOM     13  C   UNL A   1      34.985  22.075  24.555  1.00  0.00     0.013 A 
ATOM     14  C   UNL A   1      32.967  22.310  23.280  1.00  0.00     0.029 A 
ATOM     15  C   UNL A   1      34.634  20.742  24.847  1.00  0.00     0.014 A 
ATOM     16  C   UNL A   1      32.586  21.010  23.620  1.00  0.00     0.005 A 
ATOM     17  C   UNL A   1      33.365  20.269  24.508  1.00  0.00    -0.050 A 
ATOM     18  C   UNL A   1      32.812  19.064  25.209  1.00  0.00     0.044 C 
BRANCH   9  19
ATOM     19  C   UNL A   1      33.581  25.030  26.074  1.00  0.00     0.008 A 
ATOM     20  C   UNL A   1      31.740  26.574  26.127  1.00  0.00     0.165 A 
ATOM     21  C   UNL A   1      33.119  26.343  26.116  1.00  0.00     0.061 A 
ATOM     22  C   UNL A   1      30.833  25.516  25.942  1.00  0.00     0.203 A 
ATOM     23  C   UNL A   1      31.281  24.213  26.144  1.00  0.00     0.165 A 
ATOM     24  C   UNL A   1      32.647  24.001  26.364  1.00  0.00     0.061 A 
BRANCH  20  25
ATOM     25  O   UNL A   1      31.334  27.881  26.213  1.00  0.00    -0.493 OA
ATOM     26  C   UNL A   1      32.026  28.557  27.270  1.00  0.00     0.278 C 
ENDBRANCH  20  25
BRANCH  22  27
ATOM     27  O   UNL A   1      29.677  25.809  25.264  1.00  0.00    -0.490 OA
ATOM     28  C   UNL A   1      29.783  25.903  23.857  1.00  0.00     0.278 C 
ENDBRANCH  22  27
BRANCH  23  29
ATOM     29  O   UNL A   1      30.528  23.071  26.108  1.00  0.00    -0.493 OA
ATOM     30  C   UNL A   1      29.647  22.877  27.212  1.00  0.00     0.278 C 
ENDBRANCH  23  29
ENDBRANCH   9  19
ENDBRANCH   5   8
ENDBRANCH   3   4
ENDBRANCH   2   3
ENDBRANCH   1   2
BRANCH   1  31
ATOM     31  C   UNL A   1      41.641  21.089  26.296  1.00  0.00     0.002 C 
BRANCH  31  32
ATOM     32  C   UNL A   1      41.804  19.613  25.929  1.00  0.00     0.021 C 
BRANCH  32  33
ATOM     33  C   UNL A   1      43.187  19.049  26.229  1.00  0.00     0.116 C 
BRANCH  33  34
ATOM     34  N   UNL A   1      43.907  18.702  25.016  1.00  0.00    -0.352 N 
ATOM     35  C   UNL A   1      44.617  19.522  24.175  1.00  0.00     0.251 C 
ATOM     36  H   UNL A   1      43.881  17.750  24.763  1.00  0.00     0.163 HD
ATOM     37  O   UNL A   1      44.995  19.121  23.083  1.00  0.00    -0.269 OA
BRANCH  35  38
ATOM     38  C   UNL A   1      44.905  20.909  24.597  1.00  0.00     0.039 A 
ATOM     39  C   UNL A   1      44.478  21.963  23.788  1.00  0.00     0.014 A 
ATOM     40  C   UNL A   1      45.587  21.163  25.792  1.00  0.00     0.014 A 
ATOM     41  C   UNL A   1      44.690  23.278  24.204  1.00  0.00     0.010 A 
ATOM     42  C   UNL A   1      45.728  22.472  26.241  1.00  0.00     0.010 A 
ATOM     43  C   UNL A   1      45.289  23.543  25.447  1.00  0.00    -0.014 A 
BRANCH  43  44
ATOM     44  C   UNL A   1      45.475  24.935  25.925  1.00  0.00     0.031 A 
ATOM     45  C   UNL A   1      46.835  25.576  25.866  1.00  0.00     0.074 A 
ATOM     46  C   UNL A   1      44.431  25.605  26.451  1.00  0.00     0.049 A 
ATOM     47  N   UNL A   1      47.211  26.759  26.284  1.00  0.00    -0.248 NA
ATOM     48  C   UNL A   1      47.922  24.774  25.283  1.00  0.00     0.031 C 
ATOM     49  C   UNL A   1      43.074  25.075  26.600  1.00  0.00     0.029 A 
ATOM     50  N   UNL A   1      44.348  26.875  26.966  1.00  0.00    -0.354 N 
ATOM     51  C   UNL A   1      48.571  26.838  26.017  1.00  0.00     0.074 A 
ATOM     52  C   UNL A   1      48.971  25.564  25.460  1.00  0.00     0.031 C 
ATOM     53  C   UNL A   1      42.289  26.020  27.143  1.00  0.00     0.029 A 
ATOM     54  C   UNL A   1      43.094  27.205  27.420  1.00  0.00     0.049 A 
ATOM     55  H   UNL A   1      45.115  27.490  27.006  1.00  0.00     0.167 HD
ATOM     56  C   UNL A   1      49.407  27.890  26.191  1.00  0.00     0.037 A 
ATOM     57  C   UNL A   1      42.648  28.334  28.002  1.00  0.00     0.037 A 
ATOM     58  C   UNL A   1      49.002  29.162  26.729  1.00  0.00     0.049 A 
ATOM     59  C   UNL A   1      43.609  29.477  28.211  1.00  0.00     0.074 A 
ATOM     60  C   UNL A   1      49.765  30.302  26.913  1.00  0.00     0.029 A 
ATOM     61  N   UNL A   1      47.722  29.462  27.169  1.00  0.00    -0.354 N 
ATOM     62  N   UNL A   1      44.879  29.561  27.895  1.00  0.00    -0.248 NA
ATOM     63  C   UNL A   1      43.070  30.685  28.851  1.00  0.00     0.031 C 
ATOM     64  C   UNL A   1      48.958  31.277  27.507  1.00  0.00     0.029 A 
ATOM     65  C   UNL A   1      47.677  30.764  27.641  1.00  0.00     0.049 A 
ATOM     66  H   UNL A   1      46.957  28.842  27.148  1.00  0.00     0.167 HD
ATOM     67  C   UNL A   1      45.278  30.839  28.262  1.00  0.00     0.074 A 
ATOM     68  C   UNL A   1      44.113  31.501  28.808  1.00  0.00     0.031 C 
ATOM     69  C   UNL A   1      46.502  31.413  28.161  1.00  0.00     0.037 A 
BRANCH  56  70
ATOM     70  C   UNL A   1      50.842  27.718  25.785  1.00  0.00     0.064 A 
ATOM     71  C   UNL A   1      51.830  27.367  26.718  1.00  0.00     0.173 A 
ATOM     72  C   UNL A   1      51.225  27.848  24.441  1.00  0.00     0.173 A 
ATOM     73  F   UNL A   1      51.519  27.243  28.017  1.00  0.00    -0.203 F 
ATOM     74  C   UNL A   1      53.150  27.169  26.324  1.00  0.00     0.198 A 
ATOM     75  C   UNL A   1      52.541  27.618  24.046  1.00  0.00     0.198 A 
ATOM     76  F   UNL A   1      50.321  28.178  23.508  1.00  0.00    -0.203 F 
ATOM     77  F   UNL A   1      54.084  26.873  27.239  1.00  0.00    -0.200 F 
ATOM     78  C   UNL A   1      53.503  27.285  24.988  1.00  0.00     0.200 A 
ATOM     79  F   UNL A   1      52.877  27.716  22.753  1.00  0.00    -0.200 F 
ATOM     80  F   UNL A   1      54.771  27.078  24.607  1.00  0.00    -0.200 F 
ENDBRANCH  56  70
BRANCH  57  81
ATOM     81  C   UNL A   1      41.226  28.457  28.422  1.00  0.00     0.064 A 
ATOM     82  C   UNL A   1      40.809  28.029  29.691  1.00  0.00     0.173 A 
ATOM     83  C   UNL A   1      40.247  28.959  27.552  1.00  0.00     0.173 A 
ATOM     84  F   UNL A   1      41.702  27.521  30.554  1.00  0.00    -0.203 F 
ATOM     85  C   UNL A   1      39.465  28.062  30.058  1.00  0.00     0.198 A 
ATOM     86  C   UNL A   1      38.909  29.026  27.933  1.00  0.00     0.198 A 
ATOM     87  F   UNL A   1      40.592  29.388  26.328  1.00  0.00    -0.203 F 
ATOM     88  F   UNL A   1      39.087  27.583  31.251  1.00  0.00    -0.200 F 
ATOM     89  C   UNL A   1      38.516  28.564  29.180  1.00  0.00     0.200 A 
ATOM     90  F   UNL A   1      37.998  29.525  27.087  1.00  0.00    -0.200 F 
ATOM     91  F   UNL A   1      37.223  28.590  29.530  1.00  0.00    -0.200 F 
ENDBRANCH  57  81
BRANCH  69  92
ATOM     92  C   UNL A   1      46.631  32.843  28.601  1.00  0.00     0.064 A 
ATOM     93  C   UNL A   1      46.417  33.911  27.716  1.00  0.00     0.173 A 
ATOM     94  C   UNL A   1      46.939  33.148  29.935  1.00  0.00     0.173 A 
ATOM     95  F   UNL A   1      46.133  33.673  26.427  1.00  0.00    -0.203 F 
ATOM     96  C   UNL A   1      46.540  35.230  28.144  1.00  0.00     0.198 A 
ATOM     97  C   UNL A   1      47.027  34.468  30.369  1.00  0.00     0.198 A 
ATOM     98  F   UNL A   1      47.145  32.164  30.824  1.00  0.00    -0.203 F 
ATOM     99  F   UNL A   1      46.387  36.233  27.270  1.00  0.00    -0.200 F 
ATOM    100  C   UNL A   1      46.837  35.507  29.471  1.00  0.00     0.200 A 
ATOM    101  F   UNL A   1      47.295  34.734  31.654  1.00  0.00    -0.200 F 
ATOM    102  F   UNL A   1      46.946  36.778  29.883  1.00  0.00    -0.200 F 
ENDBRANCH  69  92
ENDBRANCH  43  44
ENDBRANCH  35  38
ENDBRANCH  33  34
ENDBRANCH  32  33
ENDBRANCH  31  32
ENDBRANCH   1  31
TORSDOF 17
ENDMDL
MODEL 3
REMARK VINA RESULT:     -11.7      5.664     10.915
REMARK SMILES COc1cc(-c2cc(C(=O)NCCCCCCNC(=O)c3ccc(-c4c5nc(c(-c6c(F)c(F)c(F)c(F)c6F)c6ccc([nH]6)c(-c6c(F)c(F)c(F)c(F)c6F)c6nc(c(-c7c(F)c(F)c(F)c(F)c7F)c7ccc4[nH]7)C=C6)C=C5)cc3)c3cc(C)ccc3n2)cc(OC)c1OC
REMARK SMILES IDX 14 1 13 2 12 3 11 4 9 5 10 6 8 8 6 9 7 10 91 11 90 12 84 13
REMARK SMILES IDX 89 14 85 15 88 16 86 17 87 18 5 19 3 20 4 21 96 22 93 23
REMARK SMILES IDX 92 24 2 25 1 26 97 27 98 28 94 29 95 30 15 31 16 32 17 33
REMARK SMILES IDX 18 34 19 35 20 37 21 38 22 39 83 40 23 41 82 42 24 43 25 44
REMARK SMILES IDX 26 45 76 46 27 47 81 48 75 49 77 50 28 51 80 52 74 53 73 54
REMARK SMILES IDX 29 56 61 57 41 58 60 59 42 60 45 61 59 62 78 63 43 64 44 65
REMARK SMILES IDX 58 67 79 68 46 69 30 70 31 71 39 72 32 73 33 74 37 75 40 76
REMARK SMILES IDX 34 77 35 78 38 79 36 80 62 81 63 82 71 83 64 84 65 85 69 86
REMARK SMILES IDX 72 87 66 88 67 89 70 90 68 91 47 92 48 93 56 94 49 95 50 96
REMARK SMILES IDX 54 97 57 98 51 99 52 100 55 101 53 102
REMARK H PARENT 11 7 18 36 77 55 45 66
REMARK Flexibility Score: inf
ROOT
ATOM      1  C   UNL A   1      38.765  22.551  26.195  1.00  0.00     0.002 C 
ENDROOT
BRANCH   1   2
ATOM      2  C   UNL A   1      37.834  23.732  26.520  1.00  0.00     0.021 C 
BRANCH   2   3
ATOM      3  C   UNL A   1      36.464  23.632  25.847  1.00  0.00     0.116 C 
BRANCH   3   4
ATOM      4  N   UNL A   1      36.592  24.017  24.457  1.00  0.00    -0.352 N 
ATOM      5  C   UNL A   1      36.031  23.341  23.401  1.00  0.00     0.252 C 
ATOM      6  O   UNL A   1      36.732  22.977  22.465  1.00  0.00    -0.269 OA
ATOM      7  H   UNL A   1      37.120  24.823  24.255  1.00  0.00     0.163 HD
BRANCH   5   8
ATOM      8  C   UNL A   1      34.555  23.384  23.312  1.00  0.00     0.051 A 
ATOM      9  C   UNL A   1      32.506  24.351  22.724  1.00  0.00     0.072 A 
ATOM     10  C   UNL A   1      33.804  24.544  23.150  1.00  0.00     0.043 A 
ATOM     11  N   UNL A   1      32.210  23.211  22.046  1.00  0.00    -0.248 NA
ATOM     12  C   UNL A   1      32.721  22.098  22.570  1.00  0.00     0.072 A 
ATOM     13  C   UNL A   1      33.871  22.162  23.350  1.00  0.00     0.013 A 
ATOM     14  C   UNL A   1      31.966  20.938  22.558  1.00  0.00     0.029 A 
ATOM     15  C   UNL A   1      34.118  21.145  24.295  1.00  0.00     0.014 A 
ATOM     16  C   UNL A   1      32.171  19.961  23.534  1.00  0.00     0.005 A 
ATOM     17  C   UNL A   1      33.178  20.131  24.484  1.00  0.00    -0.050 A 
ATOM     18  C   UNL A   1      33.181  19.346  25.762  1.00  0.00     0.044 C 
BRANCH   9  19
ATOM     19  C   UNL A   1      31.316  24.698  23.568  1.00  0.00     0.008 A 
ATOM     20  C   UNL A   1      30.764  24.919  25.897  1.00  0.00     0.165 A 
ATOM     21  C   UNL A   1      31.144  24.113  24.820  1.00  0.00     0.061 A 
ATOM     22  C   UNL A   1      30.705  26.318  25.761  1.00  0.00     0.203 A 
ATOM     23  C   UNL A   1      30.638  26.859  24.480  1.00  0.00     0.165 A 
ATOM     24  C   UNL A   1      30.793  26.005  23.382  1.00  0.00     0.061 A 
BRANCH  20  25
ATOM     25  O   UNL A   1      30.565  24.291  27.100  1.00  0.00    -0.493 OA
ATOM     26  C   UNL A   1      30.300  22.897  26.903  1.00  0.00     0.278 C 
ENDBRANCH  20  25
BRANCH  22  27
ATOM     27  O   UNL A   1      31.047  27.057  26.865  1.00  0.00    -0.490 OA
ATOM     28  C   UNL A   1      32.403  27.452  26.959  1.00  0.00     0.278 C 
ENDBRANCH  22  27
BRANCH  23  29
ATOM     29  O   UNL A   1      30.477  28.178  24.154  1.00  0.00    -0.493 OA
ATOM     30  C   UNL A   1      31.584  28.794  23.501  1.00  0.00     0.278 C 
ENDBRANCH  23  29
ENDBRANCH   9  19
ENDBRANCH   5   8
ENDBRANCH   3   4
ENDBRANCH   2   3
ENDBRANCH   1   2
BRANCH   1  31
ATOM     31  C   UNL A   1      38.073  21.345  25.552  1.00  0.00     0.002 C 
BRANCH  31  32
ATOM     32  C   UNL A   1      39.002  20.168  25.254  1.00  0.00     0.021 C 
BRANCH  32  33
ATOM     33  C   UNL A   1      39.904  19.780  26.420  1.00  0.00     0.116 C 
BRANCH  33  34
ATOM     34  N   UNL A   1      41.063  19.023  25.981  1.00  0.00    -0.352 N 
ATOM     35  C   UNL A   1      42.349  19.460  25.779  1.00  0.00     0.251 C 
ATOM     36  H   UNL A   1      40.905  18.067  25.804  1.00  0.00     0.163 HD
ATOM     37  O   UNL A   1      43.168  18.752  25.210  1.00  0.00    -0.269 OA
BRANCH  35  38
ATOM     38  C   UNL A   1      42.729  20.811  26.241  1.00  0.00     0.039 A 
ATOM     39  C   UNL A   1      43.116  21.764  25.297  1.00  0.00     0.014 A 
ATOM     40  C   UNL A   1      42.694  21.136  27.601  1.00  0.00     0.014 A 
ATOM     41  C   UNL A   1      43.420  23.060  25.713  1.00  0.00     0.010 A 
ATOM     42  C   UNL A   1      42.921  22.448  28.005  1.00  0.00     0.010 A 
ATOM     43  C   UNL A   1      43.296  23.421  27.065  1.00  0.00    -0.014 A 
BRANCH  43  44
ATOM     44  C   UNL A   1      43.566  24.809  27.515  1.00  0.00     0.031 A 
ATOM     45  C   UNL A   1      44.983  25.284  27.680  1.00  0.00     0.074 A 
ATOM     46  C   UNL A   1      42.536  25.625  27.815  1.00  0.00     0.049 A 
ATOM     47  N   UNL A   1      45.424  26.439  28.114  1.00  0.00    -0.248 NA
ATOM     48  C   UNL A   1      46.048  24.328  27.337  1.00  0.00     0.031 C 
ATOM     49  C   UNL A   1      41.120  25.265  27.734  1.00  0.00     0.029 A 
ATOM     50  N   UNL A   1      42.523  26.925  28.256  1.00  0.00    -0.354 N 
ATOM     51  C   UNL A   1      46.809  26.344  28.097  1.00  0.00     0.074 A 
ATOM     52  C   UNL A   1      47.139  25.001  27.672  1.00  0.00     0.031 C 
ATOM     53  C   UNL A   1      40.375  26.325  28.087  1.00  0.00     0.029 A 
ATOM     54  C   UNL A   1      41.259  27.424  28.460  1.00  0.00     0.049 A 
ATOM     55  H   UNL A   1      43.341  27.449  28.412  1.00  0.00     0.167 HD
ATOM     56  C   UNL A   1      47.725  27.301  28.380  1.00  0.00     0.037 A 
ATOM     57  C   UNL A   1      40.861  28.631  28.907  1.00  0.00     0.037 A 
ATOM     58  C   UNL A   1      47.393  28.642  28.785  1.00  0.00     0.049 A 
ATOM     59  C   UNL A   1      41.904  29.666  29.243  1.00  0.00     0.074 A 
ATOM     60  C   UNL A   1      48.247  29.695  29.060  1.00  0.00     0.029 A 
ATOM     61  N   UNL A   1      46.102  29.113  28.971  1.00  0.00    -0.354 N 
ATOM     62  N   UNL A   1      43.211  29.584  29.161  1.00  0.00    -0.248 NA
ATOM     63  C   UNL A   1      41.416  30.964  29.727  1.00  0.00     0.031 C 
ATOM     64  C   UNL A   1      47.475  30.791  29.459  1.00  0.00     0.029 A 
ATOM     65  C   UNL A   1      46.138  30.438  29.376  1.00  0.00     0.049 A 
ATOM     66  H   UNL A   1      45.283  28.585  28.835  1.00  0.00     0.167 HD
ATOM     67  C   UNL A   1      43.695  30.826  29.545  1.00  0.00     0.074 A 
ATOM     68  C   UNL A   1      42.542  31.650  29.843  1.00  0.00     0.031 C 
ATOM     69  C   UNL A   1      44.979  31.249  29.647  1.00  0.00     0.037 A 
BRANCH  56  70
ATOM     70  C   UNL A   1      49.177  26.941  28.249  1.00  0.00     0.064 A 
ATOM     71  C   UNL A   1      49.922  26.494  29.352  1.00  0.00     0.173 A 
ATOM     72  C   UNL A   1      49.815  26.986  27.001  1.00  0.00     0.173 A 
ATOM     73  F   UNL A   1      49.362  26.444  30.570  1.00  0.00    -0.203 F 
ATOM     74  C   UNL A   1      51.256  26.123  29.212  1.00  0.00     0.198 A 
ATOM     75  C   UNL A   1      51.141  26.583  26.859  1.00  0.00     0.198 A 
ATOM     76  F   UNL A   1      49.149  27.402  25.914  1.00  0.00    -0.203 F 
ATOM     77  F   UNL A   1      51.959  25.737  30.286  1.00  0.00    -0.200 F 
ATOM     78  C   UNL A   1      51.862  26.158  27.965  1.00  0.00     0.200 A 
ATOM     79  F   UNL A   1      51.720  26.604  25.651  1.00  0.00    -0.200 F 
ATOM     80  F   UNL A   1      53.142  25.784  27.829  1.00  0.00    -0.200 F 
ENDBRANCH  56  70
BRANCH  57  81
ATOM     81  C   UNL A   1      39.413  28.941  29.055  1.00  0.00     0.064 A 
ATOM     82  C   UNL A   1      38.657  29.393  27.963  1.00  0.00     0.173 A 
ATOM     83  C   UNL A   1      38.767  28.837  30.294  1.00  0.00     0.173 A 
ATOM     84  F   UNL A   1      39.233  29.529  26.759  1.00  0.00    -0.203 F 
ATOM     85  C   UNL A   1      37.323  29.766  28.115  1.00  0.00     0.198 A 
ATOM     86  C   UNL A   1      37.423  29.176  30.438  1.00  0.00     0.198 A 
ATOM     87  F   UNL A   1      39.441  28.405  31.371  1.00  0.00    -0.203 F 
ATOM     88  F   UNL A   1      36.644  30.259  27.070  1.00  0.00    -0.200 F 
ATOM     89  C   UNL A   1      36.706  29.654  29.351  1.00  0.00     0.200 A 
ATOM     90  F   UNL A   1      36.827  29.052  31.632  1.00  0.00    -0.200 F 
ATOM     91  F   UNL A   1      35.425  30.019  29.499  1.00  0.00    -0.200 F 
ENDBRANCH  57  81
BRANCH  69  92
ATOM     92  C   UNL A   1      45.205  32.678  30.047  1.00  0.00     0.064 A 
ATOM     93  C   UNL A   1      45.213  33.718  29.105  1.00  0.00     0.173 A 
ATOM     94  C   UNL A   1      45.382  33.016  31.398  1.00  0.00     0.173 A 
ATOM     95  F   UNL A   1      45.061  33.446  27.800  1.00  0.00    -0.203 F 
ATOM     96  C   UNL A   1      45.422  35.037  29.496  1.00  0.00     0.198 A 
ATOM     97  C   UNL A   1      45.556  34.340  31.790  1.00  0.00     0.198 A 
ATOM     98  F   UNL A   1      45.374  32.061  32.340  1.00  0.00    -0.203 F 
ATOM     99  F   UNL A   1      45.482  36.006  28.574  1.00  0.00    -0.200 F 
ATOM    100  C   UNL A   1      45.586  35.348  30.838  1.00  0.00     0.200 A 
ATOM    101  F   UNL A   1      45.696  34.640  33.088  1.00  0.00    -0.200 F 
ATOM    102  F   UNL A   1      45.779  36.620  31.214  1.00  0.00    -0.200 F 
ENDBRANCH  69  92
ENDBRANCH  43  44
ENDBRANCH  35  38
ENDBRANCH  33  34
ENDBRANCH  32  33
ENDBRANCH  31  32
ENDBRANCH   1  31
TORSDOF 17
ENDMDL
