MODEL 1
REMARK VINA RESULT:     -11.0      0.000      0.000
REMARK SMILES Cc1cc(N(C)C(C)C)cc(C(=O)NCCCCCCNC(=O)c2ccc(-c3c4nc(c(-c5c(F)c(F)c(F)c(F)c5F)c5ccc([nH]5)c(-c5c(F)c(F)c(F)c(F)c5F)c5nc(c(-c6c(F)c(F)c(F)c(F)c6F)c6ccc3[nH]6)C=C5)C=C4)cc2)c1N
REMARK SMILES IDX 17 1 16 2 15 3 14 4 12 5 13 6 11 8 1 9 2 10 3 11 87 12 4 13
REMARK SMILES IDX 10 14 88 15 5 18 6 19 7 20 8 21 9 22 18 23 19 24 20 25 21 26
REMARK SMILES IDX 22 27 23 29 24 30 25 31 86 32 26 33 85 34 27 35 28 36 29 37
REMARK SMILES IDX 79 38 30 39 84 40 78 41 80 42 31 43 83 44 77 45 76 46 32 48
REMARK SMILES IDX 64 49 44 50 63 51 45 52 48 53 62 54 81 55 46 56 47 57 61 59
REMARK SMILES IDX 82 60 49 61 33 62 34 63 42 64 35 65 36 66 40 67 43 68 37 69
REMARK SMILES IDX 38 70 41 71 39 72 65 73 66 74 74 75 67 76 68 77 72 78 75 79
REMARK SMILES IDX 69 80 70 81 73 82 71 83 50 84 51 85 59 86 52 87 53 88 57 89
REMARK SMILES IDX 60 90 54 91 55 92 58 93 56 94
REMARK H PARENT 14 7 88 16 88 17 21 28 80 47 48 58
REMARK Flexibility Score: inf
ROOT
ATOM      1  C   UNL A   1      34.065  30.704  27.424  1.00  0.00     0.002 C 
ENDROOT
BRANCH   1   2
ATOM      2  C   UNL A   1      34.732  29.331  27.252  1.00  0.00     0.021 C 
BRANCH   2   3
ATOM      3  C   UNL A   1      33.956  28.405  26.310  1.00  0.00     0.116 C 
BRANCH   3   4
ATOM      4  N   UNL A   1      34.198  28.805  24.940  1.00  0.00    -0.352 N 
ATOM      5  C   UNL A   1      33.522  28.608  23.762  1.00  0.00     0.253 C 
ATOM      6  O   UNL A   1      34.106  28.995  22.746  1.00  0.00    -0.269 OA
ATOM      7  H   UNL A   1      35.023  29.330  24.831  1.00  0.00     0.163 HD
BRANCH   5   8
ATOM      8  C   UNL A   1      32.139  28.029  23.660  1.00  0.00     0.065 A 
ATOM      9  C   UNL A   1      30.477  24.598  23.460  1.00  0.00     0.046 C 
ATOM     10  C   UNL A   1      30.710  26.086  23.477  1.00  0.00    -0.025 A 
ATOM     11  C   UNL A   1      29.602  26.946  23.325  1.00  0.00     0.031 A 
ATOM     12  C   UNL A   1      31.996  26.624  23.628  1.00  0.00     0.047 A 
ATOM     13  C   UNL A   1      29.696  28.341  23.347  1.00  0.00     0.038 A 
ATOM     14  C   UNL A   1      30.982  28.835  23.627  1.00  0.00     0.042 A 
BRANCH  12  15
ATOM     15  N   UNL A   1      33.106  25.771  23.594  1.00  0.00    -0.398 N 
ATOM     16  H   UNL A   1      33.554  25.582  22.737  1.00  0.00     0.156 HD
ATOM     17  H   UNL A   1      33.438  25.362  24.425  1.00  0.00     0.156 HD
ENDBRANCH  12  15
BRANCH  13  18
ATOM     18  N   UNL A   1      28.616  29.181  23.090  1.00  0.00    -0.372 N 
ATOM     19  C   UNL A   1      27.237  28.687  23.203  1.00  0.00     0.144 C 
BRANCH  18  20
ATOM     20  C   UNL A   1      28.688  30.642  22.837  1.00  0.00     0.075 C 
ATOM     21  C   UNL A   1      28.751  30.986  21.349  1.00  0.00     0.030 C 
ATOM     22  C   UNL A   1      27.661  31.440  23.634  1.00  0.00     0.030 C 
ENDBRANCH  18  20
ENDBRANCH  13  18
ENDBRANCH   5   8
ENDBRANCH   3   4
ENDBRANCH   2   3
ENDBRANCH   1   2
BRANCH   1  23
ATOM     23  C   UNL A   1      32.538  30.695  27.274  1.00  0.00     0.002 C 
BRANCH  23  24
ATOM     24  C   UNL A   1      31.885  32.079  27.277  1.00  0.00     0.021 C 
BRANCH  24  25
ATOM     25  C   UNL A   1      32.837  33.217  26.922  1.00  0.00     0.116 C 
BRANCH  25  26
ATOM     26  N   UNL A   1      32.542  34.419  27.685  1.00  0.00    -0.352 N 
ATOM     27  C   UNL A   1      33.039  34.820  28.899  1.00  0.00     0.251 C 
ATOM     28  H   UNL A   1      31.892  35.034  27.271  1.00  0.00     0.163 HD
ATOM     29  O   UNL A   1      32.509  35.739  29.514  1.00  0.00    -0.269 OA
BRANCH  27  30
ATOM     30  C   UNL A   1      34.216  34.135  29.471  1.00  0.00     0.039 A 
ATOM     31  C   UNL A   1      35.492  34.513  29.048  1.00  0.00     0.014 A 
ATOM     32  C   UNL A   1      34.059  33.105  30.403  1.00  0.00     0.014 A 
ATOM     33  C   UNL A   1      36.615  33.891  29.597  1.00  0.00     0.010 A 
ATOM     34  C   UNL A   1      35.178  32.534  31.000  1.00  0.00     0.010 A 
ATOM     35  C   UNL A   1      36.467  32.916  30.596  1.00  0.00    -0.014 A 
BRANCH  35  36
ATOM     36  C   UNL A   1      37.648  32.277  31.227  1.00  0.00     0.031 A 
ATOM     37  C   UNL A   1      38.398  31.197  30.499  1.00  0.00     0.074 A 
ATOM     38  C   UNL A   1      38.006  32.626  32.478  1.00  0.00     0.049 A 
ATOM     39  N   UNL A   1      39.404  30.465  30.909  1.00  0.00    -0.248 NA
ATOM     40  C   UNL A   1      37.939  30.874  29.138  1.00  0.00     0.031 C 
ATOM     41  C   UNL A   1      37.328  33.629  33.302  1.00  0.00     0.029 A 
ATOM     42  N   UNL A   1      39.019  32.166  33.281  1.00  0.00    -0.354 N 
ATOM     43  C   UNL A   1      39.686  29.591  29.867  1.00  0.00     0.074 A 
ATOM     44  C   UNL A   1      38.715  29.847  28.826  1.00  0.00     0.031 C 
ATOM     45  C   UNL A   1      37.955  33.721  34.486  1.00  0.00     0.029 A 
ATOM     46  C   UNL A   1      39.053  32.761  34.519  1.00  0.00     0.049 A 
ATOM     47  H   UNL A   1      39.661  31.476  32.998  1.00  0.00     0.167 HD
ATOM     48  C   UNL A   1      40.679  28.675  29.780  1.00  0.00     0.037 A 
ATOM     49  C   UNL A   1      39.873  32.546  35.565  1.00  0.00     0.037 A 
ATOM     50  C   UNL A   1      41.661  28.447  30.807  1.00  0.00     0.049 A 
ATOM     51  C   UNL A   1      40.968  31.521  35.440  1.00  0.00     0.074 A 
ATOM     52  C   UNL A   1      42.743  27.585  30.789  1.00  0.00     0.029 A 
ATOM     53  N   UNL A   1      41.678  29.086  32.038  1.00  0.00    -0.354 N 
ATOM     54  N   UNL A   1      41.267  30.749  34.424  1.00  0.00    -0.248 NA
ATOM     55  C   UNL A   1      41.846  31.345  36.605  1.00  0.00     0.031 C 
ATOM     56  C   UNL A   1      43.391  27.670  32.026  1.00  0.00     0.029 A 
ATOM     57  C   UNL A   1      42.742  28.623  32.795  1.00  0.00     0.049 A 
ATOM     58  H   UNL A   1      41.032  29.769  32.330  1.00  0.00     0.167 HD
ATOM     59  C   UNL A   1      42.381  30.019  34.813  1.00  0.00     0.074 A 
ATOM     60  C   UNL A   1      42.716  30.452  36.154  1.00  0.00     0.031 C 
ATOM     61  C   UNL A   1      43.067  29.075  34.123  1.00  0.00     0.037 A 
BRANCH  48  62
ATOM     62  C   UNL A   1      40.760  27.851  28.528  1.00  0.00     0.064 A 
ATOM     63  C   UNL A   1      40.083  26.628  28.409  1.00  0.00     0.173 A 
ATOM     64  C   UNL A   1      41.480  28.313  27.416  1.00  0.00     0.173 A 
ATOM     65  F   UNL A   1      39.390  26.136  29.446  1.00  0.00    -0.203 F 
ATOM     66  C   UNL A   1      40.143  25.887  27.230  1.00  0.00     0.198 A 
ATOM     67  C   UNL A   1      41.513  27.586  26.230  1.00  0.00     0.198 A 
ATOM     68  F   UNL A   1      42.141  29.479  27.475  1.00  0.00    -0.203 F 
ATOM     69  F   UNL A   1      39.522  24.703  27.154  1.00  0.00    -0.200 F 
ATOM     70  C   UNL A   1      40.849  26.371  26.139  1.00  0.00     0.200 A 
ATOM     71  F   UNL A   1      42.186  28.060  25.172  1.00  0.00    -0.200 F 
ATOM     72  F   UNL A   1      40.896  25.663  25.002  1.00  0.00    -0.200 F 
ENDBRANCH  48  62
BRANCH  49  73
ATOM     73  C   UNL A   1      39.705  33.330  36.818  1.00  0.00     0.064 A 
ATOM     74  C   UNL A   1      38.816  32.906  37.817  1.00  0.00     0.173 A 
ATOM     75  C   UNL A   1      40.411  34.521  37.035  1.00  0.00     0.173 A 
ATOM     76  F   UNL A   1      38.102  31.784  37.646  1.00  0.00    -0.203 F 
ATOM     77  C   UNL A   1      38.622  33.660  38.973  1.00  0.00     0.198 A 
ATOM     78  C   UNL A   1      40.238  35.257  38.204  1.00  0.00     0.198 A 
ATOM     79  F   UNL A   1      41.278  34.966  36.113  1.00  0.00    -0.203 F 
ATOM     80  F   UNL A   1      37.727  33.260  39.888  1.00  0.00    -0.200 F 
ATOM     81  C   UNL A   1      39.336  34.832  39.167  1.00  0.00     0.200 A 
ATOM     82  F   UNL A   1      40.941  36.382  38.395  1.00  0.00    -0.200 F 
ATOM     83  F   UNL A   1      39.148  35.557  40.279  1.00  0.00    -0.200 F 
ENDBRANCH  49  73
BRANCH  61  84
ATOM     84  C   UNL A   1      44.271  28.475  34.789  1.00  0.00     0.064 A 
ATOM     85  C   UNL A   1      44.186  27.296  35.543  1.00  0.00     0.173 A 
ATOM     86  C   UNL A   1      45.534  29.068  34.634  1.00  0.00     0.173 A 
ATOM     87  F   UNL A   1      42.999  26.701  35.733  1.00  0.00    -0.203 F 
ATOM     88  C   UNL A   1      45.317  26.746  36.139  1.00  0.00     0.198 A 
ATOM     89  C   UNL A   1      46.667  28.497  35.206  1.00  0.00     0.198 A 
ATOM     90  F   UNL A   1      45.671  30.192  33.916  1.00  0.00    -0.203 F 
ATOM     91  F   UNL A   1      45.205  25.644  36.894  1.00  0.00    -0.200 F 
ATOM     92  C   UNL A   1      46.557  27.342  35.963  1.00  0.00     0.200 A 
ATOM     93  F   UNL A   1      47.867  29.067  35.023  1.00  0.00    -0.200 F 
ATOM     94  F   UNL A   1      47.647  26.805  36.531  1.00  0.00    -0.200 F 
ENDBRANCH  61  84
ENDBRANCH  35  36
ENDBRANCH  27  30
ENDBRANCH  25  26
ENDBRANCH  24  25
ENDBRANCH  23  24
ENDBRANCH   1  23
TORSDOF 16
ENDMDL
MODEL 2
REMARK VINA RESULT:     -10.9      0.297      7.546
REMARK SMILES Cc1cc(N(C)C(C)C)cc(C(=O)NCCCCCCNC(=O)c2ccc(-c3c4nc(c(-c5c(F)c(F)c(F)c(F)c5F)c5ccc([nH]5)c(-c5c(F)c(F)c(F)c(F)c5F)c5nc(c(-c6c(F)c(F)c(F)c(F)c6F)c6ccc3[nH]6)C=C5)C=C4)cc2)c1N
REMARK SMILES IDX 17 1 16 2 15 3 14 4 12 5 13 6 11 8 1 9 2 10 3 11 87 12 4 13
REMARK SMILES IDX 10 14 88 15 5 18 6 19 7 20 8 21 9 22 18 23 19 24 20 25 21 26
REMARK SMILES IDX 22 27 23 29 24 30 25 31 86 32 26 33 85 34 27 35 28 36 29 37
REMARK SMILES IDX 79 38 30 39 84 40 78 41 80 42 31 43 83 44 77 45 76 46 32 48
REMARK SMILES IDX 64 49 44 50 63 51 45 52 48 53 62 54 81 55 46 56 47 57 61 59
REMARK SMILES IDX 82 60 49 61 33 62 34 63 42 64 35 65 36 66 40 67 43 68 37 69
REMARK SMILES IDX 38 70 41 71 39 72 65 73 66 74 74 75 67 76 68 77 72 78 75 79
REMARK SMILES IDX 69 80 70 81 73 82 71 83 50 84 51 85 59 86 52 87 53 88 57 89
REMARK SMILES IDX 60 90 54 91 55 92 58 93 56 94
REMARK H PARENT 14 7 88 16 88 17 21 28 80 47 48 58
REMARK Flexibility Score: inf
ROOT
ATOM      1  C   UNL A   1      34.085  30.729  27.404  1.00  0.00     0.002 C 
ENDROOT
BRANCH   1   2
ATOM      2  C   UNL A   1      34.735  29.346  27.247  1.00  0.00     0.021 C 
BRANCH   2   3
ATOM      3  C   UNL A   1      33.953  28.424  26.306  1.00  0.00     0.116 C 
BRANCH   3   4
ATOM      4  N   UNL A   1      34.193  28.823  24.936  1.00  0.00    -0.352 N 
ATOM      5  C   UNL A   1      33.517  28.623  23.759  1.00  0.00     0.253 C 
ATOM      6  O   UNL A   1      34.099  29.011  22.741  1.00  0.00    -0.269 OA
ATOM      7  H   UNL A   1      35.018  29.349  24.826  1.00  0.00     0.163 HD
BRANCH   5   8
ATOM      8  C   UNL A   1      32.134  28.043  23.658  1.00  0.00     0.065 A 
ATOM      9  C   UNL A   1      30.478  24.609  23.452  1.00  0.00     0.046 C 
ATOM     10  C   UNL A   1      30.708  26.098  23.473  1.00  0.00    -0.025 A 
ATOM     11  C   UNL A   1      29.598  26.956  23.326  1.00  0.00     0.031 A 
ATOM     12  C   UNL A   1      31.994  26.637  23.623  1.00  0.00     0.047 A 
ATOM     13  C   UNL A   1      29.690  28.351  23.352  1.00  0.00     0.038 A 
ATOM     14  C   UNL A   1      30.976  28.846  23.631  1.00  0.00     0.042 A 
BRANCH  12  15
ATOM     15  N   UNL A   1      33.105  25.787  23.583  1.00  0.00    -0.398 N 
ATOM     16  H   UNL A   1      33.552  25.601  22.725  1.00  0.00     0.156 HD
ATOM     17  H   UNL A   1      33.440  25.375  24.412  1.00  0.00     0.156 HD
ENDBRANCH  12  15
BRANCH  13  18
ATOM     18  N   UNL A   1      28.608  29.190  23.101  1.00  0.00    -0.372 N 
ATOM     19  C   UNL A   1      27.230  28.687  23.193  1.00  0.00     0.144 C 
BRANCH  18  20
ATOM     20  C   UNL A   1      28.675  30.656  22.874  1.00  0.00     0.075 C 
ATOM     21  C   UNL A   1      28.823  31.023  21.397  1.00  0.00     0.030 C 
ATOM     22  C   UNL A   1      27.589  31.427  23.617  1.00  0.00     0.030 C 
ENDBRANCH  18  20
ENDBRANCH  13  18
ENDBRANCH   5   8
ENDBRANCH   3   4
ENDBRANCH   2   3
ENDBRANCH   1   2
BRANCH   1  23
ATOM     23  C   UNL A   1      32.556  30.732  27.288  1.00  0.00     0.002 C 
BRANCH  23  24
ATOM     24  C   UNL A   1      31.915  32.122  27.296  1.00  0.00     0.021 C 
BRANCH  24  25
ATOM     25  C   UNL A   1      32.883  33.256  26.976  1.00  0.00     0.116 C 
BRANCH  25  26
ATOM     26  N   UNL A   1      32.549  34.467  27.708  1.00  0.00    -0.352 N 
ATOM     27  C   UNL A   1      33.002  34.897  28.929  1.00  0.00     0.251 C 
ATOM     28  H   UNL A   1      31.904  35.065  27.263  1.00  0.00     0.163 HD
ATOM     29  O   UNL A   1      32.441  35.818  29.511  1.00  0.00    -0.269 OA
BRANCH  27  30
ATOM     30  C   UNL A   1      34.170  34.237  29.550  1.00  0.00     0.039 A 
ATOM     31  C   UNL A   1      33.992  33.514  30.731  1.00  0.00     0.014 A 
ATOM     32  C   UNL A   1      35.441  34.355  28.980  1.00  0.00     0.014 A 
ATOM     33  C   UNL A   1      35.081  32.865  31.314  1.00  0.00     0.010 A 
ATOM     34  C   UNL A   1      36.512  33.653  29.524  1.00  0.00     0.010 A 
ATOM     35  C   UNL A   1      36.343  32.908  30.702  1.00  0.00    -0.014 A 
BRANCH  35  36
ATOM     36  C   UNL A   1      37.503  32.186  31.281  1.00  0.00     0.031 A 
ATOM     37  C   UNL A   1      38.022  32.562  32.641  1.00  0.00     0.074 A 
ATOM     38  C   UNL A   1      38.127  31.237  30.556  1.00  0.00     0.049 A 
ATOM     39  N   UNL A   1      39.066  32.107  33.285  1.00  0.00    -0.248 NA
ATOM     40  C   UNL A   1      37.284  33.612  33.363  1.00  0.00     0.031 C 
ATOM     41  C   UNL A   1      37.744  30.816  29.207  1.00  0.00     0.029 A 
ATOM     42  N   UNL A   1      39.223  30.464  30.847  1.00  0.00    -0.354 N 
ATOM     43  C   UNL A   1      39.119  32.821  34.475  1.00  0.00     0.074 A 
ATOM     44  C   UNL A   1      38.032  33.776  34.443  1.00  0.00     0.031 C 
ATOM     45  C   UNL A   1      38.579  29.850  28.795  1.00  0.00     0.029 A 
ATOM     46  C   UNL A   1      39.578  29.608  29.832  1.00  0.00     0.049 A 
ATOM     47  H   UNL A   1      39.709  30.517  31.701  1.00  0.00     0.167 HD
ATOM     48  C   UNL A   1      39.981  32.677  35.508  1.00  0.00     0.037 A 
ATOM     49  C   UNL A   1      40.600  28.736  29.747  1.00  0.00     0.037 A 
ATOM     50  C   UNL A   1      41.042  31.704  35.547  1.00  0.00     0.049 A 
ATOM     51  C   UNL A   1      41.543  28.596  30.911  1.00  0.00     0.074 A 
ATOM     52  C   UNL A   1      41.930  31.437  36.573  1.00  0.00     0.029 A 
ATOM     53  N   UNL A   1      41.355  30.837  34.510  1.00  0.00    -0.354 N 
ATOM     54  N   UNL A   1      41.542  29.230  32.058  1.00  0.00    -0.248 NA
ATOM     55  C   UNL A   1      42.627  27.614  30.770  1.00  0.00     0.031 C 
ATOM     56  C   UNL A   1      42.811  30.439  36.141  1.00  0.00     0.029 A 
ATOM     57  C   UNL A   1      42.437  30.048  34.865  1.00  0.00     0.049 A 
ATOM     58  H   UNL A   1      40.878  30.789  33.650  1.00  0.00     0.167 HD
ATOM     59  C   UNL A   1      42.599  28.704  32.787  1.00  0.00     0.074 A 
ATOM     60  C   UNL A   1      43.212  27.687  31.958  1.00  0.00     0.031 C 
ATOM     61  C   UNL A   1      43.025  29.032  34.031  1.00  0.00     0.037 A 
BRANCH  48  62
ATOM     62  C   UNL A   1      39.815  33.588  36.689  1.00  0.00     0.064 A 
ATOM     63  C   UNL A   1      40.467  34.828  36.757  1.00  0.00     0.173 A 
ATOM     64  C   UNL A   1      38.953  33.242  37.741  1.00  0.00     0.173 A 
ATOM     65  F   UNL A   1      41.310  35.202  35.784  1.00  0.00    -0.203 F 
ATOM     66  C   UNL A   1      40.280  35.678  37.845  1.00  0.00     0.198 A 
ATOM     67  C   UNL A   1      38.745  34.106  38.812  1.00  0.00     0.198 A 
ATOM     68  F   UNL A   1      38.301  32.070  37.723  1.00  0.00    -0.203 F 
ATOM     69  F   UNL A   1      40.946  36.839  37.908  1.00  0.00    -0.200 F 
ATOM     70  C   UNL A   1      39.413  35.320  38.867  1.00  0.00     0.200 A 
ATOM     71  F   UNL A   1      37.897  33.765  39.793  1.00  0.00    -0.200 F 
ATOM     72  F   UNL A   1      39.225  36.144  39.907  1.00  0.00    -0.200 F 
ENDBRANCH  48  62
BRANCH  49  73
ATOM     73  C   UNL A   1      40.775  27.910  28.523  1.00  0.00     0.064 A 
ATOM     74  C   UNL A   1      41.568  28.361  27.458  1.00  0.00     0.173 A 
ATOM     75  C   UNL A   1      40.142  26.667  28.384  1.00  0.00     0.173 A 
ATOM     76  F   UNL A   1      42.176  29.554  27.535  1.00  0.00    -0.203 F 
ATOM     77  C   UNL A   1      41.700  27.612  26.291  1.00  0.00     0.198 A 
ATOM     78  C   UNL A   1      40.299  25.904  27.229  1.00  0.00     0.198 A 
ATOM     79  F   UNL A   1      39.378  26.186  29.376  1.00  0.00    -0.203 F 
ATOM     80  F   UNL A   1      42.421  28.091  25.268  1.00  0.00    -0.200 F 
ATOM     81  C   UNL A   1      41.069  26.382  26.179  1.00  0.00     0.200 A 
ATOM     82  F   UNL A   1      39.701  24.710  27.131  1.00  0.00    -0.200 F 
ATOM     83  F   UNL A   1      41.196  25.661  25.056  1.00  0.00    -0.200 F 
ENDBRANCH  49  73
BRANCH  61  84
ATOM     84  C   UNL A   1      44.184  28.258  34.588  1.00  0.00     0.064 A 
ATOM     85  C   UNL A   1      45.506  28.703  34.444  1.00  0.00     0.173 A 
ATOM     86  C   UNL A   1      43.963  27.076  35.312  1.00  0.00     0.173 A 
ATOM     87  F   UNL A   1      45.770  29.819  33.748  1.00  0.00    -0.203 F 
ATOM     88  C   UNL A   1      46.566  27.980  34.982  1.00  0.00     0.198 A 
ATOM     89  C   UNL A   1      45.024  26.372  35.874  1.00  0.00     0.198 A 
ATOM     90  F   UNL A   1      42.717  26.611  35.485  1.00  0.00    -0.203 F 
ATOM     91  F   UNL A   1      47.825  28.399  34.791  1.00  0.00    -0.200 F 
ATOM     92  C   UNL A   1      46.324  26.820  35.703  1.00  0.00     0.200 A 
ATOM     93  F   UNL A   1      44.787  25.259  36.583  1.00  0.00    -0.200 F 
ATOM     94  F   UNL A   1      47.347  26.130  36.228  1.00  0.00    -0.200 F 
ENDBRANCH  61  84
ENDBRANCH  35  36
ENDBRANCH  27  30
ENDBRANCH  25  26
ENDBRANCH  24  25
ENDBRANCH  23  24
ENDBRANCH   1  23
TORSDOF 16
ENDMDL
MODEL 3
REMARK VINA RESULT:     -10.9      1.115      2.478
REMARK SMILES Cc1cc(N(C)C(C)C)cc(C(=O)NCCCCCCNC(=O)c2ccc(-c3c4nc(c(-c5c(F)c(F)c(F)c(F)c5F)c5ccc([nH]5)c(-c5c(F)c(F)c(F)c(F)c5F)c5nc(c(-c6c(F)c(F)c(F)c(F)c6F)c6ccc3[nH]6)C=C5)C=C4)cc2)c1N
REMARK SMILES IDX 17 1 16 2 15 3 14 4 12 5 13 6 11 8 1 9 2 10 3 11 87 12 4 13
REMARK SMILES IDX 10 14 88 15 5 18 6 19 7 20 8 21 9 22 18 23 19 24 20 25 21 26
REMARK SMILES IDX 22 27 23 29 24 30 25 31 86 32 26 33 85 34 27 35 28 36 29 37
REMARK SMILES IDX 79 38 30 39 84 40 78 41 80 42 31 43 83 44 77 45 76 46 32 48
REMARK SMILES IDX 64 49 44 50 63 51 45 52 48 53 62 54 81 55 46 56 47 57 61 59
REMARK SMILES IDX 82 60 49 61 33 62 34 63 42 64 35 65 36 66 40 67 43 68 37 69
REMARK SMILES IDX 38 70 41 71 39 72 65 73 66 74 74 75 67 76 68 77 72 78 75 79
REMARK SMILES IDX 69 80 70 81 73 82 71 83 50 84 51 85 59 86 52 87 53 88 57 89
REMARK SMILES IDX 60 90 54 91 55 92 58 93 56 94
REMARK H PARENT 14 7 88 16 88 17 21 28 80 47 48 58
REMARK Flexibility Score: inf
ROOT
ATOM      1  C   UNL A   1      32.508  30.144  27.241  1.00  0.00     0.002 C 
ENDROOT
BRANCH   1   2
ATOM      2  C   UNL A   1      32.777  28.702  26.785  1.00  0.00     0.021 C 
BRANCH   2   3
ATOM      3  C   UNL A   1      34.104  28.552  26.034  1.00  0.00     0.116 C 
BRANCH   3   4
ATOM      4  N   UNL A   1      33.920  28.944  24.654  1.00  0.00    -0.352 N 
ATOM      5  C   UNL A   1      33.234  28.399  23.598  1.00  0.00     0.253 C 
ATOM      6  O   UNL A   1      33.409  28.955  22.509  1.00  0.00    -0.269 OA
ATOM      7  H   UNL A   1      34.387  29.780  24.424  1.00  0.00     0.163 HD
BRANCH   5   8
ATOM      8  C   UNL A   1      32.269  27.252  23.709  1.00  0.00     0.065 A 
ATOM      9  C   UNL A   1      28.496  26.686  23.852  1.00  0.00     0.046 C 
ATOM     10  C   UNL A   1      29.987  26.467  23.868  1.00  0.00    -0.025 A 
ATOM     11  C   UNL A   1      30.476  25.158  24.060  1.00  0.00     0.031 A 
ATOM     12  C   UNL A   1      30.885  27.533  23.708  1.00  0.00     0.047 A 
ATOM     13  C   UNL A   1      31.837  24.834  24.070  1.00  0.00     0.038 A 
ATOM     14  C   UNL A   1      32.695  25.909  23.781  1.00  0.00     0.042 A 
BRANCH  12  15
ATOM     15  N   UNL A   1      30.399  28.845  23.703  1.00  0.00    -0.398 N 
ATOM     16  H   UNL A   1      30.406  29.370  22.870  1.00  0.00     0.156 HD
ATOM     17  H   UNL A   1      30.050  29.244  24.533  1.00  0.00     0.156 HD
ENDBRANCH  12  15
BRANCH  13  18
ATOM     18  N   UNL A   1      32.313  23.560  24.366  1.00  0.00    -0.372 N 
ATOM     19  C   UNL A   1      31.974  22.908  25.638  1.00  0.00     0.144 C 
BRANCH  18  20
ATOM     20  C   UNL A   1      33.051  22.668  23.436  1.00  0.00     0.075 C 
ATOM     21  C   UNL A   1      34.568  22.842  23.523  1.00  0.00     0.030 C 
ATOM     22  C   UNL A   1      32.571  21.221  23.486  1.00  0.00     0.030 C 
ENDBRANCH  18  20
ENDBRANCH  13  18
ENDBRANCH   5   8
ENDBRANCH   3   4
ENDBRANCH   2   3
ENDBRANCH   1   2
BRANCH   1  23
ATOM     23  C   UNL A   1      31.371  30.848  26.490  1.00  0.00     0.002 C 
BRANCH  23  24
ATOM     24  C   UNL A   1      31.424  32.377  26.534  1.00  0.00     0.021 C 
BRANCH  24  25
ATOM     25  C   UNL A   1      32.657  32.937  27.237  1.00  0.00     0.116 C 
BRANCH  25  26
ATOM     26  N   UNL A   1      32.459  34.319  27.642  1.00  0.00    -0.352 N 
ATOM     27  C   UNL A   1      33.030  35.010  28.682  1.00  0.00     0.251 C 
ATOM     28  H   UNL A   1      31.824  34.835  27.092  1.00  0.00     0.163 HD
ATOM     29  O   UNL A   1      32.576  36.094  29.031  1.00  0.00    -0.269 OA
BRANCH  27  30
ATOM     30  C   UNL A   1      34.194  34.437  29.388  1.00  0.00     0.039 A 
ATOM     31  C   UNL A   1      33.986  33.725  30.572  1.00  0.00     0.014 A 
ATOM     32  C   UNL A   1      35.489  34.625  28.897  1.00  0.00     0.014 A 
ATOM     33  C   UNL A   1      35.074  33.158  31.237  1.00  0.00     0.010 A 
ATOM     34  C   UNL A   1      36.564  34.002  29.523  1.00  0.00     0.010 A 
ATOM     35  C   UNL A   1      36.368  33.270  30.703  1.00  0.00    -0.014 A 
BRANCH  35  36
ATOM     36  C   UNL A   1      37.531  32.634  31.370  1.00  0.00     0.031 A 
ATOM     37  C   UNL A   1      38.258  31.502  30.698  1.00  0.00     0.074 A 
ATOM     38  C   UNL A   1      37.891  33.033  32.605  1.00  0.00     0.049 A 
ATOM     39  N   UNL A   1      39.244  30.767  31.148  1.00  0.00    -0.248 NA
ATOM     40  C   UNL A   1      37.796  31.126  29.352  1.00  0.00     0.031 C 
ATOM     41  C   UNL A   1      37.235  34.090  33.377  1.00  0.00     0.029 A 
ATOM     42  N   UNL A   1      38.890  32.588  33.434  1.00  0.00    -0.354 N 
ATOM     43  C   UNL A   1      39.508  29.838  30.151  1.00  0.00     0.074 A 
ATOM     44  C   UNL A   1      38.548  30.067  29.093  1.00  0.00     0.031 C 
ATOM     45  C   UNL A   1      37.859  34.224  34.558  1.00  0.00     0.029 A 
ATOM     46  C   UNL A   1      38.934  33.240  34.643  1.00  0.00     0.049 A 
ATOM     47  H   UNL A   1      39.516  31.870  33.187  1.00  0.00     0.167 HD
ATOM     48  C   UNL A   1      40.480  28.895  30.112  1.00  0.00     0.037 A 
ATOM     49  C   UNL A   1      39.744  33.056  35.702  1.00  0.00     0.037 A 
ATOM     50  C   UNL A   1      41.452  28.693  31.154  1.00  0.00     0.049 A 
ATOM     51  C   UNL A   1      40.814  32.001  35.632  1.00  0.00     0.074 A 
ATOM     52  C   UNL A   1      42.513  27.806  31.183  1.00  0.00     0.029 A 
ATOM     53  N   UNL A   1      41.479  29.390  32.353  1.00  0.00    -0.354 N 
ATOM     54  N   UNL A   1      41.098  31.173  34.656  1.00  0.00    -0.248 NA
ATOM     55  C   UNL A   1      41.683  31.859  36.809  1.00  0.00     0.031 C 
ATOM     56  C   UNL A   1      43.157  27.934  32.418  1.00  0.00     0.029 A 
ATOM     57  C   UNL A   1      42.528  28.938  33.137  1.00  0.00     0.049 A 
ATOM     58  H   UNL A   1      40.848  30.100  32.609  1.00  0.00     0.167 HD
ATOM     59  C   UNL A   1      42.193  30.437  35.085  1.00  0.00     0.074 A 
ATOM     60  C   UNL A   1      42.533  30.925  36.405  1.00  0.00     0.031 C 
ATOM     61  C   UNL A   1      42.859  29.445  34.444  1.00  0.00     0.037 A 
BRANCH  48  62
ATOM     62  C   UNL A   1      40.547  28.011  28.901  1.00  0.00     0.064 A 
ATOM     63  C   UNL A   1      39.815  26.816  28.824  1.00  0.00     0.173 A 
ATOM     64  C   UNL A   1      41.308  28.387  27.785  1.00  0.00     0.173 A 
ATOM     65  F   UNL A   1      39.080  26.405  29.868  1.00  0.00    -0.203 F 
ATOM     66  C   UNL A   1      39.863  26.019  27.682  1.00  0.00     0.198 A 
ATOM     67  C   UNL A   1      41.329  27.604  26.634  1.00  0.00     0.198 A 
ATOM     68  F   UNL A   1      42.022  29.522  27.804  1.00  0.00    -0.203 F 
ATOM     69  F   UNL A   1      39.189  24.862  27.647  1.00  0.00    -0.200 F 
ATOM     70  C   UNL A   1      40.612  26.418  26.585  1.00  0.00     0.200 A 
ATOM     71  F   UNL A   1      42.044  27.997  25.570  1.00  0.00    -0.200 F 
ATOM     72  F   UNL A   1      40.647  25.656  25.483  1.00  0.00    -0.200 F 
ENDBRANCH  48  62
BRANCH  49  73
ATOM     73  C   UNL A   1      39.589  33.902  36.915  1.00  0.00     0.064 A 
ATOM     74  C   UNL A   1      38.815  33.468  38.001  1.00  0.00     0.173 A 
ATOM     75  C   UNL A   1      40.193  35.164  37.008  1.00  0.00     0.173 A 
ATOM     76  F   UNL A   1      38.199  32.278  37.951  1.00  0.00    -0.203 F 
ATOM     77  C   UNL A   1      38.630  34.276  39.121  1.00  0.00     0.198 A 
ATOM     78  C   UNL A   1      40.033  35.957  38.141  1.00  0.00     0.198 A 
ATOM     79  F   UNL A   1      40.950  35.622  36.000  1.00  0.00    -0.203 F 
ATOM     80  F   UNL A   1      37.842  33.859  40.122  1.00  0.00    -0.200 F 
ATOM     81  C   UNL A   1      39.244  35.518  39.192  1.00  0.00     0.200 A 
ATOM     82  F   UNL A   1      40.639  37.150  38.212  1.00  0.00    -0.200 F 
ATOM     83  F   UNL A   1      39.065  36.295  40.270  1.00  0.00    -0.200 F 
ENDBRANCH  49  73
BRANCH  61  84
ATOM     84  C   UNL A   1      44.046  28.849  35.143  1.00  0.00     0.064 A 
ATOM     85  C   UNL A   1      43.922  27.734  35.985  1.00  0.00     0.173 A 
ATOM     86  C   UNL A   1      45.329  29.377  34.935  1.00  0.00     0.173 A 
ATOM     87  F   UNL A   1      42.715  27.202  36.228  1.00  0.00    -0.203 F 
ATOM     88  C   UNL A   1      45.037  27.185  36.612  1.00  0.00     0.198 A 
ATOM     89  C   UNL A   1      46.445  28.806  35.540  1.00  0.00     0.198 A 
ATOM     90  F   UNL A   1      45.502  30.439  34.134  1.00  0.00    -0.203 F 
ATOM     91  F   UNL A   1      44.889  26.149  37.449  1.00  0.00    -0.200 F 
ATOM     92  C   UNL A   1      46.297  27.716  36.383  1.00  0.00     0.200 A 
ATOM     93  F   UNL A   1      47.664  29.312  35.306  1.00  0.00    -0.200 F 
ATOM     94  F   UNL A   1      47.371  27.180  36.981  1.00  0.00    -0.200 F 
ENDBRANCH  61  84
ENDBRANCH  35  36
ENDBRANCH  27  30
ENDBRANCH  25  26
ENDBRANCH  24  25
ENDBRANCH  23  24
ENDBRANCH   1  23
TORSDOF 16
ENDMDL
