MODEL 1
REMARK VINA RESULT:     -13.5      0.000      0.000
REMARK SMILES C[C@@H]1C(C(=O)NCCCCCCNC(=O)c2ccc(-c3c4nc(c(-c5c(F)c(F)c(F)c(F)c5F)c5ccc([nH]5)c(-c5c(F)c(F)c(F)c(F)c5F)c5nc(c(-c6c(F)c(F)c(F)c(F)c6F)c6ccc3[nH]6)C=C5)C=C4)cc2)=NC2=C1C(=O)C[C@H](c1ccccc1)C2
REMARK SMILES IDX 10 1 9 2 8 3 7 4 6 5 4 6 5 7 3 9 1 10 2 11 81 12 79 13 80 14
REMARK SMILES IDX 82 15 92 16 83 17 84 18 85 19 86 20 87 21 91 22 88 23 90 24
REMARK SMILES IDX 89 25 11 26 12 27 13 28 14 29 15 31 16 32 17 33 78 34 18 35
REMARK SMILES IDX 77 36 19 37 20 38 21 39 71 40 22 41 76 42 70 43 72 44 23 45
REMARK SMILES IDX 75 46 69 47 68 48 24 50 56 51 36 52 55 53 37 54 40 55 54 56
REMARK SMILES IDX 73 57 38 58 39 59 53 61 74 62 41 63 25 64 26 65 34 66 27 67
REMARK SMILES IDX 28 68 32 69 35 70 29 71 30 72 33 73 31 74 57 75 58 76 66 77
REMARK SMILES IDX 59 78 60 79 64 80 67 81 61 82 62 83 65 84 63 85 42 86 43 87
REMARK SMILES IDX 51 88 44 89 45 90 49 91 52 92 46 93 47 94 50 95 48 96
REMARK H PARENT 6 8 13 30 72 49 40 60
REMARK Flexibility Score: inf
ROOT
ATOM      1  C   UNL A   1      38.023  23.208  25.910  1.00  0.00     0.002 C 
ENDROOT
BRANCH   1   2
ATOM      2  C   UNL A   1      36.794  23.537  25.056  1.00  0.00     0.002 C 
BRANCH   2   3
ATOM      3  C   UNL A   1      35.420  23.624  25.716  1.00  0.00     0.021 C 
BRANCH   3   4
ATOM      4  C   UNL A   1      34.482  24.788  25.400  1.00  0.00     0.116 C 
BRANCH   4   5
ATOM      5  N   UNL A   1      33.448  25.130  26.355  1.00  0.00    -0.351 N 
ATOM      6  C   UNL A   1      32.075  25.225  26.154  1.00  0.00     0.266 C 
ATOM      7  O   UNL A   1      31.321  25.148  27.118  1.00  0.00    -0.268 OA
ATOM      8  H   UNL A   1      33.760  25.322  27.269  1.00  0.00     0.163 HD
BRANCH   6   9
ATOM      9  C   UNL A   1      31.485  25.582  24.785  1.00  0.00     0.113 C 
ATOM     10  C   UNL A   1      30.560  23.929  23.152  1.00  0.00     0.020 C 
ATOM     11  C   UNL A   1      31.753  24.805  23.522  1.00  0.00     0.076 C 
ATOM     12  C   UNL A   1      31.799  26.059  22.714  1.00  0.00     0.026 C 
ATOM     13  N   UNL A   1      30.792  26.680  24.602  1.00  0.00    -0.251 NA
ATOM     14  C   UNL A   1      31.027  26.994  23.279  1.00  0.00     0.049 C 
ATOM     15  C   UNL A   1      33.027  26.554  22.058  1.00  0.00     0.161 C 
ATOM     16  C   UNL A   1      31.094  28.424  22.831  1.00  0.00     0.065 C 
ATOM     17  O   UNL A   1      33.715  25.763  21.413  1.00  0.00    -0.294 OA
ATOM     18  C   UNL A   1      33.489  28.005  22.307  1.00  0.00     0.089 C 
ATOM     19  C   UNL A   1      32.521  28.931  23.118  1.00  0.00     0.033 C 
BRANCH  19  20
ATOM     20  C   UNL A   1      32.807  29.100  24.625  1.00  0.00    -0.044 A 
ATOM     21  C   UNL A   1      33.902  28.446  25.232  1.00  0.00     0.004 A 
ATOM     22  C   UNL A   1      32.002  29.880  25.464  1.00  0.00     0.004 A 
ATOM     23  C   UNL A   1      34.274  28.688  26.555  1.00  0.00     0.000 A 
ATOM     24  C   UNL A   1      32.357  30.102  26.804  1.00  0.00     0.000 A 
ATOM     25  C   UNL A   1      33.509  29.535  27.339  1.00  0.00     0.000 A 
ENDBRANCH  19  20
ENDBRANCH   6   9
ENDBRANCH   4   5
ENDBRANCH   3   4
ENDBRANCH   2   3
ENDBRANCH   1   2
BRANCH   1  26
ATOM     26  C   UNL A   1      38.674  21.825  25.786  1.00  0.00     0.021 C 
BRANCH  26  27
ATOM     27  C   UNL A   1      39.853  21.555  26.708  1.00  0.00     0.116 C 
BRANCH  27  28
ATOM     28  N   UNL A   1      41.164  21.580  26.051  1.00  0.00    -0.352 N 
ATOM     29  C   UNL A   1      42.002  22.676  25.866  1.00  0.00     0.251 C 
ATOM     30  H   UNL A   1      41.490  20.719  25.700  1.00  0.00     0.163 HD
ATOM     31  O   UNL A   1      42.864  22.685  25.008  1.00  0.00    -0.269 OA
BRANCH  29  32
ATOM     32  C   UNL A   1      41.821  23.841  26.754  1.00  0.00     0.039 A 
ATOM     33  C   UNL A   1      42.446  23.953  27.999  1.00  0.00     0.014 A 
ATOM     34  C   UNL A   1      41.030  24.871  26.265  1.00  0.00     0.014 A 
ATOM     35  C   UNL A   1      42.329  25.155  28.698  1.00  0.00     0.010 A 
ATOM     36  C   UNL A   1      41.128  26.112  26.824  1.00  0.00     0.010 A 
ATOM     37  C   UNL A   1      41.680  26.240  28.088  1.00  0.00    -0.014 A 
BRANCH  37  38
ATOM     38  C   UNL A   1      41.601  27.552  28.715  1.00  0.00     0.031 A 
ATOM     39  C   UNL A   1      42.669  28.507  28.325  1.00  0.00     0.074 A 
ATOM     40  C   UNL A   1      40.518  27.949  29.421  1.00  0.00     0.049 A 
ATOM     41  N   UNL A   1      43.584  29.010  29.084  1.00  0.00    -0.248 NA
ATOM     42  C   UNL A   1      42.815  28.860  26.904  1.00  0.00     0.031 C 
ATOM     43  C   UNL A   1      39.242  27.252  29.640  1.00  0.00     0.029 A 
ATOM     44  N   UNL A   1      40.292  29.150  30.014  1.00  0.00    -0.354 N 
ATOM     45  C   UNL A   1      44.316  29.885  28.287  1.00  0.00     0.074 A 
ATOM     46  C   UNL A   1      43.906  29.630  26.931  1.00  0.00     0.031 C 
ATOM     47  C   UNL A   1      38.312  28.127  30.080  1.00  0.00     0.029 A 
ATOM     48  C   UNL A   1      38.966  29.391  30.350  1.00  0.00     0.049 A 
ATOM     49  H   UNL A   1      41.012  29.797  30.191  1.00  0.00     0.167 HD
ATOM     50  C   UNL A   1      45.034  30.901  28.841  1.00  0.00     0.037 A 
ATOM     51  C   UNL A   1      38.452  30.567  30.786  1.00  0.00     0.037 A 
ATOM     52  C   UNL A   1      45.232  30.687  30.254  1.00  0.00     0.049 A 
ATOM     53  C   UNL A   1      39.591  31.367  31.308  1.00  0.00     0.074 A 
ATOM     54  C   UNL A   1      45.807  29.676  31.002  1.00  0.00     0.029 A 
ATOM     55  N   UNL A   1      44.447  31.390  31.138  1.00  0.00    -0.354 N 
ATOM     56  N   UNL A   1      40.270  31.041  32.376  1.00  0.00    -0.248 NA
ATOM     57  C   UNL A   1      40.285  32.235  30.367  1.00  0.00     0.031 C 
ATOM     58  C   UNL A   1      44.932  29.506  32.116  1.00  0.00     0.029 A 
ATOM     59  C   UNL A   1      43.935  30.477  32.025  1.00  0.00     0.049 A 
ATOM     60  H   UNL A   1      44.284  32.362  31.135  1.00  0.00     0.167 HD
ATOM     61  C   UNL A   1      41.592  31.292  32.044  1.00  0.00     0.074 A 
ATOM     62  C   UNL A   1      41.535  32.091  30.819  1.00  0.00     0.031 C 
ATOM     63  C   UNL A   1      42.617  30.586  32.606  1.00  0.00     0.037 A 
BRANCH  50  64
ATOM     64  C   UNL A   1      45.243  32.252  28.202  1.00  0.00     0.064 A 
ATOM     65  C   UNL A   1      44.120  33.060  27.928  1.00  0.00     0.173 A 
ATOM     66  C   UNL A   1      46.443  32.648  27.576  1.00  0.00     0.173 A 
ATOM     67  F   UNL A   1      42.923  32.771  28.463  1.00  0.00    -0.203 F 
ATOM     68  C   UNL A   1      44.177  34.121  27.020  1.00  0.00     0.198 A 
ATOM     69  C   UNL A   1      46.508  33.741  26.713  1.00  0.00     0.198 A 
ATOM     70  F   UNL A   1      47.569  31.933  27.674  1.00  0.00    -0.203 F 
ATOM     71  F   UNL A   1      43.054  34.771  26.687  1.00  0.00    -0.200 F 
ATOM     72  C   UNL A   1      45.369  34.454  26.406  1.00  0.00     0.200 A 
ATOM     73  F   UNL A   1      47.670  34.038  26.115  1.00  0.00    -0.200 F 
ATOM     74  F   UNL A   1      45.413  35.425  25.484  1.00  0.00    -0.200 F 
ENDBRANCH  50  64
BRANCH  51  75
ATOM     75  C   UNL A   1      37.122  31.148  30.476  1.00  0.00     0.064 A 
ATOM     76  C   UNL A   1      36.231  31.502  31.501  1.00  0.00     0.173 A 
ATOM     77  C   UNL A   1      36.805  31.618  29.185  1.00  0.00     0.173 A 
ATOM     78  F   UNL A   1      36.477  31.132  32.766  1.00  0.00    -0.203 F 
ATOM     79  C   UNL A   1      35.106  32.300  31.255  1.00  0.00     0.198 A 
ATOM     80  C   UNL A   1      35.680  32.407  28.939  1.00  0.00     0.198 A 
ATOM     81  F   UNL A   1      37.627  31.399  28.149  1.00  0.00    -0.203 F 
ATOM     82  F   UNL A   1      34.311  32.666  32.270  1.00  0.00    -0.200 F 
ATOM     83  C   UNL A   1      34.838  32.760  29.976  1.00  0.00     0.200 A 
ATOM     84  F   UNL A   1      35.449  32.870  27.702  1.00  0.00    -0.200 F 
ATOM     85  F   UNL A   1      33.795  33.572  29.750  1.00  0.00    -0.200 F 
ENDBRANCH  51  75
BRANCH  63  86
ATOM     86  C   UNL A   1      42.312  29.667  33.759  1.00  0.00     0.064 A 
ATOM     87  C   UNL A   1      41.900  28.330  33.615  1.00  0.00     0.173 A 
ATOM     88  C   UNL A   1      42.616  30.105  35.055  1.00  0.00     0.173 A 
ATOM     89  F   UNL A   1      41.691  27.797  32.406  1.00  0.00    -0.203 F 
ATOM     90  C   UNL A   1      41.761  27.489  34.719  1.00  0.00     0.198 A 
ATOM     91  C   UNL A   1      42.512  29.253  36.151  1.00  0.00     0.198 A 
ATOM     92  F   UNL A   1      43.069  31.353  35.253  1.00  0.00    -0.203 F 
ATOM     93  F   UNL A   1      41.360  26.219  34.550  1.00  0.00    -0.200 F 
ATOM     94  C   UNL A   1      42.075  27.949  35.986  1.00  0.00     0.200 A 
ATOM     95  F   UNL A   1      42.867  29.689  37.369  1.00  0.00    -0.200 F 
ATOM     96  F   UNL A   1      41.985  27.129  37.042  1.00  0.00    -0.200 F 
ENDBRANCH  63  86
ENDBRANCH  37  38
ENDBRANCH  29  32
ENDBRANCH  27  28
ENDBRANCH  26  27
ENDBRANCH   1  26
TORSDOF 14
ENDMDL
MODEL 2
REMARK VINA RESULT:     -13.4      0.614      1.359
REMARK SMILES C[C@@H]1C(C(=O)NCCCCCCNC(=O)c2ccc(-c3c4nc(c(-c5c(F)c(F)c(F)c(F)c5F)c5ccc([nH]5)c(-c5c(F)c(F)c(F)c(F)c5F)c5nc(c(-c6c(F)c(F)c(F)c(F)c6F)c6ccc3[nH]6)C=C5)C=C4)cc2)=NC2=C1C(=O)C[C@H](c1ccccc1)C2
REMARK SMILES IDX 10 1 9 2 8 3 7 4 6 5 4 6 5 7 3 9 1 10 2 11 81 12 79 13 80 14
REMARK SMILES IDX 82 15 92 16 83 17 84 18 85 19 86 20 87 21 91 22 88 23 90 24
REMARK SMILES IDX 89 25 11 26 12 27 13 28 14 29 15 31 16 32 17 33 78 34 18 35
REMARK SMILES IDX 77 36 19 37 20 38 21 39 71 40 22 41 76 42 70 43 72 44 23 45
REMARK SMILES IDX 75 46 69 47 68 48 24 50 56 51 36 52 55 53 37 54 40 55 54 56
REMARK SMILES IDX 73 57 38 58 39 59 53 61 74 62 41 63 25 64 26 65 34 66 27 67
REMARK SMILES IDX 28 68 32 69 35 70 29 71 30 72 33 73 31 74 57 75 58 76 66 77
REMARK SMILES IDX 59 78 60 79 64 80 67 81 61 82 62 83 65 84 63 85 42 86 43 87
REMARK SMILES IDX 51 88 44 89 45 90 49 91 52 92 46 93 47 94 50 95 48 96
REMARK H PARENT 6 8 13 30 72 49 40 60
REMARK Flexibility Score: inf
ROOT
ATOM      1  C   UNL A   1      38.030  23.293  26.178  1.00  0.00     0.002 C 
ENDROOT
BRANCH   1   2
ATOM      2  C   UNL A   1      36.941  23.721  25.189  1.00  0.00     0.002 C 
BRANCH   2   3
ATOM      3  C   UNL A   1      35.472  23.624  25.596  1.00  0.00     0.021 C 
BRANCH   3   4
ATOM      4  C   UNL A   1      34.510  24.773  25.302  1.00  0.00     0.116 C 
BRANCH   4   5
ATOM      5  N   UNL A   1      33.498  25.106  26.283  1.00  0.00    -0.351 N 
ATOM      6  C   UNL A   1      32.122  25.210  26.113  1.00  0.00     0.266 C 
ATOM      7  O   UNL A   1      31.388  25.122  27.092  1.00  0.00    -0.268 OA
ATOM      8  H   UNL A   1      33.830  25.282  27.193  1.00  0.00     0.163 HD
BRANCH   6   9
ATOM      9  C   UNL A   1      31.504  25.590  24.762  1.00  0.00     0.113 C 
ATOM     10  C   UNL A   1      30.523  23.966  23.132  1.00  0.00     0.020 C 
ATOM     11  C   UNL A   1      31.735  24.825  23.485  1.00  0.00     0.076 C 
ATOM     12  C   UNL A   1      31.776  26.088  22.691  1.00  0.00     0.026 C 
ATOM     13  N   UNL A   1      30.820  26.698  24.608  1.00  0.00    -0.251 NA
ATOM     14  C   UNL A   1      31.028  27.025  23.284  1.00  0.00     0.049 C 
ATOM     15  C   UNL A   1      32.994  26.577  22.011  1.00  0.00     0.161 C 
ATOM     16  C   UNL A   1      31.101  28.459  22.851  1.00  0.00     0.065 C 
ATOM     17  O   UNL A   1      33.658  25.786  21.341  1.00  0.00    -0.294 OA
ATOM     18  C   UNL A   1      33.478  28.019  22.267  1.00  0.00     0.089 C 
ATOM     19  C   UNL A   1      32.540  28.947  23.110  1.00  0.00     0.033 C 
BRANCH  19  20
ATOM     20  C   UNL A   1      32.863  29.094  24.613  1.00  0.00    -0.044 A 
ATOM     21  C   UNL A   1      32.048  29.884  25.454  1.00  0.00     0.004 A 
ATOM     22  C   UNL A   1      33.970  28.480  25.211  1.00  0.00     0.004 A 
ATOM     23  C   UNL A   1      32.225  29.924  26.838  1.00  0.00     0.000 A 
ATOM     24  C   UNL A   1      34.168  28.542  26.600  1.00  0.00     0.000 A 
ATOM     25  C   UNL A   1      33.278  29.235  27.415  1.00  0.00     0.000 A 
ENDBRANCH  19  20
ENDBRANCH   6   9
ENDBRANCH   4   5
ENDBRANCH   3   4
ENDBRANCH   2   3
ENDBRANCH   1   2
BRANCH   1  26
ATOM     26  C   UNL A   1      38.846  22.026  25.893  1.00  0.00     0.021 C 
BRANCH  26  27
ATOM     27  C   UNL A   1      40.071  21.808  26.768  1.00  0.00     0.116 C 
BRANCH  27  28
ATOM     28  N   UNL A   1      41.354  21.923  26.067  1.00  0.00    -0.352 N 
ATOM     29  C   UNL A   1      42.097  23.077  25.837  1.00  0.00     0.251 C 
ATOM     30  H   UNL A   1      41.734  21.084  25.718  1.00  0.00     0.163 HD
ATOM     31  O   UNL A   1      42.928  23.137  24.950  1.00  0.00    -0.269 OA
BRANCH  29  32
ATOM     32  C   UNL A   1      41.856  24.240  26.713  1.00  0.00     0.039 A 
ATOM     33  C   UNL A   1      42.442  24.378  27.974  1.00  0.00     0.014 A 
ATOM     34  C   UNL A   1      41.047  25.242  26.197  1.00  0.00     0.014 A 
ATOM     35  C   UNL A   1      42.268  25.579  28.663  1.00  0.00     0.010 A 
ATOM     36  C   UNL A   1      41.090  26.489  26.751  1.00  0.00     0.010 A 
ATOM     37  C   UNL A   1      41.603  26.640  28.029  1.00  0.00    -0.014 A 
BRANCH  37  38
ATOM     38  C   UNL A   1      41.466  27.952  28.647  1.00  0.00     0.031 A 
ATOM     39  C   UNL A   1      42.491  28.950  28.249  1.00  0.00     0.074 A 
ATOM     40  C   UNL A   1      40.365  28.306  29.349  1.00  0.00     0.049 A 
ATOM     41  N   UNL A   1      43.383  29.498  29.006  1.00  0.00    -0.248 NA
ATOM     42  C   UNL A   1      42.623  29.298  26.826  1.00  0.00     0.031 C 
ATOM     43  C   UNL A   1      39.122  27.555  29.572  1.00  0.00     0.029 A 
ATOM     44  N   UNL A   1      40.086  29.500  29.933  1.00  0.00    -0.354 N 
ATOM     45  C   UNL A   1      44.076  30.399  28.202  1.00  0.00     0.074 A 
ATOM     46  C   UNL A   1      43.678  30.116  26.848  1.00  0.00     0.031 C 
ATOM     47  C   UNL A   1      38.154  28.392  30.005  1.00  0.00     0.029 A 
ATOM     48  C   UNL A   1      38.752  29.685  30.266  1.00  0.00     0.049 A 
ATOM     49  H   UNL A   1      40.777  30.180  30.105  1.00  0.00     0.167 HD
ATOM     50  C   UNL A   1      44.748  31.450  28.749  1.00  0.00     0.037 A 
ATOM     51  C   UNL A   1      38.185  30.840  30.693  1.00  0.00     0.037 A 
ATOM     52  C   UNL A   1      44.954  31.255  30.164  1.00  0.00     0.049 A 
ATOM     53  C   UNL A   1      39.288  31.694  31.210  1.00  0.00     0.074 A 
ATOM     54  C   UNL A   1      45.572  30.276  30.919  1.00  0.00     0.029 A 
ATOM     55  N   UNL A   1      44.138  31.930  31.042  1.00  0.00    -0.354 N 
ATOM     56  N   UNL A   1      39.980  31.405  32.281  1.00  0.00    -0.248 NA
ATOM     57  C   UNL A   1      39.944  32.584  30.263  1.00  0.00     0.031 C 
ATOM     58  C   UNL A   1      44.705  30.075  32.034  1.00  0.00     0.029 A 
ATOM     59  C   UNL A   1      43.666  31.001  31.936  1.00  0.00     0.049 A 
ATOM     60  H   UNL A   1      43.933  32.893  31.031  1.00  0.00     0.167 HD
ATOM     61  C   UNL A   1      41.290  31.712  31.947  1.00  0.00     0.074 A 
ATOM     62  C   UNL A   1      41.199  32.499  30.717  1.00  0.00     0.031 C 
ATOM     63  C   UNL A   1      42.344  31.056  32.515  1.00  0.00     0.037 A 
BRANCH  50  64
ATOM     64  C   UNL A   1      44.897  32.804  28.101  1.00  0.00     0.064 A 
ATOM     65  C   UNL A   1      46.173  33.217  27.665  1.00  0.00     0.173 A 
ATOM     66  C   UNL A   1      43.921  33.820  28.171  1.00  0.00     0.173 A 
ATOM     67  F   UNL A   1      47.181  32.336  27.569  1.00  0.00    -0.203 F 
ATOM     68  C   UNL A   1      46.469  34.559  27.413  1.00  0.00     0.198 A 
ATOM     69  C   UNL A   1      44.207  35.150  27.867  1.00  0.00     0.198 A 
ATOM     70  F   UNL A   1      42.691  33.597  28.646  1.00  0.00    -0.203 F 
ATOM     71  F   UNL A   1      47.729  34.921  27.135  1.00  0.00    -0.200 F 
ATOM     72  C   UNL A   1      45.487  35.526  27.524  1.00  0.00     0.200 A 
ATOM     73  F   UNL A   1      43.245  36.075  27.995  1.00  0.00    -0.200 F 
ATOM     74  F   UNL A   1      45.784  36.821  27.351  1.00  0.00    -0.200 F 
ENDBRANCH  50  64
BRANCH  51  75
ATOM     75  C   UNL A   1      36.832  31.360  30.378  1.00  0.00     0.064 A 
ATOM     76  C   UNL A   1      36.060  32.009  31.356  1.00  0.00     0.173 A 
ATOM     77  C   UNL A   1      36.375  31.473  29.048  1.00  0.00     0.173 A 
ATOM     78  F   UNL A   1      36.443  31.987  32.640  1.00  0.00    -0.203 F 
ATOM     79  C   UNL A   1      34.918  32.747  31.021  1.00  0.00     0.198 A 
ATOM     80  C   UNL A   1      35.233  32.203  28.717  1.00  0.00     0.198 A 
ATOM     81  F   UNL A   1      37.077  30.953  28.032  1.00  0.00    -0.203 F 
ATOM     82  F   UNL A   1      34.242  33.401  31.975  1.00  0.00    -0.200 F 
ATOM     83  C   UNL A   1      34.512  32.852  29.701  1.00  0.00     0.200 A 
ATOM     84  F   UNL A   1      34.868  32.320  27.432  1.00  0.00    -0.200 F 
ATOM     85  F   UNL A   1      33.453  33.606  29.373  1.00  0.00    -0.200 F 
ENDBRANCH  51  75
BRANCH  63  86
ATOM     86  C   UNL A   1      42.079  30.133  33.675  1.00  0.00     0.064 A 
ATOM     87  C   UNL A   1      41.750  28.772  33.541  1.00  0.00     0.173 A 
ATOM     88  C   UNL A   1      42.338  30.602  34.969  1.00  0.00     0.173 A 
ATOM     89  F   UNL A   1      41.590  28.214  32.336  1.00  0.00    -0.203 F 
ATOM     90  C   UNL A   1      41.646  27.937  34.653  1.00  0.00     0.198 A 
ATOM     91  C   UNL A   1      42.271  29.758  36.074  1.00  0.00     0.198 A 
ATOM     92  F   UNL A   1      42.713  31.877  35.158  1.00  0.00    -0.203 F 
ATOM     93  F   UNL A   1      41.325  26.643  34.494  1.00  0.00    -0.200 F 
ATOM     94  C   UNL A   1      41.915  28.428  35.918  1.00  0.00     0.200 A 
ATOM     95  F   UNL A   1      42.582  30.228  37.291  1.00  0.00    -0.200 F 
ATOM     96  F   UNL A   1      41.860  27.616  36.983  1.00  0.00    -0.200 F 
ENDBRANCH  63  86
ENDBRANCH  37  38
ENDBRANCH  29  32
ENDBRANCH  27  28
ENDBRANCH  26  27
ENDBRANCH   1  26
TORSDOF 14
ENDMDL
MODEL 3
REMARK VINA RESULT:     -13.3      2.491      3.904
REMARK SMILES C[C@@H]1C(C(=O)NCCCCCCNC(=O)c2ccc(-c3c4nc(c(-c5c(F)c(F)c(F)c(F)c5F)c5ccc([nH]5)c(-c5c(F)c(F)c(F)c(F)c5F)c5nc(c(-c6c(F)c(F)c(F)c(F)c6F)c6ccc3[nH]6)C=C5)C=C4)cc2)=NC2=C1C(=O)C[C@H](c1ccccc1)C2
REMARK SMILES IDX 10 1 9 2 8 3 7 4 6 5 4 6 5 7 3 9 1 10 2 11 81 12 79 13 80 14
REMARK SMILES IDX 82 15 92 16 83 17 84 18 85 19 86 20 87 21 91 22 88 23 90 24
REMARK SMILES IDX 89 25 11 26 12 27 13 28 14 29 15 31 16 32 17 33 78 34 18 35
REMARK SMILES IDX 77 36 19 37 20 38 21 39 71 40 22 41 76 42 70 43 72 44 23 45
REMARK SMILES IDX 75 46 69 47 68 48 24 50 56 51 36 52 55 53 37 54 40 55 54 56
REMARK SMILES IDX 73 57 38 58 39 59 53 61 74 62 41 63 25 64 26 65 34 66 27 67
REMARK SMILES IDX 28 68 32 69 35 70 29 71 30 72 33 73 31 74 57 75 58 76 66 77
REMARK SMILES IDX 59 78 60 79 64 80 67 81 61 82 62 83 65 84 63 85 42 86 43 87
REMARK SMILES IDX 51 88 44 89 45 90 49 91 52 92 46 93 47 94 50 95 48 96
REMARK H PARENT 6 8 13 30 72 49 40 60
REMARK Flexibility Score: inf
ROOT
ATOM      1  C   UNL A   1      41.068  21.268  27.625  1.00  0.00     0.002 C 
ENDROOT
BRANCH   1   2
ATOM      2  C   UNL A   1      40.416  22.107  26.521  1.00  0.00     0.002 C 
BRANCH   2   3
ATOM      3  C   UNL A   1      38.933  21.921  26.211  1.00  0.00     0.021 C 
BRANCH   3   4
ATOM      4  C   UNL A   1      38.036  23.132  25.963  1.00  0.00     0.116 C 
BRANCH   4   5
ATOM      5  N   UNL A   1      37.533  23.368  24.626  1.00  0.00    -0.351 N 
ATOM      6  C   UNL A   1      36.220  23.325  24.169  1.00  0.00     0.266 C 
ATOM      7  O   UNL A   1      35.925  23.909  23.131  1.00  0.00    -0.268 OA
ATOM      8  H   UNL A   1      38.213  23.588  23.949  1.00  0.00     0.163 HD
BRANCH   6   9
ATOM      9  C   UNL A   1      35.164  22.439  24.840  1.00  0.00     0.113 C 
ATOM     10  C   UNL A   1      35.281  19.946  25.000  1.00  0.00     0.020 C 
ATOM     11  C   UNL A   1      34.669  21.136  24.267  1.00  0.00     0.076 C 
ATOM     12  C   UNL A   1      33.277  21.419  24.725  1.00  0.00     0.026 C 
ATOM     13  N   UNL A   1      34.524  22.830  25.916  1.00  0.00    -0.251 NA
ATOM     14  C   UNL A   1      33.303  22.195  25.815  1.00  0.00     0.049 C 
ATOM     15  C   UNL A   1      32.153  21.660  23.797  1.00  0.00     0.161 C 
ATOM     16  C   UNL A   1      32.054  22.848  26.328  1.00  0.00     0.065 C 
ATOM     17  O   UNL A   1      31.999  20.900  22.841  1.00  0.00    -0.294 OA
ATOM     18  C   UNL A   1      31.288  22.926  23.964  1.00  0.00     0.089 C 
ATOM     19  C   UNL A   1      31.551  23.807  25.232  1.00  0.00     0.033 C 
BRANCH  19  20
ATOM     20  C   UNL A   1      32.458  25.044  25.053  1.00  0.00    -0.044 A 
ATOM     21  C   UNL A   1      32.952  25.401  23.779  1.00  0.00     0.004 A 
ATOM     22  C   UNL A   1      32.850  25.854  26.126  1.00  0.00     0.004 A 
ATOM     23  C   UNL A   1      33.652  26.588  23.558  1.00  0.00     0.000 A 
ATOM     24  C   UNL A   1      33.580  27.034  25.911  1.00  0.00     0.000 A 
ATOM     25  C   UNL A   1      33.951  27.418  24.626  1.00  0.00     0.000 A 
ENDBRANCH  19  20
ENDBRANCH   6   9
ENDBRANCH   4   5
ENDBRANCH   3   4
ENDBRANCH   2   3
ENDBRANCH   1   2
BRANCH   1  26
ATOM     26  C   UNL A   1      41.998  20.112  27.238  1.00  0.00     0.021 C 
BRANCH  26  27
ATOM     27  C   UNL A   1      42.116  19.817  25.751  1.00  0.00     0.116 C 
BRANCH  27  28
ATOM     28  N   UNL A   1      43.478  19.528  25.289  1.00  0.00    -0.352 N 
ATOM     29  C   UNL A   1      44.445  20.437  24.871  1.00  0.00     0.251 C 
ATOM     30  H   UNL A   1      43.738  18.578  25.273  1.00  0.00     0.163 HD
ATOM     31  O   UNL A   1      45.380  20.100  24.170  1.00  0.00    -0.269 OA
BRANCH  29  32
ATOM     32  C   UNL A   1      44.312  21.839  25.314  1.00  0.00     0.039 A 
ATOM     33  C   UNL A   1      43.460  22.756  24.692  1.00  0.00     0.014 A 
ATOM     34  C   UNL A   1      45.045  22.204  26.434  1.00  0.00     0.014 A 
ATOM     35  C   UNL A   1      43.295  24.014  25.273  1.00  0.00     0.010 A 
ATOM     36  C   UNL A   1      44.692  23.324  27.129  1.00  0.00     0.010 A 
ATOM     37  C   UNL A   1      43.905  24.280  26.509  1.00  0.00    -0.014 A 
BRANCH  37  38
ATOM     38  C   UNL A   1      43.703  25.535  27.221  1.00  0.00     0.031 A 
ATOM     39  C   UNL A   1      44.633  26.632  26.849  1.00  0.00     0.074 A 
ATOM     40  C   UNL A   1      42.616  25.757  27.994  1.00  0.00     0.049 A 
ATOM     41  N   UNL A   1      45.517  27.196  27.602  1.00  0.00    -0.248 NA
ATOM     42  C   UNL A   1      44.668  27.082  25.449  1.00  0.00     0.031 C 
ATOM     43  C   UNL A   1      41.443  24.901  28.219  1.00  0.00     0.029 A 
ATOM     44  N   UNL A   1      42.279  26.886  28.670  1.00  0.00    -0.354 N 
ATOM     45  C   UNL A   1      46.103  28.197  26.833  1.00  0.00     0.074 A 
ATOM     46  C   UNL A   1      45.661  27.974  25.481  1.00  0.00     0.031 C 
ATOM     47  C   UNL A   1      40.439  25.631  28.751  1.00  0.00     0.029 A 
ATOM     48  C   UNL A   1      40.952  26.947  29.075  1.00  0.00     0.049 A 
ATOM     49  H   UNL A   1      42.926  27.603  28.859  1.00  0.00     0.167 HD
ATOM     50  C   UNL A   1      46.723  29.258  27.421  1.00  0.00     0.037 A 
ATOM     51  C   UNL A   1      40.325  28.025  29.605  1.00  0.00     0.037 A 
ATOM     52  C   UNL A   1      47.011  28.987  28.808  1.00  0.00     0.049 A 
ATOM     53  C   UNL A   1      41.387  28.924  30.131  1.00  0.00     0.074 A 
ATOM     54  C   UNL A   1      47.735  28.011  29.466  1.00  0.00     0.029 A 
ATOM     55  N   UNL A   1      46.192  29.539  29.766  1.00  0.00    -0.354 N 
ATOM     56  N   UNL A   1      42.149  28.619  31.147  1.00  0.00    -0.248 NA
ATOM     57  C   UNL A   1      41.929  29.922  29.219  1.00  0.00     0.031 C 
ATOM     58  C   UNL A   1      46.941  27.672  30.602  1.00  0.00     0.029 A 
ATOM     59  C   UNL A   1      45.834  28.520  30.613  1.00  0.00     0.049 A 
ATOM     60  H   UNL A   1      45.917  30.482  29.831  1.00  0.00     0.167 HD
ATOM     61  C   UNL A   1      43.415  29.046  30.778  1.00  0.00     0.074 A 
ATOM     62  C   UNL A   1      43.207  29.903  29.611  1.00  0.00     0.031 C 
ATOM     63  C   UNL A   1      44.542  28.436  31.253  1.00  0.00     0.037 A 
BRANCH  50  64
ATOM     64  C   UNL A   1      46.741  30.660  26.862  1.00  0.00     0.064 A 
ATOM     65  C   UNL A   1      47.948  31.388  26.881  1.00  0.00     0.173 A 
ATOM     66  C   UNL A   1      45.579  31.415  26.600  1.00  0.00     0.173 A 
ATOM     67  F   UNL A   1      49.114  30.773  27.129  1.00  0.00    -0.203 F 
ATOM     68  C   UNL A   1      47.973  32.779  26.744  1.00  0.00     0.198 A 
ATOM     69  C   UNL A   1      45.615  32.796  26.411  1.00  0.00     0.198 A 
ATOM     70  F   UNL A   1      44.355  30.878  26.633  1.00  0.00    -0.203 F 
ATOM     71  F   UNL A   1      49.127  33.441  26.907  1.00  0.00    -0.200 F 
ATOM     72  C   UNL A   1      46.805  33.482  26.519  1.00  0.00     0.200 A 
ATOM     73  F   UNL A   1      44.469  33.462  26.209  1.00  0.00    -0.200 F 
ATOM     74  F   UNL A   1      46.817  34.820  26.457  1.00  0.00    -0.200 F 
ENDBRANCH  50  64
BRANCH  51  75
ATOM     75  C   UNL A   1      38.923  28.460  29.387  1.00  0.00     0.064 A 
ATOM     76  C   UNL A   1      38.054  28.671  30.469  1.00  0.00     0.173 A 
ATOM     77  C   UNL A   1      38.485  28.938  28.134  1.00  0.00     0.173 A 
ATOM     78  F   UNL A   1      38.409  28.285  31.703  1.00  0.00    -0.203 F 
ATOM     79  C   UNL A   1      36.835  29.341  30.313  1.00  0.00     0.198 A 
ATOM     80  C   UNL A   1      37.266  29.600  27.979  1.00  0.00     0.198 A 
ATOM     81  F   UNL A   1      39.269  28.853  27.051  1.00  0.00    -0.203 F 
ATOM     82  F   UNL A   1      36.060  29.576  31.381  1.00  0.00    -0.200 F 
ATOM     83  C   UNL A   1      36.447  29.815  29.071  1.00  0.00     0.200 A 
ATOM     84  F   UNL A   1      36.918  30.078  26.775  1.00  0.00    -0.200 F 
ATOM     85  F   UNL A   1      35.309  30.508  28.932  1.00  0.00    -0.200 F 
ENDBRANCH  51  75
BRANCH  63  86
ATOM     86  C   UNL A   1      44.402  27.422  32.357  1.00  0.00     0.064 A 
ATOM     87  C   UNL A   1      44.248  26.040  32.143  1.00  0.00     0.173 A 
ATOM     88  C   UNL A   1      44.605  27.845  33.676  1.00  0.00     0.173 A 
ATOM     89  F   UNL A   1      44.155  25.537  30.907  1.00  0.00    -0.203 F 
ATOM     90  C   UNL A   1      44.257  25.135  33.205  1.00  0.00     0.198 A 
ATOM     91  C   UNL A   1      44.651  26.937  34.730  1.00  0.00     0.198 A 
ATOM     92  F   UNL A   1      44.815  29.144  33.940  1.00  0.00    -0.203 F 
ATOM     93  F   UNL A   1      44.102  23.823  32.970  1.00  0.00    -0.200 F 
ATOM     94  C   UNL A   1      44.466  25.584  34.497  1.00  0.00     0.200 A 
ATOM     95  F   UNL A   1      44.905  27.371  35.973  1.00  0.00    -0.200 F 
ATOM     96  F   UNL A   1      44.520  24.711  35.512  1.00  0.00    -0.200 F 
ENDBRANCH  63  86
ENDBRANCH  37  38
ENDBRANCH  29  32
ENDBRANCH  27  28
ENDBRANCH  26  27
ENDBRANCH   1  26
TORSDOF 14
ENDMDL
