MODEL 1
REMARK VINA RESULT:     -12.5      0.000      0.000
REMARK SMILES CC(C)N1C[C@@H](C(=O)N2CCC(C(=O)NCCCCCCNC(=O)c3ccc(-c4c5nc(c(-c6c(F)c(F)c(F)c(F)c6F)c6ccc([nH]6)c(-c6c(F)c(F)c(F)c(F)c6F)c6nc(c(-c7c(F)c(F)c(F)c(F)c7F)c7ccc4[nH]7)C=C6)C=C5)cc3)CC2)CC1=O
REMARK SMILES IDX 18 1 17 2 16 3 15 4 13 5 14 6 12 8 7 9 8 10 9 11 10 12 89 13
REMARK SMILES IDX 11 14 88 15 6 16 4 17 5 18 91 19 90 20 92 21 2 22 1 23 3 24
REMARK SMILES IDX 19 25 20 26 21 27 22 28 23 29 24 31 25 32 26 33 87 34 27 35
REMARK SMILES IDX 86 36 28 37 29 38 30 39 80 40 31 41 85 42 79 43 81 44 32 45
REMARK SMILES IDX 84 46 78 47 77 48 33 50 65 51 45 52 64 53 46 54 49 55 63 56
REMARK SMILES IDX 82 57 47 58 48 59 62 61 83 62 50 63 34 64 35 65 43 66 36 67
REMARK SMILES IDX 37 68 41 69 44 70 38 71 39 72 42 73 40 74 66 75 67 76 75 77
REMARK SMILES IDX 68 78 69 79 73 80 76 81 70 82 71 83 74 84 72 85 51 86 52 87
REMARK SMILES IDX 60 88 53 89 54 90 58 91 61 92 55 93 56 94 59 95 57 96
REMARK H PARENT 15 7 22 30 81 49 49 60
REMARK Flexibility Score: inf
ROOT
ATOM      1  C   UNL A   1      35.489  20.486  25.383  1.00  0.00     0.002 C 
ENDROOT
BRANCH   1   2
ATOM      2  C   UNL A   1      34.708  19.376  24.675  1.00  0.00     0.021 C 
BRANCH   2   3
ATOM      3  C   UNL A   1      33.193  19.495  24.828  1.00  0.00     0.116 C 
BRANCH   3   4
ATOM      4  N   UNL A   1      32.579  19.937  23.587  1.00  0.00    -0.356 N 
ATOM      5  C   UNL A   1      32.314  21.184  23.114  1.00  0.00     0.223 C 
ATOM      6  O   UNL A   1      31.716  21.280  22.040  1.00  0.00    -0.275 OA
ATOM      7  H   UNL A   1      32.308  19.207  22.984  1.00  0.00     0.163 HD
BRANCH   5   8
ATOM      8  C   UNL A   1      32.774  22.432  23.853  1.00  0.00     0.082 C 
ATOM      9  C   UNL A   1      33.273  26.250  22.752  1.00  0.00     0.227 C 
ATOM     10  O   UNL A   1      33.787  26.028  21.651  1.00  0.00    -0.274 OA
ATOM     11  N   UNL A   1      33.260  25.272  23.729  1.00  0.00    -0.342 N 
ATOM     12  C   UNL A   1      34.405  24.373  23.833  1.00  0.00     0.120 C 
ATOM     13  C   UNL A   1      32.072  24.819  24.431  1.00  0.00     0.120 C 
ATOM     14  C   UNL A   1      34.101  22.979  23.311  1.00  0.00     0.035 C 
ATOM     15  C   UNL A   1      31.628  23.448  23.934  1.00  0.00     0.035 C 
BRANCH   9  16
ATOM     16  C   UNL A   1      32.913  27.690  23.123  1.00  0.00     0.107 C 
ATOM     17  N   UNL A   1      32.215  28.977  24.970  1.00  0.00    -0.339 N 
ATOM     18  C   UNL A   1      33.088  27.882  24.624  1.00  0.00     0.133 C 
ATOM     19  C   UNL A   1      31.248  29.171  23.996  1.00  0.00     0.223 C 
ATOM     20  C   UNL A   1      31.549  28.285  22.816  1.00  0.00     0.115 C 
ATOM     21  O   UNL A   1      30.265  29.898  24.072  1.00  0.00    -0.275 OA
BRANCH  17  22
ATOM     22  C   UNL A   1      32.129  29.557  26.318  1.00  0.00     0.078 C 
ATOM     23  C   UNL A   1      31.799  28.534  27.409  1.00  0.00     0.031 C 
ATOM     24  C   UNL A   1      33.423  30.285  26.699  1.00  0.00     0.031 C 
ENDBRANCH  17  22
ENDBRANCH   9  16
ENDBRANCH   5   8
ENDBRANCH   3   4
ENDBRANCH   2   3
ENDBRANCH   1   2
BRANCH   1  25
ATOM     25  C   UNL A   1      36.864  20.795  24.780  1.00  0.00     0.002 C 
BRANCH  25  26
ATOM     26  C   UNL A   1      37.918  19.705  24.986  1.00  0.00     0.021 C 
BRANCH  26  27
ATOM     27  C   UNL A   1      39.151  20.160  25.759  1.00  0.00     0.116 C 
BRANCH  27  28
ATOM     28  N   UNL A   1      40.144  19.104  25.872  1.00  0.00    -0.352 N 
ATOM     29  C   UNL A   1      41.498  19.205  26.071  1.00  0.00     0.251 C 
ATOM     30  H   UNL A   1      39.796  18.187  25.796  1.00  0.00     0.163 HD
ATOM     31  O   UNL A   1      42.220  18.221  25.947  1.00  0.00    -0.269 OA
BRANCH  29  32
ATOM     32  C   UNL A   1      42.089  20.515  26.416  1.00  0.00     0.039 A 
ATOM     33  C   UNL A   1      42.572  21.330  25.390  1.00  0.00     0.014 A 
ATOM     34  C   UNL A   1      42.161  20.936  27.747  1.00  0.00     0.014 A 
ATOM     35  C   UNL A   1      43.072  22.598  25.695  1.00  0.00     0.010 A 
ATOM     36  C   UNL A   1      42.590  22.226  28.040  1.00  0.00     0.010 A 
ATOM     37  C   UNL A   1      43.052  23.069  27.017  1.00  0.00    -0.014 A 
BRANCH  37  38
ATOM     38  C   UNL A   1      43.507  24.442  27.355  1.00  0.00     0.031 A 
ATOM     39  C   UNL A   1      42.509  25.478  27.794  1.00  0.00     0.074 A 
ATOM     40  C   UNL A   1      44.803  24.774  27.195  1.00  0.00     0.049 A 
ATOM     41  N   UNL A   1      42.693  26.749  28.047  1.00  0.00    -0.248 NA
ATOM     42  C   UNL A   1      41.115  25.034  27.942  1.00  0.00     0.031 C 
ATOM     43  C   UNL A   1      45.857  23.867  26.736  1.00  0.00     0.029 A 
ATOM     44  N   UNL A   1      45.453  25.968  27.385  1.00  0.00    -0.354 N 
ATOM     45  C   UNL A   1      41.439  27.258  28.360  1.00  0.00     0.074 A 
ATOM     46  C   UNL A   1      40.495  26.171  28.224  1.00  0.00     0.031 C 
ATOM     47  C   UNL A   1      47.022  24.532  26.697  1.00  0.00     0.029 A 
ATOM     48  C   UNL A   1      46.792  25.921  27.085  1.00  0.00     0.049 A 
ATOM     49  H   UNL A   1      45.001  26.781  27.707  1.00  0.00     0.167 HD
ATOM     50  C   UNL A   1      41.110  28.514  28.745  1.00  0.00     0.037 A 
ATOM     51  C   UNL A   1      47.725  26.893  27.104  1.00  0.00     0.037 A 
ATOM     52  C   UNL A   1      42.060  29.583  28.912  1.00  0.00     0.049 A 
ATOM     53  C   UNL A   1      47.326  28.283  27.523  1.00  0.00     0.074 A 
ATOM     54  C   UNL A   1      41.838  30.867  29.374  1.00  0.00     0.029 A 
ATOM     55  N   UNL A   1      43.411  29.493  28.612  1.00  0.00    -0.354 N 
ATOM     56  N   UNL A   1      46.153  28.731  27.899  1.00  0.00    -0.248 NA
ATOM     57  C   UNL A   1      48.384  29.303  27.524  1.00  0.00     0.031 C 
ATOM     58  C   UNL A   1      43.042  31.573  29.299  1.00  0.00     0.029 A 
ATOM     59  C   UNL A   1      44.029  30.710  28.849  1.00  0.00     0.049 A 
ATOM     60  H   UNL A   1      43.864  28.684  28.281  1.00  0.00     0.167 HD
ATOM     61  C   UNL A   1      46.338  30.070  28.215  1.00  0.00     0.074 A 
ATOM     62  C   UNL A   1      47.740  30.360  27.999  1.00  0.00     0.031 C 
ATOM     63  C   UNL A   1      45.429  30.978  28.646  1.00  0.00     0.037 A 
BRANCH  50  64
ATOM     64  C   UNL A   1      39.662  28.810  29.011  1.00  0.00     0.064 A 
ATOM     65  C   UNL A   1      39.092  28.636  30.281  1.00  0.00     0.173 A 
ATOM     66  C   UNL A   1      38.848  29.330  27.993  1.00  0.00     0.173 A 
ATOM     67  F   UNL A   1      39.824  28.133  31.287  1.00  0.00    -0.203 F 
ATOM     68  C   UNL A   1      37.755  28.948  30.514  1.00  0.00     0.198 A 
ATOM     69  C   UNL A   1      37.521  29.671  28.239  1.00  0.00     0.198 A 
ATOM     70  F   UNL A   1      39.344  29.522  26.761  1.00  0.00    -0.203 F 
ATOM     71  F   UNL A   1      37.221  28.731  31.725  1.00  0.00    -0.200 F 
ATOM     72  C   UNL A   1      36.974  29.473  29.497  1.00  0.00     0.200 A 
ATOM     73  F   UNL A   1      36.772  30.193  27.258  1.00  0.00    -0.200 F 
ATOM     74  F   UNL A   1      35.692  29.787  29.728  1.00  0.00    -0.200 F 
ENDBRANCH  50  64
BRANCH  51  75
ATOM     75  C   UNL A   1      49.131  26.589  26.725  1.00  0.00     0.064 A 
ATOM     76  C   UNL A   1      50.051  26.131  27.681  1.00  0.00     0.173 A 
ATOM     77  C   UNL A   1      49.594  26.778  25.415  1.00  0.00     0.173 A 
ATOM     78  F   UNL A   1      49.662  25.955  28.952  1.00  0.00    -0.203 F 
ATOM     79  C   UNL A   1      51.384  25.903  27.346  1.00  0.00     0.198 A 
ATOM     80  C   UNL A   1      50.920  26.517  25.075  1.00  0.00     0.198 A 
ATOM     81  F   UNL A   1      48.755  27.209  24.462  1.00  0.00    -0.203 F 
ATOM     82  F   UNL A   1      52.253  25.524  28.292  1.00  0.00    -0.200 F 
ATOM     83  C   UNL A   1      51.817  26.092  26.042  1.00  0.00     0.200 A 
ATOM     84  F   UNL A   1      51.330  26.687  23.810  1.00  0.00    -0.200 F 
ATOM     85  F   UNL A   1      53.099  25.876  25.723  1.00  0.00    -0.200 F 
ENDBRANCH  51  75
BRANCH  63  86
ATOM     86  C   UNL A   1      45.927  32.360  28.961  1.00  0.00     0.064 A 
ATOM     87  C   UNL A   1      45.927  33.383  28.000  1.00  0.00     0.173 A 
ATOM     88  C   UNL A   1      46.363  32.676  30.257  1.00  0.00     0.173 A 
ATOM     89  F   UNL A   1      45.534  33.128  26.743  1.00  0.00    -0.203 F 
ATOM     90  C   UNL A   1      46.368  34.664  28.320  1.00  0.00     0.198 A 
ATOM     91  C   UNL A   1      46.771  33.965  30.581  1.00  0.00     0.198 A 
ATOM     92  F   UNL A   1      46.376  31.737  31.215  1.00  0.00    -0.203 F 
ATOM     93  F   UNL A   1      46.406  35.612  27.374  1.00  0.00    -0.200 F 
ATOM     94  C   UNL A   1      46.782  34.957  29.612  1.00  0.00     0.200 A 
ATOM     95  F   UNL A   1      47.153  34.251  31.834  1.00  0.00    -0.200 F 
ATOM     96  F   UNL A   1      47.195  36.194  29.920  1.00  0.00    -0.200 F 
ENDBRANCH  63  86
ENDBRANCH  37  38
ENDBRANCH  29  32
ENDBRANCH  27  28
ENDBRANCH  26  27
ENDBRANCH  25  26
ENDBRANCH   1  25
TORSDOF 15
ENDMDL
MODEL 2
REMARK VINA RESULT:     -12.4      1.014      2.385
REMARK SMILES CC(C)N1C[C@@H](C(=O)N2CCC(C(=O)NCCCCCCNC(=O)c3ccc(-c4c5nc(c(-c6c(F)c(F)c(F)c(F)c6F)c6ccc([nH]6)c(-c6c(F)c(F)c(F)c(F)c6F)c6nc(c(-c7c(F)c(F)c(F)c(F)c7F)c7ccc4[nH]7)C=C6)C=C5)cc3)CC2)CC1=O
REMARK SMILES IDX 18 1 17 2 16 3 15 4 13 5 14 6 12 8 7 9 8 10 9 11 10 12 89 13
REMARK SMILES IDX 11 14 88 15 6 16 4 17 5 18 91 19 90 20 92 21 2 22 1 23 3 24
REMARK SMILES IDX 19 25 20 26 21 27 22 28 23 29 24 31 25 32 26 33 87 34 27 35
REMARK SMILES IDX 86 36 28 37 29 38 30 39 80 40 31 41 85 42 79 43 81 44 32 45
REMARK SMILES IDX 84 46 78 47 77 48 33 50 65 51 45 52 64 53 46 54 49 55 63 56
REMARK SMILES IDX 82 57 47 58 48 59 62 61 83 62 50 63 34 64 35 65 43 66 36 67
REMARK SMILES IDX 37 68 41 69 44 70 38 71 39 72 42 73 40 74 66 75 67 76 75 77
REMARK SMILES IDX 68 78 69 79 73 80 76 81 70 82 71 83 74 84 72 85 51 86 52 87
REMARK SMILES IDX 60 88 53 89 54 90 58 91 61 92 55 93 56 94 59 95 57 96
REMARK H PARENT 15 7 22 30 81 49 49 60
REMARK Flexibility Score: inf
ROOT
ATOM      1  C   UNL A   1      35.881  21.163  25.096  1.00  0.00     0.002 C 
ENDROOT
BRANCH   1   2
ATOM      2  C   UNL A   1      35.193  19.800  24.970  1.00  0.00     0.021 C 
BRANCH   2   3
ATOM      3  C   UNL A   1      33.677  19.857  25.148  1.00  0.00     0.116 C 
BRANCH   3   4
ATOM      4  N   UNL A   1      33.015  20.116  23.881  1.00  0.00    -0.356 N 
ATOM      5  C   UNL A   1      32.522  21.266  23.348  1.00  0.00     0.223 C 
ATOM      6  O   UNL A   1      31.939  21.196  22.264  1.00  0.00    -0.275 OA
ATOM      7  H   UNL A   1      32.904  19.322  23.310  1.00  0.00     0.163 HD
BRANCH   5   8
ATOM      8  C   UNL A   1      32.715  22.611  24.033  1.00  0.00     0.082 C 
ATOM      9  C   UNL A   1      31.293  26.287  23.322  1.00  0.00     0.227 C 
ATOM     10  O   UNL A   1      31.408  26.262  22.092  1.00  0.00    -0.274 OA
ATOM     11  N   UNL A   1      32.012  25.406  24.109  1.00  0.00    -0.342 N 
ATOM     12  C   UNL A   1      33.361  25.039  23.695  1.00  0.00     0.120 C 
ATOM     13  C   UNL A   1      31.431  24.535  25.117  1.00  0.00     0.120 C 
ATOM     14  C   UNL A   1      33.436  23.627  23.139  1.00  0.00     0.035 C 
ATOM     15  C   UNL A   1      31.388  23.090  24.635  1.00  0.00     0.035 C 
BRANCH   9  16
ATOM     16  C   UNL A   1      30.582  27.473  23.975  1.00  0.00     0.107 C 
ATOM     17  N   UNL A   1      29.772  29.624  23.457  1.00  0.00    -0.339 N 
ATOM     18  C   UNL A   1      29.888  28.299  22.899  1.00  0.00     0.133 C 
ATOM     19  C   UNL A   1      30.661  29.806  24.504  1.00  0.00     0.223 C 
ATOM     20  C   UNL A   1      31.324  28.491  24.823  1.00  0.00     0.115 C 
ATOM     21  O   UNL A   1      30.929  30.860  25.066  1.00  0.00    -0.275 OA
BRANCH  17  22
ATOM     22  C   UNL A   1      29.084  30.735  22.782  1.00  0.00     0.078 C 
ATOM     23  C   UNL A   1      28.749  30.452  21.314  1.00  0.00     0.031 C 
ATOM     24  C   UNL A   1      27.796  31.125  23.515  1.00  0.00     0.031 C 
ENDBRANCH  17  22
ENDBRANCH   9  16
ENDBRANCH   5   8
ENDBRANCH   3   4
ENDBRANCH   2   3
ENDBRANCH   1   2
BRANCH   1  25
ATOM     25  C   UNL A   1      37.341  21.195  24.629  1.00  0.00     0.002 C 
BRANCH  25  26
ATOM     26  C   UNL A   1      38.166  19.964  25.008  1.00  0.00     0.021 C 
BRANCH  26  27
ATOM     27  C   UNL A   1      39.280  20.237  26.012  1.00  0.00     0.116 C 
BRANCH  27  28
ATOM     28  N   UNL A   1      40.311  19.212  25.975  1.00  0.00    -0.352 N 
ATOM     29  C   UNL A   1      41.673  19.347  26.084  1.00  0.00     0.251 C 
ATOM     30  H   UNL A   1      39.987  18.291  25.855  1.00  0.00     0.163 HD
ATOM     31  O   UNL A   1      42.413  18.401  25.836  1.00  0.00    -0.269 OA
BRANCH  29  32
ATOM     32  C   UNL A   1      42.246  20.649  26.483  1.00  0.00     0.039 A 
ATOM     33  C   UNL A   1      42.762  21.491  25.496  1.00  0.00     0.014 A 
ATOM     34  C   UNL A   1      42.269  21.036  27.827  1.00  0.00     0.014 A 
ATOM     35  C   UNL A   1      43.247  22.752  25.851  1.00  0.00     0.010 A 
ATOM     36  C   UNL A   1      42.684  22.319  28.167  1.00  0.00     0.010 A 
ATOM     37  C   UNL A   1      43.179  23.189  27.183  1.00  0.00    -0.014 A 
BRANCH  37  38
ATOM     38  C   UNL A   1      43.617  24.553  27.572  1.00  0.00     0.031 A 
ATOM     39  C   UNL A   1      42.597  25.597  27.933  1.00  0.00     0.074 A 
ATOM     40  C   UNL A   1      44.926  24.872  27.529  1.00  0.00     0.049 A 
ATOM     41  N   UNL A   1      42.771  26.864  28.212  1.00  0.00    -0.248 NA
ATOM     42  C   UNL A   1      41.190  25.168  27.954  1.00  0.00     0.031 C 
ATOM     43  C   UNL A   1      46.006  23.957  27.155  1.00  0.00     0.029 A 
ATOM     44  N   UNL A   1      45.569  26.057  27.786  1.00  0.00    -0.354 N 
ATOM     45  C   UNL A   1      41.500  27.385  28.419  1.00  0.00     0.074 A 
ATOM     46  C   UNL A   1      40.560  26.309  28.192  1.00  0.00     0.031 C 
ATOM     47  C   UNL A   1      47.178  24.609  27.225  1.00  0.00     0.029 A 
ATOM     48  C   UNL A   1      46.930  25.997  27.603  1.00  0.00     0.049 A 
ATOM     49  H   UNL A   1      45.100  26.873  28.075  1.00  0.00     0.167 HD
ATOM     50  C   UNL A   1      41.152  28.641  28.785  1.00  0.00     0.037 A 
ATOM     51  C   UNL A   1      47.867  26.958  27.713  1.00  0.00     0.037 A 
ATOM     52  C   UNL A   1      42.095  29.698  29.044  1.00  0.00     0.049 A 
ATOM     53  C   UNL A   1      47.448  28.349  28.109  1.00  0.00     0.074 A 
ATOM     54  C   UNL A   1      41.848  30.981  29.498  1.00  0.00     0.029 A 
ATOM     55  N   UNL A   1      43.467  29.595  28.863  1.00  0.00    -0.354 N 
ATOM     56  N   UNL A   1      46.252  28.807  28.385  1.00  0.00    -0.248 NA
ATOM     57  C   UNL A   1      48.513  29.357  28.211  1.00  0.00     0.031 C 
ATOM     58  C   UNL A   1      43.061  31.673  29.534  1.00  0.00     0.029 A 
ATOM     59  C   UNL A   1      44.074  30.803  29.164  1.00  0.00     0.049 A 
ATOM     60  H   UNL A   1      43.938  28.784  28.565  1.00  0.00     0.167 HD
ATOM     61  C   UNL A   1      46.423  30.141  28.728  1.00  0.00     0.074 A 
ATOM     62  C   UNL A   1      47.841  30.417  28.638  1.00  0.00     0.031 C 
ATOM     63  C   UNL A   1      45.490  31.056  29.086  1.00  0.00     0.037 A 
BRANCH  50  64
ATOM     64  C   UNL A   1      39.690  28.951  28.927  1.00  0.00     0.064 A 
ATOM     65  C   UNL A   1      38.900  29.309  27.824  1.00  0.00     0.173 A 
ATOM     66  C   UNL A   1      39.059  28.832  30.174  1.00  0.00     0.173 A 
ATOM     67  F   UNL A   1      39.455  29.447  26.610  1.00  0.00    -0.203 F 
ATOM     68  C   UNL A   1      37.538  29.561  27.971  1.00  0.00     0.198 A 
ATOM     69  C   UNL A   1      37.691  29.052  30.311  1.00  0.00     0.198 A 
ATOM     70  F   UNL A   1      39.766  28.486  31.260  1.00  0.00    -0.203 F 
ATOM     71  F   UNL A   1      36.812  29.945  26.911  1.00  0.00    -0.200 F 
ATOM     72  C   UNL A   1      36.933  29.423  29.211  1.00  0.00     0.200 A 
ATOM     73  F   UNL A   1      37.106  28.904  31.507  1.00  0.00    -0.200 F 
ATOM     74  F   UNL A   1      35.620  29.651  29.347  1.00  0.00    -0.200 F 
ENDBRANCH  50  64
BRANCH  51  75
ATOM     75  C   UNL A   1      49.298  26.641  27.455  1.00  0.00     0.064 A 
ATOM     76  C   UNL A   1      49.779  26.498  26.145  1.00  0.00     0.173 A 
ATOM     77  C   UNL A   1      50.205  26.444  28.506  1.00  0.00     0.173 A 
ATOM     78  F   UNL A   1      48.945  26.656  25.106  1.00  0.00    -0.203 F 
ATOM     79  C   UNL A   1      51.103  26.142  25.899  1.00  0.00     0.198 A 
ATOM     80  C   UNL A   1      51.537  26.121  28.257  1.00  0.00     0.198 A 
ATOM     81  F   UNL A   1      49.799  26.574  29.777  1.00  0.00    -0.203 F 
ATOM     82  F   UNL A   1      51.519  25.955  24.639  1.00  0.00    -0.200 F 
ATOM     83  C   UNL A   1      51.982  25.958  26.954  1.00  0.00     0.200 A 
ATOM     84  F   UNL A   1      52.388  25.959  29.280  1.00  0.00    -0.200 F 
ATOM     85  F   UNL A   1      53.255  25.613  26.716  1.00  0.00    -0.200 F 
ENDBRANCH  51  75
BRANCH  63  86
ATOM     86  C   UNL A   1      45.973  32.430  29.456  1.00  0.00     0.064 A 
ATOM     87  C   UNL A   1      46.373  32.746  30.763  1.00  0.00     0.173 A 
ATOM     88  C   UNL A   1      46.083  33.428  28.475  1.00  0.00     0.173 A 
ATOM     89  F   UNL A   1      46.274  31.832  31.739  1.00  0.00    -0.203 F 
ATOM     90  C   UNL A   1      46.843  34.019  31.078  1.00  0.00     0.198 A 
ATOM     91  C   UNL A   1      46.584  34.688  28.787  1.00  0.00     0.198 A 
ATOM     92  F   UNL A   1      45.720  33.175  27.208  1.00  0.00    -0.203 F 
ATOM     93  F   UNL A   1      47.174  34.313  32.343  1.00  0.00    -0.200 F 
ATOM     94  C   UNL A   1      46.957  34.985  30.089  1.00  0.00     0.200 A 
ATOM     95  F   UNL A   1      46.709  35.614  27.827  1.00  0.00    -0.200 F 
ATOM     96  F   UNL A   1      47.420  36.205  30.393  1.00  0.00    -0.200 F 
ENDBRANCH  63  86
ENDBRANCH  37  38
ENDBRANCH  29  32
ENDBRANCH  27  28
ENDBRANCH  26  27
ENDBRANCH  25  26
ENDBRANCH   1  25
TORSDOF 15
ENDMDL
MODEL 3
REMARK VINA RESULT:     -12.4      5.515     12.328
REMARK SMILES CC(C)N1C[C@@H](C(=O)N2CCC(C(=O)NCCCCCCNC(=O)c3ccc(-c4c5nc(c(-c6c(F)c(F)c(F)c(F)c6F)c6ccc([nH]6)c(-c6c(F)c(F)c(F)c(F)c6F)c6nc(c(-c7c(F)c(F)c(F)c(F)c7F)c7ccc4[nH]7)C=C6)C=C5)cc3)CC2)CC1=O
REMARK SMILES IDX 18 1 17 2 16 3 15 4 13 5 14 6 12 8 7 9 8 10 9 11 10 12 89 13
REMARK SMILES IDX 11 14 88 15 6 16 4 17 5 18 91 19 90 20 92 21 2 22 1 23 3 24
REMARK SMILES IDX 19 25 20 26 21 27 22 28 23 29 24 31 25 32 26 33 87 34 27 35
REMARK SMILES IDX 86 36 28 37 29 38 30 39 80 40 31 41 85 42 79 43 81 44 32 45
REMARK SMILES IDX 84 46 78 47 77 48 33 50 65 51 45 52 64 53 46 54 49 55 63 56
REMARK SMILES IDX 82 57 47 58 48 59 62 61 83 62 50 63 34 64 35 65 43 66 36 67
REMARK SMILES IDX 37 68 41 69 44 70 38 71 39 72 42 73 40 74 66 75 67 76 75 77
REMARK SMILES IDX 68 78 69 79 73 80 76 81 70 82 71 83 74 84 72 85 51 86 52 87
REMARK SMILES IDX 60 88 53 89 54 90 58 91 61 92 55 93 56 94 59 95 57 96
REMARK H PARENT 15 7 22 30 81 49 49 60
REMARK Flexibility Score: inf
ROOT
ATOM      1  C   UNL A   1      47.386  25.997  31.902  1.00  0.00     0.002 C 
ENDROOT
BRANCH   1   2
ATOM      2  C   UNL A   1      47.307  27.108  30.850  1.00  0.00     0.021 C 
BRANCH   2   3
ATOM      3  C   UNL A   1      46.962  26.606  29.449  1.00  0.00     0.116 C 
BRANCH   3   4
ATOM      4  N   UNL A   1      48.072  25.866  28.875  1.00  0.00    -0.356 N 
ATOM      5  C   UNL A   1      48.118  24.978  27.845  1.00  0.00     0.223 C 
ATOM      6  O   UNL A   1      49.197  24.434  27.599  1.00  0.00    -0.275 OA
ATOM      7  H   UNL A   1      48.941  26.037  29.304  1.00  0.00     0.163 HD
BRANCH   5   8
ATOM      8  C   UNL A   1      46.895  24.687  26.987  1.00  0.00     0.082 C 
ATOM      9  C   UNL A   1      45.587  21.412  25.088  1.00  0.00     0.227 C 
ATOM     10  O   UNL A   1      46.681  21.039  24.652  1.00  0.00    -0.274 OA
ATOM     11  N   UNL A   1      45.405  22.722  25.492  1.00  0.00    -0.342 N 
ATOM     12  C   UNL A   1      46.090  23.781  24.760  1.00  0.00     0.120 C 
ATOM     13  C   UNL A   1      44.885  23.123  26.788  1.00  0.00     0.120 C 
ATOM     14  C   UNL A   1      47.263  24.361  25.534  1.00  0.00     0.035 C 
ATOM     15  C   UNL A   1      45.996  23.659  27.684  1.00  0.00     0.035 C 
BRANCH   9  16
ATOM     16  C   UNL A   1      44.370  20.503  24.910  1.00  0.00     0.107 C 
ATOM     17  N   UNL A   1      42.407  19.842  26.033  1.00  0.00    -0.339 N 
ATOM     18  C   UNL A   1      43.236  20.999  25.798  1.00  0.00     0.133 C 
ATOM     19  C   UNL A   1      43.101  18.670  25.780  1.00  0.00     0.223 C 
ATOM     20  C   UNL A   1      44.436  19.008  25.168  1.00  0.00     0.115 C 
ATOM     21  O   UNL A   1      42.740  17.530  26.046  1.00  0.00    -0.275 OA
BRANCH  17  22
ATOM     22  C   UNL A   1      41.143  19.884  26.783  1.00  0.00     0.078 C 
ATOM     23  C   UNL A   1      41.004  21.112  27.689  1.00  0.00     0.031 C 
ATOM     24  C   UNL A   1      39.933  19.823  25.845  1.00  0.00     0.031 C 
ENDBRANCH  17  22
ENDBRANCH   9  16
ENDBRANCH   5   8
ENDBRANCH   3   4
ENDBRANCH   2   3
ENDBRANCH   1   2
BRANCH   1  25
ATOM     25  C   UNL A   1      48.805  25.527  32.240  1.00  0.00     0.002 C 
BRANCH  25  26
ATOM     26  C   UNL A   1      49.172  25.598  33.723  1.00  0.00     0.021 C 
BRANCH  26  27
ATOM     27  C   UNL A   1      48.383  24.645  34.614  1.00  0.00     0.116 C 
BRANCH  27  28
ATOM     28  N   UNL A   1      48.273  25.136  35.977  1.00  0.00    -0.352 N 
ATOM     29  C   UNL A   1      47.426  26.085  36.492  1.00  0.00     0.251 C 
ATOM     30  H   UNL A   1      48.895  24.730  36.624  1.00  0.00     0.163 HD
ATOM     31  O   UNL A   1      47.597  26.523  37.625  1.00  0.00    -0.269 OA
BRANCH  29  32
ATOM     32  C   UNL A   1      46.314  26.595  35.664  1.00  0.00     0.039 A 
ATOM     33  C   UNL A   1      45.131  25.857  35.591  1.00  0.00     0.014 A 
ATOM     34  C   UNL A   1      46.440  27.800  34.965  1.00  0.00     0.014 A 
ATOM     35  C   UNL A   1      44.048  26.359  34.865  1.00  0.00     0.010 A 
ATOM     36  C   UNL A   1      45.338  28.333  34.306  1.00  0.00     0.010 A 
ATOM     37  C   UNL A   1      44.132  27.617  34.247  1.00  0.00    -0.014 A 
BRANCH  37  38
ATOM     38  C   UNL A   1      42.969  28.206  33.535  1.00  0.00     0.031 A 
ATOM     39  C   UNL A   1      42.740  27.894  32.081  1.00  0.00     0.074 A 
ATOM     40  C   UNL A   1      42.165  29.077  34.175  1.00  0.00     0.049 A 
ATOM     41  N   UNL A   1      41.840  28.376  31.262  1.00  0.00    -0.248 NA
ATOM     42  C   UNL A   1      43.664  26.934  31.457  1.00  0.00     0.031 C 
ATOM     43  C   UNL A   1      42.310  29.490  35.572  1.00  0.00     0.029 A 
ATOM     44  N   UNL A   1      41.076  29.785  33.732  1.00  0.00    -0.354 N 
ATOM     45  C   UNL A   1      42.102  27.797  30.028  1.00  0.00     0.074 A 
ATOM     46  C   UNL A   1      43.272  26.962  30.192  1.00  0.00     0.031 C 
ATOM     47  C   UNL A   1      41.336  30.363  35.875  1.00  0.00     0.029 A 
ATOM     48  C   UNL A   1      40.527  30.607  34.685  1.00  0.00     0.049 A 
ATOM     49  H   UNL A   1      40.722  29.710  32.816  1.00  0.00     0.167 HD
ATOM     50  C   UNL A   1      41.417  27.936  28.868  1.00  0.00     0.037 A 
ATOM     51  C   UNL A   1      39.497  31.472  34.603  1.00  0.00     0.037 A 
ATOM     52  C   UNL A   1      40.233  28.742  28.721  1.00  0.00     0.049 A 
ATOM     53  C   UNL A   1      38.762  31.615  33.296  1.00  0.00     0.074 A 
ATOM     54  C   UNL A   1      39.421  28.884  27.610  1.00  0.00     0.029 A 
ATOM     55  N   UNL A   1      39.698  29.549  29.714  1.00  0.00    -0.354 N 
ATOM     56  N   UNL A   1      38.968  30.997  32.158  1.00  0.00    -0.248 NA
ATOM     57  C   UNL A   1      37.649  32.573  33.264  1.00  0.00     0.031 C 
ATOM     58  C   UNL A   1      38.430  29.822  27.911  1.00  0.00     0.029 A 
ATOM     59  C   UNL A   1      38.585  30.218  29.230  1.00  0.00     0.049 A 
ATOM     60  H   UNL A   1      40.055  29.633  30.627  1.00  0.00     0.167 HD
ATOM     61  C   UNL A   1      37.992  31.464  31.289  1.00  0.00     0.074 A 
ATOM     62  C   UNL A   1      37.185  32.406  32.034  1.00  0.00     0.031 C 
ATOM     63  C   UNL A   1      37.781  31.140  29.990  1.00  0.00     0.037 A 
BRANCH  50  64
ATOM     64  C   UNL A   1      41.927  27.206  27.660  1.00  0.00     0.064 A 
ATOM     65  C   UNL A   1      42.920  27.750  26.831  1.00  0.00     0.173 A 
ATOM     66  C   UNL A   1      41.457  25.918  27.361  1.00  0.00     0.173 A 
ATOM     67  F   UNL A   1      43.398  28.981  27.067  1.00  0.00    -0.203 F 
ATOM     68  C   UNL A   1      43.404  27.041  25.733  1.00  0.00     0.198 A 
ATOM     69  C   UNL A   1      41.966  25.200  26.282  1.00  0.00     0.198 A 
ATOM     70  F   UNL A   1      40.513  25.348  28.124  1.00  0.00    -0.203 F 
ATOM     71  F   UNL A   1      44.320  27.600  24.930  1.00  0.00    -0.200 F 
ATOM     72  C   UNL A   1      42.934  25.765  25.465  1.00  0.00     0.200 A 
ATOM     73  F   UNL A   1      41.521  23.961  26.034  1.00  0.00    -0.200 F 
ATOM     74  F   UNL A   1      43.411  25.079  24.418  1.00  0.00    -0.200 F 
ENDBRANCH  50  64
BRANCH  51  75
ATOM     75  C   UNL A   1      39.088  32.265  35.793  1.00  0.00     0.064 A 
ATOM     76  C   UNL A   1      39.565  33.571  35.986  1.00  0.00     0.173 A 
ATOM     77  C   UNL A   1      38.242  31.730  36.775  1.00  0.00     0.173 A 
ATOM     78  F   UNL A   1      40.394  34.119  35.087  1.00  0.00    -0.203 F 
ATOM     79  C   UNL A   1      39.235  34.296  37.129  1.00  0.00     0.198 A 
ATOM     80  C   UNL A   1      37.886  32.470  37.900  1.00  0.00     0.198 A 
ATOM     81  F   UNL A   1      37.754  30.489  36.637  1.00  0.00    -0.203 F 
ATOM     82  F   UNL A   1      39.753  35.518  37.315  1.00  0.00    -0.200 F 
ATOM     83  C   UNL A   1      38.392  33.747  38.083  1.00  0.00     0.200 A 
ATOM     84  F   UNL A   1      37.058  31.941  38.813  1.00  0.00    -0.200 F 
ATOM     85  F   UNL A   1      38.078  34.445  39.182  1.00  0.00    -0.200 F 
ENDBRANCH  51  75
BRANCH  63  86
ATOM     86  C   UNL A   1      36.605  31.770  29.300  1.00  0.00     0.064 A 
ATOM     87  C   UNL A   1      35.466  31.029  28.954  1.00  0.00     0.173 A 
ATOM     88  C   UNL A   1      36.600  33.147  29.029  1.00  0.00     0.173 A 
ATOM     89  F   UNL A   1      35.427  29.707  29.178  1.00  0.00    -0.203 F 
ATOM     90  C   UNL A   1      34.375  31.638  28.339  1.00  0.00     0.198 A 
ATOM     91  C   UNL A   1      35.495  33.759  28.446  1.00  0.00     0.198 A 
ATOM     92  F   UNL A   1      37.661  33.904  29.347  1.00  0.00    -0.203 F 
ATOM     93  F   UNL A   1      33.318  30.901  27.972  1.00  0.00    -0.200 F 
ATOM     94  C   UNL A   1      34.387  33.004  28.094  1.00  0.00     0.200 A 
ATOM     95  F   UNL A   1      35.501  35.081  28.225  1.00  0.00    -0.200 F 
ATOM     96  F   UNL A   1      33.332  33.590  27.513  1.00  0.00    -0.200 F 
ENDBRANCH  63  86
ENDBRANCH  37  38
ENDBRANCH  29  32
ENDBRANCH  27  28
ENDBRANCH  26  27
ENDBRANCH  25  26
ENDBRANCH   1  25
TORSDOF 15
ENDMDL
