MODEL 1
REMARK VINA RESULT:     -13.0      0.000      0.000
REMARK SMILES Cn1c(C[NH+]2CCC3(CC2)NC(=O)C[C@@H]3C(=O)NCCCCCCNC(=O)c2ccc(-c3c4nc(c(-c5c(F)c(F)c(F)c(F)c5F)c5ccc([nH]5)c(-c5c(F)c(F)c(F)c(F)c5F)c5nc(c(-c6c(F)c(F)c(F)c(F)c6F)c6ccc3[nH]6)C=C5)C=C4)cc2)nc2ccccc21
REMARK SMILES IDX 21 1 20 2 19 3 18 4 16 5 17 6 15 8 5 9 6 10 10 11 7 13 9 14
REMARK SMILES IDX 8 15 11 16 12 17 14 19 13 20 4 21 3 22 1 23 2 24 97 25 91 26
REMARK SMILES IDX 92 27 96 28 93 29 95 30 94 31 22 32 23 33 24 34 25 35 26 36
REMARK SMILES IDX 27 38 28 39 29 40 90 41 30 42 89 43 31 44 32 45 33 46 83 47
REMARK SMILES IDX 34 48 88 49 82 50 84 51 35 52 87 53 81 54 80 55 36 57 68 58
REMARK SMILES IDX 48 59 67 60 49 61 52 62 66 63 85 64 50 65 51 66 65 68 86 69
REMARK SMILES IDX 53 70 37 71 38 72 46 73 39 74 40 75 44 76 47 77 41 78 42 79
REMARK SMILES IDX 45 80 43 81 69 82 70 83 78 84 71 85 72 86 76 87 79 88 73 89
REMARK SMILES IDX 74 90 77 91 75 92 54 93 55 94 63 95 56 96 57 97 61 98 64 99
REMARK SMILES IDX 58 100 59 101 62 102 60 103
REMARK H PARENT 18 7 5 12 11 18 25 37 84 56 52 67
REMARK Flexibility Score: inf
ROOT
ATOM      1  C   UNL A   1      37.598  22.295  25.751  1.00  0.00     0.002 C 
ENDROOT
BRANCH   1   2
ATOM      2  C   UNL A   1      37.352  23.698  25.201  1.00  0.00     0.021 C 
BRANCH   2   3
ATOM      3  C   UNL A   1      35.886  24.074  24.970  1.00  0.00     0.116 C 
BRANCH   3   4
ATOM      4  N   UNL A   1      35.076  23.758  26.126  1.00  0.00    -0.356 N 
ATOM      5  C   UNL A   1      34.181  22.761  26.344  1.00  0.00     0.226 C 
ATOM      6  O   UNL A   1      33.634  22.739  27.448  1.00  0.00    -0.275 OA
ATOM      7  H   UNL A   1      35.194  24.372  26.886  1.00  0.00     0.163 HD
BRANCH   5   8
ATOM      8  C   UNL A   1      33.866  21.738  25.263  1.00  0.00     0.114 C 
ATOM      9  N   UNL A   1      32.129  24.906  23.475  1.00  0.00    -0.328 N 
ATOM     10  C   UNL A   1      31.824  24.458  24.828  1.00  0.00     0.265 C 
ATOM     11  C   UNL A   1      33.112  24.089  22.771  1.00  0.00     0.265 C 
ATOM     12  H   UNL A   1      32.607  25.792  23.644  1.00  0.00     0.348 HD
ATOM     13  C   UNL A   1      31.568  22.958  24.985  1.00  0.00     0.091 C 
ATOM     14  C   UNL A   1      33.056  22.577  22.955  1.00  0.00     0.091 C 
ATOM     15  C   UNL A   1      32.646  22.066  24.347  1.00  0.00     0.063 C 
ATOM     16  N   UNL A   1      32.068  20.737  24.144  1.00  0.00    -0.349 N 
ATOM     17  C   UNL A   1      32.524  19.766  24.993  1.00  0.00     0.221 C 
ATOM     18  H   UNL A   1      31.400  20.554  23.444  1.00  0.00     0.164 HD
ATOM     19  C   UNL A   1      33.503  20.393  25.933  1.00  0.00     0.116 C 
ATOM     20  O   UNL A   1      32.163  18.606  24.991  1.00  0.00    -0.275 OA
BRANCH   9  21
ATOM     21  C   UNL A   1      30.976  25.315  22.652  1.00  0.00     0.339 C 
BRANCH  21  22
ATOM     22  C   UNL A   1      30.534  26.727  22.881  1.00  0.00     0.165 A 
ATOM     23  C   UNL A   1      28.446  26.282  24.246  1.00  0.00     0.152 C 
ATOM     24  N   UNL A   1      29.364  27.109  23.502  1.00  0.00    -0.326 N 
ATOM     25  C   UNL A   1      29.097  28.405  23.115  1.00  0.00     0.068 A 
ATOM     26  N   UNL A   1      31.148  27.781  22.373  1.00  0.00    -0.227 NA
ATOM     27  C   UNL A   1      30.226  28.788  22.401  1.00  0.00     0.089 A 
ATOM     28  C   UNL A   1      27.983  29.238  23.260  1.00  0.00     0.028 A 
ATOM     29  C   UNL A   1      30.259  30.031  21.756  1.00  0.00     0.030 A 
ATOM     30  C   UNL A   1      28.020  30.466  22.588  1.00  0.00     0.002 A 
ATOM     31  C   UNL A   1      29.132  30.854  21.838  1.00  0.00     0.002 A 
ENDBRANCH  21  22
ENDBRANCH   9  21
ENDBRANCH   5   8
ENDBRANCH   3   4
ENDBRANCH   2   3
ENDBRANCH   1   2
BRANCH   1  32
ATOM     32  C   UNL A   1      37.408  21.161  24.747  1.00  0.00     0.002 C 
BRANCH  32  33
ATOM     33  C   UNL A   1      38.280  19.930  24.993  1.00  0.00     0.021 C 
BRANCH  33  34
ATOM     34  C   UNL A   1      39.282  20.074  26.133  1.00  0.00     0.116 C 
BRANCH  34  35
ATOM     35  N   UNL A   1      40.344  19.085  26.058  1.00  0.00    -0.352 N 
ATOM     36  C   UNL A   1      41.703  19.272  26.027  1.00  0.00     0.251 C 
ATOM     37  H   UNL A   1      40.046  18.146  26.025  1.00  0.00     0.163 HD
ATOM     38  O   UNL A   1      42.453  18.343  25.752  1.00  0.00    -0.269 OA
BRANCH  36  39
ATOM     39  C   UNL A   1      42.258  20.611  26.310  1.00  0.00     0.039 A 
ATOM     40  C   UNL A   1      42.550  21.461  25.241  1.00  0.00     0.014 A 
ATOM     41  C   UNL A   1      42.490  21.024  27.625  1.00  0.00     0.014 A 
ATOM     42  C   UNL A   1      43.025  22.749  25.495  1.00  0.00     0.010 A 
ATOM     43  C   UNL A   1      42.884  22.334  27.878  1.00  0.00     0.010 A 
ATOM     44  C   UNL A   1      43.165  23.207  26.816  1.00  0.00    -0.014 A 
BRANCH  44  45
ATOM     45  C   UNL A   1      43.621  24.590  27.104  1.00  0.00     0.031 A 
ATOM     46  C   UNL A   1      42.643  25.617  27.606  1.00  0.00     0.074 A 
ATOM     47  C   UNL A   1      44.901  24.936  26.862  1.00  0.00     0.049 A 
ATOM     48  N   UNL A   1      42.833  26.888  27.860  1.00  0.00    -0.248 NA
ATOM     49  C   UNL A   1      41.261  25.162  27.826  1.00  0.00     0.031 C 
ATOM     50  C   UNL A   1      45.932  24.042  26.335  1.00  0.00     0.029 A 
ATOM     51  N   UNL A   1      45.550  26.135  27.021  1.00  0.00    -0.354 N 
ATOM     52  C   UNL A   1      41.598  27.381  28.258  1.00  0.00     0.074 A 
ATOM     53  C   UNL A   1      40.652  26.293  28.152  1.00  0.00     0.031 C 
ATOM     54  C   UNL A   1      47.089  24.714  26.239  1.00  0.00     0.029 A 
ATOM     55  C   UNL A   1      46.873  26.098  26.654  1.00  0.00     0.049 A 
ATOM     56  H   UNL A   1      45.108  26.946  27.366  1.00  0.00     0.167 HD
ATOM     57  C   UNL A   1      41.285  28.625  28.697  1.00  0.00     0.037 A 
ATOM     58  C   UNL A   1      47.803  27.072  26.643  1.00  0.00     0.037 A 
ATOM     59  C   UNL A   1      42.234  29.701  28.815  1.00  0.00     0.049 A 
ATOM     60  C   UNL A   1      47.423  28.452  27.112  1.00  0.00     0.074 A 
ATOM     61  C   UNL A   1      42.030  30.982  29.297  1.00  0.00     0.029 A 
ATOM     62  N   UNL A   1      43.567  29.623  28.438  1.00  0.00    -0.354 N 
ATOM     63  N   UNL A   1      46.268  28.890  27.552  1.00  0.00    -0.248 NA
ATOM     64  C   UNL A   1      48.480  29.472  27.089  1.00  0.00     0.031 C 
ATOM     65  C   UNL A   1      43.223  31.697  29.155  1.00  0.00     0.029 A 
ATOM     66  C   UNL A   1      44.190  30.842  28.652  1.00  0.00     0.049 A 
ATOM     67  H   UNL A   1      44.007  28.820  28.074  1.00  0.00     0.167 HD
ATOM     68  C   UNL A   1      46.468  30.222  27.892  1.00  0.00     0.074 A 
ATOM     69  C   UNL A   1      47.859  30.515  27.618  1.00  0.00     0.031 C 
ATOM     70  C   UNL A   1      45.580  31.119  28.386  1.00  0.00     0.037 A 
BRANCH  57  71
ATOM     71  C   UNL A   1      39.856  28.889  29.079  1.00  0.00     0.064 A 
ATOM     72  C   UNL A   1      38.909  29.329  28.141  1.00  0.00     0.173 A 
ATOM     73  C   UNL A   1      39.418  28.665  30.393  1.00  0.00     0.173 A 
ATOM     74  F   UNL A   1      39.276  29.569  26.873  1.00  0.00    -0.203 F 
ATOM     75  C   UNL A   1      37.588  29.567  28.511  1.00  0.00     0.198 A 
ATOM     76  C   UNL A   1      38.088  28.870  30.752  1.00  0.00     0.198 A 
ATOM     77  F   UNL A   1      40.278  28.239  31.331  1.00  0.00    -0.203 F 
ATOM     78  F   UNL A   1      36.715  30.040  27.610  1.00  0.00    -0.200 F 
ATOM     79  C   UNL A   1      37.177  29.329  29.814  1.00  0.00     0.200 A 
ATOM     80  F   UNL A   1      37.689  28.623  32.008  1.00  0.00    -0.200 F 
ATOM     81  F   UNL A   1      35.903  29.550  30.167  1.00  0.00    -0.200 F 
ENDBRANCH  57  71
BRANCH  58  82
ATOM     82  C   UNL A   1      49.188  26.775  26.189  1.00  0.00     0.064 A 
ATOM     83  C   UNL A   1      50.155  26.301  27.087  1.00  0.00     0.173 A 
ATOM     84  C   UNL A   1      49.577  26.971  24.856  1.00  0.00     0.173 A 
ATOM     85  F   UNL A   1      49.837  26.115  28.377  1.00  0.00    -0.203 F 
ATOM     86  C   UNL A   1      51.464  26.061  26.675  1.00  0.00     0.198 A 
ATOM     87  C   UNL A   1      50.879  26.699  24.439  1.00  0.00     0.198 A 
ATOM     88  F   UNL A   1      48.691  27.417  23.955  1.00  0.00    -0.203 F 
ATOM     89  F   UNL A   1      52.381  25.661  27.566  1.00  0.00    -0.200 F 
ATOM     90  C   UNL A   1      51.823  26.255  25.350  1.00  0.00     0.200 A 
ATOM     91  F   UNL A   1      51.217  26.870  23.153  1.00  0.00    -0.200 F 
ATOM     92  F   UNL A   1      53.083  26.021  24.954  1.00  0.00    -0.200 F 
ENDBRANCH  58  82
BRANCH  70  93
ATOM     93  C   UNL A   1      46.094  32.492  28.713  1.00  0.00     0.064 A 
ATOM     94  C   UNL A   1      46.649  32.799  29.965  1.00  0.00     0.173 A 
ATOM     95  C   UNL A   1      46.069  33.506  27.743  1.00  0.00     0.173 A 
ATOM     96  F   UNL A   1      46.685  31.870  30.933  1.00  0.00    -0.203 F 
ATOM     97  C   UNL A   1      47.129  34.076  30.242  1.00  0.00     0.198 A 
ATOM     98  C   UNL A   1      46.584  34.771  28.011  1.00  0.00     0.198 A 
ATOM     99  F   UNL A   1      45.557  33.265  26.526  1.00  0.00    -0.203 F 
ATOM    100  F   UNL A   1      47.603  34.361  31.463  1.00  0.00    -0.200 F 
ATOM    101  C   UNL A   1      47.104  35.058  29.263  1.00  0.00     0.200 A 
ATOM    102  F   UNL A   1      46.576  35.712  27.057  1.00  0.00    -0.200 F 
ATOM    103  F   UNL A   1      47.576  36.283  29.528  1.00  0.00    -0.200 F 
ENDBRANCH  70  93
ENDBRANCH  44  45
ENDBRANCH  36  39
ENDBRANCH  34  35
ENDBRANCH  33  34
ENDBRANCH  32  33
ENDBRANCH   1  32
TORSDOF 15
ENDMDL
MODEL 2
REMARK VINA RESULT:     -12.9      0.292      1.890
REMARK SMILES Cn1c(C[NH+]2CCC3(CC2)NC(=O)C[C@@H]3C(=O)NCCCCCCNC(=O)c2ccc(-c3c4nc(c(-c5c(F)c(F)c(F)c(F)c5F)c5ccc([nH]5)c(-c5c(F)c(F)c(F)c(F)c5F)c5nc(c(-c6c(F)c(F)c(F)c(F)c6F)c6ccc3[nH]6)C=C5)C=C4)cc2)nc2ccccc21
REMARK SMILES IDX 21 1 20 2 19 3 18 4 16 5 17 6 15 8 5 9 6 10 10 11 7 13 9 14
REMARK SMILES IDX 8 15 11 16 12 17 14 19 13 20 4 21 3 22 1 23 2 24 97 25 91 26
REMARK SMILES IDX 92 27 96 28 93 29 95 30 94 31 22 32 23 33 24 34 25 35 26 36
REMARK SMILES IDX 27 38 28 39 29 40 90 41 30 42 89 43 31 44 32 45 33 46 83 47
REMARK SMILES IDX 34 48 88 49 82 50 84 51 35 52 87 53 81 54 80 55 36 57 68 58
REMARK SMILES IDX 48 59 67 60 49 61 52 62 66 63 85 64 50 65 51 66 65 68 86 69
REMARK SMILES IDX 53 70 37 71 38 72 46 73 39 74 40 75 44 76 47 77 41 78 42 79
REMARK SMILES IDX 45 80 43 81 69 82 70 83 78 84 71 85 72 86 76 87 79 88 73 89
REMARK SMILES IDX 74 90 77 91 75 92 54 93 55 94 63 95 56 96 57 97 61 98 64 99
REMARK SMILES IDX 58 100 59 101 62 102 60 103
REMARK H PARENT 18 7 5 12 11 18 25 37 84 56 52 67
REMARK Flexibility Score: inf
ROOT
ATOM      1  C   UNL A   1      37.806  22.529  25.020  1.00  0.00     0.002 C 
ENDROOT
BRANCH   1   2
ATOM      2  C   UNL A   1      37.108  23.406  26.058  1.00  0.00     0.021 C 
BRANCH   2   3
ATOM      3  C   UNL A   1      35.771  24.013  25.624  1.00  0.00     0.116 C 
BRANCH   3   4
ATOM      4  N   UNL A   1      34.710  23.651  26.538  1.00  0.00    -0.356 N 
ATOM      5  C   UNL A   1      33.767  22.677  26.473  1.00  0.00     0.226 C 
ATOM      6  O   UNL A   1      32.981  22.602  27.419  1.00  0.00    -0.275 OA
ATOM      7  H   UNL A   1      34.664  24.208  27.348  1.00  0.00     0.163 HD
BRANCH   5   8
ATOM      8  C   UNL A   1      33.688  21.741  25.276  1.00  0.00     0.114 C 
ATOM      9  N   UNL A   1      32.157  25.001  23.465  1.00  0.00    -0.328 N 
ATOM     10  C   UNL A   1      31.641  24.432  24.703  1.00  0.00     0.265 C 
ATOM     11  C   UNL A   1      33.280  24.274  22.883  1.00  0.00     0.265 C 
ATOM     12  H   UNL A   1      32.561  25.883  23.785  1.00  0.00     0.348 HD
ATOM     13  C   UNL A   1      31.424  22.918  24.694  1.00  0.00     0.091 C 
ATOM     14  C   UNL A   1      33.256  22.751  22.934  1.00  0.00     0.091 C 
ATOM     15  C   UNL A   1      32.632  22.112  24.188  1.00  0.00     0.063 C 
ATOM     16  N   UNL A   1      32.154  20.791  23.782  1.00  0.00    -0.349 N 
ATOM     17  C   UNL A   1      32.495  19.764  24.619  1.00  0.00     0.221 C 
ATOM     18  H   UNL A   1      31.626  20.650  22.963  1.00  0.00     0.164 HD
ATOM     19  C   UNL A   1      33.271  20.335  25.763  1.00  0.00     0.116 C 
ATOM     20  O   UNL A   1      32.189  18.599  24.461  1.00  0.00    -0.275 OA
BRANCH   9  21
ATOM     21  C   UNL A   1      31.149  25.448  22.486  1.00  0.00     0.339 C 
BRANCH  21  22
ATOM     22  C   UNL A   1      30.572  26.798  22.778  1.00  0.00     0.165 A 
ATOM     23  C   UNL A   1      28.606  26.099  24.216  1.00  0.00     0.152 C 
ATOM     24  N   UNL A   1      29.399  27.038  23.459  1.00  0.00    -0.326 N 
ATOM     25  C   UNL A   1      28.980  28.309  23.125  1.00  0.00     0.068 A 
ATOM     26  N   UNL A   1      31.049  27.924  22.277  1.00  0.00    -0.227 NA
ATOM     27  C   UNL A   1      30.029  28.827  22.375  1.00  0.00     0.089 A 
ATOM     28  C   UNL A   1      27.793  29.015  23.343  1.00  0.00     0.028 A 
ATOM     29  C   UNL A   1      29.903  30.083  21.768  1.00  0.00     0.030 A 
ATOM     30  C   UNL A   1      27.671  30.258  22.708  1.00  0.00     0.002 A 
ATOM     31  C   UNL A   1      28.701  30.780  21.923  1.00  0.00     0.002 A 
ENDBRANCH  21  22
ENDBRANCH   9  21
ENDBRANCH   5   8
ENDBRANCH   3   4
ENDBRANCH   2   3
ENDBRANCH   1   2
BRANCH   1  32
ATOM     32  C   UNL A   1      37.176  21.157  24.799  1.00  0.00     0.002 C 
BRANCH  32  33
ATOM     33  C   UNL A   1      38.123  19.974  25.000  1.00  0.00     0.021 C 
BRANCH  33  34
ATOM     34  C   UNL A   1      39.138  20.151  26.124  1.00  0.00     0.116 C 
BRANCH  34  35
ATOM     35  N   UNL A   1      40.190  19.150  26.075  1.00  0.00    -0.352 N 
ATOM     36  C   UNL A   1      41.551  19.323  26.070  1.00  0.00     0.251 C 
ATOM     37  H   UNL A   1      39.884  18.214  26.042  1.00  0.00     0.163 HD
ATOM     38  O   UNL A   1      42.297  18.385  25.815  1.00  0.00    -0.269 OA
BRANCH  36  39
ATOM     39  C   UNL A   1      42.115  20.658  26.356  1.00  0.00     0.039 A 
ATOM     40  C   UNL A   1      42.418  21.507  25.290  1.00  0.00     0.014 A 
ATOM     41  C   UNL A   1      42.343  21.069  27.673  1.00  0.00     0.014 A 
ATOM     42  C   UNL A   1      42.901  22.791  25.547  1.00  0.00     0.010 A 
ATOM     43  C   UNL A   1      42.744  22.376  27.929  1.00  0.00     0.010 A 
ATOM     44  C   UNL A   1      43.038  23.247  26.869  1.00  0.00    -0.014 A 
BRANCH  44  45
ATOM     45  C   UNL A   1      43.502  24.627  27.160  1.00  0.00     0.031 A 
ATOM     46  C   UNL A   1      42.542  25.645  27.711  1.00  0.00     0.074 A 
ATOM     47  C   UNL A   1      44.772  24.979  26.877  1.00  0.00     0.049 A 
ATOM     48  N   UNL A   1      42.739  26.912  27.977  1.00  0.00    -0.248 NA
ATOM     49  C   UNL A   1      41.169  25.185  27.975  1.00  0.00     0.031 C 
ATOM     50  C   UNL A   1      45.785  24.094  26.301  1.00  0.00     0.029 A 
ATOM     51  N   UNL A   1      45.425  26.176  27.029  1.00  0.00    -0.354 N 
ATOM     52  C   UNL A   1      41.518  27.398  28.426  1.00  0.00     0.074 A 
ATOM     53  C   UNL A   1      40.571  26.309  28.339  1.00  0.00     0.031 C 
ATOM     54  C   UNL A   1      46.937  24.769  26.172  1.00  0.00     0.029 A 
ATOM     55  C   UNL A   1      46.734  26.147  26.614  1.00  0.00     0.049 A 
ATOM     56  H   UNL A   1      44.995  26.981  27.401  1.00  0.00     0.167 HD
ATOM     57  C   UNL A   1      41.221  28.635  28.893  1.00  0.00     0.037 A 
ATOM     58  C   UNL A   1      47.662  27.122  26.584  1.00  0.00     0.037 A 
ATOM     59  C   UNL A   1      42.172  29.710  28.992  1.00  0.00     0.049 A 
ATOM     60  C   UNL A   1      47.297  28.494  27.086  1.00  0.00     0.074 A 
ATOM     61  C   UNL A   1      41.984  30.984  29.500  1.00  0.00     0.029 A 
ATOM     62  N   UNL A   1      43.491  29.640  28.567  1.00  0.00    -0.354 N 
ATOM     63  N   UNL A   1      46.159  28.924  27.574  1.00  0.00    -0.248 NA
ATOM     64  C   UNL A   1      48.352  29.516  27.039  1.00  0.00     0.031 C 
ATOM     65  C   UNL A   1      43.170  31.704  29.326  1.00  0.00     0.029 A 
ATOM     66  C   UNL A   1      44.119  30.857  28.775  1.00  0.00     0.049 A 
ATOM     67  H   UNL A   1      43.918  28.843  28.176  1.00  0.00     0.167 HD
ATOM     68  C   UNL A   1      46.369  30.251  27.925  1.00  0.00     0.074 A 
ATOM     69  C   UNL A   1      47.749  30.551  27.606  1.00  0.00     0.031 C 
ATOM     70  C   UNL A   1      45.498  31.140  28.464  1.00  0.00     0.037 A 
BRANCH  57  71
ATOM     71  C   UNL A   1      39.806  28.891  29.330  1.00  0.00     0.064 A 
ATOM     72  C   UNL A   1      39.387  28.664  30.650  1.00  0.00     0.173 A 
ATOM     73  C   UNL A   1      38.864  29.405  28.425  1.00  0.00     0.173 A 
ATOM     74  F   UNL A   1      40.243  28.164  31.554  1.00  0.00    -0.203 F 
ATOM     75  C   UNL A   1      38.072  28.909  31.039  1.00  0.00     0.198 A 
ATOM     76  C   UNL A   1      37.560  29.683  28.826  1.00  0.00     0.198 A 
ATOM     77  F   UNL A   1      39.210  29.647  27.151  1.00  0.00    -0.203 F 
ATOM     78  F   UNL A   1      37.682  28.632  32.291  1.00  0.00    -0.200 F 
ATOM     79  C   UNL A   1      37.162  29.426  30.129  1.00  0.00     0.200 A 
ATOM     80  F   UNL A   1      36.686  30.199  27.949  1.00  0.00    -0.200 F 
ATOM     81  F   UNL A   1      35.900  29.670  30.506  1.00  0.00    -0.200 F 
ENDBRANCH  57  71
BRANCH  58  82
ATOM     82  C   UNL A   1      49.030  26.834  26.077  1.00  0.00     0.064 A 
ATOM     83  C   UNL A   1      49.364  27.059  24.733  1.00  0.00     0.173 A 
ATOM     84  C   UNL A   1      50.026  26.318  26.917  1.00  0.00     0.173 A 
ATOM     85  F   UNL A   1      48.440  27.534  23.884  1.00  0.00    -0.203 F 
ATOM     86  C   UNL A   1      50.632  26.751  24.245  1.00  0.00     0.198 A 
ATOM     87  C   UNL A   1      51.304  26.042  26.435  1.00  0.00     0.198 A 
ATOM     88  F   UNL A   1      49.763  26.090  28.212  1.00  0.00    -0.203 F 
ATOM     89  F   UNL A   1      50.906  26.924  22.945  1.00  0.00    -0.200 F 
ATOM     90  C   UNL A   1      51.603  26.249  25.097  1.00  0.00     0.200 A 
ATOM     91  F   UNL A   1      52.246  25.574  27.266  1.00  0.00    -0.200 F 
ATOM     92  F   UNL A   1      52.823  25.955  24.627  1.00  0.00    -0.200 F 
ENDBRANCH  58  82
BRANCH  70  93
ATOM     93  C   UNL A   1      46.023  32.510  28.792  1.00  0.00     0.064 A 
ATOM     94  C   UNL A   1      45.959  33.568  27.873  1.00  0.00     0.173 A 
ATOM     95  C   UNL A   1      46.559  32.775  30.061  1.00  0.00     0.173 A 
ATOM     96  F   UNL A   1      45.468  33.365  26.641  1.00  0.00    -0.203 F 
ATOM     97  C   UNL A   1      46.442  34.832  28.203  1.00  0.00     0.198 A 
ATOM     98  C   UNL A   1      47.006  34.049  30.400  1.00  0.00     0.198 A 
ATOM     99  F   UNL A   1      46.636  31.801  30.980  1.00  0.00    -0.203 F 
ATOM    100  F   UNL A   1      46.423  35.814  27.290  1.00  0.00    -0.200 F 
ATOM    101  C   UNL A   1      46.957  35.073  29.468  1.00  0.00     0.200 A 
ATOM    102  F   UNL A   1      47.486  34.284  31.630  1.00  0.00    -0.200 F 
ATOM    103  F   UNL A   1      47.411  36.293  29.787  1.00  0.00    -0.200 F 
ENDBRANCH  70  93
ENDBRANCH  44  45
ENDBRANCH  36  39
ENDBRANCH  34  35
ENDBRANCH  33  34
ENDBRANCH  32  33
ENDBRANCH   1  32
TORSDOF 15
ENDMDL
MODEL 3
REMARK VINA RESULT:     -12.9      0.546      7.186
REMARK SMILES Cn1c(C[NH+]2CCC3(CC2)NC(=O)C[C@@H]3C(=O)NCCCCCCNC(=O)c2ccc(-c3c4nc(c(-c5c(F)c(F)c(F)c(F)c5F)c5ccc([nH]5)c(-c5c(F)c(F)c(F)c(F)c5F)c5nc(c(-c6c(F)c(F)c(F)c(F)c6F)c6ccc3[nH]6)C=C5)C=C4)cc2)nc2ccccc21
REMARK SMILES IDX 21 1 20 2 19 3 18 4 16 5 17 6 15 8 5 9 6 10 10 11 7 13 9 14
REMARK SMILES IDX 8 15 11 16 12 17 14 19 13 20 4 21 3 22 1 23 2 24 97 25 91 26
REMARK SMILES IDX 92 27 96 28 93 29 95 30 94 31 22 32 23 33 24 34 25 35 26 36
REMARK SMILES IDX 27 38 28 39 29 40 90 41 30 42 89 43 31 44 32 45 33 46 83 47
REMARK SMILES IDX 34 48 88 49 82 50 84 51 35 52 87 53 81 54 80 55 36 57 68 58
REMARK SMILES IDX 48 59 67 60 49 61 52 62 66 63 85 64 50 65 51 66 65 68 86 69
REMARK SMILES IDX 53 70 37 71 38 72 46 73 39 74 40 75 44 76 47 77 41 78 42 79
REMARK SMILES IDX 45 80 43 81 69 82 70 83 78 84 71 85 72 86 76 87 79 88 73 89
REMARK SMILES IDX 74 90 77 91 75 92 54 93 55 94 63 95 56 96 57 97 61 98 64 99
REMARK SMILES IDX 58 100 59 101 62 102 60 103
REMARK H PARENT 18 7 5 12 11 18 25 37 84 56 52 67
REMARK Flexibility Score: inf
ROOT
ATOM      1  C   UNL A   1      37.585  22.270  25.754  1.00  0.00     0.002 C 
ENDROOT
BRANCH   1   2
ATOM      2  C   UNL A   1      37.349  23.703  25.280  1.00  0.00     0.021 C 
BRANCH   2   3
ATOM      3  C   UNL A   1      35.892  24.079  24.999  1.00  0.00     0.116 C 
BRANCH   3   4
ATOM      4  N   UNL A   1      35.040  23.748  26.120  1.00  0.00    -0.356 N 
ATOM      5  C   UNL A   1      34.134  22.752  26.291  1.00  0.00     0.226 C 
ATOM      6  O   UNL A   1      33.549  22.716  27.375  1.00  0.00    -0.275 OA
ATOM      7  H   UNL A   1      35.134  24.351  26.893  1.00  0.00     0.163 HD
BRANCH   5   8
ATOM      8  C   UNL A   1      33.854  21.747  25.184  1.00  0.00     0.114 C 
ATOM      9  N   UNL A   1      32.159  24.940  23.401  1.00  0.00    -0.328 N 
ATOM     10  C   UNL A   1      31.817  24.468  24.736  1.00  0.00     0.265 C 
ATOM     11  C   UNL A   1      33.165  24.139  22.712  1.00  0.00     0.265 C 
ATOM     12  H   UNL A   1      32.629  25.825  23.598  1.00  0.00     0.348 HD
ATOM     13  C   UNL A   1      31.561  22.966  24.860  1.00  0.00     0.091 C 
ATOM     14  C   UNL A   1      33.109  22.623  22.868  1.00  0.00     0.091 C 
ATOM     15  C   UNL A   1      32.660  22.087  24.239  1.00  0.00     0.063 C 
ATOM     16  N   UNL A   1      32.093  20.761  23.996  1.00  0.00    -0.349 N 
ATOM     17  C   UNL A   1      32.527  19.777  24.842  1.00  0.00     0.221 C 
ATOM     18  H   UNL A   1      31.446  20.588  23.274  1.00  0.00     0.164 HD
ATOM     19  C   UNL A   1      33.477  20.390  25.820  1.00  0.00     0.116 C 
ATOM     20  O   UNL A   1      32.171  18.616  24.809  1.00  0.00    -0.275 OA
BRANCH   9  21
ATOM     21  C   UNL A   1      31.029  25.360  22.551  1.00  0.00     0.339 C 
BRANCH  21  22
ATOM     22  C   UNL A   1      30.553  26.755  22.816  1.00  0.00     0.165 A 
ATOM     23  C   UNL A   1      28.532  26.228  24.251  1.00  0.00     0.152 C 
ATOM     24  N   UNL A   1      29.396  27.093  23.485  1.00  0.00    -0.326 N 
ATOM     25  C   UNL A   1      29.075  28.385  23.126  1.00  0.00     0.068 A 
ATOM     26  N   UNL A   1      31.115  27.833  22.300  1.00  0.00    -0.227 NA
ATOM     27  C   UNL A   1      30.165  28.811  22.376  1.00  0.00     0.089 A 
ATOM     28  C   UNL A   1      27.942  29.181  23.323  1.00  0.00     0.028 A 
ATOM     29  C   UNL A   1      30.136  30.062  21.747  1.00  0.00     0.030 A 
ATOM     30  C   UNL A   1      27.917  30.418  22.667  1.00  0.00     0.002 A 
ATOM     31  C   UNL A   1      28.988  30.849  21.881  1.00  0.00     0.002 A 
ENDBRANCH  21  22
ENDBRANCH   9  21
ENDBRANCH   5   8
ENDBRANCH   3   4
ENDBRANCH   2   3
ENDBRANCH   1   2
BRANCH   1  32
ATOM     32  C   UNL A   1      37.463  21.200  24.673  1.00  0.00     0.002 C 
BRANCH  32  33
ATOM     33  C   UNL A   1      38.310  19.949  24.907  1.00  0.00     0.021 C 
BRANCH  33  34
ATOM     34  C   UNL A   1      39.185  19.993  26.154  1.00  0.00     0.116 C 
BRANCH  34  35
ATOM     35  N   UNL A   1      40.310  19.077  26.068  1.00  0.00    -0.352 N 
ATOM     36  C   UNL A   1      41.653  19.355  26.038  1.00  0.00     0.251 C 
ATOM     37  H   UNL A   1      40.075  18.122  26.025  1.00  0.00     0.163 HD
ATOM     38  O   UNL A   1      42.463  18.481  25.752  1.00  0.00    -0.269 OA
BRANCH  36  39
ATOM     39  C   UNL A   1      42.119  20.725  26.334  1.00  0.00     0.039 A 
ATOM     40  C   UNL A   1      42.318  21.615  25.277  1.00  0.00     0.014 A 
ATOM     41  C   UNL A   1      42.359  21.128  27.651  1.00  0.00     0.014 A 
ATOM     42  C   UNL A   1      42.706  22.928  25.546  1.00  0.00     0.010 A 
ATOM     43  C   UNL A   1      42.664  22.458  27.922  1.00  0.00     0.010 A 
ATOM     44  C   UNL A   1      42.851  23.369  26.872  1.00  0.00    -0.014 A 
BRANCH  44  45
ATOM     45  C   UNL A   1      43.214  24.776  27.177  1.00  0.00     0.031 A 
ATOM     46  C   UNL A   1      44.616  25.264  26.932  1.00  0.00     0.074 A 
ATOM     47  C   UNL A   1      42.298  25.599  27.725  1.00  0.00     0.049 A 
ATOM     48  N   UNL A   1      45.142  26.436  27.185  1.00  0.00    -0.248 NA
ATOM     49  C   UNL A   1      45.560  24.297  26.349  1.00  0.00     0.031 C 
ATOM     50  C   UNL A   1      40.919  25.231  28.049  1.00  0.00     0.029 A 
ATOM     51  N   UNL A   1      42.391  26.912  28.112  1.00  0.00    -0.354 N 
ATOM     52  C   UNL A   1      46.474  26.342  26.803  1.00  0.00     0.074 A 
ATOM     53  C   UNL A   1      46.693  24.983  26.361  1.00  0.00     0.031 C 
ATOM     54  C   UNL A   1      40.288  26.299  28.561  1.00  0.00     0.029 A 
ATOM     55  C   UNL A   1      41.228  27.414  28.644  1.00  0.00     0.049 A 
ATOM     56  H   UNL A   1      43.214  27.445  28.018  1.00  0.00     0.167 HD
ATOM     57  C   UNL A   1      47.422  27.310  26.799  1.00  0.00     0.037 A 
ATOM     58  C   UNL A   1      40.954  28.631  29.150  1.00  0.00     0.037 A 
ATOM     59  C   UNL A   1      47.194  28.665  27.226  1.00  0.00     0.049 A 
ATOM     60  C   UNL A   1      42.034  29.681  29.155  1.00  0.00     0.074 A 
ATOM     61  C   UNL A   1      48.074  29.734  27.212  1.00  0.00     0.029 A 
ATOM     62  N   UNL A   1      46.000  29.137  27.753  1.00  0.00    -0.354 N 
ATOM     63  N   UNL A   1      43.270  29.602  28.728  1.00  0.00    -0.248 NA
ATOM     64  C   UNL A   1      41.676  30.994  29.710  1.00  0.00     0.031 C 
ATOM     65  C   UNL A   1      47.433  30.835  27.787  1.00  0.00     0.029 A 
ATOM     66  C   UNL A   1      46.130  30.474  28.094  1.00  0.00     0.049 A 
ATOM     67  H   UNL A   1      45.182  28.602  27.868  1.00  0.00     0.167 HD
ATOM     68  C   UNL A   1      43.826  30.860  28.926  1.00  0.00     0.074 A 
ATOM     69  C   UNL A   1      42.786  31.686  29.501  1.00  0.00     0.031 C 
ATOM     70  C   UNL A   1      45.083  31.290  28.656  1.00  0.00     0.037 A 
BRANCH  57  71
ATOM     71  C   UNL A   1      48.796  26.935  26.319  1.00  0.00     0.064 A 
ATOM     72  C   UNL A   1      49.766  26.411  27.188  1.00  0.00     0.173 A 
ATOM     73  C   UNL A   1      49.137  27.068  24.964  1.00  0.00     0.173 A 
ATOM     74  F   UNL A   1      49.496  26.271  28.495  1.00  0.00    -0.203 F 
ATOM     75  C   UNL A   1      51.033  26.066  26.726  1.00  0.00     0.198 A 
ATOM     76  C   UNL A   1      50.394  26.689  24.499  1.00  0.00     0.198 A 
ATOM     77  F   UNL A   1      48.248  27.558  24.086  1.00  0.00    -0.203 F 
ATOM     78  F   UNL A   1      51.960  25.619  27.586  1.00  0.00    -0.200 F 
ATOM     79  C   UNL A   1      51.344  26.197  25.381  1.00  0.00     0.200 A 
ATOM     80  F   UNL A   1      50.686  26.801  23.195  1.00  0.00    -0.200 F 
ATOM     81  F   UNL A   1      52.561  25.857  24.936  1.00  0.00    -0.200 F 
ENDBRANCH  57  71
BRANCH  58  82
ATOM     82  C   UNL A   1      39.596  28.931  29.677  1.00  0.00     0.064 A 
ATOM     83  C   UNL A   1      38.599  29.457  28.844  1.00  0.00     0.173 A 
ATOM     84  C   UNL A   1      39.271  28.711  31.023  1.00  0.00     0.173 A 
ATOM     85  F   UNL A   1      38.866  29.704  27.552  1.00  0.00    -0.203 F 
ATOM     86  C   UNL A   1      37.338  29.778  29.343  1.00  0.00     0.198 A 
ATOM     87  C   UNL A   1      37.999  29.001  31.513  1.00  0.00     0.198 A 
ATOM     88  F   UNL A   1      40.185  28.204  31.862  1.00  0.00    -0.203 F 
ATOM     89  F   UNL A   1      36.422  30.331  28.537  1.00  0.00    -0.200 F 
ATOM     90  C   UNL A   1      37.037  29.544  30.676  1.00  0.00     0.200 A 
ATOM     91  F   UNL A   1      37.707  28.757  32.799  1.00  0.00    -0.200 F 
ATOM     92  F   UNL A   1      35.824  29.851  31.155  1.00  0.00    -0.200 F 
ENDBRANCH  58  82
BRANCH  70  93
ATOM     93  C   UNL A   1      45.393  32.734  28.930  1.00  0.00     0.064 A 
ATOM     94  C   UNL A   1      45.149  33.739  27.981  1.00  0.00     0.173 A 
ATOM     95  C   UNL A   1      45.904  33.123  30.178  1.00  0.00     0.173 A 
ATOM     96  F   UNL A   1      44.673  33.421  26.767  1.00  0.00    -0.203 F 
ATOM     97  C   UNL A   1      45.434  35.072  28.261  1.00  0.00     0.198 A 
ATOM     98  C   UNL A   1      46.153  34.461  30.467  1.00  0.00     0.198 A 
ATOM     99  F   UNL A   1      46.148  32.204  31.124  1.00  0.00    -0.203 F 
ATOM    100  F   UNL A   1      45.245  36.008  27.320  1.00  0.00    -0.200 F 
ATOM    101  C   UNL A   1      45.928  35.433  29.506  1.00  0.00     0.200 A 
ATOM    102  F   UNL A   1      46.612  34.808  31.678  1.00  0.00    -0.200 F 
ATOM    103  F   UNL A   1      46.192  36.719  29.778  1.00  0.00    -0.200 F 
ENDBRANCH  70  93
ENDBRANCH  44  45
ENDBRANCH  36  39
ENDBRANCH  34  35
ENDBRANCH  33  34
ENDBRANCH  32  33
ENDBRANCH   1  32
TORSDOF 15
ENDMDL
