MODEL 1
REMARK VINA RESULT:     -11.9      0.000      0.000
REMARK SMILES O=C(CNC(=O)CN1C(=O)S/C(=C\c2cccc(Br)c2)C1=O)NCCCCCCNC(=O)c1ccc(-c2c3nc(c(-c4c(F)c(F)c(F)c(F)c4F)c4ccc([nH]4)c(-c4c(F)c(F)c(F)c(F)c4F)c4nc(c(-c5c(F)c(F)c(F)c(F)c5F)c5ccc2[nH]5)C=C4)C=C3)cc1
REMARK SMILES IDX 25 1 24 2 23 3 1 4 2 5 3 7 4 8 5 9 6 11 7 12 8 13 9 14 21 15
REMARK SMILES IDX 10 16 11 17 12 18 22 19 13 20 14 21 15 22 20 23 16 24 18 25
REMARK SMILES IDX 17 26 19 27 26 28 27 29 28 30 29 31 30 32 31 33 32 35 33 36
REMARK SMILES IDX 34 37 95 38 35 39 94 40 36 41 37 42 38 43 88 44 39 45 93 46
REMARK SMILES IDX 87 47 89 48 40 49 92 50 86 51 85 52 41 54 73 55 53 56 72 57
REMARK SMILES IDX 54 58 57 59 71 60 90 61 55 62 56 63 70 65 91 66 58 67 42 68
REMARK SMILES IDX 43 69 51 70 44 71 45 72 49 73 52 74 46 75 47 76 50 77 48 78
REMARK SMILES IDX 74 79 75 80 83 81 76 82 77 83 81 84 84 85 78 86 79 87 82 88
REMARK SMILES IDX 80 89 59 90 60 91 68 92 61 93 62 94 66 95 69 96 63 97 64 98
REMARK SMILES IDX 67 99 65 100
REMARK H PARENT 23 6 4 10 30 34 89 53 57 64
REMARK Flexibility Score: inf
ROOT
ATOM      1  C   UNL A   1      34.163  31.904  28.384  1.00  0.00     0.021 C 
ENDROOT
BRANCH   1   2
ATOM      2  C   UNL A   1      34.388  30.628  27.577  1.00  0.00     0.116 C 
BRANCH   2   3
ATOM      3  N   UNL A   1      33.410  30.492  26.514  1.00  0.00    -0.355 N 
ATOM      4  O   UNL A   1      32.165  28.863  27.542  1.00  0.00    -0.273 OA
ATOM      5  C   UNL A   1      32.352  29.611  26.587  1.00  0.00     0.239 C 
ATOM      6  H   UNL A   1      33.507  31.050  25.710  1.00  0.00     0.163 HD
BRANCH   5   7
ATOM      7  C   UNL A   1      31.476  29.552  25.329  1.00  0.00     0.216 C 
BRANCH   7   8
ATOM      8  N   UNL A   1      32.247  29.657  24.098  1.00  0.00    -0.345 N 
ATOM      9  C   UNL A   1      32.265  28.866  22.993  1.00  0.00     0.240 C 
ATOM     10  H   UNL A   1      32.857  30.429  24.059  1.00  0.00     0.164 HD
ATOM     11  O   UNL A   1      32.931  29.266  22.035  1.00  0.00    -0.273 OA
BRANCH   9  12
ATOM     12  C   UNL A   1      31.444  27.578  22.899  1.00  0.00     0.229 C 
BRANCH  12  13
ATOM     13  N   UNL A   1      32.093  26.399  23.451  1.00  0.00    -0.259 N 
ATOM     14  C   UNL A   1      31.767  25.943  24.699  1.00  0.00     0.294 C 
ATOM     15  C   UNL A   1      33.154  25.785  22.830  1.00  0.00     0.268 C 
ATOM     16  O   UNL A   1      30.827  26.299  25.391  1.00  0.00    -0.261 OA
ATOM     17  S   UNL A   1      32.886  24.681  25.195  1.00  0.00    -0.022 SA
ATOM     18  C   UNL A   1      33.622  24.628  23.643  1.00  0.00     0.083 C 
ATOM     19  O   UNL A   1      33.652  26.112  21.763  1.00  0.00    -0.268 OA
ATOM     20  C   UNL A   1      34.416  23.677  23.130  1.00  0.00     0.029 C 
BRANCH  20  21
ATOM     21  C   UNL A   1      34.763  22.414  23.790  1.00  0.00    -0.023 A 
ATOM     22  C   UNL A   1      36.088  22.204  24.196  1.00  0.00     0.008 A 
ATOM     23  C   UNL A   1      33.812  21.420  24.027  1.00  0.00     0.023 A 
ATOM     24  C   UNL A   1      36.476  20.998  24.781  1.00  0.00     0.002 A 
ATOM     25  C   UNL A   1      34.200  20.225  24.640  1.00  0.00     0.018 A 
ATOM     26  C   UNL A   1      35.529  20.004  25.003  1.00  0.00     0.016 A 
ATOM     27  Br  UNL A   1      32.907  18.895  25.003  1.00  0.00    -0.051 Br
ENDBRANCH  20  21
ENDBRANCH  12  13
ENDBRANCH   9  12
ENDBRANCH   7   8
ENDBRANCH   5   7
ENDBRANCH   2   3
ENDBRANCH   1   2
BRANCH   1  28
ATOM     28  C   UNL A   1      35.353  32.866  28.348  1.00  0.00     0.002 C 
BRANCH  28  29
ATOM     29  C   UNL A   1      35.160  34.218  29.033  1.00  0.00     0.002 C 
BRANCH  29  30
ATOM     30  C   UNL A   1      33.712  34.693  29.122  1.00  0.00     0.021 C 
BRANCH  30  31
ATOM     31  C   UNL A   1      33.539  36.160  29.503  1.00  0.00     0.116 C 
BRANCH  31  32
ATOM     32  N   UNL A   1      32.531  36.364  30.534  1.00  0.00    -0.352 N 
ATOM     33  C   UNL A   1      32.482  35.859  31.811  1.00  0.00     0.251 C 
ATOM     34  H   UNL A   1      31.778  36.945  30.279  1.00  0.00     0.163 HD
ATOM     35  O   UNL A   1      31.478  35.996  32.503  1.00  0.00    -0.269 OA
BRANCH  33  36
ATOM     36  C   UNL A   1      33.644  35.117  32.347  1.00  0.00     0.039 A 
ATOM     37  C   UNL A   1      33.480  33.789  32.745  1.00  0.00     0.014 A 
ATOM     38  C   UNL A   1      34.897  35.728  32.433  1.00  0.00     0.014 A 
ATOM     39  C   UNL A   1      34.592  33.048  33.156  1.00  0.00     0.010 A 
ATOM     40  C   UNL A   1      36.015  34.966  32.762  1.00  0.00     0.010 A 
ATOM     41  C   UNL A   1      35.875  33.618  33.128  1.00  0.00    -0.014 A 
BRANCH  41  42
ATOM     42  C   UNL A   1      37.086  32.832  33.486  1.00  0.00     0.031 A 
ATOM     43  C   UNL A   1      37.818  33.125  34.767  1.00  0.00     0.074 A 
ATOM     44  C   UNL A   1      37.569  31.909  32.630  1.00  0.00     0.049 A 
ATOM     45  N   UNL A   1      38.949  32.633  35.208  1.00  0.00    -0.248 NA
ATOM     46  C   UNL A   1      37.214  34.126  35.661  1.00  0.00     0.031 C 
ATOM     47  C   UNL A   1      36.972  31.554  31.341  1.00  0.00     0.029 A 
ATOM     48  N   UNL A   1      38.684  31.110  32.708  1.00  0.00    -0.354 N 
ATOM     49  C   UNL A   1      39.197  33.276  36.414  1.00  0.00     0.074 A 
ATOM     50  C   UNL A   1      38.129  34.230  36.614  1.00  0.00     0.031 C 
ATOM     51  C   UNL A   1      37.717  30.601  30.757  1.00  0.00     0.029 A 
ATOM     52  C   UNL A   1      38.868  30.309  31.605  1.00  0.00     0.049 A 
ATOM     53  H   UNL A   1      39.294  31.110  33.481  1.00  0.00     0.167 HD
ATOM     54  C   UNL A   1      40.213  33.073  37.285  1.00  0.00     0.037 A 
ATOM     55  C   UNL A   1      39.864  29.451  31.305  1.00  0.00     0.037 A 
ATOM     56  C   UNL A   1      41.257  32.100  37.099  1.00  0.00     0.049 A 
ATOM     57  C   UNL A   1      40.994  29.264  32.285  1.00  0.00     0.074 A 
ATOM     58  C   UNL A   1      42.295  31.778  37.957  1.00  0.00     0.029 A 
ATOM     59  N   UNL A   1      41.397  31.294  35.980  1.00  0.00    -0.354 N 
ATOM     60  N   UNL A   1      41.180  29.829  33.453  1.00  0.00    -0.248 NA
ATOM     61  C   UNL A   1      42.051  28.314  31.908  1.00  0.00     0.031 C 
ATOM     62  C   UNL A   1      43.098  30.822  37.329  1.00  0.00     0.029 A 
ATOM     63  C   UNL A   1      42.521  30.495  36.113  1.00  0.00     0.049 A 
ATOM     64  H   UNL A   1      40.789  31.290  35.206  1.00  0.00     0.167 HD
ATOM     65  C   UNL A   1      42.344  29.272  33.967  1.00  0.00     0.074 A 
ATOM     66  C   UNL A   1      42.818  28.318  32.988  1.00  0.00     0.031 C 
ATOM     67  C   UNL A   1      42.964  29.526  35.144  1.00  0.00     0.037 A 
BRANCH  54  68
ATOM     68  C   UNL A   1      40.254  33.915  38.528  1.00  0.00     0.064 A 
ATOM     69  C   UNL A   1      40.959  35.127  38.576  1.00  0.00     0.173 A 
ATOM     70  C   UNL A   1      39.517  33.539  39.662  1.00  0.00     0.173 A 
ATOM     71  F   UNL A   1      41.687  35.527  37.523  1.00  0.00    -0.203 F 
ATOM     72  C   UNL A   1      40.939  35.922  39.719  1.00  0.00     0.198 A 
ATOM     73  C   UNL A   1      39.473  34.353  40.791  1.00  0.00     0.198 A 
ATOM     74  F   UNL A   1      38.821  32.393  39.667  1.00  0.00    -0.203 F 
ATOM     75  F   UNL A   1      41.652  37.057  39.757  1.00  0.00    -0.200 F 
ATOM     76  C   UNL A   1      40.187  35.541  40.820  1.00  0.00     0.200 A 
ATOM     77  F   UNL A   1      38.732  33.991  41.848  1.00  0.00    -0.200 F 
ATOM     78  F   UNL A   1      40.154  36.317  41.912  1.00  0.00    -0.200 F 
ENDBRANCH  54  68
BRANCH  55  79
ATOM     79  C   UNL A   1      39.851  28.697  30.020  1.00  0.00     0.064 A 
ATOM     80  C   UNL A   1      39.301  27.408  29.945  1.00  0.00     0.173 A 
ATOM     81  C   UNL A   1      40.430  29.224  28.856  1.00  0.00     0.173 A 
ATOM     82  F   UNL A   1      38.753  26.850  31.034  1.00  0.00    -0.203 F 
ATOM     83  C   UNL A   1      39.370  26.662  28.769  1.00  0.00     0.198 A 
ATOM     84  C   UNL A   1      40.465  28.491  27.672  1.00  0.00     0.198 A 
ATOM     85  F   UNL A   1      40.965  30.454  28.869  1.00  0.00    -0.203 F 
ATOM     86  F   UNL A   1      38.902  25.406  28.748  1.00  0.00    -0.200 F 
ATOM     87  C   UNL A   1      39.949  27.206  27.634  1.00  0.00     0.200 A 
ATOM     88  F   UNL A   1      41.011  29.026  26.572  1.00  0.00    -0.200 F 
ATOM     89  F   UNL A   1      40.022  26.485  26.506  1.00  0.00    -0.200 F 
ENDBRANCH  55  79
BRANCH  67  90
ATOM     90  C   UNL A   1      44.184  28.716  35.482  1.00  0.00     0.064 A 
ATOM     91  C   UNL A   1      44.106  27.528  36.222  1.00  0.00     0.173 A 
ATOM     92  C   UNL A   1      45.443  29.109  35.002  1.00  0.00     0.173 A 
ATOM     93  F   UNL A   1      42.929  27.114  36.716  1.00  0.00    -0.203 F 
ATOM     94  C   UNL A   1      45.248  26.777  36.492  1.00  0.00     0.198 A 
ATOM     95  C   UNL A   1      46.576  28.337  35.241  1.00  0.00     0.198 A 
ATOM     96  F   UNL A   1      45.571  30.232  34.281  1.00  0.00    -0.203 F 
ATOM     97  F   UNL A   1      45.157  25.671  37.242  1.00  0.00    -0.200 F 
ATOM     98  C   UNL A   1      46.478  27.176  35.992  1.00  0.00     0.200 A 
ATOM     99  F   UNL A   1      47.760  28.715  34.742  1.00  0.00    -0.200 F 
ATOM    100  F   UNL A   1      47.573  26.444  36.239  1.00  0.00    -0.200 F 
ENDBRANCH  67  90
ENDBRANCH  41  42
ENDBRANCH  33  36
ENDBRANCH  31  32
ENDBRANCH  30  31
ENDBRANCH  29  30
ENDBRANCH  28  29
ENDBRANCH   1  28
TORSDOF 17
ENDMDL
MODEL 2
REMARK VINA RESULT:     -11.6      5.220      9.222
REMARK SMILES O=C(CNC(=O)CN1C(=O)S/C(=C\c2cccc(Br)c2)C1=O)NCCCCCCNC(=O)c1ccc(-c2c3nc(c(-c4c(F)c(F)c(F)c(F)c4F)c4ccc([nH]4)c(-c4c(F)c(F)c(F)c(F)c4F)c4nc(c(-c5c(F)c(F)c(F)c(F)c5F)c5ccc2[nH]5)C=C4)C=C3)cc1
REMARK SMILES IDX 25 1 24 2 23 3 1 4 2 5 3 7 4 8 5 9 6 11 7 12 8 13 9 14 21 15
REMARK SMILES IDX 10 16 11 17 12 18 22 19 13 20 14 21 15 22 20 23 16 24 18 25
REMARK SMILES IDX 17 26 19 27 26 28 27 29 28 30 29 31 30 32 31 33 32 35 33 36
REMARK SMILES IDX 34 37 95 38 35 39 94 40 36 41 37 42 38 43 88 44 39 45 93 46
REMARK SMILES IDX 87 47 89 48 40 49 92 50 86 51 85 52 41 54 73 55 53 56 72 57
REMARK SMILES IDX 54 58 57 59 71 60 90 61 55 62 56 63 70 65 91 66 58 67 42 68
REMARK SMILES IDX 43 69 51 70 44 71 45 72 49 73 52 74 46 75 47 76 50 77 48 78
REMARK SMILES IDX 74 79 75 80 83 81 76 82 77 83 81 84 84 85 78 86 79 87 82 88
REMARK SMILES IDX 80 89 59 90 60 91 68 92 61 93 62 94 66 95 69 96 63 97 64 98
REMARK SMILES IDX 67 99 65 100
REMARK H PARENT 23 6 4 10 30 34 89 53 57 64
REMARK Flexibility Score: inf
ROOT
ATOM      1  C   UNL A   1      38.212  33.624  31.067  1.00  0.00     0.021 C 
ENDROOT
BRANCH   1   2
ATOM      2  C   UNL A   1      37.792  33.856  32.515  1.00  0.00     0.116 C 
BRANCH   2   3
ATOM      3  N   UNL A   1      37.712  32.608  33.251  1.00  0.00    -0.355 N 
ATOM      4  O   UNL A   1      39.920  32.557  33.871  1.00  0.00    -0.273 OA
ATOM      5  C   UNL A   1      38.801  32.052  33.890  1.00  0.00     0.239 C 
ATOM      6  H   UNL A   1      36.849  32.139  33.294  1.00  0.00     0.163 HD
BRANCH   5   7
ATOM      7  C   UNL A   1      38.538  30.689  34.542  1.00  0.00     0.216 C 
BRANCH   7   8
ATOM      8  N   UNL A   1      38.729  29.576  33.621  1.00  0.00    -0.345 N 
ATOM      9  C   UNL A   1      39.844  28.860  33.316  1.00  0.00     0.240 C 
ATOM     10  H   UNL A   1      37.917  29.296  33.140  1.00  0.00     0.164 HD
ATOM     11  O   UNL A   1      39.689  27.878  32.586  1.00  0.00    -0.273 OA
BRANCH   9  12
ATOM     12  C   UNL A   1      41.216  29.197  33.903  1.00  0.00     0.229 C 
BRANCH  12  13
ATOM     13  N   UNL A   1      41.945  28.060  34.441  1.00  0.00    -0.259 N 
ATOM     14  C   UNL A   1      41.846  27.731  35.766  1.00  0.00     0.294 C 
ATOM     15  C   UNL A   1      42.872  27.365  33.703  1.00  0.00     0.268 C 
ATOM     16  O   UNL A   1      41.049  28.173  36.577  1.00  0.00    -0.261 OA
ATOM     17  S   UNL A   1      43.028  26.495  36.173  1.00  0.00    -0.022 SA
ATOM     18  C   UNL A   1      43.471  26.278  34.527  1.00  0.00     0.083 C 
ATOM     19  O   UNL A   1      43.172  27.579  32.538  1.00  0.00    -0.268 OA
ATOM     20  C   UNL A   1      44.153  25.265  33.974  1.00  0.00     0.029 C 
BRANCH  20  21
ATOM     21  C   UNL A   1      44.604  24.061  34.680  1.00  0.00    -0.023 A 
ATOM     22  C   UNL A   1      44.619  22.839  33.994  1.00  0.00     0.008 A 
ATOM     23  C   UNL A   1      45.021  24.099  36.012  1.00  0.00     0.023 A 
ATOM     24  C   UNL A   1      44.990  21.659  34.638  1.00  0.00     0.002 A 
ATOM     25  C   UNL A   1      45.421  22.918  36.644  1.00  0.00     0.018 A 
ATOM     26  C   UNL A   1      45.392  21.697  35.969  1.00  0.00     0.016 A 
ATOM     27  Br  UNL A   1      46.028  22.973  38.434  1.00  0.00    -0.051 Br
ENDBRANCH  20  21
ENDBRANCH  12  13
ENDBRANCH   9  12
ENDBRANCH   7   8
ENDBRANCH   5   7
ENDBRANCH   2   3
ENDBRANCH   1   2
BRANCH   1  28
ATOM     28  C   UNL A   1      37.143  32.919  30.227  1.00  0.00     0.002 C 
BRANCH  28  29
ATOM     29  C   UNL A   1      36.887  33.486  28.831  1.00  0.00     0.002 C 
BRANCH  29  30
ATOM     30  C   UNL A   1      35.450  33.347  28.334  1.00  0.00     0.021 C 
BRANCH  30  31
ATOM     31  C   UNL A   1      34.570  32.416  29.163  1.00  0.00     0.116 C 
BRANCH  31  32
ATOM     32  N   UNL A   1      34.038  31.302  28.391  1.00  0.00    -0.352 N 
ATOM     33  C   UNL A   1      34.691  30.198  27.896  1.00  0.00     0.251 C 
ATOM     34  H   UNL A   1      33.074  31.346  28.196  1.00  0.00     0.163 HD
ATOM     35  O   UNL A   1      34.128  29.429  27.125  1.00  0.00    -0.269 OA
BRANCH  33  36
ATOM     36  C   UNL A   1      36.099  29.954  28.277  1.00  0.00     0.039 A 
ATOM     37  C   UNL A   1      36.385  29.458  29.551  1.00  0.00     0.014 A 
ATOM     38  C   UNL A   1      37.132  30.192  27.367  1.00  0.00     0.014 A 
ATOM     39  C   UNL A   1      37.701  29.127  29.885  1.00  0.00     0.010 A 
ATOM     40  C   UNL A   1      38.428  29.784  27.672  1.00  0.00     0.010 A 
ATOM     41  C   UNL A   1      38.727  29.248  28.934  1.00  0.00    -0.014 A 
BRANCH  41  42
ATOM     42  C   UNL A   1      40.123  28.831  29.236  1.00  0.00     0.031 A 
ATOM     43  C   UNL A   1      41.042  29.767  29.973  1.00  0.00     0.074 A 
ATOM     44  C   UNL A   1      40.586  27.648  28.785  1.00  0.00     0.049 A 
ATOM     45  N   UNL A   1      42.318  29.640  30.236  1.00  0.00    -0.248 NA
ATOM     46  C   UNL A   1      40.454  31.027  30.456  1.00  0.00     0.031 C 
ATOM     47  C   UNL A   1      39.808  26.665  28.029  1.00  0.00     0.029 A 
ATOM     48  N   UNL A   1      41.832  27.076  28.884  1.00  0.00    -0.354 N 
ATOM     49  C   UNL A   1      42.687  30.807  30.894  1.00  0.00     0.074 A 
ATOM     50  C   UNL A   1      41.514  31.653  30.947  1.00  0.00     0.031 C 
ATOM     51  C   UNL A   1      40.587  25.608  27.746  1.00  0.00     0.029 A 
ATOM     52  C   UNL A   1      41.931  25.856  28.257  1.00  0.00     0.049 A 
ATOM     53  H   UNL A   1      42.583  27.500  29.358  1.00  0.00     0.167 HD
ATOM     54  C   UNL A   1      43.888  31.133  31.425  1.00  0.00     0.037 A 
ATOM     55  C   UNL A   1      42.992  25.039  28.097  1.00  0.00     0.037 A 
ATOM     56  C   UNL A   1      45.044  30.276  31.399  1.00  0.00     0.049 A 
ATOM     57  C   UNL A   1      44.324  25.442  28.680  1.00  0.00     0.074 A 
ATOM     58  C   UNL A   1      46.289  30.493  31.965  1.00  0.00     0.029 A 
ATOM     59  N   UNL A   1      45.098  29.040  30.774  1.00  0.00    -0.354 N 
ATOM     60  N   UNL A   1      44.640  26.517  29.359  1.00  0.00    -0.248 NA
ATOM     61  C   UNL A   1      45.445  24.513  28.479  1.00  0.00     0.031 C 
ATOM     62  C   UNL A   1      47.114  29.418  31.629  1.00  0.00     0.029 A 
ATOM     63  C   UNL A   1      46.364  28.496  30.917  1.00  0.00     0.049 A 
ATOM     64  H   UNL A   1      44.350  28.613  30.299  1.00  0.00     0.167 HD
ATOM     65  C   UNL A   1      45.979  26.372  29.703  1.00  0.00     0.074 A 
ATOM     66  C   UNL A   1      46.413  25.101  29.166  1.00  0.00     0.031 C 
ATOM     67  C   UNL A   1      46.775  27.215  30.403  1.00  0.00     0.037 A 
BRANCH  54  68
ATOM     68  C   UNL A   1      44.026  32.474  32.086  1.00  0.00     0.064 A 
ATOM     69  C   UNL A   1      43.797  32.648  33.459  1.00  0.00     0.173 A 
ATOM     70  C   UNL A   1      44.465  33.585  31.348  1.00  0.00     0.173 A 
ATOM     71  F   UNL A   1      43.366  31.621  34.206  1.00  0.00    -0.203 F 
ATOM     72  C   UNL A   1      43.984  33.887  34.066  1.00  0.00     0.198 A 
ATOM     73  C   UNL A   1      44.683  34.815  31.965  1.00  0.00     0.198 A 
ATOM     74  F   UNL A   1      44.705  33.473  30.034  1.00  0.00    -0.203 F 
ATOM     75  F   UNL A   1      43.721  34.039  35.371  1.00  0.00    -0.200 F 
ATOM     76  C   UNL A   1      44.439  34.966  33.321  1.00  0.00     0.200 A 
ATOM     77  F   UNL A   1      45.138  35.851  31.247  1.00  0.00    -0.200 F 
ATOM     78  F   UNL A   1      44.637  36.152  33.911  1.00  0.00    -0.200 F 
ENDBRANCH  54  68
BRANCH  55  79
ATOM     79  C   UNL A   1      42.854  23.756  27.354  1.00  0.00     0.064 A 
ATOM     80  C   UNL A   1      42.384  22.598  27.992  1.00  0.00     0.173 A 
ATOM     81  C   UNL A   1      43.235  23.645  26.008  1.00  0.00     0.173 A 
ATOM     82  F   UNL A   1      42.025  22.645  29.284  1.00  0.00    -0.203 F 
ATOM     83  C   UNL A   1      42.340  21.375  27.327  1.00  0.00     0.198 A 
ATOM     84  C   UNL A   1      43.156  22.428  25.334  1.00  0.00     0.198 A 
ATOM     85  F   UNL A   1      43.687  24.721  25.347  1.00  0.00    -0.203 F 
ATOM     86  F   UNL A   1      41.956  20.272  27.984  1.00  0.00    -0.200 F 
ATOM     87  C   UNL A   1      42.724  21.292  25.998  1.00  0.00     0.200 A 
ATOM     88  F   UNL A   1      43.512  22.356  24.044  1.00  0.00    -0.200 F 
ATOM     89  F   UNL A   1      42.690  20.113  25.361  1.00  0.00    -0.200 F 
ENDBRANCH  55  79
BRANCH  67  90
ATOM     90  C   UNL A   1      48.180  26.768  30.695  1.00  0.00     0.064 A 
ATOM     91  C   UNL A   1      49.264  27.151  29.893  1.00  0.00     0.173 A 
ATOM     92  C   UNL A   1      48.448  25.991  31.833  1.00  0.00     0.173 A 
ATOM     93  F   UNL A   1      49.061  27.883  28.786  1.00  0.00    -0.203 F 
ATOM     94  C   UNL A   1      50.561  26.753  30.205  1.00  0.00     0.198 A 
ATOM     95  C   UNL A   1      49.749  25.625  32.163  1.00  0.00     0.198 A 
ATOM     96  F   UNL A   1      47.448  25.605  32.639  1.00  0.00    -0.203 F 
ATOM     97  F   UNL A   1      51.576  27.091  29.398  1.00  0.00    -0.200 F 
ATOM     98  C   UNL A   1      50.804  26.000  31.345  1.00  0.00     0.200 A 
ATOM     99  F   UNL A   1      49.983  24.914  33.274  1.00  0.00    -0.200 F 
ATOM    100  F   UNL A   1      52.055  25.630  31.652  1.00  0.00    -0.200 F 
ENDBRANCH  67  90
ENDBRANCH  41  42
ENDBRANCH  33  36
ENDBRANCH  31  32
ENDBRANCH  30  31
ENDBRANCH  29  30
ENDBRANCH  28  29
ENDBRANCH   1  28
TORSDOF 17
ENDMDL
MODEL 3
REMARK VINA RESULT:     -11.3      5.323      9.331
REMARK SMILES O=C(CNC(=O)CN1C(=O)S/C(=C\c2cccc(Br)c2)C1=O)NCCCCCCNC(=O)c1ccc(-c2c3nc(c(-c4c(F)c(F)c(F)c(F)c4F)c4ccc([nH]4)c(-c4c(F)c(F)c(F)c(F)c4F)c4nc(c(-c5c(F)c(F)c(F)c(F)c5F)c5ccc2[nH]5)C=C4)C=C3)cc1
REMARK SMILES IDX 25 1 24 2 23 3 1 4 2 5 3 7 4 8 5 9 6 11 7 12 8 13 9 14 21 15
REMARK SMILES IDX 10 16 11 17 12 18 22 19 13 20 14 21 15 22 20 23 16 24 18 25
REMARK SMILES IDX 17 26 19 27 26 28 27 29 28 30 29 31 30 32 31 33 32 35 33 36
REMARK SMILES IDX 34 37 95 38 35 39 94 40 36 41 37 42 38 43 88 44 39 45 93 46
REMARK SMILES IDX 87 47 89 48 40 49 92 50 86 51 85 52 41 54 73 55 53 56 72 57
REMARK SMILES IDX 54 58 57 59 71 60 90 61 55 62 56 63 70 65 91 66 58 67 42 68
REMARK SMILES IDX 43 69 51 70 44 71 45 72 49 73 52 74 46 75 47 76 50 77 48 78
REMARK SMILES IDX 74 79 75 80 83 81 76 82 77 83 81 84 84 85 78 86 79 87 82 88
REMARK SMILES IDX 80 89 59 90 60 91 68 92 61 93 62 94 66 95 69 96 63 97 64 98
REMARK SMILES IDX 67 99 65 100
REMARK H PARENT 23 6 4 10 30 34 89 53 57 64
REMARK Flexibility Score: inf
ROOT
ATOM      1  C   UNL A   1      38.348  33.802  31.366  1.00  0.00     0.021 C 
ENDROOT
BRANCH   1   2
ATOM      2  C   UNL A   1      37.792  33.482  32.751  1.00  0.00     0.116 C 
BRANCH   2   3
ATOM      3  N   UNL A   1      38.363  32.260  33.284  1.00  0.00    -0.355 N 
ATOM      4  O   UNL A   1      37.074  32.201  35.180  1.00  0.00    -0.273 OA
ATOM      5  C   UNL A   1      37.944  31.701  34.473  1.00  0.00     0.239 C 
ATOM      6  H   UNL A   1      39.078  31.812  32.777  1.00  0.00     0.163 HD
BRANCH   5   7
ATOM      7  C   UNL A   1      38.726  30.456  34.910  1.00  0.00     0.216 C 
BRANCH   7   8
ATOM      8  N   UNL A   1      39.185  29.653  33.785  1.00  0.00    -0.345 N 
ATOM      9  C   UNL A   1      40.314  28.914  33.625  1.00  0.00     0.240 C 
ATOM     10  H   UNL A   1      38.576  29.644  33.011  1.00  0.00     0.164 HD
ATOM     11  O   UNL A   1      40.387  28.225  32.605  1.00  0.00    -0.273 OA
BRANCH   9  12
ATOM     12  C   UNL A   1      41.415  28.868  34.686  1.00  0.00     0.229 C 
BRANCH  12  13
ATOM     13  N   UNL A   1      42.268  27.692  34.630  1.00  0.00    -0.259 N 
ATOM     14  C   UNL A   1      43.470  27.733  33.976  1.00  0.00     0.294 C 
ATOM     15  C   UNL A   1      41.858  26.463  35.084  1.00  0.00     0.268 C 
ATOM     16  O   UNL A   1      44.048  28.723  33.556  1.00  0.00    -0.261 OA
ATOM     17  S   UNL A   1      44.147  26.115  33.850  1.00  0.00    -0.022 SA
ATOM     18  C   UNL A   1      42.932  25.453  34.869  1.00  0.00     0.083 C 
ATOM     19  O   UNL A   1      40.780  26.209  35.601  1.00  0.00    -0.268 OA
ATOM     20  C   UNL A   1      42.925  24.267  35.495  1.00  0.00     0.029 C 
BRANCH  20  21
ATOM     21  C   UNL A   1      44.029  23.302  35.495  1.00  0.00    -0.023 A 
ATOM     22  C   UNL A   1      44.156  22.419  34.414  1.00  0.00     0.008 A 
ATOM     23  C   UNL A   1      44.955  23.240  36.538  1.00  0.00     0.023 A 
ATOM     24  C   UNL A   1      45.159  21.449  34.394  1.00  0.00     0.002 A 
ATOM     25  C   UNL A   1      45.976  22.286  36.499  1.00  0.00     0.018 A 
ATOM     26  C   UNL A   1      46.072  21.381  35.441  1.00  0.00     0.016 A 
ATOM     27  Br  UNL A   1      47.259  22.228  37.887  1.00  0.00    -0.051 Br
ENDBRANCH  20  21
ENDBRANCH  12  13
ENDBRANCH   9  12
ENDBRANCH   7   8
ENDBRANCH   5   7
ENDBRANCH   2   3
ENDBRANCH   1   2
BRANCH   1  28
ATOM     28  C   UNL A   1      37.846  32.854  30.274  1.00  0.00     0.002 C 
BRANCH  28  29
ATOM     29  C   UNL A   1      37.505  33.485  28.925  1.00  0.00     0.002 C 
BRANCH  29  30
ATOM     30  C   UNL A   1      36.022  33.463  28.560  1.00  0.00     0.021 C 
BRANCH  30  31
ATOM     31  C   UNL A   1      35.158  32.564  29.440  1.00  0.00     0.116 C 
BRANCH  31  32
ATOM     32  N   UNL A   1      34.347  31.630  28.673  1.00  0.00    -0.352 N 
ATOM     33  C   UNL A   1      34.720  30.460  28.057  1.00  0.00     0.251 C 
ATOM     34  H   UNL A   1      33.396  31.871  28.583  1.00  0.00     0.163 HD
ATOM     35  O   UNL A   1      33.947  29.868  27.311  1.00  0.00    -0.269 OA
BRANCH  33  36
ATOM     36  C   UNL A   1      36.081  29.923  28.275  1.00  0.00     0.039 A 
ATOM     37  C   UNL A   1      37.036  30.052  27.264  1.00  0.00     0.014 A 
ATOM     38  C   UNL A   1      36.418  29.316  29.488  1.00  0.00     0.014 A 
ATOM     39  C   UNL A   1      38.351  29.642  27.497  1.00  0.00     0.010 A 
ATOM     40  C   UNL A   1      37.745  28.984  29.747  1.00  0.00     0.010 A 
ATOM     41  C   UNL A   1      38.726  29.142  28.756  1.00  0.00    -0.014 A 
BRANCH  41  42
ATOM     42  C   UNL A   1      40.134  28.770  29.058  1.00  0.00     0.031 A 
ATOM     43  C   UNL A   1      41.041  29.758  29.741  1.00  0.00     0.074 A 
ATOM     44  C   UNL A   1      40.619  27.578  28.656  1.00  0.00     0.049 A 
ATOM     45  N   UNL A   1      42.323  29.671  29.993  1.00  0.00    -0.248 NA
ATOM     46  C   UNL A   1      40.431  31.026  30.174  1.00  0.00     0.031 C 
ATOM     47  C   UNL A   1      39.854  26.545  27.954  1.00  0.00     0.029 A 
ATOM     48  N   UNL A   1      41.878  27.038  28.764  1.00  0.00    -0.354 N 
ATOM     49  C   UNL A   1      42.673  30.874  30.594  1.00  0.00     0.074 A 
ATOM     50  C   UNL A   1      41.482  31.696  30.623  1.00  0.00     0.031 C 
ATOM     51  C   UNL A   1      40.653  25.494  27.710  1.00  0.00     0.029 A 
ATOM     52  C   UNL A   1      41.997  25.794  28.192  1.00  0.00     0.049 A 
ATOM     53  H   UNL A   1      42.625  27.500  29.210  1.00  0.00     0.167 HD
ATOM     54  C   UNL A   1      43.873  31.251  31.093  1.00  0.00     0.037 A 
ATOM     55  C   UNL A   1      43.074  24.994  28.056  1.00  0.00     0.037 A 
ATOM     56  C   UNL A   1      45.046  30.419  31.092  1.00  0.00     0.049 A 
ATOM     57  C   UNL A   1      44.403  25.451  28.603  1.00  0.00     0.074 A 
ATOM     58  C   UNL A   1      46.293  30.688  31.632  1.00  0.00     0.029 A 
ATOM     59  N   UNL A   1      45.121  29.157  30.523  1.00  0.00    -0.354 N 
ATOM     60  N   UNL A   1      44.703  26.563  29.229  1.00  0.00    -0.248 NA
ATOM     61  C   UNL A   1      45.542  24.538  28.430  1.00  0.00     0.031 C 
ATOM     62  C   UNL A   1      47.138  29.617  31.334  1.00  0.00     0.029 A 
ATOM     63  C   UNL A   1      46.401  28.648  30.674  1.00  0.00     0.049 A 
ATOM     64  H   UNL A   1      44.377  28.692  30.077  1.00  0.00     0.167 HD
ATOM     65  C   UNL A   1      46.048  26.463  29.563  1.00  0.00     0.074 A 
ATOM     66  C   UNL A   1      46.505  25.178  29.078  1.00  0.00     0.031 C 
ATOM     67  C   UNL A   1      46.834  27.353  30.214  1.00  0.00     0.037 A 
BRANCH  54  68
ATOM     68  C   UNL A   1      43.988  32.623  31.691  1.00  0.00     0.064 A 
ATOM     69  C   UNL A   1      44.298  33.746  30.909  1.00  0.00     0.173 A 
ATOM     70  C   UNL A   1      43.712  32.828  33.052  1.00  0.00     0.173 A 
ATOM     71  F   UNL A   1      44.580  33.603  29.606  1.00  0.00    -0.203 F 
ATOM     72  C   UNL A   1      44.345  35.019  31.470  1.00  0.00     0.198 A 
ATOM     73  C   UNL A   1      43.727  34.107  33.603  1.00  0.00     0.198 A 
ATOM     74  F   UNL A   1      43.404  31.790  33.844  1.00  0.00    -0.203 F 
ATOM     75  F   UNL A   1      44.681  36.072  30.713  1.00  0.00    -0.200 F 
ATOM     76  C   UNL A   1      44.048  35.200  32.813  1.00  0.00     0.200 A 
ATOM     77  F   UNL A   1      43.424  34.281  34.897  1.00  0.00    -0.200 F 
ATOM     78  F   UNL A   1      44.075  36.429  33.347  1.00  0.00    -0.200 F 
ENDBRANCH  54  68
BRANCH  55  79
ATOM     79  C   UNL A   1      42.956  23.676  27.373  1.00  0.00     0.064 A 
ATOM     80  C   UNL A   1      43.342  23.520  26.033  1.00  0.00     0.173 A 
ATOM     81  C   UNL A   1      42.409  22.560  28.024  1.00  0.00     0.173 A 
ATOM     82  F   UNL A   1      43.852  24.560  25.358  1.00  0.00    -0.203 F 
ATOM     83  C   UNL A   1      43.147  22.314  25.361  1.00  0.00     0.198 A 
ATOM     84  C   UNL A   1      42.248  21.345  27.362  1.00  0.00     0.198 A 
ATOM     85  F   UNL A   1      42.027  22.651  29.306  1.00  0.00    -0.203 F 
ATOM     86  F   UNL A   1      43.458  22.216  24.061  1.00  0.00    -0.200 F 
ATOM     87  C   UNL A   1      42.603  21.227  26.027  1.00  0.00     0.200 A 
ATOM     88  F   UNL A   1      41.737  20.292  28.014  1.00  0.00    -0.200 F 
ATOM     89  F   UNL A   1      42.407  20.070  25.379  1.00  0.00    -0.200 F 
ENDBRANCH  55  79
BRANCH  67  90
ATOM     90  C   UNL A   1      48.251  26.951  30.508  1.00  0.00     0.064 A 
ATOM     91  C   UNL A   1      48.590  26.191  31.637  1.00  0.00     0.173 A 
ATOM     92  C   UNL A   1      49.277  27.285  29.611  1.00  0.00     0.173 A 
ATOM     93  F   UNL A   1      47.649  25.856  32.534  1.00  0.00    -0.203 F 
ATOM     94  C   UNL A   1      49.906  25.801  31.868  1.00  0.00     0.198 A 
ATOM     95  C   UNL A   1      50.586  26.862  29.825  1.00  0.00     0.198 A 
ATOM     96  F   UNL A   1      49.006  28.003  28.511  1.00  0.00    -0.203 F 
ATOM     97  F   UNL A   1      50.215  25.116  32.978  1.00  0.00    -0.200 F 
ATOM     98  C   UNL A   1      50.900  26.128  30.958  1.00  0.00     0.200 A 
ATOM     99  F   UNL A   1      51.541  27.164  28.935  1.00  0.00    -0.200 F 
ATOM    100  F   UNL A   1      52.164  25.738  31.175  1.00  0.00    -0.200 F 
ENDBRANCH  67  90
ENDBRANCH  41  42
ENDBRANCH  33  36
ENDBRANCH  31  32
ENDBRANCH  30  31
ENDBRANCH  29  30
ENDBRANCH  28  29
ENDBRANCH   1  28
TORSDOF 17
ENDMDL
