MODEL 1
REMARK VINA RESULT:      -9.7      0.000      0.000
REMARK SMILES C[C@H](O)[C@H](C)[NH2+]C1(C(=O)NCCCCCCNC(=O)c2ccc(-c3c4nc(c(-c5c(F)c(F)c(F)c(F)c5F)c5ccc([nH]5)c(-c5c(F)c(F)c(F)c(F)c5F)c5nc(c(-c6c(F)c(F)c(F)c(F)c6F)c6ccc3[nH]6)C=C5)C=C4)cc2)CC1
REMARK SMILES IDX 12 1 11 2 10 3 8 4 9 5 7 7 83 8 84 9 6 10 4 13 5 14 2 15
REMARK SMILES IDX 1 16 3 17 13 19 14 20 15 21 16 22 17 23 18 24 19 26 20 27
REMARK SMILES IDX 21 28 82 29 22 30 81 31 23 32 24 33 25 34 75 35 26 36 80 37
REMARK SMILES IDX 74 38 76 39 27 40 79 41 73 42 72 43 28 45 60 46 40 47 59 48
REMARK SMILES IDX 41 49 44 50 58 51 77 52 42 53 43 54 57 56 78 57 45 58 29 59
REMARK SMILES IDX 30 60 38 61 31 62 32 63 36 64 39 65 33 66 34 67 37 68 35 69
REMARK SMILES IDX 61 70 62 71 70 72 63 73 64 74 68 75 71 76 65 77 66 78 69 79
REMARK SMILES IDX 67 80 46 81 47 82 55 83 48 84 49 85 53 86 56 87 50 88 51 89
REMARK SMILES IDX 54 90 52 91
REMARK H PARENT 10 6 6 11 6 12 3 18 17 25 76 44 44 55
REMARK Flexibility Score: inf
ROOT
ATOM      1  C   UNL A   1      43.498  23.709  29.506  1.00  0.00     0.021 C 
ENDROOT
BRANCH   1   2
ATOM      2  C   UNL A   1      44.874  23.312  28.964  1.00  0.00     0.116 C 
BRANCH   2   3
ATOM      3  N   UNL A   1      45.237  24.079  27.790  1.00  0.00    -0.351 N 
ATOM      4  C   UNL A   1      45.883  23.495  26.725  1.00  0.00     0.281 C 
ATOM      5  O   UNL A   1      47.074  23.722  26.542  1.00  0.00    -0.268 OA
ATOM      6  H   UNL A   1      45.016  25.038  27.753  1.00  0.00     0.163 HD
BRANCH   4   7
ATOM      7  C   UNL A   1      45.057  22.685  25.734  1.00  0.00     0.176 C 
ATOM      8  C   UNL A   1      45.016  22.972  24.241  1.00  0.00     0.086 C 
ATOM      9  C   UNL A   1      43.881  23.420  25.108  1.00  0.00     0.086 C 
BRANCH   7  10
ATOM     10  N   UNL A   1      44.816  21.259  26.110  1.00  0.00    -0.329 N 
ATOM     11  H   UNL A   1      45.466  21.031  26.862  1.00  0.00     0.347 HD
ATOM     12  H   UNL A   1      43.825  21.228  26.351  1.00  0.00     0.347 HD
BRANCH  10  13
ATOM     13  C   UNL A   1      44.969  20.224  25.073  1.00  0.00     0.208 C 
ATOM     14  C   UNL A   1      46.285  19.491  25.384  1.00  0.00     0.078 C 
BRANCH  13  15
ATOM     15  C   UNL A   1      43.774  19.240  24.895  1.00  0.00     0.169 C 
ATOM     16  C   UNL A   1      43.102  18.786  26.186  1.00  0.00     0.045 C 
BRANCH  15  17
ATOM     17  O   UNL A   1      44.176  18.073  24.168  1.00  0.00    -0.387 OA
ATOM     18  H   UNL A   1      43.591  17.950  23.403  1.00  0.00     0.211 HD
ENDBRANCH  15  17
ENDBRANCH  13  15
ENDBRANCH  10  13
ENDBRANCH   7  10
ENDBRANCH   4   7
ENDBRANCH   2   3
ENDBRANCH   1   2
BRANCH   1  19
ATOM     19  C   UNL A   1      42.315  23.313  28.614  1.00  0.00     0.002 C 
BRANCH  19  20
ATOM     20  C   UNL A   1      42.217  21.824  28.270  1.00  0.00     0.002 C 
BRANCH  20  21
ATOM     21  C   UNL A   1      40.910  21.390  27.606  1.00  0.00     0.021 C 
BRANCH  21  22
ATOM     22  C   UNL A   1      40.759  21.804  26.147  1.00  0.00     0.116 C 
BRANCH  22  23
ATOM     23  N   UNL A   1      39.375  22.028  25.771  1.00  0.00    -0.352 N 
ATOM     24  C   UNL A   1      38.572  23.108  26.045  1.00  0.00     0.251 C 
ATOM     25  H   UNL A   1      38.954  21.308  25.247  1.00  0.00     0.163 HD
ATOM     26  O   UNL A   1      37.374  23.076  25.785  1.00  0.00    -0.269 OA
BRANCH  24  27
ATOM     27  C   UNL A   1      39.153  24.306  26.690  1.00  0.00     0.039 A 
ATOM     28  C   UNL A   1      39.952  25.160  25.928  1.00  0.00     0.014 A 
ATOM     29  C   UNL A   1      38.907  24.587  28.037  1.00  0.00     0.014 A 
ATOM     30  C   UNL A   1      40.455  26.332  26.498  1.00  0.00     0.010 A 
ATOM     31  C   UNL A   1      39.354  25.787  28.586  1.00  0.00     0.010 A 
ATOM     32  C   UNL A   1      40.133  26.669  27.822  1.00  0.00    -0.014 A 
BRANCH  32  33
ATOM     33  C   UNL A   1      40.606  27.938  28.429  1.00  0.00     0.031 A 
ATOM     34  C   UNL A   1      42.057  28.114  28.775  1.00  0.00     0.074 A 
ATOM     35  C   UNL A   1      39.718  28.907  28.727  1.00  0.00     0.049 A 
ATOM     36  N   UNL A   1      42.650  29.113  29.381  1.00  0.00    -0.248 NA
ATOM     37  C   UNL A   1      42.959  27.007  28.419  1.00  0.00     0.031 C 
ATOM     38  C   UNL A   1      38.277  28.838  28.481  1.00  0.00     0.029 A 
ATOM     39  N   UNL A   1      39.897  30.134  29.316  1.00  0.00    -0.354 N 
ATOM     40  C   UNL A   1      43.985  28.747  29.491  1.00  0.00     0.074 A 
ATOM     41  C   UNL A   1      44.109  27.418  28.935  1.00  0.00     0.031 C 
ATOM     42  C   UNL A   1      37.705  29.978  28.901  1.00  0.00     0.029 A 
ATOM     43  C   UNL A   1      38.732  30.843  29.475  1.00  0.00     0.049 A 
ATOM     44  H   UNL A   1      40.777  30.473  29.598  1.00  0.00     0.167 HD
ATOM     45  C   UNL A   1      45.019  29.466  29.992  1.00  0.00     0.037 A 
ATOM     46  C   UNL A   1      38.515  32.051  30.027  1.00  0.00     0.037 A 
ATOM     47  C   UNL A   1      44.899  30.801  30.516  1.00  0.00     0.049 A 
ATOM     48  C   UNL A   1      39.681  32.831  30.572  1.00  0.00     0.074 A 
ATOM     49  C   UNL A   1      45.897  31.637  30.986  1.00  0.00     0.029 A 
ATOM     50  N   UNL A   1      43.705  31.497  30.638  1.00  0.00    -0.354 N 
ATOM     51  N   UNL A   1      40.949  32.503  30.613  1.00  0.00    -0.248 NA
ATOM     52  C   UNL A   1      39.385  34.153  31.143  1.00  0.00     0.031 C 
ATOM     53  C   UNL A   1      45.302  32.823  31.428  1.00  0.00     0.029 A 
ATOM     54  C   UNL A   1      43.939  32.744  31.194  1.00  0.00     0.049 A 
ATOM     55  H   UNL A   1      42.822  31.154  30.369  1.00  0.00     0.167 HD
ATOM     56  C   UNL A   1      41.605  33.582  31.188  1.00  0.00     0.074 A 
ATOM     57  C   UNL A   1      40.596  34.582  31.468  1.00  0.00     0.031 C 
ATOM     58  C   UNL A   1      42.924  33.731  31.459  1.00  0.00     0.037 A 
BRANCH  45  59
ATOM     59  C   UNL A   1      46.373  28.822  29.992  1.00  0.00     0.064 A 
ATOM     60  C   UNL A   1      46.830  28.072  31.085  1.00  0.00     0.173 A 
ATOM     61  C   UNL A   1      47.209  28.924  28.869  1.00  0.00     0.173 A 
ATOM     62  F   UNL A   1      46.073  27.955  32.186  1.00  0.00    -0.203 F 
ATOM     63  C   UNL A   1      48.086  27.471  31.068  1.00  0.00     0.198 A 
ATOM     64  C   UNL A   1      48.453  28.299  28.844  1.00  0.00     0.198 A 
ATOM     65  F   UNL A   1      46.817  29.624  27.794  1.00  0.00    -0.203 F 
ATOM     66  F   UNL A   1      48.521  26.799  32.142  1.00  0.00    -0.200 F 
ATOM     67  C   UNL A   1      48.893  27.579  29.944  1.00  0.00     0.200 A 
ATOM     68  F   UNL A   1      49.227  28.393  27.754  1.00  0.00    -0.200 F 
ATOM     69  F   UNL A   1      50.099  26.995  29.926  1.00  0.00    -0.200 F 
ENDBRANCH  45  59
BRANCH  46  70
ATOM     70  C   UNL A   1      37.140  32.611  30.070  1.00  0.00     0.064 A 
ATOM     71  C   UNL A   1      36.658  33.414  29.028  1.00  0.00     0.173 A 
ATOM     72  C   UNL A   1      36.282  32.357  31.150  1.00  0.00     0.173 A 
ATOM     73  F   UNL A   1      37.451  33.701  27.985  1.00  0.00    -0.203 F 
ATOM     74  C   UNL A   1      35.376  33.958  29.071  1.00  0.00     0.198 A 
ATOM     75  C   UNL A   1      34.991  32.880  31.180  1.00  0.00     0.198 A 
ATOM     76  F   UNL A   1      36.694  31.592  32.171  1.00  0.00    -0.203 F 
ATOM     77  F   UNL A   1      34.955  34.756  28.080  1.00  0.00    -0.200 F 
ATOM     78  C   UNL A   1      34.542  33.686  30.143  1.00  0.00     0.200 A 
ATOM     79  F   UNL A   1      34.182  32.606  32.213  1.00  0.00    -0.200 F 
ATOM     80  F   UNL A   1      33.307  34.205  30.184  1.00  0.00    -0.200 F 
ENDBRANCH  46  70
BRANCH  58  81
ATOM     81  C   UNL A   1      43.359  35.032  32.064  1.00  0.00     0.064 A 
ATOM     82  C   UNL A   1      43.708  36.132  31.269  1.00  0.00     0.173 A 
ATOM     83  C   UNL A   1      43.386  35.193  33.458  1.00  0.00     0.173 A 
ATOM     84  F   UNL A   1      43.713  36.023  29.931  1.00  0.00    -0.203 F 
ATOM     85  C   UNL A   1      44.088  37.341  31.846  1.00  0.00     0.198 A 
ATOM     86  C   UNL A   1      43.740  36.410  34.032  1.00  0.00     0.198 A 
ATOM     87  F   UNL A   1      43.055  34.171  34.263  1.00  0.00    -0.203 F 
ATOM     88  F   UNL A   1      44.457  38.367  31.067  1.00  0.00    -0.200 F 
ATOM     89  C   UNL A   1      44.096  37.481  33.226  1.00  0.00     0.200 A 
ATOM     90  F   UNL A   1      43.737  36.548  35.365  1.00  0.00    -0.200 F 
ATOM     91  F   UNL A   1      44.455  38.648  33.780  1.00  0.00    -0.200 F 
ENDBRANCH  58  81
ENDBRANCH  32  33
ENDBRANCH  24  27
ENDBRANCH  22  23
ENDBRANCH  21  22
ENDBRANCH  20  21
ENDBRANCH  19  20
ENDBRANCH   1  19
TORSDOF 17
ENDMDL
MODEL 2
REMARK VINA RESULT:      -9.3      0.949      2.012
REMARK SMILES C[C@H](O)[C@H](C)[NH2+]C1(C(=O)NCCCCCCNC(=O)c2ccc(-c3c4nc(c(-c5c(F)c(F)c(F)c(F)c5F)c5ccc([nH]5)c(-c5c(F)c(F)c(F)c(F)c5F)c5nc(c(-c6c(F)c(F)c(F)c(F)c6F)c6ccc3[nH]6)C=C5)C=C4)cc2)CC1
REMARK SMILES IDX 12 1 11 2 10 3 8 4 9 5 7 7 83 8 84 9 6 10 4 13 5 14 2 15
REMARK SMILES IDX 1 16 3 17 13 19 14 20 15 21 16 22 17 23 18 24 19 26 20 27
REMARK SMILES IDX 21 28 82 29 22 30 81 31 23 32 24 33 25 34 75 35 26 36 80 37
REMARK SMILES IDX 74 38 76 39 27 40 79 41 73 42 72 43 28 45 60 46 40 47 59 48
REMARK SMILES IDX 41 49 44 50 58 51 77 52 42 53 43 54 57 56 78 57 45 58 29 59
REMARK SMILES IDX 30 60 38 61 31 62 32 63 36 64 39 65 33 66 34 67 37 68 35 69
REMARK SMILES IDX 61 70 62 71 70 72 63 73 64 74 68 75 71 76 65 77 66 78 69 79
REMARK SMILES IDX 67 80 46 81 47 82 55 83 48 84 49 85 53 86 56 87 50 88 51 89
REMARK SMILES IDX 54 90 52 91
REMARK H PARENT 10 6 6 11 6 12 3 18 17 25 76 44 44 55
REMARK Flexibility Score: inf
ROOT
ATOM      1  C   UNL A   1      43.742  24.165  29.356  1.00  0.00     0.021 C 
ENDROOT
BRANCH   1   2
ATOM      2  C   UNL A   1      45.042  23.611  28.766  1.00  0.00     0.116 C 
BRANCH   2   3
ATOM      3  N   UNL A   1      45.394  24.262  27.520  1.00  0.00    -0.351 N 
ATOM      4  C   UNL A   1      45.960  23.559  26.482  1.00  0.00     0.281 C 
ATOM      5  O   UNL A   1      47.153  23.703  26.234  1.00  0.00    -0.268 OA
ATOM      6  H   UNL A   1      45.224  25.226  27.415  1.00  0.00     0.163 HD
BRANCH   4   7
ATOM      7  C   UNL A   1      45.049  22.723  25.593  1.00  0.00     0.176 C 
ATOM      8  C   UNL A   1      44.890  22.952  24.098  1.00  0.00     0.086 C 
ATOM      9  C   UNL A   1      43.833  23.448  25.036  1.00  0.00     0.086 C 
BRANCH   7  10
ATOM     10  N   UNL A   1      44.825  21.315  26.044  1.00  0.00    -0.329 N 
ATOM     11  H   UNL A   1      45.490  21.130  26.794  1.00  0.00     0.347 HD
ATOM     12  H   UNL A   1      43.839  21.289  26.303  1.00  0.00     0.347 HD
BRANCH  10  13
ATOM     13  C   UNL A   1      44.969  20.232  25.056  1.00  0.00     0.208 C 
ATOM     14  C   UNL A   1      46.298  19.528  25.375  1.00  0.00     0.078 C 
BRANCH  13  15
ATOM     15  C   UNL A   1      43.781  19.228  24.951  1.00  0.00     0.169 C 
ATOM     16  C   UNL A   1      43.213  18.746  26.281  1.00  0.00     0.045 C 
BRANCH  15  17
ATOM     17  O   UNL A   1      44.149  18.079  24.180  1.00  0.00    -0.387 OA
ATOM     18  H   UNL A   1      45.094  18.122  23.965  1.00  0.00     0.211 HD
ENDBRANCH  15  17
ENDBRANCH  13  15
ENDBRANCH  10  13
ENDBRANCH   7  10
ENDBRANCH   4   7
ENDBRANCH   2   3
ENDBRANCH   1   2
BRANCH   1  19
ATOM     19  C   UNL A   1      42.460  23.553  28.778  1.00  0.00     0.002 C 
BRANCH  19  20
ATOM     20  C   UNL A   1      42.516  22.048  28.498  1.00  0.00     0.002 C 
BRANCH  20  21
ATOM     21  C   UNL A   1      41.262  21.454  27.857  1.00  0.00     0.021 C 
BRANCH  21  22
ATOM     22  C   UNL A   1      41.066  21.795  26.385  1.00  0.00     0.116 C 
BRANCH  22  23
ATOM     23  N   UNL A   1      39.667  21.810  25.996  1.00  0.00    -0.352 N 
ATOM     24  C   UNL A   1      38.748  22.821  26.128  1.00  0.00     0.251 C 
ATOM     25  H   UNL A   1      39.333  20.982  25.581  1.00  0.00     0.163 HD
ATOM     26  O   UNL A   1      37.563  22.621  25.886  1.00  0.00    -0.269 OA
BRANCH  24  27
ATOM     27  C   UNL A   1      39.189  24.154  26.595  1.00  0.00     0.039 A 
ATOM     28  C   UNL A   1      38.904  24.535  27.907  1.00  0.00     0.014 A 
ATOM     29  C   UNL A   1      39.884  25.019  25.746  1.00  0.00     0.014 A 
ATOM     30  C   UNL A   1      39.368  25.760  28.390  1.00  0.00     0.010 A 
ATOM     31  C   UNL A   1      40.403  26.211  26.246  1.00  0.00     0.010 A 
ATOM     32  C   UNL A   1      40.149  26.593  27.572  1.00  0.00    -0.014 A 
BRANCH  32  33
ATOM     33  C   UNL A   1      40.705  27.870  28.084  1.00  0.00     0.031 A 
ATOM     34  C   UNL A   1      42.192  28.085  28.117  1.00  0.00     0.074 A 
ATOM     35  C   UNL A   1      39.876  28.810  28.579  1.00  0.00     0.049 A 
ATOM     36  N   UNL A   1      42.874  29.095  28.597  1.00  0.00    -0.248 NA
ATOM     37  C   UNL A   1      43.027  27.008  27.561  1.00  0.00     0.031 C 
ATOM     38  C   UNL A   1      38.419  28.701  28.643  1.00  0.00     0.029 A 
ATOM     39  N   UNL A   1      40.143  30.036  29.135  1.00  0.00    -0.354 N 
ATOM     40  C   UNL A   1      44.211  28.768  28.417  1.00  0.00     0.074 A 
ATOM     41  C   UNL A   1      44.249  27.448  27.826  1.00  0.00     0.031 C 
ATOM     42  C   UNL A   1      37.918  29.820  29.192  1.00  0.00     0.029 A 
ATOM     43  C   UNL A   1      39.020  30.709  29.548  1.00  0.00     0.049 A 
ATOM     44  H   UNL A   1      41.054  30.398  29.229  1.00  0.00     0.167 HD
ATOM     45  C   UNL A   1      45.308  29.512  28.698  1.00  0.00     0.037 A 
ATOM     46  C   UNL A   1      38.894  31.905  30.152  1.00  0.00     0.037 A 
ATOM     47  C   UNL A   1      45.266  30.838  29.255  1.00  0.00     0.049 A 
ATOM     48  C   UNL A   1      40.128  32.714  30.449  1.00  0.00     0.074 A 
ATOM     49  C   UNL A   1      46.320  31.698  29.515  1.00  0.00     0.029 A 
ATOM     50  N   UNL A   1      44.108  31.497  29.639  1.00  0.00    -0.354 N 
ATOM     51  N   UNL A   1      41.384  32.422  30.214  1.00  0.00    -0.248 NA
ATOM     52  C   UNL A   1      39.925  34.021  31.090  1.00  0.00     0.031 C 
ATOM     53  C   UNL A   1      45.801  32.862  30.092  1.00  0.00     0.029 A 
ATOM     54  C   UNL A   1      44.422  32.745  30.151  1.00  0.00     0.049 A 
ATOM     55  H   UNL A   1      43.197  31.131  29.558  1.00  0.00     0.167 HD
ATOM     56  C   UNL A   1      42.118  33.515  30.653  1.00  0.00     0.074 A 
ATOM     57  C   UNL A   1      41.166  34.483  31.157  1.00  0.00     0.031 C 
ATOM     58  C   UNL A   1      43.461  33.699  30.641  1.00  0.00     0.037 A 
BRANCH  45  59
ATOM     59  C   UNL A   1      46.648  28.908  28.399  1.00  0.00     0.064 A 
ATOM     60  C   UNL A   1      47.375  28.214  29.378  1.00  0.00     0.173 A 
ATOM     61  C   UNL A   1      47.195  28.990  27.110  1.00  0.00     0.173 A 
ATOM     62  F   UNL A   1      46.900  28.118  30.629  1.00  0.00    -0.203 F 
ATOM     63  C   UNL A   1      48.613  27.650  29.085  1.00  0.00     0.198 A 
ATOM     64  C   UNL A   1      48.420  28.401  26.813  1.00  0.00     0.198 A 
ATOM     65  F   UNL A   1      46.537  29.636  26.136  1.00  0.00    -0.203 F 
ATOM     66  F   UNL A   1      49.312  27.033  30.048  1.00  0.00    -0.200 F 
ATOM     67  C   UNL A   1      49.132  27.738  27.802  1.00  0.00     0.200 A 
ATOM     68  F   UNL A   1      48.915  28.475  25.570  1.00  0.00    -0.200 F 
ATOM     69  F   UNL A   1      50.321  27.188  27.519  1.00  0.00    -0.200 F 
ENDBRANCH  45  59
BRANCH  46  70
ATOM     70  C   UNL A   1      37.545  32.425  30.495  1.00  0.00     0.064 A 
ATOM     71  C   UNL A   1      36.971  32.160  31.745  1.00  0.00     0.173 A 
ATOM     72  C   UNL A   1      36.805  33.192  29.584  1.00  0.00     0.173 A 
ATOM     73  F   UNL A   1      37.633  31.413  32.641  1.00  0.00    -0.203 F 
ATOM     74  C   UNL A   1      35.698  32.628  32.067  1.00  0.00     0.198 A 
ATOM     75  C   UNL A   1      35.543  33.681  29.916  1.00  0.00     0.198 A 
ATOM     76  F   UNL A   1      37.313  33.475  28.376  1.00  0.00    -0.203 F 
ATOM     77  F   UNL A   1      35.155  32.326  33.254  1.00  0.00    -0.200 F 
ATOM     78  C   UNL A   1      34.988  33.393  31.154  1.00  0.00     0.200 A 
ATOM     79  F   UNL A   1      34.864  34.430  29.035  1.00  0.00    -0.200 F 
ATOM     80  F   UNL A   1      33.765  33.846  31.463  1.00  0.00    -0.200 F 
ENDBRANCH  46  70
BRANCH  58  81
ATOM     81  C   UNL A   1      43.979  35.007  31.160  1.00  0.00     0.064 A 
ATOM     82  C   UNL A   1      44.349  35.171  32.502  1.00  0.00     0.173 A 
ATOM     83  C   UNL A   1      44.148  36.099  30.293  1.00  0.00     0.173 A 
ATOM     84  F   UNL A   1      44.191  34.162  33.373  1.00  0.00    -0.203 F 
ATOM     85  C   UNL A   1      44.849  36.385  32.964  1.00  0.00     0.198 A 
ATOM     86  C   UNL A   1      44.674  37.302  30.752  1.00  0.00     0.198 A 
ATOM     87  F   UNL A   1      43.815  35.990  28.998  1.00  0.00    -0.203 F 
ATOM     88  F   UNL A   1      45.157  36.532  34.260  1.00  0.00    -0.200 F 
ATOM     89  C   UNL A   1      45.018  37.447  32.087  1.00  0.00     0.200 A 
ATOM     90  F   UNL A   1      44.847  38.324  29.902  1.00  0.00    -0.200 F 
ATOM     91  F   UNL A   1      45.508  38.613  32.532  1.00  0.00    -0.200 F 
ENDBRANCH  58  81
ENDBRANCH  32  33
ENDBRANCH  24  27
ENDBRANCH  22  23
ENDBRANCH  21  22
ENDBRANCH  20  21
ENDBRANCH  19  20
ENDBRANCH   1  19
TORSDOF 17
ENDMDL
MODEL 3
REMARK VINA RESULT:      -9.3      5.331      9.724
REMARK SMILES C[C@H](O)[C@H](C)[NH2+]C1(C(=O)NCCCCCCNC(=O)c2ccc(-c3c4nc(c(-c5c(F)c(F)c(F)c(F)c5F)c5ccc([nH]5)c(-c5c(F)c(F)c(F)c(F)c5F)c5nc(c(-c6c(F)c(F)c(F)c(F)c6F)c6ccc3[nH]6)C=C5)C=C4)cc2)CC1
REMARK SMILES IDX 12 1 11 2 10 3 8 4 9 5 7 7 83 8 84 9 6 10 4 13 5 14 2 15
REMARK SMILES IDX 1 16 3 17 13 19 14 20 15 21 16 22 17 23 18 24 19 26 20 27
REMARK SMILES IDX 21 28 82 29 22 30 81 31 23 32 24 33 25 34 75 35 26 36 80 37
REMARK SMILES IDX 74 38 76 39 27 40 79 41 73 42 72 43 28 45 60 46 40 47 59 48
REMARK SMILES IDX 41 49 44 50 58 51 77 52 42 53 43 54 57 56 78 57 45 58 29 59
REMARK SMILES IDX 30 60 38 61 31 62 32 63 36 64 39 65 33 66 34 67 37 68 35 69
REMARK SMILES IDX 61 70 62 71 70 72 63 73 64 74 68 75 71 76 65 77 66 78 69 79
REMARK SMILES IDX 67 80 46 81 47 82 55 83 48 84 49 85 53 86 56 87 50 88 51 89
REMARK SMILES IDX 54 90 52 91
REMARK H PARENT 10 6 6 11 6 12 3 18 17 25 76 44 44 55
REMARK Flexibility Score: inf
ROOT
ATOM      1  C   UNL A   1      31.630  28.350  25.500  1.00  0.00     0.021 C 
ENDROOT
BRANCH   1   2
ATOM      2  C   UNL A   1      32.864  27.585  25.013  1.00  0.00     0.116 C 
BRANCH   2   3
ATOM      3  N   UNL A   1      32.877  26.216  25.489  1.00  0.00    -0.351 N 
ATOM      4  C   UNL A   1      31.713  25.494  25.620  1.00  0.00     0.281 C 
ATOM      5  O   UNL A   1      31.258  25.279  26.739  1.00  0.00    -0.268 OA
ATOM      6  H   UNL A   1      33.735  25.794  25.723  1.00  0.00     0.163 HD
BRANCH   4   7
ATOM      7  C   UNL A   1      31.100  24.876  24.371  1.00  0.00     0.176 C 
ATOM      8  C   UNL A   1      31.148  25.530  22.999  1.00  0.00     0.086 C 
ATOM      9  C   UNL A   1      29.889  25.606  23.807  1.00  0.00     0.086 C 
BRANCH   7  10
ATOM     10  N   UNL A   1      31.032  23.383  24.358  1.00  0.00    -0.329 N 
ATOM     11  H   UNL A   1      30.401  23.103  25.108  1.00  0.00     0.347 HD
ATOM     12  H   UNL A   1      30.730  23.154  23.411  1.00  0.00     0.347 HD
BRANCH  10  13
ATOM     13  C   UNL A   1      32.282  22.623  24.533  1.00  0.00     0.208 C 
ATOM     14  C   UNL A   1      31.908  21.346  25.303  1.00  0.00     0.078 C 
BRANCH  13  15
ATOM     15  C   UNL A   1      33.092  22.314  23.238  1.00  0.00     0.169 C 
ATOM     16  C   UNL A   1      34.202  23.305  22.907  1.00  0.00     0.045 C 
BRANCH  15  17
ATOM     17  O   UNL A   1      32.225  22.220  22.102  1.00  0.00    -0.387 OA
ATOM     18  H   UNL A   1      32.547  21.525  21.505  1.00  0.00     0.211 HD
ENDBRANCH  15  17
ENDBRANCH  13  15
ENDBRANCH  10  13
ENDBRANCH   7  10
ENDBRANCH   4   7
ENDBRANCH   2   3
ENDBRANCH   1   2
BRANCH   1  19
ATOM     19  C   UNL A   1      31.766  29.877  25.472  1.00  0.00     0.002 C 
BRANCH  19  20
ATOM     20  C   UNL A   1      31.679  30.572  26.834  1.00  0.00     0.002 C 
BRANCH  20  21
ATOM     21  C   UNL A   1      31.500  32.090  26.785  1.00  0.00     0.021 C 
BRANCH  21  22
ATOM     22  C   UNL A   1      32.739  32.897  27.153  1.00  0.00     0.116 C 
BRANCH  22  23
ATOM     23  N   UNL A   1      32.419  34.250  27.574  1.00  0.00    -0.352 N 
ATOM     24  C   UNL A   1      32.971  34.987  28.593  1.00  0.00     0.251 C 
ATOM     25  H   UNL A   1      31.710  34.699  27.060  1.00  0.00     0.163 HD
ATOM     26  O   UNL A   1      32.482  36.063  28.919  1.00  0.00    -0.269 OA
BRANCH  24  27
ATOM     27  C   UNL A   1      34.145  34.461  29.324  1.00  0.00     0.039 A 
ATOM     28  C   UNL A   1      33.943  33.801  30.537  1.00  0.00     0.014 A 
ATOM     29  C   UNL A   1      35.436  34.612  28.811  1.00  0.00     0.014 A 
ATOM     30  C   UNL A   1      35.030  33.238  31.210  1.00  0.00     0.010 A 
ATOM     31  C   UNL A   1      36.511  33.996  29.448  1.00  0.00     0.010 A 
ATOM     32  C   UNL A   1      36.317  33.304  30.654  1.00  0.00    -0.014 A 
BRANCH  32  33
ATOM     33  C   UNL A   1      37.477  32.660  31.320  1.00  0.00     0.031 A 
ATOM     34  C   UNL A   1      38.196  31.524  30.649  1.00  0.00     0.074 A 
ATOM     35  C   UNL A   1      37.840  33.053  32.556  1.00  0.00     0.049 A 
ATOM     36  N   UNL A   1      39.176  30.781  31.100  1.00  0.00    -0.248 NA
ATOM     37  C   UNL A   1      37.733  31.154  29.302  1.00  0.00     0.031 C 
ATOM     38  C   UNL A   1      37.193  34.113  33.330  1.00  0.00     0.029 A 
ATOM     39  N   UNL A   1      38.835  32.596  33.384  1.00  0.00    -0.354 N 
ATOM     40  C   UNL A   1      39.434  29.851  30.102  1.00  0.00     0.074 A 
ATOM     41  C   UNL A   1      38.479  30.090  29.042  1.00  0.00     0.031 C 
ATOM     42  C   UNL A   1      37.817  34.236  34.513  1.00  0.00     0.029 A 
ATOM     43  C   UNL A   1      38.885  33.243  34.594  1.00  0.00     0.049 A 
ATOM     44  H   UNL A   1      39.454  31.872  33.134  1.00  0.00     0.167 HD
ATOM     45  C   UNL A   1      40.396  28.898  30.064  1.00  0.00     0.037 A 
ATOM     46  C   UNL A   1      39.695  33.052  35.652  1.00  0.00     0.037 A 
ATOM     47  C   UNL A   1      41.365  28.683  31.105  1.00  0.00     0.049 A 
ATOM     48  C   UNL A   1      40.758  31.990  35.583  1.00  0.00     0.074 A 
ATOM     49  C   UNL A   1      42.420  27.787  31.132  1.00  0.00     0.029 A 
ATOM     50  N   UNL A   1      41.399  29.375  32.307  1.00  0.00    -0.354 N 
ATOM     51  N   UNL A   1      41.034  31.159  34.608  1.00  0.00    -0.248 NA
ATOM     52  C   UNL A   1      41.626  31.843  36.760  1.00  0.00     0.031 C 
ATOM     53  C   UNL A   1      43.068  27.910  32.366  1.00  0.00     0.029 A 
ATOM     54  C   UNL A   1      42.444  28.912  33.090  1.00  0.00     0.049 A 
ATOM     55  H   UNL A   1      40.773  30.090  32.565  1.00  0.00     0.167 HD
ATOM     56  C   UNL A   1      42.119  30.410  35.040  1.00  0.00     0.074 A 
ATOM     57  C   UNL A   1      42.460  30.894  36.362  1.00  0.00     0.031 C 
ATOM     58  C   UNL A   1      42.774  29.411  34.400  1.00  0.00     0.037 A 
BRANCH  45  59
ATOM     59  C   UNL A   1      40.450  28.017  28.851  1.00  0.00     0.064 A 
ATOM     60  C   UNL A   1      41.226  28.354  27.732  1.00  0.00     0.173 A 
ATOM     61  C   UNL A   1      39.747  26.803  28.821  1.00  0.00     0.173 A 
ATOM     62  F   UNL A   1      41.907  29.509  27.708  1.00  0.00    -0.203 F 
ATOM     63  C   UNL A   1      41.274  27.523  26.616  1.00  0.00     0.198 A 
ATOM     64  C   UNL A   1      39.819  25.961  27.715  1.00  0.00     0.198 A 
ATOM     65  F   UNL A   1      38.995  26.430  29.868  1.00  0.00    -0.203 F 
ATOM     66  F   UNL A   1      41.984  27.888  25.540  1.00  0.00    -0.200 F 
ATOM     67  C   UNL A   1      40.576  26.324  26.611  1.00  0.00     0.200 A 
ATOM     68  F   UNL A   1      39.155  24.797  27.716  1.00  0.00    -0.200 F 
ATOM     69  F   UNL A   1      40.629  25.521  25.539  1.00  0.00    -0.200 F 
ENDBRANCH  45  59
BRANCH  46  70
ATOM     70  C   UNL A   1      39.549  33.904  36.861  1.00  0.00     0.064 A 
ATOM     71  C   UNL A   1      40.174  35.155  36.937  1.00  0.00     0.173 A 
ATOM     72  C   UNL A   1      38.786  33.486  37.960  1.00  0.00     0.173 A 
ATOM     73  F   UNL A   1      40.931  35.587  35.917  1.00  0.00    -0.203 F 
ATOM     74  C   UNL A   1      40.057  35.951  38.075  1.00  0.00     0.198 A 
ATOM     75  C   UNL A   1      38.648  34.294  39.087  1.00  0.00     0.198 A 
ATOM     76  F   UNL A   1      38.165  32.298  37.935  1.00  0.00    -0.203 F 
ATOM     77  F   UNL A   1      40.699  37.126  38.137  1.00  0.00    -0.200 F 
ATOM     78  C   UNL A   1      39.290  35.522  39.146  1.00  0.00     0.200 A 
ATOM     79  F   UNL A   1      37.896  33.881  40.117  1.00  0.00    -0.200 F 
ATOM     80  F   UNL A   1      39.174  36.288  40.240  1.00  0.00    -0.200 F 
ENDBRANCH  46  70
BRANCH  58  81
ATOM     81  C   UNL A   1      43.944  28.793  35.107  1.00  0.00     0.064 A 
ATOM     82  C   UNL A   1      45.240  29.311  34.974  1.00  0.00     0.173 A 
ATOM     83  C   UNL A   1      43.759  27.694  35.960  1.00  0.00     0.173 A 
ATOM     84  F   UNL A   1      45.470  30.351  34.157  1.00  0.00    -0.203 F 
ATOM     85  C   UNL A   1      46.312  28.740  35.654  1.00  0.00     0.198 A 
ATOM     86  C   UNL A   1      44.828  27.143  36.659  1.00  0.00     0.198 A 
ATOM     87  F   UNL A   1      42.537  27.166  36.125  1.00  0.00    -0.203 F 
ATOM     88  F   UNL A   1      47.549  29.226  35.480  1.00  0.00    -0.200 F 
ATOM     89  C   UNL A   1      46.104  27.661  36.501  1.00  0.00     0.200 A 
ATOM     90  F   UNL A   1      44.624  26.107  37.486  1.00  0.00    -0.200 F 
ATOM     91  F   UNL A   1      47.136  27.117  37.161  1.00  0.00    -0.200 F 
ENDBRANCH  58  81
ENDBRANCH  32  33
ENDBRANCH  24  27
ENDBRANCH  22  23
ENDBRANCH  21  22
ENDBRANCH  20  21
ENDBRANCH  19  20
ENDBRANCH   1  19
TORSDOF 17
ENDMDL
