MODEL 1
REMARK VINA RESULT:     -12.0      0.000      0.000
REMARK SMILES CC(C)n1cncc1C[NH2+][C@H]1[C@@H]2CC[C@@H](C2)[C@@H]1C(=O)NCCCCCCNC(=O)c1ccc(-c2c3nc(c(-c4c(F)c(F)c(F)c(F)c4F)c4ccc([nH]4)c(-c4c(F)c(F)c(F)c(F)c4F)c4nc(c(-c5c(F)c(F)c(F)c(F)c5F)c5ccc2[nH]5)C=C4)C=C3)cc1
REMARK SMILES IDX 22 1 21 2 20 3 18 4 19 5 17 7 11 8 12 9 13 10 16 11 15 12
REMARK SMILES IDX 14 13 10 14 9 17 8 18 4 19 5 20 6 21 7 22 2 23 1 24 3 25
REMARK SMILES IDX 23 26 24 27 25 28 26 29 27 30 28 31 29 33 30 34 31 35 92 36
REMARK SMILES IDX 32 37 91 38 33 39 34 40 35 41 85 42 36 43 90 44 84 45 86 46
REMARK SMILES IDX 37 47 89 48 83 49 82 50 38 52 70 53 50 54 69 55 51 56 54 57
REMARK SMILES IDX 68 58 87 59 52 60 53 61 67 63 88 64 55 65 39 66 40 67 48 68
REMARK SMILES IDX 41 69 42 70 46 71 49 72 43 73 44 74 47 75 45 76 71 77 72 78
REMARK SMILES IDX 80 79 73 80 74 81 78 82 81 83 75 84 76 85 79 86 77 87 56 88
REMARK SMILES IDX 57 89 65 90 58 91 59 92 63 93 66 94 60 95 61 96 64 97 62 98
REMARK H PARENT 20 6 10 15 10 16 27 32 86 51 54 62
REMARK Flexibility Score: inf
ROOT
ATOM      1  C   UNL A   1      33.696  32.413  28.099  1.00  0.00     0.021 C 
ENDROOT
BRANCH   1   2
ATOM      2  C   UNL A   1      34.038  31.068  27.460  1.00  0.00     0.116 C 
BRANCH   2   3
ATOM      3  N   UNL A   1      33.055  30.067  27.790  1.00  0.00    -0.356 N 
ATOM      4  C   UNL A   1      32.485  29.074  27.071  1.00  0.00     0.229 C 
ATOM      5  O   UNL A   1      31.579  28.460  27.648  1.00  0.00    -0.275 OA
ATOM      6  H   UNL A   1      32.738  30.116  28.721  1.00  0.00     0.163 HD
BRANCH   4   7
ATOM      7  C   UNL A   1      32.875  28.666  25.655  1.00  0.00     0.140 C 
ATOM      8  C   UNL A   1      31.773  28.302  24.631  1.00  0.00     0.198 C 
ATOM      9  C   UNL A   1      32.464  27.146  23.838  1.00  0.00     0.048 C 
ATOM     10  C   UNL A   1      32.447  25.856  24.675  1.00  0.00     0.010 C 
ATOM     11  C   UNL A   1      33.954  27.508  23.913  1.00  0.00     0.014 C 
ATOM     12  C   UNL A   1      33.953  27.573  25.449  1.00  0.00     0.008 C 
ATOM     13  C   UNL A   1      33.484  26.148  25.769  1.00  0.00     0.005 C 
BRANCH   8  14
ATOM     14  N   UNL A   1      31.465  29.395  23.703  1.00  0.00    -0.338 N 
ATOM     15  H   UNL A   1      30.887  30.079  24.190  1.00  0.00     0.346 HD
ATOM     16  H   UNL A   1      32.356  29.788  23.397  1.00  0.00     0.346 HD
BRANCH  14  17
ATOM     17  C   UNL A   1      30.755  28.961  22.501  1.00  0.00     0.317 C 
BRANCH  17  18
ATOM     18  C   UNL A   1      29.295  29.108  22.741  1.00  0.00     0.093 A 
ATOM     19  N   UNL A   1      28.512  30.243  22.610  1.00  0.00    -0.327 N 
ATOM     20  C   UNL A   1      27.225  29.851  22.907  1.00  0.00     0.200 A 
ATOM     21  N   UNL A   1      27.146  28.590  23.253  1.00  0.00    -0.245 NA
ATOM     22  C   UNL A   1      28.420  28.121  23.157  1.00  0.00     0.140 A 
BRANCH  19  23
ATOM     23  C   UNL A   1      28.885  31.584  22.144  1.00  0.00     0.082 C 
ATOM     24  C   UNL A   1      28.329  31.927  20.747  1.00  0.00     0.031 C 
ATOM     25  C   UNL A   1      28.467  32.726  23.082  1.00  0.00     0.031 C 
ENDBRANCH  19  23
ENDBRANCH  17  18
ENDBRANCH  14  17
ENDBRANCH   8  14
ENDBRANCH   4   7
ENDBRANCH   2   3
ENDBRANCH   1   2
BRANCH   1  26
ATOM     26  C   UNL A   1      34.827  33.438  28.032  1.00  0.00     0.002 C 
BRANCH  26  27
ATOM     27  C   UNL A   1      34.380  34.907  28.005  1.00  0.00     0.002 C 
BRANCH  27  28
ATOM     28  C   UNL A   1      33.179  35.267  28.892  1.00  0.00     0.021 C 
BRANCH  28  29
ATOM     29  C   UNL A   1      33.457  36.409  29.858  1.00  0.00     0.116 C 
BRANCH  29  30
ATOM     30  N   UNL A   1      32.743  36.239  31.118  1.00  0.00    -0.352 N 
ATOM     31  C   UNL A   1      32.913  35.277  32.091  1.00  0.00     0.251 C 
ATOM     32  H   UNL A   1      32.040  36.904  31.301  1.00  0.00     0.163 HD
ATOM     33  O   UNL A   1      32.034  35.049  32.905  1.00  0.00    -0.269 OA
BRANCH  31  34
ATOM     34  C   UNL A   1      34.178  34.523  32.136  1.00  0.00     0.039 A 
ATOM     35  C   UNL A   1      34.195  33.153  31.860  1.00  0.00     0.014 A 
ATOM     36  C   UNL A   1      35.350  35.199  32.471  1.00  0.00     0.014 A 
ATOM     37  C   UNL A   1      35.414  32.484  31.857  1.00  0.00     0.010 A 
ATOM     38  C   UNL A   1      36.563  34.572  32.337  1.00  0.00     0.010 A 
ATOM     39  C   UNL A   1      36.597  33.206  32.079  1.00  0.00    -0.014 A 
BRANCH  39  40
ATOM     40  C   UNL A   1      37.895  32.567  31.908  1.00  0.00     0.031 A 
ATOM     41  C   UNL A   1      38.656  32.402  33.176  1.00  0.00     0.074 A 
ATOM     42  C   UNL A   1      38.271  31.977  30.752  1.00  0.00     0.049 A 
ATOM     43  N   UNL A   1      39.784  32.941  33.497  1.00  0.00    -0.248 NA
ATOM     44  C   UNL A   1      38.019  31.661  34.279  1.00  0.00     0.031 C 
ATOM     45  C   UNL A   1      37.478  31.796  29.532  1.00  0.00     0.029 A 
ATOM     46  N   UNL A   1      39.422  31.311  30.457  1.00  0.00    -0.354 N 
ATOM     47  C   UNL A   1      40.098  32.455  34.764  1.00  0.00     0.074 A 
ATOM     48  C   UNL A   1      38.903  31.834  35.264  1.00  0.00     0.031 C 
ATOM     49  C   UNL A   1      38.072  30.884  28.733  1.00  0.00     0.029 A 
ATOM     50  C   UNL A   1      39.362  30.541  29.300  1.00  0.00     0.049 A 
ATOM     51  H   UNL A   1      40.230  31.370  31.017  1.00  0.00     0.167 HD
ATOM     52  C   UNL A   1      41.396  32.384  35.176  1.00  0.00     0.037 A 
ATOM     53  C   UNL A   1      40.296  29.664  28.856  1.00  0.00     0.037 A 
ATOM     54  C   UNL A   1      42.233  33.217  34.346  1.00  0.00     0.049 A 
ATOM     55  C   UNL A   1      41.569  29.998  29.539  1.00  0.00     0.074 A 
ATOM     56  C   UNL A   1      42.300  34.569  34.071  1.00  0.00     0.029 A 
ATOM     57  N   UNL A   1      42.941  32.594  33.350  1.00  0.00    -0.354 N 
ATOM     58  N   UNL A   1      42.240  31.094  29.327  1.00  0.00    -0.248 NA
ATOM     59  C   UNL A   1      41.866  29.314  30.787  1.00  0.00     0.031 C 
ATOM     60  C   UNL A   1      42.649  34.649  32.690  1.00  0.00     0.029 A 
ATOM     61  C   UNL A   1      42.850  33.352  32.214  1.00  0.00     0.049 A 
ATOM     62  H   UNL A   1      43.432  31.744  33.437  1.00  0.00     0.167 HD
ATOM     63  C   UNL A   1      42.691  31.475  30.581  1.00  0.00     0.074 A 
ATOM     64  C   UNL A   1      42.528  30.289  31.418  1.00  0.00     0.031 C 
ATOM     65  C   UNL A   1      42.870  32.795  30.881  1.00  0.00     0.037 A 
BRANCH  52  66
ATOM     66  C   UNL A   1      41.976  31.265  36.020  1.00  0.00     0.064 A 
ATOM     67  C   UNL A   1      42.893  31.598  37.042  1.00  0.00     0.173 A 
ATOM     68  C   UNL A   1      41.934  29.897  35.676  1.00  0.00     0.173 A 
ATOM     69  F   UNL A   1      43.023  32.866  37.459  1.00  0.00    -0.203 F 
ATOM     70  C   UNL A   1      43.771  30.657  37.588  1.00  0.00     0.198 A 
ATOM     71  C   UNL A   1      42.778  28.952  36.260  1.00  0.00     0.198 A 
ATOM     72  F   UNL A   1      41.162  29.424  34.693  1.00  0.00    -0.203 F 
ATOM     73  F   UNL A   1      44.719  31.054  38.448  1.00  0.00    -0.200 F 
ATOM     74  C   UNL A   1      43.722  29.337  37.186  1.00  0.00     0.200 A 
ATOM     75  F   UNL A   1      42.721  27.677  35.846  1.00  0.00    -0.200 F 
ATOM     76  F   UNL A   1      44.608  28.448  37.652  1.00  0.00    -0.200 F 
ENDBRANCH  52  66
BRANCH  53  77
ATOM     77  C   UNL A   1      40.112  28.397  28.108  1.00  0.00     0.064 A 
ATOM     78  C   UNL A   1      40.795  28.157  26.904  1.00  0.00     0.173 A 
ATOM     79  C   UNL A   1      39.486  27.284  28.704  1.00  0.00     0.173 A 
ATOM     80  F   UNL A   1      41.456  29.152  26.294  1.00  0.00    -0.203 F 
ATOM     81  C   UNL A   1      40.875  26.876  26.346  1.00  0.00     0.198 A 
ATOM     82  C   UNL A   1      39.562  26.007  28.144  1.00  0.00     0.198 A 
ATOM     83  F   UNL A   1      38.877  27.394  29.893  1.00  0.00    -0.203 F 
ATOM     84  F   UNL A   1      41.593  26.675  25.233  1.00  0.00    -0.200 F 
ATOM     85  C   UNL A   1      40.268  25.801  26.973  1.00  0.00     0.200 A 
ATOM     86  F   UNL A   1      39.005  24.969  28.781  1.00  0.00    -0.200 F 
ATOM     87  F   UNL A   1      40.400  24.563  26.476  1.00  0.00    -0.200 F 
ENDBRANCH  53  77
BRANCH  65  88
ATOM     88  C   UNL A   1      42.880  33.776  29.740  1.00  0.00     0.064 A 
ATOM     89  C   UNL A   1      43.974  33.993  28.885  1.00  0.00     0.173 A 
ATOM     90  C   UNL A   1      41.678  34.424  29.423  1.00  0.00     0.173 A 
ATOM     91  F   UNL A   1      45.130  33.342  29.060  1.00  0.00    -0.203 F 
ATOM     92  C   UNL A   1      43.878  34.852  27.790  1.00  0.00     0.198 A 
ATOM     93  C   UNL A   1      41.573  35.248  28.307  1.00  0.00     0.198 A 
ATOM     94  F   UNL A   1      40.585  34.216  30.174  1.00  0.00    -0.203 F 
ATOM     95  F   UNL A   1      44.941  35.054  26.997  1.00  0.00    -0.200 F 
ATOM     96  C   UNL A   1      42.674  35.471  27.497  1.00  0.00     0.200 A 
ATOM     97  F   UNL A   1      40.392  35.804  28.001  1.00  0.00    -0.200 F 
ATOM     98  F   UNL A   1      42.567  36.262  26.421  1.00  0.00    -0.200 F 
ENDBRANCH  65  88
ENDBRANCH  39  40
ENDBRANCH  31  34
ENDBRANCH  29  30
ENDBRANCH  28  29
ENDBRANCH  27  28
ENDBRANCH  26  27
ENDBRANCH   1  26
TORSDOF 17
ENDMDL
MODEL 2
REMARK VINA RESULT:     -11.8      4.261      9.730
REMARK SMILES CC(C)n1cncc1C[NH2+][C@H]1[C@@H]2CC[C@@H](C2)[C@@H]1C(=O)NCCCCCCNC(=O)c1ccc(-c2c3nc(c(-c4c(F)c(F)c(F)c(F)c4F)c4ccc([nH]4)c(-c4c(F)c(F)c(F)c(F)c4F)c4nc(c(-c5c(F)c(F)c(F)c(F)c5F)c5ccc2[nH]5)C=C4)C=C3)cc1
REMARK SMILES IDX 22 1 21 2 20 3 18 4 19 5 17 7 11 8 12 9 13 10 16 11 15 12
REMARK SMILES IDX 14 13 10 14 9 17 8 18 4 19 5 20 6 21 7 22 2 23 1 24 3 25
REMARK SMILES IDX 23 26 24 27 25 28 26 29 27 30 28 31 29 33 30 34 31 35 92 36
REMARK SMILES IDX 32 37 91 38 33 39 34 40 35 41 85 42 36 43 90 44 84 45 86 46
REMARK SMILES IDX 37 47 89 48 83 49 82 50 38 52 70 53 50 54 69 55 51 56 54 57
REMARK SMILES IDX 68 58 87 59 52 60 53 61 67 63 88 64 55 65 39 66 40 67 48 68
REMARK SMILES IDX 41 69 42 70 46 71 49 72 43 73 44 74 47 75 45 76 71 77 72 78
REMARK SMILES IDX 80 79 73 80 74 81 78 82 81 83 75 84 76 85 79 86 77 87 56 88
REMARK SMILES IDX 57 89 65 90 58 91 59 92 63 93 66 94 60 95 61 96 64 97 62 98
REMARK H PARENT 20 6 10 15 10 16 27 32 86 51 54 62
REMARK Flexibility Score: inf
ROOT
ATOM      1  C   UNL A   1      38.756  23.243  26.294  1.00  0.00     0.021 C 
ENDROOT
BRANCH   1   2
ATOM      2  C   UNL A   1      37.417  23.649  25.680  1.00  0.00     0.116 C 
BRANCH   2   3
ATOM      3  N   UNL A   1      36.318  23.295  26.543  1.00  0.00    -0.356 N 
ATOM      4  C   UNL A   1      34.988  23.183  26.329  1.00  0.00     0.229 C 
ATOM      5  O   UNL A   1      34.309  22.964  27.339  1.00  0.00    -0.275 OA
ATOM      6  H   UNL A   1      36.589  23.097  27.468  1.00  0.00     0.163 HD
BRANCH   4   7
ATOM      7  C   UNL A   1      34.294  23.290  24.975  1.00  0.00     0.140 C 
ATOM      8  C   UNL A   1      32.813  23.732  24.907  1.00  0.00     0.198 C 
ATOM      9  C   UNL A   1      32.286  22.850  23.729  1.00  0.00     0.048 C 
ATOM     10  C   UNL A   1      32.082  21.404  24.210  1.00  0.00     0.010 C 
ATOM     11  C   UNL A   1      33.524  22.675  22.838  1.00  0.00     0.014 C 
ATOM     12  C   UNL A   1      34.378  22.105  23.982  1.00  0.00     0.008 C 
ATOM     13  C   UNL A   1      33.521  20.892  24.366  1.00  0.00     0.005 C 
BRANCH   8  14
ATOM     14  N   UNL A   1      32.648  25.145  24.550  1.00  0.00    -0.338 N 
ATOM     15  H   UNL A   1      33.569  25.582  24.530  1.00  0.00     0.346 HD
ATOM     16  H   UNL A   1      32.185  25.173  23.641  1.00  0.00     0.346 HD
BRANCH  14  17
ATOM     17  C   UNL A   1      31.804  25.890  25.482  1.00  0.00     0.317 C 
BRANCH  17  18
ATOM     18  C   UNL A   1      31.353  27.137  24.812  1.00  0.00     0.093 A 
ATOM     19  N   UNL A   1      31.451  28.443  25.265  1.00  0.00    -0.327 N 
ATOM     20  C   UNL A   1      30.927  29.232  24.265  1.00  0.00     0.200 A 
ATOM     21  N   UNL A   1      30.472  28.534  23.254  1.00  0.00    -0.245 NA
ATOM     22  C   UNL A   1      30.727  27.238  23.582  1.00  0.00     0.140 A 
BRANCH  19  23
ATOM     23  C   UNL A   1      32.074  28.959  26.490  1.00  0.00     0.082 C 
ATOM     24  C   UNL A   1      31.538  28.300  27.778  1.00  0.00     0.031 C 
ATOM     25  C   UNL A   1      33.604  28.835  26.531  1.00  0.00     0.031 C 
ENDBRANCH  19  23
ENDBRANCH  17  18
ENDBRANCH  14  17
ENDBRANCH   8  14
ENDBRANCH   4   7
ENDBRANCH   2   3
ENDBRANCH   1   2
BRANCH   1  26
ATOM     26  C   UNL A   1      39.118  21.774  26.081  1.00  0.00     0.002 C 
BRANCH  26  27
ATOM     27  C   UNL A   1      40.432  21.321  26.734  1.00  0.00     0.002 C 
BRANCH  27  28
ATOM     28  C   UNL A   1      41.029  20.005  26.215  1.00  0.00     0.021 C 
BRANCH  28  29
ATOM     29  C   UNL A   1      42.385  19.672  26.820  1.00  0.00     0.116 C 
BRANCH  29  30
ATOM     30  N   UNL A   1      43.425  19.579  25.801  1.00  0.00    -0.352 N 
ATOM     31  C   UNL A   1      44.029  20.588  25.081  1.00  0.00     0.251 C 
ATOM     32  H   UNL A   1      43.741  18.669  25.600  1.00  0.00     0.163 HD
ATOM     33  O   UNL A   1      44.613  20.347  24.038  1.00  0.00    -0.269 OA
BRANCH  31  34
ATOM     34  C   UNL A   1      43.958  21.969  25.589  1.00  0.00     0.039 A 
ATOM     35  C   UNL A   1      43.091  22.895  25.004  1.00  0.00     0.014 A 
ATOM     36  C   UNL A   1      44.782  22.335  26.652  1.00  0.00     0.014 A 
ATOM     37  C   UNL A   1      43.010  24.173  25.544  1.00  0.00     0.010 A 
ATOM     38  C   UNL A   1      44.605  23.548  27.268  1.00  0.00     0.010 A 
ATOM     39  C   UNL A   1      43.759  24.487  26.688  1.00  0.00    -0.014 A 
BRANCH  39  40
ATOM     40  C   UNL A   1      43.560  25.756  27.376  1.00  0.00     0.031 A 
ATOM     41  C   UNL A   1      44.543  26.807  26.995  1.00  0.00     0.074 A 
ATOM     42  C   UNL A   1      42.459  26.023  28.111  1.00  0.00     0.049 A 
ATOM     43  N   UNL A   1      45.424  27.375  27.748  1.00  0.00    -0.248 NA
ATOM     44  C   UNL A   1      44.658  27.168  25.571  1.00  0.00     0.031 C 
ATOM     45  C   UNL A   1      41.273  25.181  28.298  1.00  0.00     0.029 A 
ATOM     46  N   UNL A   1      42.117  27.165  28.771  1.00  0.00    -0.354 N 
ATOM     47  C   UNL A   1      46.076  28.308  26.943  1.00  0.00     0.074 A 
ATOM     48  C   UNL A   1      45.698  28.004  25.590  1.00  0.00     0.031 C 
ATOM     49  C   UNL A   1      40.266  25.920  28.814  1.00  0.00     0.029 A 
ATOM     50  C   UNL A   1      40.780  27.234  29.148  1.00  0.00     0.049 A 
ATOM     51  H   UNL A   1      42.763  27.883  28.964  1.00  0.00     0.167 HD
ATOM     52  C   UNL A   1      46.662  29.408  27.495  1.00  0.00     0.037 A 
ATOM     53  C   UNL A   1      40.137  28.306  29.674  1.00  0.00     0.037 A 
ATOM     54  C   UNL A   1      46.852  29.219  28.913  1.00  0.00     0.049 A 
ATOM     55  C   UNL A   1      41.174  29.222  30.205  1.00  0.00     0.074 A 
ATOM     56  C   UNL A   1      47.571  28.333  29.693  1.00  0.00     0.029 A 
ATOM     57  N   UNL A   1      45.929  29.794  29.748  1.00  0.00    -0.354 N 
ATOM     58  N   UNL A   1      41.928  28.947  31.232  1.00  0.00    -0.248 NA
ATOM     59  C   UNL A   1      41.677  30.260  29.320  1.00  0.00     0.031 C 
ATOM     60  C   UNL A   1      46.747  28.091  30.832  1.00  0.00     0.029 A 
ATOM     61  C   UNL A   1      45.609  28.893  30.727  1.00  0.00     0.049 A 
ATOM     62  H   UNL A   1      45.559  30.702  29.659  1.00  0.00     0.167 HD
ATOM     63  C   UNL A   1      43.180  29.431  30.884  1.00  0.00     0.074 A 
ATOM     64  C   UNL A   1      42.939  30.323  29.753  1.00  0.00     0.031 C 
ATOM     65  C   UNL A   1      44.311  28.829  31.357  1.00  0.00     0.037 A 
BRANCH  52  66
ATOM     66  C   UNL A   1      46.669  30.790  26.870  1.00  0.00     0.064 A 
ATOM     67  C   UNL A   1      47.871  31.532  26.888  1.00  0.00     0.173 A 
ATOM     68  C   UNL A   1      45.511  31.534  26.557  1.00  0.00     0.173 A 
ATOM     69  F   UNL A   1      49.039  30.937  27.170  1.00  0.00    -0.203 F 
ATOM     70  C   UNL A   1      47.890  32.920  26.721  1.00  0.00     0.198 A 
ATOM     71  C   UNL A   1      45.542  32.912  26.340  1.00  0.00     0.198 A 
ATOM     72  F   UNL A   1      44.288  30.995  26.550  1.00  0.00    -0.203 F 
ATOM     73  F   UNL A   1      49.036  33.594  26.892  1.00  0.00    -0.200 F 
ATOM     74  C   UNL A   1      46.723  33.610  26.460  1.00  0.00     0.200 A 
ATOM     75  F   UNL A   1      44.395  33.564  26.100  1.00  0.00    -0.200 F 
ATOM     76  F   UNL A   1      46.725  34.946  26.372  1.00  0.00    -0.200 F 
ENDBRANCH  52  66
BRANCH  53  77
ATOM     77  C   UNL A   1      38.725  28.727  29.505  1.00  0.00     0.064 A 
ATOM     78  C   UNL A   1      37.909  28.999  30.615  1.00  0.00     0.173 A 
ATOM     79  C   UNL A   1      38.236  29.148  28.252  1.00  0.00     0.173 A 
ATOM     80  F   UNL A   1      38.319  28.672  31.849  1.00  0.00    -0.203 F 
ATOM     81  C   UNL A   1      36.692  29.679  30.485  1.00  0.00     0.198 A 
ATOM     82  C   UNL A   1      37.020  29.821  28.123  1.00  0.00     0.198 A 
ATOM     83  F   UNL A   1      38.976  29.006  27.144  1.00  0.00    -0.203 F 
ATOM     84  F   UNL A   1      35.974  29.979  31.576  1.00  0.00    -0.200 F 
ATOM     85  C   UNL A   1      36.255  30.100  29.241  1.00  0.00     0.200 A 
ATOM     86  F   UNL A   1      36.628  30.258  26.918  1.00  0.00    -0.200 F 
ATOM     87  F   UNL A   1      35.124  30.808  29.123  1.00  0.00    -0.200 F 
ENDBRANCH  53  77
BRANCH  65  88
ATOM     88  C   UNL A   1      44.161  27.858  32.497  1.00  0.00     0.064 A 
ATOM     89  C   UNL A   1      44.053  26.464  32.350  1.00  0.00     0.173 A 
ATOM     90  C   UNL A   1      44.266  28.359  33.802  1.00  0.00     0.173 A 
ATOM     91  F   UNL A   1      44.042  25.895  31.139  1.00  0.00    -0.203 F 
ATOM     92  C   UNL A   1      44.010  25.620  33.459  1.00  0.00     0.198 A 
ATOM     93  C   UNL A   1      44.265  27.512  34.906  1.00  0.00     0.198 A 
ATOM     94  F   UNL A   1      44.422  29.677  34.004  1.00  0.00    -0.203 F 
ATOM     95  F   UNL A   1      43.893  24.294  33.292  1.00  0.00    -0.200 F 
ATOM     96  C   UNL A   1      44.126  26.144  34.736  1.00  0.00     0.200 A 
ATOM     97  F   UNL A   1      44.427  28.022  36.134  1.00  0.00    -0.200 F 
ATOM     98  F   UNL A   1      44.130  25.331  35.801  1.00  0.00    -0.200 F 
ENDBRANCH  65  88
ENDBRANCH  39  40
ENDBRANCH  31  34
ENDBRANCH  29  30
ENDBRANCH  28  29
ENDBRANCH  27  28
ENDBRANCH  26  27
ENDBRANCH   1  26
TORSDOF 17
ENDMDL
MODEL 3
REMARK VINA RESULT:     -11.5      3.500      9.046
REMARK SMILES CC(C)n1cncc1C[NH2+][C@H]1[C@@H]2CC[C@@H](C2)[C@@H]1C(=O)NCCCCCCNC(=O)c1ccc(-c2c3nc(c(-c4c(F)c(F)c(F)c(F)c4F)c4ccc([nH]4)c(-c4c(F)c(F)c(F)c(F)c4F)c4nc(c(-c5c(F)c(F)c(F)c(F)c5F)c5ccc2[nH]5)C=C4)C=C3)cc1
REMARK SMILES IDX 22 1 21 2 20 3 18 4 19 5 17 7 11 8 12 9 13 10 16 11 15 12
REMARK SMILES IDX 14 13 10 14 9 17 8 18 4 19 5 20 6 21 7 22 2 23 1 24 3 25
REMARK SMILES IDX 23 26 24 27 25 28 26 29 27 30 28 31 29 33 30 34 31 35 92 36
REMARK SMILES IDX 32 37 91 38 33 39 34 40 35 41 85 42 36 43 90 44 84 45 86 46
REMARK SMILES IDX 37 47 89 48 83 49 82 50 38 52 70 53 50 54 69 55 51 56 54 57
REMARK SMILES IDX 68 58 87 59 52 60 53 61 67 63 88 64 55 65 39 66 40 67 48 68
REMARK SMILES IDX 41 69 42 70 46 71 49 72 43 73 44 74 47 75 45 76 71 77 72 78
REMARK SMILES IDX 80 79 73 80 74 81 78 82 81 83 75 84 76 85 79 86 77 87 56 88
REMARK SMILES IDX 57 89 65 90 58 91 59 92 63 93 66 94 60 95 61 96 64 97 62 98
REMARK H PARENT 20 6 10 15 10 16 27 32 86 51 54 62
REMARK Flexibility Score: inf
ROOT
ATOM      1  C   UNL A   1      36.197  23.213  24.900  1.00  0.00     0.021 C 
ENDROOT
BRANCH   1   2
ATOM      2  C   UNL A   1      35.215  24.247  25.448  1.00  0.00     0.116 C 
BRANCH   2   3
ATOM      3  N   UNL A   1      34.647  25.042  24.389  1.00  0.00    -0.356 N 
ATOM      4  C   UNL A   1      33.750  26.054  24.386  1.00  0.00     0.229 C 
ATOM      5  O   UNL A   1      33.397  26.441  23.265  1.00  0.00    -0.275 OA
ATOM      6  H   UNL A   1      34.978  24.802  23.493  1.00  0.00     0.163 HD
BRANCH   4   7
ATOM      7  C   UNL A   1      33.173  26.733  25.623  1.00  0.00     0.140 C 
ATOM      8  C   UNL A   1      31.640  26.799  25.817  1.00  0.00     0.198 C 
ATOM      9  C   UNL A   1      31.475  28.208  26.474  1.00  0.00     0.048 C 
ATOM     10  C   UNL A   1      31.628  29.303  25.405  1.00  0.00     0.010 C 
ATOM     11  C   UNL A   1      32.788  28.390  27.250  1.00  0.00     0.014 C 
ATOM     12  C   UNL A   1      33.660  28.152  26.007  1.00  0.00     0.008 C 
ATOM     13  C   UNL A   1      33.133  29.272  25.101  1.00  0.00     0.005 C 
BRANCH   8  14
ATOM     14  N   UNL A   1      31.131  25.782  26.743  1.00  0.00    -0.338 N 
ATOM     15  H   UNL A   1      31.912  25.432  27.297  1.00  0.00     0.346 HD
ATOM     16  H   UNL A   1      30.418  26.232  27.319  1.00  0.00     0.346 HD
BRANCH  14  17
ATOM     17  C   UNL A   1      30.491  24.650  26.077  1.00  0.00     0.317 C 
BRANCH  17  18
ATOM     18  C   UNL A   1      31.423  23.493  26.120  1.00  0.00     0.093 A 
ATOM     19  N   UNL A   1      31.810  22.660  25.083  1.00  0.00    -0.327 N 
ATOM     20  C   UNL A   1      32.713  21.773  25.626  1.00  0.00     0.200 A 
ATOM     21  N   UNL A   1      32.887  21.950  26.913  1.00  0.00    -0.245 NA
ATOM     22  C   UNL A   1      32.093  23.008  27.229  1.00  0.00     0.140 A 
BRANCH  19  23
ATOM     23  C   UNL A   1      31.462  22.723  23.657  1.00  0.00     0.082 C 
ATOM     24  C   UNL A   1      30.905  24.093  23.221  1.00  0.00     0.031 C 
ATOM     25  C   UNL A   1      32.616  22.388  22.702  1.00  0.00     0.031 C 
ENDBRANCH  19  23
ENDBRANCH  17  18
ENDBRANCH  14  17
ENDBRANCH   8  14
ENDBRANCH   4   7
ENDBRANCH   2   3
ENDBRANCH   1   2
BRANCH   1  26
ATOM     26  C   UNL A   1      37.665  23.547  25.165  1.00  0.00     0.002 C 
BRANCH  26  27
ATOM     27  C   UNL A   1      38.303  22.800  26.344  1.00  0.00     0.002 C 
BRANCH  27  28
ATOM     28  C   UNL A   1      39.110  21.541  25.993  1.00  0.00     0.021 C 
BRANCH  28  29
ATOM     29  C   UNL A   1      40.351  21.354  26.854  1.00  0.00     0.116 C 
BRANCH  29  30
ATOM     30  N   UNL A   1      41.576  21.500  26.076  1.00  0.00    -0.352 N 
ATOM     31  C   UNL A   1      42.274  22.646  25.761  1.00  0.00     0.251 C 
ATOM     32  H   UNL A   1      41.960  20.663  25.728  1.00  0.00     0.163 HD
ATOM     33  O   UNL A   1      43.064  22.661  24.831  1.00  0.00    -0.269 OA
BRANCH  31  34
ATOM     34  C   UNL A   1      42.052  23.861  26.564  1.00  0.00     0.039 A 
ATOM     35  C   UNL A   1      42.701  24.027  27.791  1.00  0.00     0.014 A 
ATOM     36  C   UNL A   1      41.176  24.832  26.084  1.00  0.00     0.014 A 
ATOM     37  C   UNL A   1      42.512  25.209  28.496  1.00  0.00     0.010 A 
ATOM     38  C   UNL A   1      41.093  26.050  26.710  1.00  0.00     0.010 A 
ATOM     39  C   UNL A   1      41.719  26.225  27.940  1.00  0.00    -0.014 A 
BRANCH  39  40
ATOM     40  C   UNL A   1      41.647  27.536  28.571  1.00  0.00     0.031 A 
ATOM     41  C   UNL A   1      42.770  28.441  28.206  1.00  0.00     0.074 A 
ATOM     42  C   UNL A   1      40.553  27.967  29.235  1.00  0.00     0.049 A 
ATOM     43  N   UNL A   1      43.677  28.929  28.985  1.00  0.00    -0.248 NA
ATOM     44  C   UNL A   1      43.000  28.727  26.779  1.00  0.00     0.031 C 
ATOM     45  C   UNL A   1      39.262  27.285  29.386  1.00  0.00     0.029 A 
ATOM     46  N   UNL A   1      40.323  29.168  29.835  1.00  0.00    -0.354 N 
ATOM     47  C   UNL A   1      44.479  29.740  28.185  1.00  0.00     0.074 A 
ATOM     48  C   UNL A   1      44.134  29.429  26.825  1.00  0.00     0.031 C 
ATOM     49  C   UNL A   1      38.332  28.162  29.821  1.00  0.00     0.029 A 
ATOM     50  C   UNL A   1      38.988  29.416  30.137  1.00  0.00     0.049 A 
ATOM     51  H   UNL A   1      41.043  29.809  30.037  1.00  0.00     0.167 HD
ATOM     52  C   UNL A   1      45.169  30.782  28.728  1.00  0.00     0.037 A 
ATOM     53  C   UNL A   1      38.458  30.579  30.589  1.00  0.00     0.037 A 
ATOM     54  C   UNL A   1      45.264  30.630  30.160  1.00  0.00     0.049 A 
ATOM     55  C   UNL A   1      39.574  31.383  31.142  1.00  0.00     0.074 A 
ATOM     56  C   UNL A   1      45.827  29.697  31.009  1.00  0.00     0.029 A 
ATOM     57  N   UNL A   1      44.380  31.348  30.924  1.00  0.00    -0.354 N 
ATOM     58  N   UNL A   1      40.236  31.060  32.217  1.00  0.00    -0.248 NA
ATOM     59  C   UNL A   1      40.246  32.313  30.250  1.00  0.00     0.031 C 
ATOM     60  C   UNL A   1      44.925  29.604  32.110  1.00  0.00     0.029 A 
ATOM     61  C   UNL A   1      43.902  30.535  31.915  1.00  0.00     0.049 A 
ATOM     62  H   UNL A   1      44.131  32.291  30.783  1.00  0.00     0.167 HD
ATOM     63  C   UNL A   1      41.554  31.372  31.921  1.00  0.00     0.074 A 
ATOM     64  C   UNL A   1      41.483  32.240  30.749  1.00  0.00     0.031 C 
ATOM     65  C   UNL A   1      42.576  30.656  32.476  1.00  0.00     0.037 A 
BRANCH  52  66
ATOM     66  C   UNL A   1      45.379  32.126  28.057  1.00  0.00     0.064 A 
ATOM     67  C   UNL A   1      44.246  32.920  27.769  1.00  0.00     0.173 A 
ATOM     68  C   UNL A   1      46.566  32.519  27.404  1.00  0.00     0.173 A 
ATOM     69  F   UNL A   1      43.058  32.648  28.331  1.00  0.00    -0.203 F 
ATOM     70  C   UNL A   1      44.280  33.946  26.820  1.00  0.00     0.198 A 
ATOM     71  C   UNL A   1      46.607  33.576  26.495  1.00  0.00     0.198 A 
ATOM     72  F   UNL A   1      47.713  31.843  27.525  1.00  0.00    -0.203 F 
ATOM     73  F   UNL A   1      43.145  34.571  26.478  1.00  0.00    -0.200 F 
ATOM     74  C   UNL A   1      45.457  34.264  26.174  1.00  0.00     0.200 A 
ATOM     75  F   UNL A   1      47.759  33.861  25.870  1.00  0.00    -0.200 F 
ATOM     76  F   UNL A   1      45.479  35.196  25.212  1.00  0.00    -0.200 F 
ENDBRANCH  52  66
BRANCH  53  77
ATOM     77  C   UNL A   1      37.120  31.163  30.329  1.00  0.00     0.064 A 
ATOM     78  C   UNL A   1      36.262  31.515  31.384  1.00  0.00     0.173 A 
ATOM     79  C   UNL A   1      36.774  31.652  29.053  1.00  0.00     0.173 A 
ATOM     80  F   UNL A   1      36.542  31.130  32.637  1.00  0.00    -0.203 F 
ATOM     81  C   UNL A   1      35.144  32.333  31.182  1.00  0.00     0.198 A 
ATOM     82  C   UNL A   1      35.656  32.463  28.851  1.00  0.00     0.198 A 
ATOM     83  F   UNL A   1      37.571  31.437  27.997  1.00  0.00    -0.203 F 
ATOM     84  F   UNL A   1      34.388  32.702  32.225  1.00  0.00    -0.200 F 
ATOM     85  C   UNL A   1      34.849  32.815  29.918  1.00  0.00     0.200 A 
ATOM     86  F   UNL A   1      35.404  32.956  27.631  1.00  0.00    -0.200 F 
ATOM     87  F   UNL A   1      33.818  33.651  29.734  1.00  0.00    -0.200 F 
ENDBRANCH  53  77
BRANCH  65  88
ATOM     88  C   UNL A   1      42.251  29.760  33.640  1.00  0.00     0.064 A 
ATOM     89  C   UNL A   1      41.837  28.421  33.524  1.00  0.00     0.173 A 
ATOM     90  C   UNL A   1      42.500  30.246  34.931  1.00  0.00     0.173 A 
ATOM     91  F   UNL A   1      41.667  27.850  32.326  1.00  0.00    -0.203 F 
ATOM     92  C   UNL A   1      41.642  27.624  34.651  1.00  0.00     0.198 A 
ATOM     93  C   UNL A   1      42.345  29.436  36.052  1.00  0.00     0.198 A 
ATOM     94  F   UNL A   1      42.946  31.500  35.101  1.00  0.00    -0.203 F 
ATOM     95  F   UNL A   1      41.233  26.353  34.516  1.00  0.00    -0.200 F 
ATOM     96  C   UNL A   1      41.906  28.129  35.914  1.00  0.00     0.200 A 
ATOM     97  F   UNL A   1      42.650  29.917  37.265  1.00  0.00    -0.200 F 
ATOM     98  F   UNL A   1      41.762  27.352  36.996  1.00  0.00    -0.200 F 
ENDBRANCH  65  88
ENDBRANCH  39  40
ENDBRANCH  31  34
ENDBRANCH  29  30
ENDBRANCH  28  29
ENDBRANCH  27  28
ENDBRANCH  26  27
ENDBRANCH   1  26
TORSDOF 17
ENDMDL
