MODEL 1
REMARK VINA RESULT:     -11.7      0.000      0.000
REMARK SMILES O=C(Cc1ccn(-c2ccccc2F)c1)NCCCCCCNC(=O)c1ccc(-c2c3nc(c(-c4c(F)c(F)c(F)c(F)c4F)c4ccc([nH]4)c(-c4c(F)c(F)c(F)c(F)c4F)c4nc(c(-c5c(F)c(F)c(F)c(F)c5F)c5ccc2[nH]5)C=C4)C=C3)cc1
REMARK SMILES IDX 19 1 18 2 17 3 16 4 1 5 2 6 3 8 4 9 5 10 15 11 6 12 7 13
REMARK SMILES IDX 8 14 9 15 13 16 10 17 12 18 14 19 11 20 20 21 21 22 22 23
REMARK SMILES IDX 23 24 24 25 25 27 26 28 27 29 88 30 28 31 87 32 29 33 30 34
REMARK SMILES IDX 31 35 81 36 32 37 86 38 80 39 82 40 33 41 85 42 79 43 78 44
REMARK SMILES IDX 34 46 66 47 46 48 65 49 47 50 50 51 64 52 83 53 48 54 49 55
REMARK SMILES IDX 63 57 84 58 51 59 35 60 36 61 44 62 37 63 38 64 42 65 45 66
REMARK SMILES IDX 39 67 40 68 43 69 41 70 67 71 68 72 76 73 69 74 70 75 74 76
REMARK SMILES IDX 77 77 71 78 72 79 75 80 73 81 52 82 53 83 61 84 54 85 55 86
REMARK SMILES IDX 59 87 62 88 56 89 57 90 60 91 58 92
REMARK H PARENT 16 7 23 26 82 45 50 56
REMARK Flexibility Score: inf
ROOT
ATOM      1  C   UNL A   1      33.492  27.185  23.622  1.00  0.00     0.002 C 
ENDROOT
BRANCH   1   2
ATOM      2  C   UNL A   1      32.174  27.684  23.010  1.00  0.00     0.021 C 
BRANCH   2   3
ATOM      3  C   UNL A   1      31.503  26.708  22.042  1.00  0.00     0.116 C 
BRANCH   3   4
ATOM      4  N   UNL A   1      31.621  25.344  22.509  1.00  0.00    -0.356 N 
ATOM      5  O   UNL A   1      29.926  25.406  24.057  1.00  0.00    -0.275 OA
ATOM      6  C   UNL A   1      30.810  24.785  23.474  1.00  0.00     0.224 C 
ATOM      7  H   UNL A   1      32.324  24.780  22.112  1.00  0.00     0.163 HD
BRANCH   6   8
ATOM      8  C   UNL A   1      31.142  23.329  23.786  1.00  0.00     0.137 C 
BRANCH   8   9
ATOM      9  C   UNL A   1      32.364  23.205  24.645  1.00  0.00    -0.021 A 
ATOM     10  C   UNL A   1      32.438  23.437  26.043  1.00  0.00     0.024 A 
ATOM     11  C   UNL A   1      33.642  22.846  24.248  1.00  0.00     0.095 A 
ATOM     12  C   UNL A   1      33.703  23.085  26.458  1.00  0.00     0.091 A 
ATOM     13  N   UNL A   1      34.434  22.672  25.364  1.00  0.00    -0.321 N 
BRANCH  13  14
ATOM     14  C   UNL A   1      35.721  22.084  25.388  1.00  0.00     0.081 A 
ATOM     15  C   UNL A   1      35.867  20.731  25.047  1.00  0.00     0.030 A 
ATOM     16  C   UNL A   1      36.854  22.845  25.681  1.00  0.00     0.147 A 
ATOM     17  C   UNL A   1      37.143  20.166  24.977  1.00  0.00     0.002 A 
ATOM     18  C   UNL A   1      38.121  22.269  25.649  1.00  0.00     0.041 A 
ATOM     19  F   UNL A   1      36.756  24.130  26.055  1.00  0.00    -0.205 F 
ATOM     20  C   UNL A   1      38.268  20.932  25.285  1.00  0.00     0.003 A 
ENDBRANCH  13  14
ENDBRANCH   8   9
ENDBRANCH   6   8
ENDBRANCH   3   4
ENDBRANCH   2   3
ENDBRANCH   1   2
BRANCH   1  21
ATOM     21  C   UNL A   1      33.559  27.206  25.153  1.00  0.00     0.002 C 
BRANCH  21  22
ATOM     22  C   UNL A   1      33.731  28.594  25.783  1.00  0.00     0.021 C 
BRANCH  22  23
ATOM     23  C   UNL A   1      34.859  28.677  26.811  1.00  0.00     0.116 C 
BRANCH  23  24
ATOM     24  N   UNL A   1      35.187  30.060  27.122  1.00  0.00    -0.352 N 
ATOM     25  C   UNL A   1      36.202  30.566  27.893  1.00  0.00     0.251 C 
ATOM     26  H   UNL A   1      34.592  30.732  26.717  1.00  0.00     0.163 HD
ATOM     27  O   UNL A   1      36.103  31.697  28.354  1.00  0.00    -0.269 OA
BRANCH  25  28
ATOM     28  C   UNL A   1      37.411  29.770  28.184  1.00  0.00     0.039 A 
ATOM     29  C   UNL A   1      38.432  29.744  27.224  1.00  0.00     0.014 A 
ATOM     30  C   UNL A   1      37.502  28.977  29.332  1.00  0.00     0.014 A 
ATOM     31  C   UNL A   1      39.568  28.973  27.443  1.00  0.00     0.010 A 
ATOM     32  C   UNL A   1      38.648  28.227  29.569  1.00  0.00     0.010 A 
ATOM     33  C   UNL A   1      39.685  28.238  28.629  1.00  0.00    -0.014 A 
BRANCH  33  34
ATOM     34  C   UNL A   1      40.978  27.598  28.953  1.00  0.00     0.031 A 
ATOM     35  C   UNL A   1      41.081  26.182  28.346  1.00  0.00     0.074 A 
ATOM     36  C   UNL A   1      41.846  28.334  29.714  1.00  0.00     0.049 A 
ATOM     37  N   UNL A   1      41.817  25.172  28.695  1.00  0.00    -0.248 NA
ATOM     38  C   UNL A   1      40.188  25.814  27.209  1.00  0.00     0.031 C 
ATOM     39  C   UNL A   1      41.583  29.711  30.183  1.00  0.00     0.029 A 
ATOM     40  N   UNL A   1      43.098  28.102  30.248  1.00  0.00    -0.354 N 
ATOM     41  C   UNL A   1      41.611  24.133  27.756  1.00  0.00     0.074 A 
ATOM     42  C   UNL A   1      40.528  24.554  26.922  1.00  0.00     0.031 C 
ATOM     43  C   UNL A   1      42.581  30.152  30.978  1.00  0.00     0.029 A 
ATOM     44  C   UNL A   1      43.595  29.124  31.104  1.00  0.00     0.049 A 
ATOM     45  H   UNL A   1      43.613  27.286  30.050  1.00  0.00     0.167 HD
ATOM     46  C   UNL A   1      42.427  23.040  27.661  1.00  0.00     0.037 A 
ATOM     47  C   UNL A   1      44.711  29.117  31.900  1.00  0.00     0.037 A 
ATOM     48  C   UNL A   1      43.421  23.096  28.676  1.00  0.00     0.049 A 
ATOM     49  C   UNL A   1      45.416  27.873  31.558  1.00  0.00     0.074 A 
ATOM     50  C   UNL A   1      43.356  22.905  30.030  1.00  0.00     0.029 A 
ATOM     51  N   UNL A   1      44.586  23.748  28.364  1.00  0.00    -0.354 N 
ATOM     52  N   UNL A   1      46.065  27.662  30.451  1.00  0.00    -0.248 NA
ATOM     53  C   UNL A   1      45.308  26.739  32.485  1.00  0.00     0.031 C 
ATOM     54  C   UNL A   1      44.237  23.884  30.533  1.00  0.00     0.029 A 
ATOM     55  C   UNL A   1      44.963  24.450  29.479  1.00  0.00     0.049 A 
ATOM     56  H   UNL A   1      45.061  23.718  27.503  1.00  0.00     0.167 HD
ATOM     57  C   UNL A   1      46.142  26.289  30.423  1.00  0.00     0.074 A 
ATOM     58  C   UNL A   1      45.973  25.828  31.782  1.00  0.00     0.031 C 
ATOM     59  C   UNL A   1      45.776  25.626  29.300  1.00  0.00     0.037 A 
BRANCH  46  60
ATOM     60  C   UNL A   1      42.599  21.974  26.612  1.00  0.00     0.064 A 
ATOM     61  C   UNL A   1      43.595  22.014  25.630  1.00  0.00     0.173 A 
ATOM     62  C   UNL A   1      41.989  20.710  26.832  1.00  0.00     0.173 A 
ATOM     63  F   UNL A   1      44.247  23.150  25.354  1.00  0.00    -0.203 F 
ATOM     64  C   UNL A   1      44.020  20.849  24.979  1.00  0.00     0.198 A 
ATOM     65  C   UNL A   1      42.448  19.547  26.216  1.00  0.00     0.198 A 
ATOM     66  F   UNL A   1      40.990  20.573  27.718  1.00  0.00    -0.203 F 
ATOM     67  F   UNL A   1      45.017  20.918  24.085  1.00  0.00    -0.200 F 
ATOM     68  C   UNL A   1      43.479  19.615  25.303  1.00  0.00     0.200 A 
ATOM     69  F   UNL A   1      41.937  18.358  26.567  1.00  0.00    -0.200 F 
ATOM     70  F   UNL A   1      43.974  18.494  24.760  1.00  0.00    -0.200 F 
ENDBRANCH  46  60
BRANCH  47  71
ATOM     71  C   UNL A   1      45.287  29.921  33.054  1.00  0.00     0.064 A 
ATOM     72  C   UNL A   1      46.596  30.477  32.943  1.00  0.00     0.173 A 
ATOM     73  C   UNL A   1      44.707  30.096  34.315  1.00  0.00     0.173 A 
ATOM     74  F   UNL A   1      47.226  30.571  31.763  1.00  0.00    -0.203 F 
ATOM     75  C   UNL A   1      47.332  30.952  34.029  1.00  0.00     0.198 A 
ATOM     76  C   UNL A   1      45.426  30.633  35.401  1.00  0.00     0.198 A 
ATOM     77  F   UNL A   1      43.431  29.775  34.542  1.00  0.00    -0.203 F 
ATOM     78  F   UNL A   1      48.609  31.322  33.857  1.00  0.00    -0.200 F 
ATOM     79  C   UNL A   1      46.752  31.009  35.271  1.00  0.00     0.200 A 
ATOM     80  F   UNL A   1      44.827  30.765  36.594  1.00  0.00    -0.200 F 
ATOM     81  F   UNL A   1      47.457  31.438  36.326  1.00  0.00    -0.200 F 
ENDBRANCH  47  71
BRANCH  59  82
ATOM     82  C   UNL A   1      45.955  26.404  28.018  1.00  0.00     0.064 A 
ATOM     83  C   UNL A   1      44.901  26.939  27.258  1.00  0.00     0.173 A 
ATOM     84  C   UNL A   1      47.251  26.694  27.569  1.00  0.00     0.173 A 
ATOM     85  F   UNL A   1      43.634  26.733  27.613  1.00  0.00    -0.203 F 
ATOM     86  C   UNL A   1      45.123  27.702  26.109  1.00  0.00     0.198 A 
ATOM     87  C   UNL A   1      47.478  27.461  26.425  1.00  0.00     0.198 A 
ATOM     88  F   UNL A   1      48.310  26.213  28.238  1.00  0.00    -0.203 F 
ATOM     89  F   UNL A   1      44.083  28.172  25.403  1.00  0.00    -0.200 F 
ATOM     90  C   UNL A   1      46.413  27.962  25.693  1.00  0.00     0.200 A 
ATOM     91  F   UNL A   1      48.733  27.703  26.023  1.00  0.00    -0.200 F 
ATOM     92  F   UNL A   1      46.632  28.679  24.581  1.00  0.00    -0.200 F 
ENDBRANCH  59  82
ENDBRANCH  33  34
ENDBRANCH  25  28
ENDBRANCH  23  24
ENDBRANCH  22  23
ENDBRANCH  21  22
ENDBRANCH   1  21
TORSDOF 15
ENDMDL
MODEL 2
REMARK VINA RESULT:     -11.5      4.546      9.738
REMARK SMILES O=C(Cc1ccn(-c2ccccc2F)c1)NCCCCCCNC(=O)c1ccc(-c2c3nc(c(-c4c(F)c(F)c(F)c(F)c4F)c4ccc([nH]4)c(-c4c(F)c(F)c(F)c(F)c4F)c4nc(c(-c5c(F)c(F)c(F)c(F)c5F)c5ccc2[nH]5)C=C4)C=C3)cc1
REMARK SMILES IDX 19 1 18 2 17 3 16 4 1 5 2 6 3 8 4 9 5 10 15 11 6 12 7 13
REMARK SMILES IDX 8 14 9 15 13 16 10 17 12 18 14 19 11 20 20 21 21 22 22 23
REMARK SMILES IDX 23 24 24 25 25 27 26 28 27 29 88 30 28 31 87 32 29 33 30 34
REMARK SMILES IDX 31 35 81 36 32 37 86 38 80 39 82 40 33 41 85 42 79 43 78 44
REMARK SMILES IDX 34 46 66 47 46 48 65 49 47 50 50 51 64 52 83 53 48 54 49 55
REMARK SMILES IDX 63 57 84 58 51 59 35 60 36 61 44 62 37 63 38 64 42 65 45 66
REMARK SMILES IDX 39 67 40 68 43 69 41 70 67 71 68 72 76 73 69 74 70 75 74 76
REMARK SMILES IDX 77 77 71 78 72 79 75 80 73 81 52 82 53 83 61 84 54 85 55 86
REMARK SMILES IDX 59 87 62 88 56 89 57 90 60 91 58 92
REMARK H PARENT 16 7 23 26 82 45 50 56
REMARK Flexibility Score: inf
ROOT
ATOM      1  C   UNL A   1      34.852  21.643  25.276  1.00  0.00     0.002 C 
ENDROOT
BRANCH   1   2
ATOM      2  C   UNL A   1      33.893  22.364  24.317  1.00  0.00     0.021 C 
BRANCH   2   3
ATOM      3  C   UNL A   1      32.805  23.197  24.996  1.00  0.00     0.116 C 
BRANCH   3   4
ATOM      4  N   UNL A   1      33.272  24.536  25.280  1.00  0.00    -0.356 N 
ATOM      5  O   UNL A   1      31.609  25.130  26.749  1.00  0.00    -0.275 OA
ATOM      6  C   UNL A   1      32.647  25.402  26.152  1.00  0.00     0.224 C 
ATOM      7  H   UNL A   1      34.086  24.848  24.823  1.00  0.00     0.163 HD
BRANCH   6   8
ATOM      8  C   UNL A   1      33.341  26.756  26.275  1.00  0.00     0.137 C 
BRANCH   8   9
ATOM      9  C   UNL A   1      32.793  27.756  25.303  1.00  0.00    -0.021 A 
ATOM     10  C   UNL A   1      33.473  28.301  24.182  1.00  0.00     0.024 A 
ATOM     11  C   UNL A   1      31.536  28.338  25.308  1.00  0.00     0.095 A 
ATOM     12  C   UNL A   1      32.573  29.076  23.484  1.00  0.00     0.091 A 
ATOM     13  N   UNL A   1      31.364  29.061  24.145  1.00  0.00    -0.321 N 
BRANCH  13  14
ATOM     14  C   UNL A   1      30.143  29.601  23.675  1.00  0.00     0.081 A 
ATOM     15  C   UNL A   1      29.748  30.880  24.092  1.00  0.00     0.030 A 
ATOM     16  C   UNL A   1      29.359  28.907  22.751  1.00  0.00     0.147 A 
ATOM     17  C   UNL A   1      28.592  31.459  23.562  1.00  0.00     0.002 A 
ATOM     18  C   UNL A   1      28.186  29.470  22.253  1.00  0.00     0.041 A 
ATOM     19  F   UNL A   1      29.676  27.664  22.358  1.00  0.00    -0.205 F 
ATOM     20  C   UNL A   1      27.809  30.752  22.648  1.00  0.00     0.003 A 
ENDBRANCH  13  14
ENDBRANCH   8   9
ENDBRANCH   6   8
ENDBRANCH   3   4
ENDBRANCH   2   3
ENDBRANCH   1   2
BRANCH   1  21
ATOM     21  C   UNL A   1      36.323  22.061  25.179  1.00  0.00     0.002 C 
BRANCH  21  22
ATOM     22  C   UNL A   1      36.568  23.568  25.031  1.00  0.00     0.021 C 
BRANCH  22  23
ATOM     23  C   UNL A   1      37.192  24.222  26.263  1.00  0.00     0.116 C 
BRANCH  23  24
ATOM     24  N   UNL A   1      38.418  23.545  26.654  1.00  0.00    -0.352 N 
ATOM     25  C   UNL A   1      39.610  24.072  27.084  1.00  0.00     0.251 C 
ATOM     26  H   UNL A   1      38.388  22.563  26.605  1.00  0.00     0.163 HD
ATOM     27  O   UNL A   1      40.632  23.402  27.000  1.00  0.00    -0.269 OA
BRANCH  25  28
ATOM     28  C   UNL A   1      39.685  25.438  27.641  1.00  0.00     0.039 A 
ATOM     29  C   UNL A   1      39.216  25.646  28.945  1.00  0.00     0.014 A 
ATOM     30  C   UNL A   1      40.112  26.519  26.863  1.00  0.00     0.014 A 
ATOM     31  C   UNL A   1      39.232  26.926  29.490  1.00  0.00     0.010 A 
ATOM     32  C   UNL A   1      40.157  27.794  27.412  1.00  0.00     0.010 A 
ATOM     33  C   UNL A   1      39.729  27.992  28.730  1.00  0.00    -0.014 A 
BRANCH  33  34
ATOM     34  C   UNL A   1      39.946  29.300  29.385  1.00  0.00     0.031 A 
ATOM     35  C   UNL A   1      38.710  30.217  29.249  1.00  0.00     0.074 A 
ATOM     36  C   UNL A   1      41.162  29.486  29.985  1.00  0.00     0.049 A 
ATOM     37  N   UNL A   1      38.614  31.509  29.312  1.00  0.00    -0.248 NA
ATOM     38  C   UNL A   1      37.384  29.606  28.941  1.00  0.00     0.031 C 
ATOM     39  C   UNL A   1      42.228  28.463  30.045  1.00  0.00     0.029 A 
ATOM     40  N   UNL A   1      41.760  30.536  30.653  1.00  0.00    -0.354 N 
ATOM     41  C   UNL A   1      37.244  31.852  29.221  1.00  0.00     0.074 A 
ATOM     42  C   UNL A   1      36.548  30.646  28.899  1.00  0.00     0.031 C 
ATOM     43  C   UNL A   1      43.342  28.956  30.626  1.00  0.00     0.029 A 
ATOM     44  C   UNL A   1      43.122  30.335  31.012  1.00  0.00     0.049 A 
ATOM     45  H   UNL A   1      41.277  31.368  30.868  1.00  0.00     0.167 HD
ATOM     46  C   UNL A   1      36.764  33.096  29.529  1.00  0.00     0.037 A 
ATOM     47  C   UNL A   1      44.021  31.233  31.526  1.00  0.00     0.037 A 
ATOM     48  C   UNL A   1      37.845  33.955  29.864  1.00  0.00     0.049 A 
ATOM     49  C   UNL A   1      43.233  32.443  31.809  1.00  0.00     0.074 A 
ATOM     50  C   UNL A   1      38.817  34.543  29.100  1.00  0.00     0.029 A 
ATOM     51  N   UNL A   1      38.222  33.989  31.183  1.00  0.00    -0.354 N 
ATOM     52  N   UNL A   1      42.379  32.568  32.782  1.00  0.00    -0.248 NA
ATOM     53  C   UNL A   1      43.338  33.571  30.875  1.00  0.00     0.031 C 
ATOM     54  C   UNL A   1      39.961  34.460  29.919  1.00  0.00     0.029 A 
ATOM     55  C   UNL A   1      39.590  34.057  31.207  1.00  0.00     0.049 A 
ATOM     56  H   UNL A   1      37.623  33.968  31.963  1.00  0.00     0.167 HD
ATOM     57  C   UNL A   1      41.628  33.641  32.364  1.00  0.00     0.074 A 
ATOM     58  C   UNL A   1      42.432  34.377  31.416  1.00  0.00     0.031 C 
ATOM     59  C   UNL A   1      40.277  33.548  32.366  1.00  0.00     0.037 A 
BRANCH  46  60
ATOM     60  C   UNL A   1      35.380  33.628  29.784  1.00  0.00     0.064 A 
ATOM     61  C   UNL A   1      34.798  33.683  31.055  1.00  0.00     0.173 A 
ATOM     62  C   UNL A   1      34.778  34.441  28.786  1.00  0.00     0.173 A 
ATOM     63  F   UNL A   1      35.296  32.971  32.074  1.00  0.00    -0.203 F 
ATOM     64  C   UNL A   1      33.745  34.564  31.335  1.00  0.00     0.198 A 
ATOM     65  C   UNL A   1      33.763  35.349  29.081  1.00  0.00     0.198 A 
ATOM     66  F   UNL A   1      35.229  34.425  27.521  1.00  0.00    -0.203 F 
ATOM     67  F   UNL A   1      33.252  34.630  32.580  1.00  0.00    -0.200 F 
ATOM     68  C   UNL A   1      33.260  35.424  30.363  1.00  0.00     0.200 A 
ATOM     69  F   UNL A   1      33.330  36.197  28.137  1.00  0.00    -0.200 F 
ATOM     70  F   UNL A   1      32.334  36.343  30.671  1.00  0.00    -0.200 F 
ENDBRANCH  46  60
BRANCH  47  71
ATOM     71  C   UNL A   1      45.523  31.346  31.729  1.00  0.00     0.064 A 
ATOM     72  C   UNL A   1      46.383  31.447  30.595  1.00  0.00     0.173 A 
ATOM     73  C   UNL A   1      46.206  31.244  32.946  1.00  0.00     0.173 A 
ATOM     74  F   UNL A   1      45.911  31.740  29.375  1.00  0.00    -0.203 F 
ATOM     75  C   UNL A   1      47.762  31.242  30.648  1.00  0.00     0.198 A 
ATOM     76  C   UNL A   1      47.606  31.099  33.008  1.00  0.00     0.198 A 
ATOM     77  F   UNL A   1      45.557  31.297  34.112  1.00  0.00    -0.203 F 
ATOM     78  F   UNL A   1      48.473  31.212  29.511  1.00  0.00    -0.200 F 
ATOM     79  C   UNL A   1      48.375  31.043  31.859  1.00  0.00     0.200 A 
ATOM     80  F   UNL A   1      48.210  30.990  34.200  1.00  0.00    -0.200 F 
ATOM     81  F   UNL A   1      49.695  30.820  31.917  1.00  0.00    -0.200 F 
ENDBRANCH  47  71
BRANCH  59  82
ATOM     82  C   UNL A   1      39.708  32.603  33.399  1.00  0.00     0.064 A 
ATOM     83  C   UNL A   1      39.129  31.357  33.105  1.00  0.00     0.173 A 
ATOM     84  C   UNL A   1      39.820  32.928  34.758  1.00  0.00     0.173 A 
ATOM     85  F   UNL A   1      38.994  30.950  31.844  1.00  0.00    -0.203 F 
ATOM     86  C   UNL A   1      38.671  30.494  34.103  1.00  0.00     0.198 A 
ATOM     87  C   UNL A   1      39.369  32.066  35.760  1.00  0.00     0.198 A 
ATOM     88  F   UNL A   1      40.357  34.104  35.119  1.00  0.00    -0.203 F 
ATOM     89  F   UNL A   1      38.103  29.324  33.771  1.00  0.00    -0.200 F 
ATOM     90  C   UNL A   1      38.791  30.850  35.432  1.00  0.00     0.200 A 
ATOM     91  F   UNL A   1      39.482  32.422  37.046  1.00  0.00    -0.200 F 
ATOM     92  F   UNL A   1      38.337  30.033  36.394  1.00  0.00    -0.200 F 
ENDBRANCH  59  82
ENDBRANCH  33  34
ENDBRANCH  25  28
ENDBRANCH  23  24
ENDBRANCH  22  23
ENDBRANCH  21  22
ENDBRANCH   1  21
TORSDOF 15
ENDMDL
MODEL 3
REMARK VINA RESULT:     -11.4      4.478     10.663
REMARK SMILES O=C(Cc1ccn(-c2ccccc2F)c1)NCCCCCCNC(=O)c1ccc(-c2c3nc(c(-c4c(F)c(F)c(F)c(F)c4F)c4ccc([nH]4)c(-c4c(F)c(F)c(F)c(F)c4F)c4nc(c(-c5c(F)c(F)c(F)c(F)c5F)c5ccc2[nH]5)C=C4)C=C3)cc1
REMARK SMILES IDX 19 1 18 2 17 3 16 4 1 5 2 6 3 8 4 9 5 10 15 11 6 12 7 13
REMARK SMILES IDX 8 14 9 15 13 16 10 17 12 18 14 19 11 20 20 21 21 22 22 23
REMARK SMILES IDX 23 24 24 25 25 27 26 28 27 29 88 30 28 31 87 32 29 33 30 34
REMARK SMILES IDX 31 35 81 36 32 37 86 38 80 39 82 40 33 41 85 42 79 43 78 44
REMARK SMILES IDX 34 46 66 47 46 48 65 49 47 50 50 51 64 52 83 53 48 54 49 55
REMARK SMILES IDX 63 57 84 58 51 59 35 60 36 61 44 62 37 63 38 64 42 65 45 66
REMARK SMILES IDX 39 67 40 68 43 69 41 70 67 71 68 72 76 73 69 74 70 75 74 76
REMARK SMILES IDX 77 77 71 78 72 79 75 80 73 81 52 82 53 83 61 84 54 85 55 86
REMARK SMILES IDX 59 87 62 88 56 89 57 90 60 91 58 92
REMARK H PARENT 16 7 23 26 82 45 50 56
REMARK Flexibility Score: inf
ROOT
ATOM      1  C   UNL A   1      44.133  25.567  30.189  1.00  0.00     0.002 C 
ENDROOT
BRANCH   1   2
ATOM      2  C   UNL A   1      45.625  25.935  30.196  1.00  0.00     0.021 C 
BRANCH   2   3
ATOM      3  C   UNL A   1      46.014  27.069  29.247  1.00  0.00     0.116 C 
BRANCH   3   4
ATOM      4  N   UNL A   1      46.001  26.627  27.870  1.00  0.00    -0.356 N 
ATOM      5  O   UNL A   1      44.017  27.611  27.257  1.00  0.00    -0.275 OA
ATOM      6  C   UNL A   1      45.008  26.946  26.967  1.00  0.00     0.224 C 
ATOM      7  H   UNL A   1      46.746  26.065  27.558  1.00  0.00     0.163 HD
BRANCH   6   8
ATOM      8  C   UNL A   1      45.230  26.355  25.578  1.00  0.00     0.137 C 
BRANCH   8   9
ATOM      9  C   UNL A   1      44.606  25.000  25.439  1.00  0.00    -0.021 A 
ATOM     10  C   UNL A   1      43.301  24.718  24.958  1.00  0.00     0.024 A 
ATOM     11  C   UNL A   1      45.172  23.774  25.751  1.00  0.00     0.095 A 
ATOM     12  C   UNL A   1      43.175  23.350  24.869  1.00  0.00     0.091 A 
ATOM     13  N   UNL A   1      44.343  22.764  25.308  1.00  0.00    -0.321 N 
BRANCH  13  14
ATOM     14  C   UNL A   1      44.675  21.390  25.229  1.00  0.00     0.081 A 
ATOM     15  C   UNL A   1      46.005  21.015  24.991  1.00  0.00     0.030 A 
ATOM     16  C   UNL A   1      43.712  20.404  25.448  1.00  0.00     0.147 A 
ATOM     17  C   UNL A   1      46.360  19.664  25.003  1.00  0.00     0.002 A 
ATOM     18  C   UNL A   1      44.060  19.056  25.421  1.00  0.00     0.041 A 
ATOM     19  F   UNL A   1      42.421  20.716  25.635  1.00  0.00    -0.205 F 
ATOM     20  C   UNL A   1      45.387  18.685  25.211  1.00  0.00     0.003 A 
ENDBRANCH  13  14
ENDBRANCH   8   9
ENDBRANCH   6   8
ENDBRANCH   3   4
ENDBRANCH   2   3
ENDBRANCH   1   2
BRANCH   1  21
ATOM     21  C   UNL A   1      43.775  24.274  29.446  1.00  0.00     0.002 C 
BRANCH  21  22
ATOM     22  C   UNL A   1      42.646  24.401  28.416  1.00  0.00     0.021 C 
BRANCH  22  23
ATOM     23  C   UNL A   1      41.583  23.309  28.518  1.00  0.00     0.116 C 
BRANCH  23  24
ATOM     24  N   UNL A   1      40.656  23.370  27.398  1.00  0.00    -0.352 N 
ATOM     25  C   UNL A   1      39.693  24.304  27.110  1.00  0.00     0.251 C 
ATOM     26  H   UNL A   1      40.732  22.633  26.751  1.00  0.00     0.163 HD
ATOM     27  O   UNL A   1      38.769  24.007  26.364  1.00  0.00    -0.269 OA
BRANCH  25  28
ATOM     28  C   UNL A   1      39.747  25.661  27.689  1.00  0.00     0.039 A 
ATOM     29  C   UNL A   1      39.249  25.846  28.986  1.00  0.00     0.014 A 
ATOM     30  C   UNL A   1      40.183  26.757  26.937  1.00  0.00     0.014 A 
ATOM     31  C   UNL A   1      39.245  27.118  29.551  1.00  0.00     0.010 A 
ATOM     32  C   UNL A   1      40.207  28.024  27.507  1.00  0.00     0.010 A 
ATOM     33  C   UNL A   1      39.750  28.199  28.818  1.00  0.00    -0.014 A 
BRANCH  33  34
ATOM     34  C   UNL A   1      39.943  29.498  29.497  1.00  0.00     0.031 A 
ATOM     35  C   UNL A   1      38.698  30.402  29.362  1.00  0.00     0.074 A 
ATOM     36  C   UNL A   1      41.151  29.688  30.113  1.00  0.00     0.049 A 
ATOM     37  N   UNL A   1      38.586  31.692  29.446  1.00  0.00    -0.248 NA
ATOM     38  C   UNL A   1      37.384  29.780  29.029  1.00  0.00     0.031 C 
ATOM     39  C   UNL A   1      42.229  28.677  30.168  1.00  0.00     0.029 A 
ATOM     40  N   UNL A   1      41.728  30.734  30.806  1.00  0.00    -0.354 N 
ATOM     41  C   UNL A   1      37.213  32.020  29.345  1.00  0.00     0.074 A 
ATOM     42  C   UNL A   1      36.535  30.811  28.995  1.00  0.00     0.031 C 
ATOM     43  C   UNL A   1      43.330  29.174  30.770  1.00  0.00     0.029 A 
ATOM     44  C   UNL A   1      43.088  30.544  31.176  1.00  0.00     0.049 A 
ATOM     45  H   UNL A   1      41.233  31.556  31.029  1.00  0.00     0.167 HD
ATOM     46  C   UNL A   1      36.715  33.252  29.669  1.00  0.00     0.037 A 
ATOM     47  C   UNL A   1      43.971  31.443  31.716  1.00  0.00     0.037 A 
ATOM     48  C   UNL A   1      37.781  34.119  30.031  1.00  0.00     0.049 A 
ATOM     49  C   UNL A   1      43.165  32.638  32.011  1.00  0.00     0.074 A 
ATOM     50  C   UNL A   1      38.755  34.731  29.287  1.00  0.00     0.029 A 
ATOM     51  N   UNL A   1      38.143  34.135  31.353  1.00  0.00    -0.354 N 
ATOM     52  N   UNL A   1      42.298  32.736  32.975  1.00  0.00    -0.248 NA
ATOM     53  C   UNL A   1      43.267  33.783  31.096  1.00  0.00     0.031 C 
ATOM     54  C   UNL A   1      39.890  34.648  30.118  1.00  0.00     0.029 A 
ATOM     55  C   UNL A   1      39.510  34.219  31.394  1.00  0.00     0.049 A 
ATOM     56  H   UNL A   1      37.535  34.093  32.126  1.00  0.00     0.167 HD
ATOM     57  C   UNL A   1      41.539  33.807  32.567  1.00  0.00     0.074 A 
ATOM     58  C   UNL A   1      42.345  34.570  31.641  1.00  0.00     0.031 C 
ATOM     59  C   UNL A   1      40.189  33.698  32.553  1.00  0.00     0.037 A 
BRANCH  46  60
ATOM     60  C   UNL A   1      35.321  33.764  29.917  1.00  0.00     0.064 A 
ATOM     61  C   UNL A   1      34.731  33.808  31.185  1.00  0.00     0.173 A 
ATOM     62  C   UNL A   1      34.713  34.569  28.917  1.00  0.00     0.173 A 
ATOM     63  F   UNL A   1      35.234  33.101  32.205  1.00  0.00    -0.203 F 
ATOM     64  C   UNL A   1      33.664  34.672  31.460  1.00  0.00     0.198 A 
ATOM     65  C   UNL A   1      33.683  35.462  29.208  1.00  0.00     0.198 A 
ATOM     66  F   UNL A   1      35.171  34.563  27.655  1.00  0.00    -0.203 F 
ATOM     67  F   UNL A   1      33.163  34.729  32.702  1.00  0.00    -0.200 F 
ATOM     68  C   UNL A   1      33.171  35.527  30.487  1.00  0.00     0.200 A 
ATOM     69  F   UNL A   1      33.242  36.305  28.263  1.00  0.00    -0.200 F 
ATOM     70  F   UNL A   1      32.231  36.432  30.792  1.00  0.00    -0.200 F 
ENDBRANCH  46  60
BRANCH  47  71
ATOM     71  C   UNL A   1      45.469  31.570  31.938  1.00  0.00     0.064 A 
ATOM     72  C   UNL A   1      46.373  31.126  30.927  1.00  0.00     0.173 A 
ATOM     73  C   UNL A   1      46.102  31.986  33.115  1.00  0.00     0.173 A 
ATOM     74  F   UNL A   1      45.963  30.872  29.677  1.00  0.00    -0.203 F 
ATOM     75  C   UNL A   1      47.733  30.907  31.146  1.00  0.00     0.198 A 
ATOM     76  C   UNL A   1      47.487  31.825  33.316  1.00  0.00     0.198 A 
ATOM     77  F   UNL A   1      45.417  32.575  34.099  1.00  0.00    -0.203 F 
ATOM     78  F   UNL A   1      48.480  30.350  30.181  1.00  0.00    -0.200 F 
ATOM     79  C   UNL A   1      48.290  31.237  32.355  1.00  0.00     0.200 A 
ATOM     80  F   UNL A   1      48.041  32.226  34.469  1.00  0.00    -0.200 F 
ATOM     81  F   UNL A   1      49.590  31.007  32.584  1.00  0.00    -0.200 F 
ENDBRANCH  47  71
BRANCH  59  82
ATOM     82  C   UNL A   1      39.621  32.729  33.563  1.00  0.00     0.064 A 
ATOM     83  C   UNL A   1      39.055  31.484  33.241  1.00  0.00     0.173 A 
ATOM     84  C   UNL A   1      39.720  33.030  34.929  1.00  0.00     0.173 A 
ATOM     85  F   UNL A   1      38.933  31.101  31.971  1.00  0.00    -0.203 F 
ATOM     86  C   UNL A   1      38.596  30.599  34.219  1.00  0.00     0.198 A 
ATOM     87  C   UNL A   1      39.268  32.145  35.910  1.00  0.00     0.198 A 
ATOM     88  F   UNL A   1      40.244  34.202  35.316  1.00  0.00    -0.203 F 
ATOM     89  F   UNL A   1      38.040  29.430  33.861  1.00  0.00    -0.200 F 
ATOM     90  C   UNL A   1      38.704  30.931  35.555  1.00  0.00     0.200 A 
ATOM     91  F   UNL A   1      39.369  32.477  37.204  1.00  0.00    -0.200 F 
ATOM     92  F   UNL A   1      38.249  30.092  36.498  1.00  0.00    -0.200 F 
ENDBRANCH  59  82
ENDBRANCH  33  34
ENDBRANCH  25  28
ENDBRANCH  23  24
ENDBRANCH  22  23
ENDBRANCH  21  22
ENDBRANCH   1  21
TORSDOF 15
ENDMDL
