MODEL 1
REMARK VINA RESULT:     -11.6      0.000      0.000
REMARK SMILES COc1ccc(NC(C)(C)C2=N[C@@H](C(=O)NCCCCCCNC(=O)c3ccc(-c4c5nc(c(-c6c(F)c(F)c(F)c(F)c6F)c6ccc([nH]6)c(-c6c(F)c(F)c(F)c(F)c6F)c6nc(c(-c7c(F)c(F)c(F)c(F)c7F)c7ccc4[nH]7)C=C6)C=C5)cc3)CS2)cc1
REMARK SMILES IDX 18 1 17 2 16 3 14 4 15 5 13 7 11 8 12 9 90 10 89 11 8 12
REMARK SMILES IDX 9 13 10 14 7 15 6 17 3 18 4 19 92 20 5 21 91 22 2 23 1 24
REMARK SMILES IDX 19 25 20 26 21 27 22 28 23 29 24 30 25 32 26 33 27 34 88 35
REMARK SMILES IDX 28 36 87 37 29 38 30 39 31 40 81 41 32 42 86 43 80 44 82 45
REMARK SMILES IDX 33 46 85 47 79 48 78 49 34 51 66 52 46 53 65 54 47 55 50 56
REMARK SMILES IDX 64 57 83 58 48 59 49 60 63 62 84 63 51 64 35 65 36 66 44 67
REMARK SMILES IDX 37 68 38 69 42 70 45 71 39 72 40 73 43 74 41 75 67 76 68 77
REMARK SMILES IDX 76 78 69 79 70 80 74 81 77 82 71 83 72 84 75 85 73 86 52 87
REMARK SMILES IDX 53 88 61 89 54 90 55 91 59 92 62 93 56 94 57 95 60 96 58 97
REMARK H PARENT 16 6 7 16 23 31 82 50 50 61
REMARK Flexibility Score: inf
ROOT
ATOM      1  C   UNL A   1      31.876  29.327  26.578  1.00  0.00     0.021 C 
ENDROOT
BRANCH   1   2
ATOM      2  C   UNL A   1      33.161  28.592  26.224  1.00  0.00     0.116 C 
BRANCH   2   3
ATOM      3  N   UNL A   1      33.596  28.989  24.903  1.00  0.00    -0.354 N 
ATOM      4  C   UNL A   1      33.735  28.226  23.784  1.00  0.00     0.245 C 
ATOM      5  O   UNL A   1      34.312  28.719  22.812  1.00  0.00    -0.273 OA
ATOM      6  H   UNL A   1      33.821  29.942  24.798  1.00  0.00     0.163 HD
BRANCH   4   7
ATOM      7  C   UNL A   1      33.216  26.794  23.753  1.00  0.00     0.205 C 
ATOM      8  C   UNL A   1      34.024  24.675  23.909  1.00  0.00     0.094 C 
ATOM      9  N   UNL A   1      34.255  25.888  24.303  1.00  0.00    -0.266 NA
ATOM     10  S   UNL A   1      32.883  24.513  22.577  1.00  0.00    -0.106 SA
ATOM     11  C   UNL A   1      32.787  26.313  22.384  1.00  0.00     0.113 C 
BRANCH   8  12
ATOM     12  C   UNL A   1      34.772  23.451  24.492  1.00  0.00     0.080 C 
ATOM     13  C   UNL A   1      35.567  23.977  25.705  1.00  0.00     0.042 C 
ATOM     14  C   UNL A   1      35.753  22.789  23.514  1.00  0.00     0.042 C 
BRANCH  12  15
ATOM     15  N   UNL A   1      33.884  22.364  24.996  1.00  0.00    -0.374 N 
ATOM     16  H   UNL A   1      33.338  22.592  25.783  1.00  0.00     0.161 HD
BRANCH  15  17
ATOM     17  C   UNL A   1      33.723  21.080  24.511  1.00  0.00     0.035 A 
ATOM     18  C   UNL A   1      33.281  18.334  23.943  1.00  0.00     0.119 A 
ATOM     19  C   UNL A   1      32.408  19.310  23.472  1.00  0.00     0.048 A 
ATOM     20  C   UNL A   1      34.424  18.734  24.627  1.00  0.00     0.048 A 
ATOM     21  C   UNL A   1      32.649  20.667  23.724  1.00  0.00     0.029 A 
ATOM     22  C   UNL A   1      34.634  20.092  24.910  1.00  0.00     0.029 A 
BRANCH  18  23
ATOM     23  O   UNL A   1      32.908  17.048  23.670  1.00  0.00    -0.497 OA
ATOM     24  C   UNL A   1      33.303  16.055  24.609  1.00  0.00     0.278 C 
ENDBRANCH  18  23
ENDBRANCH  15  17
ENDBRANCH  12  15
ENDBRANCH   8  12
ENDBRANCH   4   7
ENDBRANCH   2   3
ENDBRANCH   1   2
BRANCH   1  25
ATOM     25  C   UNL A   1      31.270  30.087  25.396  1.00  0.00     0.002 C 
BRANCH  25  26
ATOM     26  C   UNL A   1      30.968  31.563  25.679  1.00  0.00     0.002 C 
BRANCH  26  27
ATOM     27  C   UNL A   1      31.412  32.053  27.059  1.00  0.00     0.021 C 
BRANCH  27  28
ATOM     28  C   UNL A   1      32.680  32.897  27.045  1.00  0.00     0.116 C 
BRANCH  28  29
ATOM     29  N   UNL A   1      32.467  34.209  27.625  1.00  0.00    -0.352 N 
ATOM     30  C   UNL A   1      33.060  34.773  28.722  1.00  0.00     0.251 C 
ATOM     31  H   UNL A   1      31.803  34.773  27.166  1.00  0.00     0.163 HD
ATOM     32  O   UNL A   1      32.631  35.822  29.189  1.00  0.00    -0.269 OA
BRANCH  30  33
ATOM     33  C   UNL A   1      34.216  34.102  29.351  1.00  0.00     0.039 A 
ATOM     34  C   UNL A   1      35.501  34.456  28.935  1.00  0.00     0.014 A 
ATOM     35  C   UNL A   1      34.034  33.110  30.319  1.00  0.00     0.014 A 
ATOM     36  C   UNL A   1      36.606  33.825  29.503  1.00  0.00     0.010 A 
ATOM     37  C   UNL A   1      35.139  32.539  30.943  1.00  0.00     0.010 A 
ATOM     38  C   UNL A   1      36.435  32.868  30.518  1.00  0.00    -0.014 A 
BRANCH  38  39
ATOM     39  C   UNL A   1      37.601  32.160  31.095  1.00  0.00     0.031 A 
ATOM     40  C   UNL A   1      38.065  32.493  32.487  1.00  0.00     0.074 A 
ATOM     41  C   UNL A   1      38.252  31.237  30.363  1.00  0.00     0.049 A 
ATOM     42  N   UNL A   1      39.069  31.999  33.167  1.00  0.00    -0.248 NA
ATOM     43  C   UNL A   1      37.321  33.544  33.199  1.00  0.00     0.031 C 
ATOM     44  C   UNL A   1      37.925  30.864  28.986  1.00  0.00     0.029 A 
ATOM     45  N   UNL A   1      39.327  30.444  30.677  1.00  0.00    -0.354 N 
ATOM     46  C   UNL A   1      39.081  32.685  34.375  1.00  0.00     0.074 A 
ATOM     47  C   UNL A   1      38.029  33.676  34.310  1.00  0.00     0.031 C 
ATOM     48  C   UNL A   1      38.760  29.894  28.584  1.00  0.00     0.029 A 
ATOM     49  C   UNL A   1      39.699  29.597  29.663  1.00  0.00     0.049 A 
ATOM     50  H   UNL A   1      39.786  30.479  31.546  1.00  0.00     0.167 HD
ATOM     51  C   UNL A   1      39.876  32.487  35.452  1.00  0.00     0.037 A 
ATOM     52  C   UNL A   1      40.686  28.683  29.614  1.00  0.00     0.037 A 
ATOM     53  C   UNL A   1      40.902  31.481  35.522  1.00  0.00     0.049 A 
ATOM     54  C   UNL A   1      41.549  28.474  30.830  1.00  0.00     0.074 A 
ATOM     55  C   UNL A   1      41.729  31.161  36.583  1.00  0.00     0.029 A 
ATOM     56  N   UNL A   1      41.238  30.626  34.481  1.00  0.00    -0.354 N 
ATOM     57  N   UNL A   1      41.507  29.083  31.992  1.00  0.00    -0.248 NA
ATOM     58  C   UNL A   1      42.586  27.440  30.731  1.00  0.00     0.031 C 
ATOM     59  C   UNL A   1      42.597  30.144  36.170  1.00  0.00     0.029 A 
ATOM     60  C   UNL A   1      42.273  29.791  34.870  1.00  0.00     0.049 A 
ATOM     61  H   UNL A   1      40.805  30.615  33.597  1.00  0.00     0.167 HD
ATOM     62  C   UNL A   1      42.488  28.485  32.771  1.00  0.00     0.074 A 
ATOM     63  C   UNL A   1      43.094  27.453  31.955  1.00  0.00     0.031 C 
ATOM     64  C   UNL A   1      42.859  28.766  34.044  1.00  0.00     0.037 A 
BRANCH  51  65
ATOM     65  C   UNL A   1      39.661  33.376  36.645  1.00  0.00     0.064 A 
ATOM     66  C   UNL A   1      38.785  33.019  37.683  1.00  0.00     0.173 A 
ATOM     67  C   UNL A   1      40.353  34.591  36.763  1.00  0.00     0.173 A 
ATOM     68  F   UNL A   1      38.086  31.876  37.613  1.00  0.00    -0.203 F 
ATOM     69  C   UNL A   1      38.585  33.860  38.774  1.00  0.00     0.198 A 
ATOM     70  C   UNL A   1      40.177  35.413  37.872  1.00  0.00     0.198 A 
ATOM     71  F   UNL A   1      41.205  34.980  35.802  1.00  0.00    -0.203 F 
ATOM     72  F   UNL A   1      37.699  33.524  39.723  1.00  0.00    -0.200 F 
ATOM     73  C   UNL A   1      39.285  35.052  38.872  1.00  0.00     0.200 A 
ATOM     74  F   UNL A   1      40.863  36.559  37.972  1.00  0.00    -0.200 F 
ATOM     75  F   UNL A   1      39.096  35.858  39.926  1.00  0.00    -0.200 F 
ENDBRANCH  51  65
BRANCH  52  76
ATOM     76  C   UNL A   1      40.887  27.869  28.388  1.00  0.00     0.064 A 
ATOM     77  C   UNL A   1      40.257  26.626  28.237  1.00  0.00     0.173 A 
ATOM     78  C   UNL A   1      41.720  28.307  27.349  1.00  0.00     0.173 A 
ATOM     79  F   UNL A   1      39.464  26.154  29.210  1.00  0.00    -0.203 F 
ATOM     80  C   UNL A   1      40.475  25.839  27.107  1.00  0.00     0.198 A 
ATOM     81  C   UNL A   1      41.914  27.534  26.206  1.00  0.00     0.198 A 
ATOM     82  F   UNL A   1      42.340  29.493  27.439  1.00  0.00    -0.203 F 
ATOM     83  F   UNL A   1      39.902  24.632  27.013  1.00  0.00    -0.200 F 
ATOM     84  C   UNL A   1      41.299  26.296  26.091  1.00  0.00     0.200 A 
ATOM     85  F   UNL A   1      42.698  27.986  25.219  1.00  0.00    -0.200 F 
ATOM     86  F   UNL A   1      41.508  25.541  25.004  1.00  0.00    -0.200 F 
ENDBRANCH  52  76
BRANCH  64  87
ATOM     87  C   UNL A   1      43.943  27.916  34.643  1.00  0.00     0.064 A 
ATOM     88  C   UNL A   1      43.658  26.708  35.297  1.00  0.00     0.173 A 
ATOM     89  C   UNL A   1      45.287  28.310  34.549  1.00  0.00     0.173 A 
ATOM     90  F   UNL A   1      42.388  26.293  35.426  1.00  0.00    -0.203 F 
ATOM     91  C   UNL A   1      44.674  25.948  35.870  1.00  0.00     0.198 A 
ATOM     92  C   UNL A   1      46.303  27.529  35.093  1.00  0.00     0.198 A 
ATOM     93  F   UNL A   1      45.616  29.451  33.926  1.00  0.00    -0.203 F 
ATOM     94  F   UNL A   1      44.371  24.831  36.548  1.00  0.00    -0.200 F 
ATOM     95  C   UNL A   1      45.995  26.356  35.764  1.00  0.00     0.200 A 
ATOM     96  F   UNL A   1      47.580  27.917  34.975  1.00  0.00    -0.200 F 
ATOM     97  F   UNL A   1      46.970  25.623  36.317  1.00  0.00    -0.200 F 
ENDBRANCH  64  87
ENDBRANCH  38  39
ENDBRANCH  30  33
ENDBRANCH  28  29
ENDBRANCH  27  28
ENDBRANCH  26  27
ENDBRANCH  25  26
ENDBRANCH   1  25
TORSDOF 17
ENDMDL
MODEL 2
REMARK VINA RESULT:     -11.5      1.067      7.277
REMARK SMILES COc1ccc(NC(C)(C)C2=N[C@@H](C(=O)NCCCCCCNC(=O)c3ccc(-c4c5nc(c(-c6c(F)c(F)c(F)c(F)c6F)c6ccc([nH]6)c(-c6c(F)c(F)c(F)c(F)c6F)c6nc(c(-c7c(F)c(F)c(F)c(F)c7F)c7ccc4[nH]7)C=C6)C=C5)cc3)CS2)cc1
REMARK SMILES IDX 18 1 17 2 16 3 14 4 15 5 13 7 11 8 12 9 90 10 89 11 8 12
REMARK SMILES IDX 9 13 10 14 7 15 6 17 3 18 4 19 92 20 5 21 91 22 2 23 1 24
REMARK SMILES IDX 19 25 20 26 21 27 22 28 23 29 24 30 25 32 26 33 27 34 88 35
REMARK SMILES IDX 28 36 87 37 29 38 30 39 31 40 81 41 32 42 86 43 80 44 82 45
REMARK SMILES IDX 33 46 85 47 79 48 78 49 34 51 66 52 46 53 65 54 47 55 50 56
REMARK SMILES IDX 64 57 83 58 48 59 49 60 63 62 84 63 51 64 35 65 36 66 44 67
REMARK SMILES IDX 37 68 38 69 42 70 45 71 39 72 40 73 43 74 41 75 67 76 68 77
REMARK SMILES IDX 76 78 69 79 70 80 74 81 77 82 71 83 72 84 75 85 73 86 52 87
REMARK SMILES IDX 53 88 61 89 54 90 55 91 59 92 62 93 56 94 57 95 60 96 58 97
REMARK H PARENT 16 6 7 16 23 31 82 50 50 61
REMARK Flexibility Score: inf
ROOT
ATOM      1  C   UNL A   1      32.585  28.692  26.923  1.00  0.00     0.021 C 
ENDROOT
BRANCH   1   2
ATOM      2  C   UNL A   1      33.673  27.992  26.120  1.00  0.00     0.116 C 
BRANCH   2   3
ATOM      3  N   UNL A   1      33.490  28.270  24.713  1.00  0.00    -0.354 N 
ATOM      4  C   UNL A   1      32.892  27.503  23.761  1.00  0.00     0.245 C 
ATOM      5  O   UNL A   1      33.019  27.836  22.580  1.00  0.00    -0.273 OA
ATOM      6  H   UNL A   1      33.845  29.134  24.400  1.00  0.00     0.163 HD
BRANCH   4   7
ATOM      7  C   UNL A   1      32.114  26.253  24.149  1.00  0.00     0.205 C 
ATOM      8  C   UNL A   1      32.443  24.008  24.302  1.00  0.00     0.094 C 
ATOM      9  N   UNL A   1      33.068  25.140  24.388  1.00  0.00    -0.266 NA
ATOM     10  S   UNL A   1      30.850  24.074  23.553  1.00  0.00    -0.106 SA
ATOM     11  C   UNL A   1      31.069  25.825  23.140  1.00  0.00     0.113 C 
BRANCH   8  12
ATOM     12  C   UNL A   1      33.084  22.666  24.731  1.00  0.00     0.080 C 
ATOM     13  C   UNL A   1      33.384  22.801  26.239  1.00  0.00     0.042 C 
ATOM     14  C   UNL A   1      34.393  22.332  24.001  1.00  0.00     0.042 C 
BRANCH  12  15
ATOM     15  N   UNL A   1      32.199  21.477  24.572  1.00  0.00    -0.374 N 
ATOM     16  H   UNL A   1      31.234  21.667  24.532  1.00  0.00     0.161 HD
BRANCH  15  17
ATOM     17  C   UNL A   1      32.547  20.143  24.474  1.00  0.00     0.035 A 
ATOM     18  C   UNL A   1      32.865  17.322  24.480  1.00  0.00     0.119 A 
ATOM     19  C   UNL A   1      32.630  18.011  23.294  1.00  0.00     0.048 A 
ATOM     20  C   UNL A   1      33.029  18.049  25.655  1.00  0.00     0.048 A 
ATOM     21  C   UNL A   1      32.508  19.407  23.290  1.00  0.00     0.029 A 
ATOM     22  C   UNL A   1      32.863  19.442  25.646  1.00  0.00     0.029 A 
BRANCH  18  23
ATOM     23  O   UNL A   1      32.916  15.962  24.356  1.00  0.00    -0.497 OA
ATOM     24  C   UNL A   1      32.510  15.201  25.487  1.00  0.00     0.278 C 
ENDBRANCH  18  23
ENDBRANCH  15  17
ENDBRANCH  12  15
ENDBRANCH   8  12
ENDBRANCH   4   7
ENDBRANCH   2   3
ENDBRANCH   1   2
BRANCH   1  25
ATOM     25  C   UNL A   1      32.681  30.218  26.864  1.00  0.00     0.002 C 
BRANCH  25  26
ATOM     26  C   UNL A   1      31.408  30.914  26.366  1.00  0.00     0.002 C 
BRANCH  26  27
ATOM     27  C   UNL A   1      31.404  32.435  26.535  1.00  0.00     0.021 C 
BRANCH  27  28
ATOM     28  C   UNL A   1      32.634  32.990  27.241  1.00  0.00     0.116 C 
BRANCH  28  29
ATOM     29  N   UNL A   1      32.446  34.367  27.659  1.00  0.00    -0.352 N 
ATOM     30  C   UNL A   1      33.027  35.037  28.702  1.00  0.00     0.251 C 
ATOM     31  H   UNL A   1      31.813  34.892  27.117  1.00  0.00     0.163 HD
ATOM     32  O   UNL A   1      32.618  36.145  29.031  1.00  0.00    -0.269 OA
BRANCH  30  33
ATOM     33  C   UNL A   1      34.143  34.411  29.439  1.00  0.00     0.039 A 
ATOM     34  C   UNL A   1      35.438  34.552  28.937  1.00  0.00     0.014 A 
ATOM     35  C   UNL A   1      33.912  33.665  30.599  1.00  0.00     0.014 A 
ATOM     36  C   UNL A   1      36.505  33.958  29.607  1.00  0.00     0.010 A 
ATOM     37  C   UNL A   1      34.985  33.140  31.310  1.00  0.00     0.010 A 
ATOM     38  C   UNL A   1      36.289  33.255  30.804  1.00  0.00    -0.014 A 
BRANCH  38  39
ATOM     39  C   UNL A   1      37.410  32.580  31.500  1.00  0.00     0.031 A 
ATOM     40  C   UNL A   1      38.136  31.448  30.825  1.00  0.00     0.074 A 
ATOM     41  C   UNL A   1      37.758  32.969  32.740  1.00  0.00     0.049 A 
ATOM     42  N   UNL A   1      39.131  30.721  31.267  1.00  0.00    -0.248 NA
ATOM     43  C   UNL A   1      37.661  31.061  29.488  1.00  0.00     0.031 C 
ATOM     44  C   UNL A   1      37.097  34.021  33.513  1.00  0.00     0.029 A 
ATOM     45  N   UNL A   1      38.756  32.523  33.569  1.00  0.00    -0.354 N 
ATOM     46  C   UNL A   1      39.389  29.788  30.270  1.00  0.00     0.074 A 
ATOM     47  C   UNL A   1      38.406  29.996  29.231  1.00  0.00     0.031 C 
ATOM     48  C   UNL A   1      37.727  34.162  34.690  1.00  0.00     0.029 A 
ATOM     49  C   UNL A   1      38.815  33.191  34.767  1.00  0.00     0.049 A 
ATOM     50  H   UNL A   1      39.372  31.795  33.326  1.00  0.00     0.167 HD
ATOM     51  C   UNL A   1      40.376  28.864  30.212  1.00  0.00     0.037 A 
ATOM     52  C   UNL A   1      39.657  33.036  35.806  1.00  0.00     0.037 A 
ATOM     53  C   UNL A   1      41.369  28.680  31.237  1.00  0.00     0.049 A 
ATOM     54  C   UNL A   1      40.753  32.008  35.711  1.00  0.00     0.074 A 
ATOM     55  C   UNL A   1      42.442  27.808  31.256  1.00  0.00     0.029 A 
ATOM     56  N   UNL A   1      41.409  29.389  32.430  1.00  0.00    -0.354 N 
ATOM     57  N   UNL A   1      41.029  31.177  34.734  1.00  0.00    -0.248 NA
ATOM     58  C   UNL A   1      41.662  31.908  36.859  1.00  0.00     0.031 C 
ATOM     59  C   UNL A   1      43.106  27.956  32.478  1.00  0.00     0.029 A 
ATOM     60  C   UNL A   1      42.480  28.961  33.199  1.00  0.00     0.049 A 
ATOM     61  H   UNL A   1      40.771  30.092  32.691  1.00  0.00     0.167 HD
ATOM     62  C   UNL A   1      42.160  30.480  35.135  1.00  0.00     0.074 A 
ATOM     63  C   UNL A   1      42.529  31.000  36.436  1.00  0.00     0.031 C 
ATOM     64  C   UNL A   1      42.832  29.495  34.489  1.00  0.00     0.037 A 
BRANCH  51  65
ATOM     65  C   UNL A   1      40.429  27.983  28.996  1.00  0.00     0.064 A 
ATOM     66  C   UNL A   1      39.719  26.773  28.930  1.00  0.00     0.173 A 
ATOM     67  C   UNL A   1      41.182  28.359  27.874  1.00  0.00     0.173 A 
ATOM     68  F   UNL A   1      38.994  26.357  29.981  1.00  0.00    -0.203 F 
ATOM     69  C   UNL A   1      39.789  25.960  27.802  1.00  0.00     0.198 A 
ATOM     70  C   UNL A   1      41.223  27.561  26.735  1.00  0.00     0.198 A 
ATOM     71  F   UNL A   1      41.878  29.507  27.881  1.00  0.00    -0.203 F 
ATOM     72  F   UNL A   1      39.149  24.782  27.787  1.00  0.00    -0.200 F 
ATOM     73  C   UNL A   1      40.535  26.357  26.703  1.00  0.00     0.200 A 
ATOM     74  F   UNL A   1      41.935  27.951  25.669  1.00  0.00    -0.200 F 
ATOM     75  F   UNL A   1      40.598  25.576  25.616  1.00  0.00    -0.200 F 
ENDBRANCH  51  65
BRANCH  52  76
ATOM     76  C   UNL A   1      39.523  33.900  37.007  1.00  0.00     0.064 A 
ATOM     77  C   UNL A   1      38.813  33.462  38.133  1.00  0.00     0.173 A 
ATOM     78  C   UNL A   1      40.089  35.182  37.051  1.00  0.00     0.173 A 
ATOM     79  F   UNL A   1      38.238  32.250  38.134  1.00  0.00    -0.203 F 
ATOM     80  C   UNL A   1      38.649  34.284  39.247  1.00  0.00     0.198 A 
ATOM     81  C   UNL A   1      39.950  35.991  38.177  1.00  0.00     0.198 A 
ATOM     82  F   UNL A   1      40.785  35.646  36.003  1.00  0.00    -0.203 F 
ATOM     83  F   UNL A   1      37.921  33.860  40.289  1.00  0.00    -0.200 F 
ATOM     84  C   UNL A   1      39.222  35.546  39.270  1.00  0.00     0.200 A 
ATOM     85  F   UNL A   1      40.519  37.204  38.201  1.00  0.00    -0.200 F 
ATOM     86  F   UNL A   1      39.066  36.336  40.340  1.00  0.00    -0.200 F 
ENDBRANCH  52  76
BRANCH  64  87
ATOM     87  C   UNL A   1      44.057  28.947  35.166  1.00  0.00     0.064 A 
ATOM     88  C   UNL A   1      45.333  29.478  34.926  1.00  0.00     0.173 A 
ATOM     89  C   UNL A   1      43.949  27.885  36.076  1.00  0.00     0.173 A 
ATOM     90  F   UNL A   1      45.492  30.486  34.055  1.00  0.00    -0.203 F 
ATOM     91  C   UNL A   1      46.460  28.939  35.541  1.00  0.00     0.198 A 
ATOM     92  C   UNL A   1      45.074  27.371  36.715  1.00  0.00     0.198 A 
ATOM     93  F   UNL A   1      42.751  27.345  36.349  1.00  0.00    -0.203 F 
ATOM     94  F   UNL A   1      47.676  29.420  35.246  1.00  0.00    -0.200 F 
ATOM     95  C   UNL A   1      46.328  27.889  36.438  1.00  0.00     0.200 A 
ATOM     96  F   UNL A   1      44.943  26.368  37.594  1.00  0.00    -0.200 F 
ATOM     97  F   UNL A   1      47.415  27.372  37.027  1.00  0.00    -0.200 F 
ENDBRANCH  64  87
ENDBRANCH  38  39
ENDBRANCH  30  33
ENDBRANCH  28  29
ENDBRANCH  27  28
ENDBRANCH  26  27
ENDBRANCH  25  26
ENDBRANCH   1  25
TORSDOF 17
ENDMDL
MODEL 3
REMARK VINA RESULT:     -11.4      0.849      7.322
REMARK SMILES COc1ccc(NC(C)(C)C2=N[C@@H](C(=O)NCCCCCCNC(=O)c3ccc(-c4c5nc(c(-c6c(F)c(F)c(F)c(F)c6F)c6ccc([nH]6)c(-c6c(F)c(F)c(F)c(F)c6F)c6nc(c(-c7c(F)c(F)c(F)c(F)c7F)c7ccc4[nH]7)C=C6)C=C5)cc3)CS2)cc1
REMARK SMILES IDX 18 1 17 2 16 3 14 4 15 5 13 7 11 8 12 9 90 10 89 11 8 12
REMARK SMILES IDX 9 13 10 14 7 15 6 17 3 18 4 19 92 20 5 21 91 22 2 23 1 24
REMARK SMILES IDX 19 25 20 26 21 27 22 28 23 29 24 30 25 32 26 33 27 34 88 35
REMARK SMILES IDX 28 36 87 37 29 38 30 39 31 40 81 41 32 42 86 43 80 44 82 45
REMARK SMILES IDX 33 46 85 47 79 48 78 49 34 51 66 52 46 53 65 54 47 55 50 56
REMARK SMILES IDX 64 57 83 58 48 59 49 60 63 62 84 63 51 64 35 65 36 66 44 67
REMARK SMILES IDX 37 68 38 69 42 70 45 71 39 72 40 73 43 74 41 75 67 76 68 77
REMARK SMILES IDX 76 78 69 79 70 80 74 81 77 82 71 83 72 84 75 85 73 86 52 87
REMARK SMILES IDX 53 88 61 89 54 90 55 91 59 92 62 93 56 94 57 95 60 96 58 97
REMARK H PARENT 16 6 7 16 23 31 82 50 50 61
REMARK Flexibility Score: inf
ROOT
ATOM      1  C   UNL A   1      32.149  29.558  27.087  1.00  0.00     0.021 C 
ENDROOT
BRANCH   1   2
ATOM      2  C   UNL A   1      33.499  28.916  26.798  1.00  0.00     0.116 C 
BRANCH   2   3
ATOM      3  N   UNL A   1      33.815  29.068  25.395  1.00  0.00    -0.354 N 
ATOM      4  C   UNL A   1      33.835  28.122  24.416  1.00  0.00     0.245 C 
ATOM      5  O   UNL A   1      34.327  28.424  23.326  1.00  0.00    -0.273 OA
ATOM      6  H   UNL A   1      34.046  29.981  25.108  1.00  0.00     0.163 HD
BRANCH   4   7
ATOM      7  C   UNL A   1      33.290  26.724  24.677  1.00  0.00     0.205 C 
ATOM      8  C   UNL A   1      33.961  24.561  24.488  1.00  0.00     0.094 C 
ATOM      9  N   UNL A   1      34.416  25.757  24.689  1.00  0.00    -0.266 NA
ATOM     10  S   UNL A   1      32.315  24.467  23.869  1.00  0.00    -0.106 SA
ATOM     11  C   UNL A   1      32.233  26.269  23.694  1.00  0.00     0.113 C 
BRANCH   8  12
ATOM     12  C   UNL A   1      34.831  23.293  24.678  1.00  0.00     0.080 C 
ATOM     13  C   UNL A   1      35.929  23.680  25.691  1.00  0.00     0.042 C 
ATOM     14  C   UNL A   1      35.507  22.796  23.391  1.00  0.00     0.042 C 
BRANCH  12  15
ATOM     15  N   UNL A   1      34.107  22.124  25.251  1.00  0.00    -0.374 N 
ATOM     16  H   UNL A   1      33.682  22.274  26.126  1.00  0.00     0.161 HD
BRANCH  15  17
ATOM     17  C   UNL A   1      33.950  20.856  24.724  1.00  0.00     0.035 A 
ATOM     18  C   UNL A   1      33.595  18.116  24.072  1.00  0.00     0.119 A 
ATOM     19  C   UNL A   1      32.598  19.048  23.804  1.00  0.00     0.048 A 
ATOM     20  C   UNL A   1      34.807  18.563  24.588  1.00  0.00     0.048 A 
ATOM     21  C   UNL A   1      32.790  20.405  24.094  1.00  0.00     0.029 A 
ATOM     22  C   UNL A   1      34.974  19.917  24.914  1.00  0.00     0.029 A 
BRANCH  18  23
ATOM     23  O   UNL A   1      33.265  16.821  23.787  1.00  0.00    -0.497 OA
ATOM     24  C   UNL A   1      32.905  15.995  24.888  1.00  0.00     0.278 C 
ENDBRANCH  18  23
ENDBRANCH  15  17
ENDBRANCH  12  15
ENDBRANCH   8  12
ENDBRANCH   4   7
ENDBRANCH   2   3
ENDBRANCH   1   2
BRANCH   1  25
ATOM     25  C   UNL A   1      31.459  30.102  25.834  1.00  0.00     0.002 C 
BRANCH  25  26
ATOM     26  C   UNL A   1      31.132  31.599  25.891  1.00  0.00     0.002 C 
BRANCH  26  27
ATOM     27  C   UNL A   1      31.441  32.270  27.232  1.00  0.00     0.021 C 
BRANCH  27  28
ATOM     28  C   UNL A   1      32.713  33.108  27.233  1.00  0.00     0.116 C 
BRANCH  28  29
ATOM     29  N   UNL A   1      32.477  34.455  27.718  1.00  0.00    -0.352 N 
ATOM     30  C   UNL A   1      33.018  35.085  28.806  1.00  0.00     0.251 C 
ATOM     31  H   UNL A   1      31.839  34.990  27.191  1.00  0.00     0.163 HD
ATOM     32  O   UNL A   1      32.571  36.162  29.184  1.00  0.00    -0.269 OA
BRANCH  30  33
ATOM     33  C   UNL A   1      34.138  34.454  29.532  1.00  0.00     0.039 A 
ATOM     34  C   UNL A   1      35.416  34.516  28.973  1.00  0.00     0.014 A 
ATOM     35  C   UNL A   1      33.925  33.778  30.738  1.00  0.00     0.014 A 
ATOM     36  C   UNL A   1      36.485  33.914  29.633  1.00  0.00     0.010 A 
ATOM     37  C   UNL A   1      35.006  33.248  31.435  1.00  0.00     0.010 A 
ATOM     38  C   UNL A   1      36.291  33.283  30.874  1.00  0.00    -0.014 A 
BRANCH  38  39
ATOM     39  C   UNL A   1      37.412  32.600  31.560  1.00  0.00     0.031 A 
ATOM     40  C   UNL A   1      38.119  31.457  30.885  1.00  0.00     0.074 A 
ATOM     41  C   UNL A   1      37.779  32.993  32.794  1.00  0.00     0.049 A 
ATOM     42  N   UNL A   1      39.110  30.721  31.320  1.00  0.00    -0.248 NA
ATOM     43  C   UNL A   1      37.624  31.066  29.555  1.00  0.00     0.031 C 
ATOM     44  C   UNL A   1      37.138  34.057  33.569  1.00  0.00     0.029 A 
ATOM     45  N   UNL A   1      38.782  32.541  33.614  1.00  0.00    -0.354 N 
ATOM     46  C   UNL A   1      39.347  29.780  30.326  1.00  0.00     0.074 A 
ATOM     47  C   UNL A   1      38.354  29.992  29.296  1.00  0.00     0.031 C 
ATOM     48  C   UNL A   1      37.782  34.197  34.738  1.00  0.00     0.029 A 
ATOM     49  C   UNL A   1      38.861  33.214  34.808  1.00  0.00     0.049 A 
ATOM     50  H   UNL A   1      39.386  31.804  33.369  1.00  0.00     0.167 HD
ATOM     51  C   UNL A   1      40.323  28.844  30.262  1.00  0.00     0.037 A 
ATOM     52  C   UNL A   1      39.712  33.057  35.838  1.00  0.00     0.037 A 
ATOM     53  C   UNL A   1      41.326  28.655  31.277  1.00  0.00     0.049 A 
ATOM     54  C   UNL A   1      40.796  32.016  35.737  1.00  0.00     0.074 A 
ATOM     55  C   UNL A   1      42.389  27.772  31.288  1.00  0.00     0.029 A 
ATOM     56  N   UNL A   1      41.387  29.371  32.465  1.00  0.00    -0.354 N 
ATOM     57  N   UNL A   1      41.052  31.177  34.762  1.00  0.00    -0.248 NA
ATOM     58  C   UNL A   1      41.717  31.913  36.876  1.00  0.00     0.031 C 
ATOM     59  C   UNL A   1      43.068  27.920  32.503  1.00  0.00     0.029 A 
ATOM     60  C   UNL A   1      42.461  28.936  33.225  1.00  0.00     0.049 A 
ATOM     61  H   UNL A   1      40.760  30.083  32.729  1.00  0.00     0.167 HD
ATOM     62  C   UNL A   1      42.180  30.469  35.155  1.00  0.00     0.074 A 
ATOM     63  C   UNL A   1      42.569  30.993  36.448  1.00  0.00     0.031 C 
ATOM     64  C   UNL A   1      42.834  29.473  34.508  1.00  0.00     0.037 A 
BRANCH  51  65
ATOM     65  C   UNL A   1      40.353  27.956  29.051  1.00  0.00     0.064 A 
ATOM     66  C   UNL A   1      41.089  28.296  27.904  1.00  0.00     0.173 A 
ATOM     67  C   UNL A   1      39.655  26.739  29.040  1.00  0.00     0.173 A 
ATOM     68  F   UNL A   1      41.763  29.456  27.855  1.00  0.00    -0.203 F 
ATOM     69  C   UNL A   1      41.096  27.471  26.783  1.00  0.00     0.198 A 
ATOM     70  C   UNL A   1      39.692  25.899  27.931  1.00  0.00     0.198 A 
ATOM     71  F   UNL A   1      38.938  26.361  30.109  1.00  0.00    -0.203 F 
ATOM     72  F   UNL A   1      41.758  27.847  25.680  1.00  0.00    -0.200 F 
ATOM     73  C   UNL A   1      40.403  26.270  26.799  1.00  0.00     0.200 A 
ATOM     74  F   UNL A   1      39.032  24.733  27.952  1.00  0.00    -0.200 F 
ATOM     75  F   UNL A   1      40.415  25.473  25.722  1.00  0.00    -0.200 F 
ENDBRANCH  51  65
BRANCH  52  76
ATOM     76  C   UNL A   1      39.602  33.929  37.036  1.00  0.00     0.064 A 
ATOM     77  C   UNL A   1      40.222  35.185  37.073  1.00  0.00     0.173 A 
ATOM     78  C   UNL A   1      38.887  33.521  38.172  1.00  0.00     0.173 A 
ATOM     79  F   UNL A   1      40.932  35.613  36.018  1.00  0.00    -0.203 F 
ATOM     80  C   UNL A   1      40.156  35.990  38.209  1.00  0.00     0.198 A 
ATOM     81  C   UNL A   1      38.797  34.339  39.296  1.00  0.00     0.198 A 
ATOM     82  F   UNL A   1      38.268  32.332  38.186  1.00  0.00    -0.203 F 
ATOM     83  F   UNL A   1      40.803  37.163  38.235  1.00  0.00    -0.200 F 
ATOM     84  C   UNL A   1      39.439  35.568  39.318  1.00  0.00     0.200 A 
ATOM     85  F   UNL A   1      38.089  33.935  40.360  1.00  0.00    -0.200 F 
ATOM     86  F   UNL A   1      39.375  36.340  40.410  1.00  0.00    -0.200 F 
ENDBRANCH  52  76
BRANCH  64  87
ATOM     87  C   UNL A   1      44.060  28.916  35.173  1.00  0.00     0.064 A 
ATOM     88  C   UNL A   1      43.991  27.827  36.056  1.00  0.00     0.173 A 
ATOM     89  C   UNL A   1      45.322  29.471  34.914  1.00  0.00     0.173 A 
ATOM     90  F   UNL A   1      42.806  27.268  36.347  1.00  0.00    -0.203 F 
ATOM     91  C   UNL A   1      45.135  27.342  36.685  1.00  0.00     0.198 A 
ATOM     92  C   UNL A   1      46.468  28.961  35.518  1.00  0.00     0.198 A 
ATOM     93  F   UNL A   1      45.447  30.507  34.072  1.00  0.00    -0.203 F 
ATOM     94  F   UNL A   1      45.035  26.343  37.574  1.00  0.00    -0.200 F 
ATOM     95  C   UNL A   1      46.372  27.906  36.412  1.00  0.00     0.200 A 
ATOM     96  F   UNL A   1      47.664  29.497  35.242  1.00  0.00    -0.200 F 
ATOM     97  F   UNL A   1      47.470  27.438  37.020  1.00  0.00    -0.200 F 
ENDBRANCH  64  87
ENDBRANCH  38  39
ENDBRANCH  30  33
ENDBRANCH  28  29
ENDBRANCH  27  28
ENDBRANCH  26  27
ENDBRANCH  25  26
ENDBRANCH   1  25
TORSDOF 17
ENDMDL
