MODEL 1
REMARK VINA RESULT:     -10.0      0.000      0.000
REMARK SMILES CC[NH+](CC)C[C@H](F)C(=O)NCCCCCCNC(=O)c1ccc(-c2c3nc(c(-c4c(F)c(F)c(F)c(F)c4F)c4ccc([nH]4)c(-c4c(F)c(F)c(F)c(F)c4F)c4nc(c(-c5c(F)c(F)c(F)c(F)c5F)c5ccc2[nH]5)C=C4)C=C3)cc1
REMARK SMILES IDX 14 1 13 2 12 3 11 4 9 5 10 6 7 8 8 9 6 10 3 11 2 13 1 14
REMARK SMILES IDX 4 15 5 16 15 17 16 18 17 19 18 20 19 21 20 23 21 24 22 25
REMARK SMILES IDX 83 26 23 27 82 28 24 29 25 30 26 31 76 32 27 33 81 34 75 35
REMARK SMILES IDX 77 36 28 37 80 38 74 39 73 40 29 42 61 43 41 44 60 45 42 46
REMARK SMILES IDX 45 47 59 48 78 49 43 50 44 51 58 53 79 54 46 55 30 56 31 57
REMARK SMILES IDX 39 58 32 59 33 60 37 61 40 62 34 63 35 64 38 65 36 66 62 67
REMARK SMILES IDX 63 68 71 69 64 70 65 71 69 72 72 73 66 74 67 75 70 76 68 77
REMARK SMILES IDX 47 78 48 79 56 80 49 81 50 82 54 83 57 84 51 85 52 86 55 87
REMARK SMILES IDX 53 88
REMARK H PARENT 11 7 3 12 18 22 77 41 45 52
REMARK Flexibility Score: inf
ROOT
ATOM      1  C   UNL A   1      31.697  29.891  25.355  1.00  0.00     0.002 C 
ENDROOT
BRANCH   1   2
ATOM      2  C   UNL A   1      31.507  28.371  25.348  1.00  0.00     0.021 C 
BRANCH   2   3
ATOM      3  C   UNL A   1      31.875  27.676  26.648  1.00  0.00     0.116 C 
BRANCH   3   4
ATOM      4  N   UNL A   1      31.254  26.392  26.874  1.00  0.00    -0.353 N 
ATOM      5  C   UNL A   1      31.844  25.168  26.664  1.00  0.00     0.260 C 
ATOM      6  O   UNL A   1      31.297  24.171  27.148  1.00  0.00    -0.271 OA
ATOM      7  H   UNL A   1      30.327  26.392  27.205  1.00  0.00     0.163 HD
BRANCH   5   8
ATOM      8  C   UNL A   1      33.151  25.041  25.869  1.00  0.00     0.309 C 
ATOM      9  F   UNL A   1      34.132  24.383  26.557  1.00  0.00    -0.230 F 
BRANCH   8  10
ATOM     10  C   UNL A   1      32.998  24.441  24.453  1.00  0.00     0.310 C 
BRANCH  10  11
ATOM     11  N   UNL A   1      31.715  23.809  24.152  1.00  0.00    -0.333 N 
ATOM     12  H   UNL A   1      31.359  23.975  25.093  1.00  0.00     0.348 HD
BRANCH  11  13
ATOM     13  C   UNL A   1      31.556  22.355  24.173  1.00  0.00     0.258 C 
ATOM     14  C   UNL A   1      32.498  21.474  23.363  1.00  0.00     0.071 C 
ENDBRANCH  11  13
BRANCH  11  15
ATOM     15  C   UNL A   1      30.805  24.528  23.265  1.00  0.00     0.258 C 
ATOM     16  C   UNL A   1      31.411  25.800  22.669  1.00  0.00     0.071 C 
ENDBRANCH  11  15
ENDBRANCH  10  11
ENDBRANCH   8  10
ENDBRANCH   5   8
ENDBRANCH   3   4
ENDBRANCH   2   3
ENDBRANCH   1   2
BRANCH   1  17
ATOM     17  C   UNL A   1      31.485  30.615  26.692  1.00  0.00     0.002 C 
BRANCH  17  18
ATOM     18  C   UNL A   1      31.428  32.144  26.657  1.00  0.00     0.021 C 
BRANCH  18  19
ATOM     19  C   UNL A   1      32.663  32.873  27.175  1.00  0.00     0.116 C 
BRANCH  19  20
ATOM     20  N   UNL A   1      32.383  34.223  27.632  1.00  0.00    -0.352 N 
ATOM     21  C   UNL A   1      32.980  34.971  28.618  1.00  0.00     0.251 C 
ATOM     22  H   UNL A   1      31.646  34.675  27.161  1.00  0.00     0.163 HD
ATOM     23  O   UNL A   1      32.519  36.066  28.912  1.00  0.00    -0.269 OA
BRANCH  21  24
ATOM     24  C   UNL A   1      34.154  34.449  29.356  1.00  0.00     0.039 A 
ATOM     25  C   UNL A   1      33.934  33.806  30.578  1.00  0.00     0.014 A 
ATOM     26  C   UNL A   1      35.457  34.596  28.874  1.00  0.00     0.014 A 
ATOM     27  C   UNL A   1      35.008  33.252  31.278  1.00  0.00     0.010 A 
ATOM     28  C   UNL A   1      36.517  33.976  29.532  1.00  0.00     0.010 A 
ATOM     29  C   UNL A   1      36.305  33.295  30.740  1.00  0.00    -0.014 A 
BRANCH  29  30
ATOM     30  C   UNL A   1      37.430  32.600  31.419  1.00  0.00     0.031 A 
ATOM     31  C   UNL A   1      38.133  31.446  30.762  1.00  0.00     0.074 A 
ATOM     32  C   UNL A   1      37.788  32.985  32.659  1.00  0.00     0.049 A 
ATOM     33  N   UNL A   1      39.131  30.723  31.205  1.00  0.00    -0.248 NA
ATOM     34  C   UNL A   1      37.633  31.032  29.442  1.00  0.00     0.031 C 
ATOM     35  C   UNL A   1      37.147  34.054  33.427  1.00  0.00     0.029 A 
ATOM     36  N   UNL A   1      38.777  32.525  33.493  1.00  0.00    -0.354 N 
ATOM     37  C   UNL A   1      39.373  29.768  30.228  1.00  0.00     0.074 A 
ATOM     38  C   UNL A   1      38.378  29.964  29.194  1.00  0.00     0.031 C 
ATOM     39  C   UNL A   1      37.784  34.196  34.600  1.00  0.00     0.029 A 
ATOM     40  C   UNL A   1      38.849  33.202  34.686  1.00  0.00     0.049 A 
ATOM     41  H   UNL A   1      39.376  31.780  33.258  1.00  0.00     0.167 HD
ATOM     42  C   UNL A   1      40.349  28.827  30.184  1.00  0.00     0.037 A 
ATOM     43  C   UNL A   1      39.679  33.040  35.733  1.00  0.00     0.037 A 
ATOM     44  C   UNL A   1      41.341  28.643  31.212  1.00  0.00     0.049 A 
ATOM     45  C   UNL A   1      40.742  31.977  35.669  1.00  0.00     0.074 A 
ATOM     46  C   UNL A   1      42.412  27.766  31.231  1.00  0.00     0.029 A 
ATOM     47  N   UNL A   1      41.376  29.339  32.413  1.00  0.00    -0.354 N 
ATOM     48  N   UNL A   1      41.018  31.138  34.700  1.00  0.00    -0.248 NA
ATOM     49  C   UNL A   1      41.614  31.845  36.844  1.00  0.00     0.031 C 
ATOM     50  C   UNL A   1      43.053  27.884  32.470  1.00  0.00     0.029 A 
ATOM     51  C   UNL A   1      42.426  28.883  33.197  1.00  0.00     0.049 A 
ATOM     52  H   UNL A   1      40.747  30.052  32.671  1.00  0.00     0.167 HD
ATOM     53  C   UNL A   1      42.107  30.396  35.135  1.00  0.00     0.074 A 
ATOM     54  C   UNL A   1      42.456  30.902  36.447  1.00  0.00     0.031 C 
ATOM     55  C   UNL A   1      42.758  29.386  34.507  1.00  0.00     0.037 A 
BRANCH  42  56
ATOM     56  C   UNL A   1      40.380  27.916  28.988  1.00  0.00     0.064 A 
ATOM     57  C   UNL A   1      39.657  26.712  28.953  1.00  0.00     0.173 A 
ATOM     58  C   UNL A   1      41.129  28.259  27.852  1.00  0.00     0.173 A 
ATOM     59  F   UNL A   1      38.930  26.330  30.014  1.00  0.00    -0.203 F 
ATOM     60  C   UNL A   1      39.717  25.870  27.845  1.00  0.00     0.198 A 
ATOM     61  C   UNL A   1      41.157  27.432  26.731  1.00  0.00     0.198 A 
ATOM     62  F   UNL A   1      41.833  29.401  27.825  1.00  0.00    -0.203 F 
ATOM     63  F   UNL A   1      39.068  24.697  27.863  1.00  0.00    -0.200 F 
ATOM     64  C   UNL A   1      40.461  26.233  26.734  1.00  0.00     0.200 A 
ATOM     65  F   UNL A   1      41.864  27.793  25.652  1.00  0.00    -0.200 F 
ATOM     66  F   UNL A   1      40.514  25.422  25.668  1.00  0.00    -0.200 F 
ENDBRANCH  42  56
BRANCH  43  67
ATOM     67  C   UNL A   1      39.559  33.931  36.917  1.00  0.00     0.064 A 
ATOM     68  C   UNL A   1      38.807  33.544  38.035  1.00  0.00     0.173 A 
ATOM     69  C   UNL A   1      40.198  35.178  36.962  1.00  0.00     0.173 A 
ATOM     70  F   UNL A   1      38.160  32.369  38.033  1.00  0.00    -0.203 F 
ATOM     71  C   UNL A   1      38.685  34.377  39.145  1.00  0.00     0.198 A 
ATOM     72  C   UNL A   1      40.102  35.997  38.085  1.00  0.00     0.198 A 
ATOM     73  F   UNL A   1      40.935  35.594  35.920  1.00  0.00    -0.203 F 
ATOM     74  F   UNL A   1      37.924  34.001  40.182  1.00  0.00    -0.200 F 
ATOM     75  C   UNL A   1      39.339  35.600  39.172  1.00  0.00     0.200 A 
ATOM     76  F   UNL A   1      40.749  37.170  38.113  1.00  0.00    -0.200 F 
ATOM     77  F   UNL A   1      39.228  36.397  40.243  1.00  0.00    -0.200 F 
ENDBRANCH  43  67
BRANCH  55  78
ATOM     78  C   UNL A   1      43.931  28.776  35.222  1.00  0.00     0.064 A 
ATOM     79  C   UNL A   1      43.773  27.713  36.126  1.00  0.00     0.173 A 
ATOM     80  C   UNL A   1      45.232  29.249  34.989  1.00  0.00     0.173 A 
ATOM     81  F   UNL A   1      42.550  27.234  36.398  1.00  0.00    -0.203 F 
ATOM     82  C   UNL A   1      44.869  27.174  36.797  1.00  0.00     0.198 A 
ATOM     83  C   UNL A   1      46.328  28.681  35.633  1.00  0.00     0.198 A 
ATOM     84  F   UNL A   1      45.442  30.256  34.130  1.00  0.00    -0.203 F 
ATOM     85  F   UNL A   1      44.685  26.204  37.703  1.00  0.00    -0.200 F 
ATOM     86  C   UNL A   1      46.145  27.654  36.544  1.00  0.00     0.200 A 
ATOM     87  F   UNL A   1      47.563  29.134  35.374  1.00  0.00    -0.200 F 
ATOM     88  F   UNL A   1      47.198  27.131  37.188  1.00  0.00    -0.200 F 
ENDBRANCH  55  78
ENDBRANCH  29  30
ENDBRANCH  21  24
ENDBRANCH  19  20
ENDBRANCH  18  19
ENDBRANCH  17  18
ENDBRANCH   1  17
TORSDOF 17
ENDMDL
MODEL 2
REMARK VINA RESULT:      -9.9      5.672     10.170
REMARK SMILES CC[NH+](CC)C[C@H](F)C(=O)NCCCCCCNC(=O)c1ccc(-c2c3nc(c(-c4c(F)c(F)c(F)c(F)c4F)c4ccc([nH]4)c(-c4c(F)c(F)c(F)c(F)c4F)c4nc(c(-c5c(F)c(F)c(F)c(F)c5F)c5ccc2[nH]5)C=C4)C=C3)cc1
REMARK SMILES IDX 14 1 13 2 12 3 11 4 9 5 10 6 7 8 8 9 6 10 3 11 2 13 1 14
REMARK SMILES IDX 4 15 5 16 15 17 16 18 17 19 18 20 19 21 20 23 21 24 22 25
REMARK SMILES IDX 83 26 23 27 82 28 24 29 25 30 26 31 76 32 27 33 81 34 75 35
REMARK SMILES IDX 77 36 28 37 80 38 74 39 73 40 29 42 61 43 41 44 60 45 42 46
REMARK SMILES IDX 45 47 59 48 78 49 43 50 44 51 58 53 79 54 46 55 30 56 31 57
REMARK SMILES IDX 39 58 32 59 33 60 37 61 40 62 34 63 35 64 38 65 36 66 62 67
REMARK SMILES IDX 63 68 71 69 64 70 65 71 69 72 72 73 66 74 67 75 70 76 68 77
REMARK SMILES IDX 47 78 48 79 56 80 49 81 50 82 54 83 57 84 51 85 52 86 55 87
REMARK SMILES IDX 53 88
REMARK H PARENT 11 7 3 12 18 22 77 41 45 52
REMARK Flexibility Score: inf
ROOT
ATOM      1  C   UNL A   1      37.309  22.158  24.731  1.00  0.00     0.002 C 
ENDROOT
BRANCH   1   2
ATOM      2  C   UNL A   1      36.668  23.155  25.702  1.00  0.00     0.021 C 
BRANCH   2   3
ATOM      3  C   UNL A   1      35.682  24.121  25.067  1.00  0.00     0.116 C 
BRANCH   3   4
ATOM      4  N   UNL A   1      34.892  23.592  23.981  1.00  0.00    -0.353 N 
ATOM      5  C   UNL A   1      34.105  24.328  23.128  1.00  0.00     0.260 C 
ATOM      6  O   UNL A   1      33.705  23.784  22.094  1.00  0.00    -0.271 OA
ATOM      7  H   UNL A   1      34.919  22.618  23.838  1.00  0.00     0.163 HD
BRANCH   5   8
ATOM      8  C   UNL A   1      33.745  25.788  23.440  1.00  0.00     0.309 C 
ATOM      9  F   UNL A   1      33.637  26.562  22.319  1.00  0.00    -0.230 F 
BRANCH   8  10
ATOM     10  C   UNL A   1      32.503  25.976  24.340  1.00  0.00     0.310 C 
BRANCH  10  11
ATOM     11  N   UNL A   1      32.460  27.200  25.137  1.00  0.00    -0.333 N 
ATOM     12  H   UNL A   1      31.970  26.740  25.903  1.00  0.00     0.348 HD
BRANCH  11  13
ATOM     13  C   UNL A   1      31.451  28.232  24.898  1.00  0.00     0.258 C 
ATOM     14  C   UNL A   1      31.244  28.784  23.493  1.00  0.00     0.071 C 
ENDBRANCH  11  13
BRANCH  11  15
ATOM     15  C   UNL A   1      33.717  27.671  25.712  1.00  0.00     0.258 C 
ATOM     16  C   UNL A   1      33.553  28.328  27.083  1.00  0.00     0.071 C 
ENDBRANCH  11  15
ENDBRANCH  10  11
ENDBRANCH   8  10
ENDBRANCH   5   8
ENDBRANCH   3   4
ENDBRANCH   2   3
ENDBRANCH   1   2
BRANCH   1  17
ATOM     17  C   UNL A   1      36.930  20.679  24.899  1.00  0.00     0.002 C 
BRANCH  17  18
ATOM     18  C   UNL A   1      38.078  19.673  25.001  1.00  0.00     0.021 C 
BRANCH  18  19
ATOM     19  C   UNL A   1      39.257  20.084  25.876  1.00  0.00     0.116 C 
BRANCH  19  20
ATOM     20  N   UNL A   1      40.347  19.125  25.860  1.00  0.00    -0.352 N 
ATOM     21  C   UNL A   1      41.689  19.300  26.096  1.00  0.00     0.251 C 
ATOM     22  H   UNL A   1      40.083  18.202  25.644  1.00  0.00     0.163 HD
ATOM     23  O   UNL A   1      42.461  18.363  25.932  1.00  0.00    -0.269 OA
BRANCH  21  24
ATOM     24  C   UNL A   1      42.219  20.620  26.510  1.00  0.00     0.039 A 
ATOM     25  C   UNL A   1      42.679  21.489  25.515  1.00  0.00     0.014 A 
ATOM     26  C   UNL A   1      42.282  21.005  27.851  1.00  0.00     0.014 A 
ATOM     27  C   UNL A   1      43.135  22.763  25.859  1.00  0.00     0.010 A 
ATOM     28  C   UNL A   1      42.662  22.303  28.186  1.00  0.00     0.010 A 
ATOM     29  C   UNL A   1      43.091  23.197  27.195  1.00  0.00    -0.014 A 
BRANCH  29  30
ATOM     30  C   UNL A   1      43.457  24.594  27.549  1.00  0.00     0.031 A 
ATOM     31  C   UNL A   1      44.893  25.035  27.564  1.00  0.00     0.074 A 
ATOM     32  C   UNL A   1      42.486  25.458  27.905  1.00  0.00     0.049 A 
ATOM     33  N   UNL A   1      45.396  26.211  27.849  1.00  0.00    -0.248 NA
ATOM     34  C   UNL A   1      45.902  24.015  27.243  1.00  0.00     0.031 C 
ATOM     35  C   UNL A   1      41.060  25.136  27.984  1.00  0.00     0.029 A 
ATOM     36  N   UNL A   1      42.548  26.781  28.267  1.00  0.00    -0.354 N 
ATOM     37  C   UNL A   1      46.773  26.070  27.749  1.00  0.00     0.074 A 
ATOM     38  C   UNL A   1      47.031  24.680  27.437  1.00  0.00     0.031 C 
ATOM     39  C   UNL A   1      40.379  26.240  28.329  1.00  0.00     0.029 A 
ATOM     40  C   UNL A   1      41.321  27.335  28.536  1.00  0.00     0.049 A 
ATOM     41  H   UNL A   1      43.392  27.284  28.327  1.00  0.00     0.167 HD
ATOM     42  C   UNL A   1      47.734  27.017  27.883  1.00  0.00     0.037 A 
ATOM     43  C   UNL A   1      40.991  28.586  28.910  1.00  0.00     0.037 A 
ATOM     44  C   UNL A   1      47.470  28.401  28.185  1.00  0.00     0.049 A 
ATOM     45  C   UNL A   1      42.077  29.614  29.069  1.00  0.00     0.074 A 
ATOM     46  C   UNL A   1      48.366  29.452  28.274  1.00  0.00     0.029 A 
ATOM     47  N   UNL A   1      46.214  28.924  28.464  1.00  0.00    -0.354 N 
ATOM     48  N   UNL A   1      43.369  29.492  28.885  1.00  0.00    -0.248 NA
ATOM     49  C   UNL A   1      41.654  30.959  29.484  1.00  0.00     0.031 C 
ATOM     50  C   UNL A   1      47.663  30.595  28.672  1.00  0.00     0.029 A 
ATOM     51  C   UNL A   1      46.318  30.275  28.764  1.00  0.00     0.049 A 
ATOM     52  H   UNL A   1      45.373  28.412  28.451  1.00  0.00     0.167 HD
ATOM     53  C   UNL A   1      43.912  30.744  29.135  1.00  0.00     0.074 A 
ATOM     54  C   UNL A   1      42.804  31.618  29.462  1.00  0.00     0.031 C 
ATOM     55  C   UNL A   1      45.209  31.135  29.099  1.00  0.00     0.037 A 
BRANCH  42  56
ATOM     56  C   UNL A   1      49.164  26.583  27.715  1.00  0.00     0.064 A 
ATOM     57  C   UNL A   1      50.006  26.361  28.817  1.00  0.00     0.173 A 
ATOM     58  C   UNL A   1      49.696  26.367  26.434  1.00  0.00     0.173 A 
ATOM     59  F   UNL A   1      49.553  26.558  30.064  1.00  0.00    -0.203 F 
ATOM     60  C   UNL A   1      51.335  25.980  28.640  1.00  0.00     0.198 A 
ATOM     61  C   UNL A   1      51.015  25.951  26.263  1.00  0.00     0.198 A 
ATOM     62  F   UNL A   1      48.936  26.555  25.344  1.00  0.00    -0.203 F 
ATOM     63  F   UNL A   1      52.134  25.836  29.707  1.00  0.00    -0.200 F 
ATOM     64  C   UNL A   1      51.835  25.770  27.366  1.00  0.00     0.200 A 
ATOM     65  F   UNL A   1      51.492  25.732  25.031  1.00  0.00    -0.200 F 
ATOM     66  F   UNL A   1      53.113  25.401  27.199  1.00  0.00    -0.200 F 
ENDBRANCH  42  56
BRANCH  43  67
ATOM     67  C   UNL A   1      39.563  28.941  29.124  1.00  0.00     0.064 A 
ATOM     68  C   UNL A   1      38.764  29.379  28.058  1.00  0.00     0.173 A 
ATOM     69  C   UNL A   1      38.965  28.842  30.388  1.00  0.00     0.173 A 
ATOM     70  F   UNL A   1      39.295  29.510  26.833  1.00  0.00    -0.203 F 
ATOM     71  C   UNL A   1      37.427  29.720  28.252  1.00  0.00     0.198 A 
ATOM     72  C   UNL A   1      37.620  29.153  30.575  1.00  0.00     0.198 A 
ATOM     73  F   UNL A   1      39.684  28.423  31.440  1.00  0.00    -0.203 F 
ATOM     74  F   UNL A   1      36.699  30.178  27.225  1.00  0.00    -0.200 F 
ATOM     75  C   UNL A   1      36.854  29.600  29.509  1.00  0.00     0.200 A 
ATOM     76  F   UNL A   1      37.066  29.018  31.788  1.00  0.00    -0.200 F 
ATOM     77  F   UNL A   1      35.566  29.919  29.693  1.00  0.00    -0.200 F 
ENDBRANCH  43  67
BRANCH  55  78
ATOM     78  C   UNL A   1      45.500  32.579  29.400  1.00  0.00     0.064 A 
ATOM     79  C   UNL A   1      45.483  33.560  28.396  1.00  0.00     0.173 A 
ATOM     80  C   UNL A   1      45.784  32.989  30.712  1.00  0.00     0.173 A 
ATOM     81  F   UNL A   1      45.234  33.220  27.123  1.00  0.00    -0.203 F 
ATOM     82  C   UNL A   1      45.776  34.890  28.690  1.00  0.00     0.198 A 
ATOM     83  C   UNL A   1      46.038  34.326  31.006  1.00  0.00     0.198 A 
ATOM     84  F   UNL A   1      45.805  32.095  31.710  1.00  0.00    -0.203 F 
ATOM     85  F   UNL A   1      45.817  35.797  27.704  1.00  0.00    -0.200 F 
ATOM     86  C   UNL A   1      46.046  35.272  29.994  1.00  0.00     0.200 A 
ATOM     87  F   UNL A   1      46.282  34.697  32.271  1.00  0.00    -0.200 F 
ATOM     88  F   UNL A   1      46.324  36.554  30.274  1.00  0.00    -0.200 F 
ENDBRANCH  55  78
ENDBRANCH  29  30
ENDBRANCH  21  24
ENDBRANCH  19  20
ENDBRANCH  18  19
ENDBRANCH  17  18
ENDBRANCH   1  17
TORSDOF 17
ENDMDL
MODEL 3
REMARK VINA RESULT:      -9.8      2.333      8.245
REMARK SMILES CC[NH+](CC)C[C@H](F)C(=O)NCCCCCCNC(=O)c1ccc(-c2c3nc(c(-c4c(F)c(F)c(F)c(F)c4F)c4ccc([nH]4)c(-c4c(F)c(F)c(F)c(F)c4F)c4nc(c(-c5c(F)c(F)c(F)c(F)c5F)c5ccc2[nH]5)C=C4)C=C3)cc1
REMARK SMILES IDX 14 1 13 2 12 3 11 4 9 5 10 6 7 8 8 9 6 10 3 11 2 13 1 14
REMARK SMILES IDX 4 15 5 16 15 17 16 18 17 19 18 20 19 21 20 23 21 24 22 25
REMARK SMILES IDX 83 26 23 27 82 28 24 29 25 30 26 31 76 32 27 33 81 34 75 35
REMARK SMILES IDX 77 36 28 37 80 38 74 39 73 40 29 42 61 43 41 44 60 45 42 46
REMARK SMILES IDX 45 47 59 48 78 49 43 50 44 51 58 53 79 54 46 55 30 56 31 57
REMARK SMILES IDX 39 58 32 59 33 60 37 61 40 62 34 63 35 64 38 65 36 66 62 67
REMARK SMILES IDX 63 68 71 69 64 70 65 71 69 72 72 73 66 74 67 75 70 76 68 77
REMARK SMILES IDX 47 78 48 79 56 80 49 81 50 82 54 83 57 84 51 85 52 86 55 87
REMARK SMILES IDX 53 88
REMARK H PARENT 11 7 3 12 18 22 77 41 45 52
REMARK Flexibility Score: inf
ROOT
ATOM      1  C   UNL A   1      33.180  28.780  27.282  1.00  0.00     0.002 C 
ENDROOT
BRANCH   1   2
ATOM      2  C   UNL A   1      31.729  28.472  26.899  1.00  0.00     0.021 C 
BRANCH   2   3
ATOM      3  C   UNL A   1      31.565  27.441  25.795  1.00  0.00     0.116 C 
BRANCH   3   4
ATOM      4  N   UNL A   1      32.292  27.702  24.576  1.00  0.00    -0.353 N 
ATOM      5  C   UNL A   1      31.928  28.600  23.601  1.00  0.00     0.260 C 
ATOM      6  O   UNL A   1      32.772  28.910  22.754  1.00  0.00    -0.271 OA
ATOM      7  H   UNL A   1      33.121  27.191  24.428  1.00  0.00     0.163 HD
BRANCH   5   8
ATOM      8  C   UNL A   1      30.521  29.215  23.573  1.00  0.00     0.309 C 
ATOM      9  F   UNL A   1      30.426  30.363  24.308  1.00  0.00    -0.230 F 
BRANCH   8  10
ATOM     10  C   UNL A   1      29.934  29.436  22.161  1.00  0.00     0.310 C 
BRANCH  10  11
ATOM     11  N   UNL A   1      28.757  30.298  22.076  1.00  0.00    -0.333 N 
ATOM     12  H   UNL A   1      28.471  29.898  21.183  1.00  0.00     0.348 HD
BRANCH  11  13
ATOM     13  C   UNL A   1      28.854  31.681  21.611  1.00  0.00     0.258 C 
ATOM     14  C   UNL A   1      28.027  32.144  20.418  1.00  0.00     0.071 C 
ENDBRANCH  11  13
BRANCH  11  15
ATOM     15  C   UNL A   1      27.654  30.018  22.992  1.00  0.00     0.258 C 
ATOM     16  C   UNL A   1      27.277  31.209  23.874  1.00  0.00     0.071 C 
ENDBRANCH  11  15
ENDBRANCH  10  11
ENDBRANCH   8  10
ENDBRANCH   5   8
ENDBRANCH   3   4
ENDBRANCH   2   3
ENDBRANCH   1   2
BRANCH   1  17
ATOM     17  C   UNL A   1      33.759  30.119  26.804  1.00  0.00     0.002 C 
BRANCH  17  18
ATOM     18  C   UNL A   1      32.761  31.197  26.374  1.00  0.00     0.021 C 
BRANCH  18  19
ATOM     19  C   UNL A   1      32.116  32.001  27.497  1.00  0.00     0.116 C 
BRANCH  19  20
ATOM     20  N   UNL A   1      32.508  33.399  27.502  1.00  0.00    -0.352 N 
ATOM     21  C   UNL A   1      33.634  34.005  28.003  1.00  0.00     0.251 C 
ATOM     22  H   UNL A   1      31.863  34.011  27.080  1.00  0.00     0.163 HD
ATOM     23  O   UNL A   1      33.723  35.227  27.989  1.00  0.00    -0.269 OA
BRANCH  21  24
ATOM     24  C   UNL A   1      34.728  33.199  28.595  1.00  0.00     0.039 A 
ATOM     25  C   UNL A   1      36.037  33.454  28.177  1.00  0.00     0.014 A 
ATOM     26  C   UNL A   1      34.482  32.196  29.535  1.00  0.00     0.014 A 
ATOM     27  C   UNL A   1      37.100  32.754  28.750  1.00  0.00     0.010 A 
ATOM     28  C   UNL A   1      35.547  31.554  30.163  1.00  0.00     0.010 A 
ATOM     29  C   UNL A   1      36.868  31.827  29.780  1.00  0.00    -0.014 A 
BRANCH  29  30
ATOM     30  C   UNL A   1      38.004  31.172  30.479  1.00  0.00     0.031 A 
ATOM     31  C   UNL A   1      38.328  31.507  31.907  1.00  0.00     0.074 A 
ATOM     32  C   UNL A   1      38.777  30.299  29.803  1.00  0.00     0.049 A 
ATOM     33  N   UNL A   1      39.281  31.035  32.674  1.00  0.00    -0.248 NA
ATOM     34  C   UNL A   1      37.490  32.527  32.554  1.00  0.00     0.031 C 
ATOM     35  C   UNL A   1      38.601  29.932  28.397  1.00  0.00     0.029 A 
ATOM     36  N   UNL A   1      39.865  29.564  30.204  1.00  0.00    -0.354 N 
ATOM     37  C   UNL A   1      39.160  31.703  33.885  1.00  0.00     0.074 A 
ATOM     38  C   UNL A   1      38.082  32.657  33.732  1.00  0.00     0.031 C 
ATOM     39  C   UNL A   1      39.519  29.011  28.065  1.00  0.00     0.029 A 
ATOM     40  C   UNL A   1      40.375  28.754  29.219  1.00  0.00     0.049 A 
ATOM     41  H   UNL A   1      40.244  29.613  31.111  1.00  0.00     0.167 HD
ATOM     42  C   UNL A   1      39.869  31.523  35.027  1.00  0.00     0.037 A 
ATOM     43  C   UNL A   1      41.416  27.901  29.241  1.00  0.00     0.037 A 
ATOM     44  C   UNL A   1      40.936  30.566  35.175  1.00  0.00     0.049 A 
ATOM     45  C   UNL A   1      42.198  27.731  30.515  1.00  0.00     0.074 A 
ATOM     46  C   UNL A   1      41.669  30.257  36.308  1.00  0.00     0.029 A 
ATOM     47  N   UNL A   1      41.433  29.771  34.150  1.00  0.00    -0.354 N 
ATOM     48  N   UNL A   1      42.018  28.304  31.680  1.00  0.00    -0.248 NA
ATOM     49  C   UNL A   1      43.325  26.790  30.475  1.00  0.00     0.031 C 
ATOM     50  C   UNL A   1      42.652  29.327  35.953  1.00  0.00     0.029 A 
ATOM     51  C   UNL A   1      42.490  29.001  34.616  1.00  0.00     0.049 A 
ATOM     52  H   UNL A   1      41.087  29.755  33.229  1.00  0.00     0.167 HD
ATOM     53  C   UNL A   1      42.990  27.777  32.519  1.00  0.00     0.074 A 
ATOM     54  C   UNL A   1      43.742  26.820  31.733  1.00  0.00     0.031 C 
ATOM     55  C   UNL A   1      43.239  28.059  33.821  1.00  0.00     0.037 A 
BRANCH  42  56
ATOM     56  C   UNL A   1      39.520  32.391  36.204  1.00  0.00     0.064 A 
ATOM     57  C   UNL A   1      40.201  33.590  36.470  1.00  0.00     0.173 A 
ATOM     58  C   UNL A   1      38.475  32.029  37.069  1.00  0.00     0.173 A 
ATOM     59  F   UNL A   1      41.212  33.982  35.681  1.00  0.00    -0.203 F 
ATOM     60  C   UNL A   1      39.877  34.369  37.579  1.00  0.00     0.198 A 
ATOM     61  C   UNL A   1      38.131  32.830  38.156  1.00  0.00     0.198 A 
ATOM     62  F   UNL A   1      37.784  30.898  36.860  1.00  0.00    -0.203 F 
ATOM     63  F   UNL A   1      40.585  35.476  37.846  1.00  0.00    -0.200 F 
ATOM     64  C   UNL A   1      38.840  33.992  38.416  1.00  0.00     0.200 A 
ATOM     65  F   UNL A   1      37.116  32.472  38.955  1.00  0.00    -0.200 F 
ATOM     66  F   UNL A   1      38.529  34.745  39.481  1.00  0.00    -0.200 F 
ENDBRANCH  42  56
BRANCH  43  67
ATOM     67  C   UNL A   1      41.754  27.115  28.025  1.00  0.00     0.064 A 
ATOM     68  C   UNL A   1      41.193  25.848  27.809  1.00  0.00     0.173 A 
ATOM     69  C   UNL A   1      42.633  27.613  27.053  1.00  0.00     0.173 A 
ATOM     70  F   UNL A   1      40.363  25.319  28.720  1.00  0.00    -0.203 F 
ATOM     71  C   UNL A   1      41.511  25.104  26.675  1.00  0.00     0.198 A 
ATOM     72  C   UNL A   1      42.925  26.881  25.903  1.00  0.00     0.198 A 
ATOM     73  F   UNL A   1      43.193  28.822  27.209  1.00  0.00    -0.203 F 
ATOM     74  F   UNL A   1      40.995  23.878  26.515  1.00  0.00    -0.200 F 
ATOM     75  C   UNL A   1      42.371  25.624  25.720  1.00  0.00     0.200 A 
ATOM     76  F   UNL A   1      43.743  27.395  24.975  1.00  0.00    -0.200 F 
ATOM     77  F   UNL A   1      42.669  24.911  24.625  1.00  0.00    -0.200 F 
ENDBRANCH  43  67
BRANCH  55  78
ATOM     78  C   UNL A   1      44.359  27.307  34.486  1.00  0.00     0.064 A 
ATOM     79  C   UNL A   1      45.669  27.810  34.518  1.00  0.00     0.173 A 
ATOM     80  C   UNL A   1      44.116  26.075  35.112  1.00  0.00     0.173 A 
ATOM     81  F   UNL A   1      45.960  28.976  33.920  1.00  0.00    -0.203 F 
ATOM     82  C   UNL A   1      46.699  27.090  35.118  1.00  0.00     0.198 A 
ATOM     83  C   UNL A   1      45.140  25.377  35.745  1.00  0.00     0.198 A 
ATOM     84  F   UNL A   1      42.881  25.552  35.119  1.00  0.00    -0.203 F 
ATOM     85  F   UNL A   1      47.953  27.560  35.079  1.00  0.00    -0.200 F 
ATOM     86  C   UNL A   1      46.432  25.878  35.737  1.00  0.00     0.200 A 
ATOM     87  F   UNL A   1      44.877  24.214  36.357  1.00  0.00    -0.200 F 
ATOM     88  F   UNL A   1      47.424  25.188  36.318  1.00  0.00    -0.200 F 
ENDBRANCH  55  78
ENDBRANCH  29  30
ENDBRANCH  21  24
ENDBRANCH  19  20
ENDBRANCH  18  19
ENDBRANCH  17  18
ENDBRANCH   1  17
TORSDOF 17
ENDMDL
