MODEL 1
REMARK VINA RESULT:     -11.6      0.000      0.000
REMARK SMILES C[C@H](CNS(=O)(=O)CCC(=O)NCCCCCCNC(=O)c1ccc(-c2c3nc(c(-c4c(F)c(F)c(F)c(F)c4F)c4ccc([nH]4)c(-c4c(F)c(F)c(F)c(F)c4F)c4nc(c(-c5c(F)c(F)c(F)c(F)c5F)c5ccc2[nH]5)C=C4)C=C3)cc1)c1ccccc1
REMARK SMILES IDX 13 1 12 2 10 3 11 4 9 6 8 7 5 8 6 9 7 10 4 11 3 13 2 14 1 15
REMARK SMILES IDX 85 16 86 17 90 18 87 19 89 20 88 21 14 22 15 23 16 24 17 25
REMARK SMILES IDX 18 26 19 27 20 28 21 30 22 31 23 32 84 33 24 34 83 35 25 36
REMARK SMILES IDX 26 37 27 38 77 39 28 40 82 41 76 42 78 43 29 44 81 45 75 46
REMARK SMILES IDX 74 47 30 49 62 50 42 51 61 52 43 53 46 54 60 55 79 56 44 57
REMARK SMILES IDX 45 58 59 60 80 61 47 62 31 63 32 64 40 65 33 66 34 67 38 68
REMARK SMILES IDX 41 69 35 70 36 71 39 72 37 73 63 74 64 75 72 76 65 77 66 78
REMARK SMILES IDX 70 79 73 80 67 81 68 82 71 83 69 84 48 85 49 86 57 87 50 88
REMARK SMILES IDX 51 89 55 90 58 91 52 92 53 93 56 94 54 95
REMARK H PARENT 12 5 4 12 19 29 78 48 46 59
REMARK Flexibility Score: inf
ROOT
ATOM      1  C   UNL A   1      31.247  27.500  26.434  1.00  0.00     0.116 C 
ENDROOT
BRANCH   1   2
ATOM      2  N   UNL A   1      30.979  26.088  26.693  1.00  0.00    -0.356 N 
ATOM      3  C   UNL A   1      31.806  25.007  26.693  1.00  0.00     0.221 C 
ATOM      4  O   UNL A   1      31.376  23.943  27.141  1.00  0.00    -0.275 OA
ATOM      5  H   UNL A   1      30.039  25.882  26.901  1.00  0.00     0.163 HD
BRANCH   3   6
ATOM      6  C   UNL A   1      33.182  25.070  26.087  1.00  0.00     0.117 C 
BRANCH   6   7
ATOM      7  C   UNL A   1      33.135  24.677  24.617  1.00  0.00     0.164 C 
BRANCH   7   8
ATOM      8  S   UNL A   1      33.219  26.074  23.510  1.00  0.00     0.212 S 
ATOM      9  O   UNL A   1      33.608  25.591  22.203  1.00  0.00    -0.212 OA
ATOM     10  O   UNL A   1      33.998  27.091  24.179  1.00  0.00    -0.212 OA
BRANCH   8  11
ATOM     11  N   UNL A   1      31.632  26.598  23.413  1.00  0.00    -0.215 NA
ATOM     12  H   UNL A   1      31.101  25.849  22.968  1.00  0.00     0.141 HD
BRANCH  11  13
ATOM     13  C   UNL A   1      31.307  27.832  22.689  1.00  0.00     0.106 C 
BRANCH  13  14
ATOM     14  C   UNL A   1      29.790  28.135  22.571  1.00  0.00     0.031 C 
ATOM     15  C   UNL A   1      28.982  27.216  23.497  1.00  0.00     0.014 C 
BRANCH  14  16
ATOM     16  C   UNL A   1      29.355  29.603  22.611  1.00  0.00    -0.044 A 
ATOM     17  C   UNL A   1      28.641  30.149  21.530  1.00  0.00     0.004 A 
ATOM     18  C   UNL A   1      29.508  30.408  23.756  1.00  0.00     0.004 A 
ATOM     19  C   UNL A   1      28.081  31.431  21.606  1.00  0.00     0.000 A 
ATOM     20  C   UNL A   1      28.957  31.693  23.828  1.00  0.00     0.000 A 
ATOM     21  C   UNL A   1      28.224  32.194  22.761  1.00  0.00     0.000 A 
ENDBRANCH  14  16
ENDBRANCH  13  14
ENDBRANCH  11  13
ENDBRANCH   8  11
ENDBRANCH   7   8
ENDBRANCH   6   7
ENDBRANCH   3   6
ENDBRANCH   1   2
BRANCH   1  22
ATOM     22  C   UNL A   1      31.796  28.264  27.642  1.00  0.00     0.021 C 
BRANCH  22  23
ATOM     23  C   UNL A   1      32.752  29.402  27.291  1.00  0.00     0.002 C 
BRANCH  23  24
ATOM     24  C   UNL A   1      32.195  30.395  26.279  1.00  0.00     0.002 C 
BRANCH  24  25
ATOM     25  C   UNL A   1      31.776  31.739  26.874  1.00  0.00     0.021 C 
BRANCH  25  26
ATOM     26  C   UNL A   1      32.911  32.555  27.482  1.00  0.00     0.116 C 
BRANCH  26  27
ATOM     27  N   UNL A   1      32.542  33.951  27.666  1.00  0.00    -0.352 N 
ATOM     28  C   UNL A   1      33.012  34.879  28.560  1.00  0.00     0.251 C 
ATOM     29  H   UNL A   1      31.845  34.281  27.053  1.00  0.00     0.163 HD
ATOM     30  O   UNL A   1      32.479  35.977  28.678  1.00  0.00    -0.269 OA
BRANCH  28  31
ATOM     31  C   UNL A   1      34.154  34.512  29.411  1.00  0.00     0.039 A 
ATOM     32  C   UNL A   1      33.910  34.007  30.688  1.00  0.00     0.014 A 
ATOM     33  C   UNL A   1      35.450  34.569  28.893  1.00  0.00     0.014 A 
ATOM     34  C   UNL A   1      34.967  33.464  31.412  1.00  0.00     0.010 A 
ATOM     35  C   UNL A   1      36.479  33.936  29.572  1.00  0.00     0.010 A 
ATOM     36  C   UNL A   1      36.245  33.372  30.833  1.00  0.00    -0.014 A 
BRANCH  36  37
ATOM     37  C   UNL A   1      37.333  32.651  31.533  1.00  0.00     0.031 A 
ATOM     38  C   UNL A   1      38.012  31.490  30.869  1.00  0.00     0.074 A 
ATOM     39  C   UNL A   1      37.665  33.029  32.783  1.00  0.00     0.049 A 
ATOM     40  N   UNL A   1      39.004  30.756  31.303  1.00  0.00    -0.248 NA
ATOM     41  C   UNL A   1      37.491  31.076  29.556  1.00  0.00     0.031 C 
ATOM     42  C   UNL A   1      37.002  34.090  33.547  1.00  0.00     0.029 A 
ATOM     43  N   UNL A   1      38.642  32.576  33.629  1.00  0.00    -0.354 N 
ATOM     44  C   UNL A   1      39.220  29.799  30.322  1.00  0.00     0.074 A 
ATOM     45  C   UNL A   1      38.213  29.995  29.305  1.00  0.00     0.031 C 
ATOM     46  C   UNL A   1      37.624  34.239  34.727  1.00  0.00     0.029 A 
ATOM     47  C   UNL A   1      38.704  33.263  34.817  1.00  0.00     0.049 A 
ATOM     48  H   UNL A   1      39.244  31.829  33.407  1.00  0.00     0.167 HD
ATOM     49  C   UNL A   1      40.194  28.861  30.264  1.00  0.00     0.037 A 
ATOM     50  C   UNL A   1      39.549  33.124  35.856  1.00  0.00     0.037 A 
ATOM     51  C   UNL A   1      41.194  28.689  31.285  1.00  0.00     0.049 A 
ATOM     52  C   UNL A   1      40.636  32.088  35.755  1.00  0.00     0.074 A 
ATOM     53  C   UNL A   1      42.261  27.811  31.313  1.00  0.00     0.029 A 
ATOM     54  N   UNL A   1      41.238  29.414  32.470  1.00  0.00    -0.354 N 
ATOM     55  N   UNL A   1      40.892  31.249  34.779  1.00  0.00    -0.248 NA
ATOM     56  C   UNL A   1      41.559  31.989  36.891  1.00  0.00     0.031 C 
ATOM     57  C   UNL A   1      42.917  27.965  32.539  1.00  0.00     0.029 A 
ATOM     58  C   UNL A   1      42.301  28.984  33.247  1.00  0.00     0.049 A 
ATOM     59  H   UNL A   1      40.609  30.128  32.719  1.00  0.00     0.167 HD
ATOM     60  C   UNL A   1      42.015  30.537  35.172  1.00  0.00     0.074 A 
ATOM     61  C   UNL A   1      42.410  31.069  36.461  1.00  0.00     0.031 C 
ATOM     62  C   UNL A   1      42.661  29.528  34.533  1.00  0.00     0.037 A 
BRANCH  49  63
ATOM     63  C   UNL A   1      40.219  27.957  29.063  1.00  0.00     0.064 A 
ATOM     64  C   UNL A   1      40.926  28.295  27.898  1.00  0.00     0.173 A 
ATOM     65  C   UNL A   1      39.541  26.729  29.081  1.00  0.00     0.173 A 
ATOM     66  F   UNL A   1      41.579  29.465  27.819  1.00  0.00    -0.203 F 
ATOM     67  C   UNL A   1      40.926  27.454  26.787  1.00  0.00     0.198 A 
ATOM     68  C   UNL A   1      39.572  25.874  27.981  1.00  0.00     0.198 A 
ATOM     69  F   UNL A   1      38.850  26.353  30.167  1.00  0.00    -0.203 F 
ATOM     70  F   UNL A   1      41.561  27.828  25.667  1.00  0.00    -0.200 F 
ATOM     71  C   UNL A   1      40.256  26.242  26.833  1.00  0.00     0.200 A 
ATOM     72  F   UNL A   1      38.934  24.697  28.031  1.00  0.00    -0.200 F 
ATOM     73  F   UNL A   1      40.263  25.430  25.766  1.00  0.00    -0.200 F 
ENDBRANCH  49  63
BRANCH  50  74
ATOM     74  C   UNL A   1      39.424  34.004  37.050  1.00  0.00     0.064 A 
ATOM     75  C   UNL A   1      38.715  33.589  38.186  1.00  0.00     0.173 A 
ATOM     76  C   UNL A   1      40.009  35.278  37.081  1.00  0.00     0.173 A 
ATOM     77  F   UNL A   1      38.124  32.385  38.205  1.00  0.00    -0.203 F 
ATOM     78  C   UNL A   1      38.572  34.424  39.294  1.00  0.00     0.198 A 
ATOM     79  C   UNL A   1      39.895  36.099  38.203  1.00  0.00     0.198 A 
ATOM     80  F   UNL A   1      40.708  35.723  36.027  1.00  0.00    -0.203 F 
ATOM     81  F   UNL A   1      37.844  34.021  40.344  1.00  0.00    -0.200 F 
ATOM     82  C   UNL A   1      39.167  35.676  39.304  1.00  0.00     0.200 A 
ATOM     83  F   UNL A   1      40.490  37.300  38.214  1.00  0.00    -0.200 F 
ATOM     84  F   UNL A   1      39.035  36.476  40.369  1.00  0.00    -0.200 F 
ENDBRANCH  50  74
BRANCH  62  85
ATOM     85  C   UNL A   1      43.869  28.960  35.220  1.00  0.00     0.064 A 
ATOM     86  C   UNL A   1      45.159  29.452  34.970  1.00  0.00     0.173 A 
ATOM     87  C   UNL A   1      43.733  27.914  36.145  1.00  0.00     0.173 A 
ATOM     88  F   UNL A   1      45.344  30.444  34.084  1.00  0.00    -0.203 F 
ATOM     89  C   UNL A   1      46.273  28.886  35.584  1.00  0.00     0.198 A 
ATOM     90  C   UNL A   1      44.845  27.378  36.787  1.00  0.00     0.198 A 
ATOM     91  F   UNL A   1      42.522  27.414  36.429  1.00  0.00    -0.203 F 
ATOM     92  F   UNL A   1      47.500  29.324  35.273  1.00  0.00    -0.200 F 
ATOM     93  C   UNL A   1      46.114  27.854  36.496  1.00  0.00     0.200 A 
ATOM     94  F   UNL A   1      44.689  26.393  37.683  1.00  0.00    -0.200 F 
ATOM     95  F   UNL A   1      47.187  27.309  37.085  1.00  0.00    -0.200 F 
ENDBRANCH  62  85
ENDBRANCH  36  37
ENDBRANCH  28  31
ENDBRANCH  26  27
ENDBRANCH  25  26
ENDBRANCH  24  25
ENDBRANCH  23  24
ENDBRANCH  22  23
ENDBRANCH   1  22
TORSDOF 19
ENDMDL
MODEL 2
REMARK VINA RESULT:     -11.6      0.527      2.060
REMARK SMILES C[C@H](CNS(=O)(=O)CCC(=O)NCCCCCCNC(=O)c1ccc(-c2c3nc(c(-c4c(F)c(F)c(F)c(F)c4F)c4ccc([nH]4)c(-c4c(F)c(F)c(F)c(F)c4F)c4nc(c(-c5c(F)c(F)c(F)c(F)c5F)c5ccc2[nH]5)C=C4)C=C3)cc1)c1ccccc1
REMARK SMILES IDX 13 1 12 2 10 3 11 4 9 6 8 7 5 8 6 9 7 10 4 11 3 13 2 14 1 15
REMARK SMILES IDX 85 16 86 17 90 18 87 19 89 20 88 21 14 22 15 23 16 24 17 25
REMARK SMILES IDX 18 26 19 27 20 28 21 30 22 31 23 32 84 33 24 34 83 35 25 36
REMARK SMILES IDX 26 37 27 38 77 39 28 40 82 41 76 42 78 43 29 44 81 45 75 46
REMARK SMILES IDX 74 47 30 49 62 50 42 51 61 52 43 53 46 54 60 55 79 56 44 57
REMARK SMILES IDX 45 58 59 60 80 61 47 62 31 63 32 64 40 65 33 66 34 67 38 68
REMARK SMILES IDX 41 69 35 70 36 71 39 72 37 73 63 74 64 75 72 76 65 77 66 78
REMARK SMILES IDX 70 79 73 80 67 81 68 82 71 83 69 84 48 85 49 86 57 87 50 88
REMARK SMILES IDX 51 89 55 90 58 91 52 92 53 93 56 94 54 95
REMARK H PARENT 12 5 4 12 19 29 78 48 46 59
REMARK Flexibility Score: inf
ROOT
ATOM      1  C   UNL A   1      31.398  27.443  26.436  1.00  0.00     0.116 C 
ENDROOT
BRANCH   1   2
ATOM      2  N   UNL A   1      30.941  26.105  26.802  1.00  0.00    -0.356 N 
ATOM      3  C   UNL A   1      31.498  24.881  26.593  1.00  0.00     0.221 C 
ATOM      4  O   UNL A   1      31.014  23.911  27.177  1.00  0.00    -0.275 OA
ATOM      5  H   UNL A   1      30.082  26.085  27.282  1.00  0.00     0.163 HD
BRANCH   3   6
ATOM      6  C   UNL A   1      32.620  24.686  25.610  1.00  0.00     0.117 C 
BRANCH   6   7
ATOM      7  C   UNL A   1      32.078  24.621  24.188  1.00  0.00     0.164 C 
BRANCH   7   8
ATOM      8  S   UNL A   1      33.201  25.289  22.973  1.00  0.00     0.212 S 
ATOM      9  O   UNL A   1      33.655  24.202  22.132  1.00  0.00    -0.212 OA
ATOM     10  O   UNL A   1      34.152  26.109  23.688  1.00  0.00    -0.212 OA
BRANCH   8  11
ATOM     11  N   UNL A   1      32.231  26.287  22.043  1.00  0.00    -0.215 NA
ATOM     12  H   UNL A   1      32.796  27.099  21.795  1.00  0.00     0.141 HD
BRANCH  11  13
ATOM     13  C   UNL A   1      30.970  26.802  22.588  1.00  0.00     0.106 C 
BRANCH  13  14
ATOM     14  C   UNL A   1      31.064  28.219  23.216  1.00  0.00     0.031 C 
ATOM     15  C   UNL A   1      32.347  28.926  22.761  1.00  0.00     0.014 C 
BRANCH  14  16
ATOM     16  C   UNL A   1      29.812  29.100  23.168  1.00  0.00    -0.044 A 
ATOM     17  C   UNL A   1      28.561  28.520  22.895  1.00  0.00     0.004 A 
ATOM     18  C   UNL A   1      29.828  30.460  23.532  1.00  0.00     0.004 A 
ATOM     19  C   UNL A   1      27.379  29.263  23.014  1.00  0.00     0.000 A 
ATOM     20  C   UNL A   1      28.648  31.204  23.641  1.00  0.00     0.000 A 
ATOM     21  C   UNL A   1      27.422  30.598  23.404  1.00  0.00     0.000 A 
ENDBRANCH  14  16
ENDBRANCH  13  14
ENDBRANCH  11  13
ENDBRANCH   8  11
ENDBRANCH   7   8
ENDBRANCH   6   7
ENDBRANCH   3   6
ENDBRANCH   1   2
BRANCH   1  22
ATOM     22  C   UNL A   1      31.948  28.259  27.608  1.00  0.00     0.021 C 
BRANCH  22  23
ATOM     23  C   UNL A   1      32.836  29.433  27.203  1.00  0.00     0.002 C 
BRANCH  23  24
ATOM     24  C   UNL A   1      32.180  30.403  26.228  1.00  0.00     0.002 C 
BRANCH  24  25
ATOM     25  C   UNL A   1      31.759  31.736  26.849  1.00  0.00     0.021 C 
BRANCH  25  26
ATOM     26  C   UNL A   1      32.895  32.550  27.458  1.00  0.00     0.116 C 
BRANCH  26  27
ATOM     27  N   UNL A   1      32.528  33.946  27.643  1.00  0.00    -0.352 N 
ATOM     28  C   UNL A   1      32.999  34.873  28.537  1.00  0.00     0.251 C 
ATOM     29  H   UNL A   1      31.831  34.277  27.030  1.00  0.00     0.163 HD
ATOM     30  O   UNL A   1      32.467  35.971  28.656  1.00  0.00    -0.269 OA
BRANCH  28  31
ATOM     31  C   UNL A   1      34.140  34.503  29.389  1.00  0.00     0.039 A 
ATOM     32  C   UNL A   1      33.895  34.001  30.667  1.00  0.00     0.014 A 
ATOM     33  C   UNL A   1      35.436  34.554  28.869  1.00  0.00     0.014 A 
ATOM     34  C   UNL A   1      34.950  33.455  31.391  1.00  0.00     0.010 A 
ATOM     35  C   UNL A   1      36.464  33.919  29.550  1.00  0.00     0.010 A 
ATOM     36  C   UNL A   1      36.228  33.358  30.812  1.00  0.00    -0.014 A 
BRANCH  36  37
ATOM     37  C   UNL A   1      37.313  32.635  31.512  1.00  0.00     0.031 A 
ATOM     38  C   UNL A   1      37.995  31.476  30.846  1.00  0.00     0.074 A 
ATOM     39  C   UNL A   1      37.642  33.008  32.765  1.00  0.00     0.049 A 
ATOM     40  N   UNL A   1      38.986  30.741  31.281  1.00  0.00    -0.248 NA
ATOM     41  C   UNL A   1      37.478  31.067  29.531  1.00  0.00     0.031 C 
ATOM     42  C   UNL A   1      36.976  34.066  33.530  1.00  0.00     0.029 A 
ATOM     43  N   UNL A   1      38.616  32.552  33.612  1.00  0.00    -0.354 N 
ATOM     44  C   UNL A   1      39.205  29.787  30.297  1.00  0.00     0.074 A 
ATOM     45  C   UNL A   1      38.200  29.987  29.277  1.00  0.00     0.031 C 
ATOM     46  C   UNL A   1      37.594  34.211  34.713  1.00  0.00     0.029 A 
ATOM     47  C   UNL A   1      38.674  33.235  34.803  1.00  0.00     0.049 A 
ATOM     48  H   UNL A   1      39.219  31.806  33.389  1.00  0.00     0.167 HD
ATOM     49  C   UNL A   1      40.179  28.850  30.239  1.00  0.00     0.037 A 
ATOM     50  C   UNL A   1      39.516  33.092  35.844  1.00  0.00     0.037 A 
ATOM     51  C   UNL A   1      41.175  28.674  31.262  1.00  0.00     0.049 A 
ATOM     52  C   UNL A   1      40.603  32.057  35.743  1.00  0.00     0.074 A 
ATOM     53  C   UNL A   1      42.242  27.796  31.291  1.00  0.00     0.029 A 
ATOM     54  N   UNL A   1      41.216  29.395  32.450  1.00  0.00    -0.354 N 
ATOM     55  N   UNL A   1      40.862  31.221  34.765  1.00  0.00    -0.248 NA
ATOM     56  C   UNL A   1      41.523  31.954  36.882  1.00  0.00     0.031 C 
ATOM     57  C   UNL A   1      42.895  27.945  32.519  1.00  0.00     0.029 A 
ATOM     58  C   UNL A   1      42.277  28.962  33.229  1.00  0.00     0.049 A 
ATOM     59  H   UNL A   1      40.586  30.108  32.700  1.00  0.00     0.167 HD
ATOM     60  C   UNL A   1      41.984  30.507  35.159  1.00  0.00     0.074 A 
ATOM     61  C   UNL A   1      42.375  31.035  36.451  1.00  0.00     0.031 C 
ATOM     62  C   UNL A   1      42.633  29.501  34.518  1.00  0.00     0.037 A 
BRANCH  49  63
ATOM     63  C   UNL A   1      40.208  27.950  29.034  1.00  0.00     0.064 A 
ATOM     64  C   UNL A   1      39.531  26.720  29.014  1.00  0.00     0.173 A 
ATOM     65  C   UNL A   1      40.908  28.329  27.879  1.00  0.00     0.173 A 
ATOM     66  F   UNL A   1      38.859  26.299  30.097  1.00  0.00    -0.203 F 
ATOM     67  C   UNL A   1      39.581  25.889  27.896  1.00  0.00     0.198 A 
ATOM     68  C   UNL A   1      40.927  27.512  26.750  1.00  0.00     0.198 A 
ATOM     69  F   UNL A   1      41.572  29.493  27.841  1.00  0.00    -0.203 F 
ATOM     70  F   UNL A   1      38.975  24.694  27.924  1.00  0.00    -0.200 F 
ATOM     71  C   UNL A   1      40.272  26.290  26.764  1.00  0.00     0.200 A 
ATOM     72  F   UNL A   1      41.584  27.906  25.651  1.00  0.00    -0.200 F 
ATOM     73  F   UNL A   1      40.313  25.494  25.685  1.00  0.00    -0.200 F 
ENDBRANCH  49  63
BRANCH  50  74
ATOM     74  C   UNL A   1      39.387  33.968  37.041  1.00  0.00     0.064 A 
ATOM     75  C   UNL A   1      39.963  35.245  37.071  1.00  0.00     0.173 A 
ATOM     76  C   UNL A   1      38.686  33.547  38.181  1.00  0.00     0.173 A 
ATOM     77  F   UNL A   1      40.656  35.693  36.013  1.00  0.00    -0.203 F 
ATOM     78  C   UNL A   1      39.868  36.055  38.202  1.00  0.00     0.198 A 
ATOM     79  C   UNL A   1      38.562  34.370  39.299  1.00  0.00     0.198 A 
ATOM     80  F   UNL A   1      38.105  32.338  38.204  1.00  0.00    -0.203 F 
ATOM     81  F   UNL A   1      40.474  37.250  38.221  1.00  0.00    -0.200 F 
ATOM     82  C   UNL A   1      39.163  35.619  39.313  1.00  0.00     0.200 A 
ATOM     83  F   UNL A   1      37.862  33.951  40.362  1.00  0.00    -0.200 F 
ATOM     84  F   UNL A   1      39.067  36.399  40.398  1.00  0.00    -0.200 F 
ENDBRANCH  50  74
BRANCH  62  85
ATOM     85  C   UNL A   1      43.838  28.931  35.207  1.00  0.00     0.064 A 
ATOM     86  C   UNL A   1      43.735  27.858  36.106  1.00  0.00     0.173 A 
ATOM     87  C   UNL A   1      45.114  29.459  34.959  1.00  0.00     0.173 A 
ATOM     88  F   UNL A   1      42.535  27.325  36.386  1.00  0.00    -0.203 F 
ATOM     89  C   UNL A   1      44.857  27.368  36.767  1.00  0.00     0.198 A 
ATOM     90  C   UNL A   1      46.239  28.939  35.592  1.00  0.00     0.198 A 
ATOM     91  F   UNL A   1      45.271  30.478  34.101  1.00  0.00    -0.203 F 
ATOM     92  F   UNL A   1      44.723  26.393  37.676  1.00  0.00    -0.200 F 
ATOM     93  C   UNL A   1      46.108  27.905  36.505  1.00  0.00     0.200 A 
ATOM     94  F   UNL A   1      47.450  29.447  35.324  1.00  0.00    -0.200 F 
ATOM     95  F   UNL A   1      47.187  27.433  37.144  1.00  0.00    -0.200 F 
ENDBRANCH  62  85
ENDBRANCH  36  37
ENDBRANCH  28  31
ENDBRANCH  26  27
ENDBRANCH  25  26
ENDBRANCH  24  25
ENDBRANCH  23  24
ENDBRANCH  22  23
ENDBRANCH   1  22
TORSDOF 19
ENDMDL
MODEL 3
REMARK VINA RESULT:     -11.5      1.989      7.796
REMARK SMILES C[C@H](CNS(=O)(=O)CCC(=O)NCCCCCCNC(=O)c1ccc(-c2c3nc(c(-c4c(F)c(F)c(F)c(F)c4F)c4ccc([nH]4)c(-c4c(F)c(F)c(F)c(F)c4F)c4nc(c(-c5c(F)c(F)c(F)c(F)c5F)c5ccc2[nH]5)C=C4)C=C3)cc1)c1ccccc1
REMARK SMILES IDX 13 1 12 2 10 3 11 4 9 6 8 7 5 8 6 9 7 10 4 11 3 13 2 14 1 15
REMARK SMILES IDX 85 16 86 17 90 18 87 19 89 20 88 21 14 22 15 23 16 24 17 25
REMARK SMILES IDX 18 26 19 27 20 28 21 30 22 31 23 32 84 33 24 34 83 35 25 36
REMARK SMILES IDX 26 37 27 38 77 39 28 40 82 41 76 42 78 43 29 44 81 45 75 46
REMARK SMILES IDX 74 47 30 49 62 50 42 51 61 52 43 53 46 54 60 55 79 56 44 57
REMARK SMILES IDX 45 58 59 60 80 61 47 62 31 63 32 64 40 65 33 66 34 67 38 68
REMARK SMILES IDX 41 69 35 70 36 71 39 72 37 73 63 74 64 75 72 76 65 77 66 78
REMARK SMILES IDX 70 79 73 80 67 81 68 82 71 83 69 84 48 85 49 86 57 87 50 88
REMARK SMILES IDX 51 89 55 90 58 91 52 92 53 93 56 94 54 95
REMARK H PARENT 12 5 4 12 19 29 78 48 46 59
REMARK Flexibility Score: inf
ROOT
ATOM      1  C   UNL A   1      32.810  25.150  25.285  1.00  0.00     0.116 C 
ENDROOT
BRANCH   1   2
ATOM      2  N   UNL A   1      33.140  23.746  25.055  1.00  0.00    -0.356 N 
ATOM      3  C   UNL A   1      33.802  23.141  24.031  1.00  0.00     0.221 C 
ATOM      4  O   UNL A   1      34.131  21.961  24.165  1.00  0.00    -0.275 OA
ATOM      5  H   UNL A   1      32.830  23.133  25.759  1.00  0.00     0.163 HD
BRANCH   3   6
ATOM      6  C   UNL A   1      34.057  23.852  22.730  1.00  0.00     0.117 C 
BRANCH   6   7
ATOM      7  C   UNL A   1      32.742  24.254  22.076  1.00  0.00     0.164 C 
BRANCH   7   8
ATOM      8  S   UNL A   1      32.848  25.783  21.161  1.00  0.00     0.212 S 
ATOM      9  O   UNL A   1      32.953  25.460  19.754  1.00  0.00    -0.212 OA
ATOM     10  O   UNL A   1      33.859  26.588  21.808  1.00  0.00    -0.212 OA
BRANCH   8  11
ATOM     11  N   UNL A   1      31.356  26.500  21.414  1.00  0.00    -0.215 NA
ATOM     12  H   UNL A   1      30.967  26.702  20.493  1.00  0.00     0.141 HD
BRANCH  11  13
ATOM     13  C   UNL A   1      31.257  27.737  22.196  1.00  0.00     0.106 C 
BRANCH  13  14
ATOM     14  C   UNL A   1      29.904  27.935  22.930  1.00  0.00     0.031 C 
ATOM     15  C   UNL A   1      29.967  27.345  24.344  1.00  0.00     0.014 C 
BRANCH  14  16
ATOM     16  C   UNL A   1      29.254  29.319  22.857  1.00  0.00    -0.044 A 
ATOM     17  C   UNL A   1      29.557  30.286  23.832  1.00  0.00     0.004 A 
ATOM     18  C   UNL A   1      28.466  29.731  21.764  1.00  0.00     0.004 A 
ATOM     19  C   UNL A   1      29.118  31.609  23.700  1.00  0.00     0.000 A 
ATOM     20  C   UNL A   1      28.019  31.051  21.637  1.00  0.00     0.000 A 
ATOM     21  C   UNL A   1      28.365  31.995  22.595  1.00  0.00     0.000 A 
ENDBRANCH  14  16
ENDBRANCH  13  14
ENDBRANCH  11  13
ENDBRANCH   8  11
ENDBRANCH   7   8
ENDBRANCH   6   7
ENDBRANCH   3   6
ENDBRANCH   1   2
BRANCH   1  22
ATOM     22  C   UNL A   1      34.028  26.069  25.399  1.00  0.00     0.021 C 
BRANCH  22  23
ATOM     23  C   UNL A   1      33.748  27.414  26.066  1.00  0.00     0.002 C 
BRANCH  23  24
ATOM     24  C   UNL A   1      33.780  28.602  25.111  1.00  0.00     0.002 C 
BRANCH  24  25
ATOM     25  C   UNL A   1      32.726  29.672  25.396  1.00  0.00     0.021 C 
BRANCH  25  26
ATOM     26  C   UNL A   1      32.600  30.076  26.861  1.00  0.00     0.116 C 
BRANCH  26  27
ATOM     27  N   UNL A   1      32.596  31.522  27.029  1.00  0.00    -0.352 N 
ATOM     28  C   UNL A   1      33.542  32.350  27.577  1.00  0.00     0.251 C 
ATOM     29  H   UNL A   1      31.788  31.977  26.698  1.00  0.00     0.163 HD
ATOM     30  O   UNL A   1      33.311  33.538  27.777  1.00  0.00    -0.269 OA
BRANCH  28  31
ATOM     31  C   UNL A   1      34.839  31.770  27.960  1.00  0.00     0.039 A 
ATOM     32  C   UNL A   1      35.947  32.610  28.075  1.00  0.00     0.014 A 
ATOM     33  C   UNL A   1      34.917  30.419  28.309  1.00  0.00     0.014 A 
ATOM     34  C   UNL A   1      37.117  32.110  28.638  1.00  0.00     0.010 A 
ATOM     35  C   UNL A   1      36.048  29.954  28.962  1.00  0.00     0.010 A 
ATOM     36  C   UNL A   1      37.154  30.796  29.138  1.00  0.00    -0.014 A 
BRANCH  36  37
ATOM     37  C   UNL A   1      38.339  30.312  29.881  1.00  0.00     0.031 A 
ATOM     38  C   UNL A   1      38.568  30.751  31.297  1.00  0.00     0.074 A 
ATOM     39  C   UNL A   1      39.221  29.512  29.250  1.00  0.00     0.049 A 
ATOM     40  N   UNL A   1      39.525  30.411  32.122  1.00  0.00    -0.248 NA
ATOM     41  C   UNL A   1      37.616  31.726  31.854  1.00  0.00     0.031 C 
ATOM     42  C   UNL A   1      39.131  29.101  27.846  1.00  0.00     0.029 A 
ATOM     43  N   UNL A   1      40.358  28.895  29.702  1.00  0.00    -0.354 N 
ATOM     44  C   UNL A   1      39.289  31.129  33.286  1.00  0.00     0.074 A 
ATOM     45  C   UNL A   1      38.146  31.978  33.040  1.00  0.00     0.031 C 
ATOM     46  C   UNL A   1      40.139  28.261  27.567  1.00  0.00     0.029 A 
ATOM     47  C   UNL A   1      40.965  28.102  28.758  1.00  0.00     0.049 A 
ATOM     48  H   UNL A   1      40.706  29.008  30.616  1.00  0.00     0.167 HD
ATOM     49  C   UNL A   1      39.952  31.060  34.464  1.00  0.00     0.037 A 
ATOM     50  C   UNL A   1      42.061  27.326  28.854  1.00  0.00     0.037 A 
ATOM     51  C   UNL A   1      41.083  30.199  34.690  1.00  0.00     0.049 A 
ATOM     52  C   UNL A   1      42.765  27.250  30.182  1.00  0.00     0.074 A 
ATOM     53  C   UNL A   1      41.802  30.002  35.853  1.00  0.00     0.029 A 
ATOM     54  N   UNL A   1      41.664  29.394  33.717  1.00  0.00    -0.354 N 
ATOM     55  N   UNL A   1      42.479  27.862  31.308  1.00  0.00    -0.248 NA
ATOM     56  C   UNL A   1      43.935  26.367  30.258  1.00  0.00     0.031 C 
ATOM     57  C   UNL A   1      42.853  29.122  35.571  1.00  0.00     0.029 A 
ATOM     58  C   UNL A   1      42.750  28.718  34.249  1.00  0.00     0.049 A 
ATOM     59  H   UNL A   1      41.350  29.316  32.788  1.00  0.00     0.167 HD
ATOM     60  C   UNL A   1      43.417  27.424  32.230  1.00  0.00     0.074 A 
ATOM     61  C   UNL A   1      44.259  26.469  31.539  1.00  0.00     0.031 C 
ATOM     62  C   UNL A   1      43.577  27.781  33.530  1.00  0.00     0.037 A 
BRANCH  49  63
ATOM     63  C   UNL A   1      39.469  31.935  35.587  1.00  0.00     0.064 A 
ATOM     64  C   UNL A   1      38.507  31.492  36.509  1.00  0.00     0.173 A 
ATOM     65  C   UNL A   1      39.986  33.229  35.755  1.00  0.00     0.173 A 
ATOM     66  F   UNL A   1      37.966  30.269  36.387  1.00  0.00    -0.203 F 
ATOM     67  C   UNL A   1      38.057  32.321  37.534  1.00  0.00     0.198 A 
ATOM     68  C   UNL A   1      39.560  34.042  36.803  1.00  0.00     0.198 A 
ATOM     69  F   UNL A   1      40.908  33.705  34.906  1.00  0.00    -0.203 F 
ATOM     70  F   UNL A   1      37.096  31.894  38.365  1.00  0.00    -0.200 F 
ATOM     71  C   UNL A   1      38.590  33.591  37.685  1.00  0.00     0.200 A 
ATOM     72  F   UNL A   1      40.084  35.266  36.955  1.00  0.00    -0.200 F 
ATOM     73  F   UNL A   1      38.162  34.386  38.676  1.00  0.00    -0.200 F 
ENDBRANCH  49  63
BRANCH  50  74
ATOM     74  C   UNL A   1      42.531  26.540  27.681  1.00  0.00     0.064 A 
ATOM     75  C   UNL A   1      42.039  25.252  27.427  1.00  0.00     0.173 A 
ATOM     76  C   UNL A   1      43.481  27.057  26.789  1.00  0.00     0.173 A 
ATOM     77  F   UNL A   1      41.137  24.703  28.255  1.00  0.00    -0.203 F 
ATOM     78  C   UNL A   1      42.499  24.502  26.344  1.00  0.00     0.198 A 
ATOM     79  C   UNL A   1      43.916  26.321  25.688  1.00  0.00     0.198 A 
ATOM     80  F   UNL A   1      43.979  28.288  26.977  1.00  0.00    -0.203 F 
ATOM     81  F   UNL A   1      42.049  23.254  26.157  1.00  0.00    -0.200 F 
ATOM     82  C   UNL A   1      43.433  25.039  25.473  1.00  0.00     0.200 A 
ATOM     83  F   UNL A   1      44.804  26.853  24.837  1.00  0.00    -0.200 F 
ATOM     84  F   UNL A   1      43.872  24.322  24.431  1.00  0.00    -0.200 F 
ENDBRANCH  50  74
BRANCH  62  85
ATOM     85  C   UNL A   1      44.694  27.115  34.280  1.00  0.00     0.064 A 
ATOM     86  C   UNL A   1      44.509  25.892  34.944  1.00  0.00     0.173 A 
ATOM     87  C   UNL A   1      45.966  27.703  34.328  1.00  0.00     0.173 A 
ATOM     88  F   UNL A   1      43.307  25.295  34.939  1.00  0.00    -0.203 F 
ATOM     89  C   UNL A   1      45.544  25.309  35.669  1.00  0.00     0.198 A 
ATOM     90  C   UNL A   1      47.009  27.096  35.020  1.00  0.00     0.198 A 
ATOM     91  F   UNL A   1      46.200  28.866  33.701  1.00  0.00    -0.203 F 
ATOM     92  F   UNL A   1      45.323  24.181  36.357  1.00  0.00    -0.200 F 
ATOM     93  C   UNL A   1      46.794  25.909  35.702  1.00  0.00     0.200 A 
ATOM     94  F   UNL A   1      48.222  27.666  35.036  1.00  0.00    -0.200 F 
ATOM     95  F   UNL A   1      47.789  25.346  36.402  1.00  0.00    -0.200 F 
ENDBRANCH  62  85
ENDBRANCH  36  37
ENDBRANCH  28  31
ENDBRANCH  26  27
ENDBRANCH  25  26
ENDBRANCH  24  25
ENDBRANCH  23  24
ENDBRANCH  22  23
ENDBRANCH   1  22
TORSDOF 19
ENDMDL
