MODEL 1
REMARK VINA RESULT:      -8.1      0.000      0.000
REMARK SMILES Nc1ccc(F)cc1SCCOc1ccc(C(=O)NCCCCCCNC(=O)c2ccc(-c3c4nc(c(-c5c(F)c(F)c(F)c(F)c5F)c5ccc([nH]5)c(-c5c(F)c(F)c(F)c(F)c5F)c5nc(c(-c6c(F)c(F)c(F)c(F)c6F)c6ccc3[nH]6)C=C5)C=C4)cc2)cc1
REMARK SMILES IDX 20 1 19 2 17 3 18 4 16 6 13 7 14 8 93 9 15 10 92 11 12 12
REMARK SMILES IDX 11 13 10 14 9 15 8 16 2 17 3 18 4 19 7 20 5 21 6 22 1 23
REMARK SMILES IDX 21 26 22 27 23 28 24 29 25 30 26 31 27 32 28 34 29 35 30 36
REMARK SMILES IDX 91 37 31 38 90 39 32 40 33 41 34 42 84 43 35 44 89 45 83 46
REMARK SMILES IDX 85 47 36 48 88 49 82 50 81 51 37 53 69 54 49 55 68 56 50 57
REMARK SMILES IDX 53 58 67 59 86 60 51 61 52 62 66 64 87 65 54 66 38 67 39 68
REMARK SMILES IDX 47 69 40 70 41 71 45 72 48 73 42 74 43 75 46 76 44 77 70 78
REMARK SMILES IDX 71 79 79 80 72 81 73 82 77 83 80 84 74 85 75 86 78 87 76 88
REMARK SMILES IDX 55 89 56 90 64 91 57 92 58 93 62 94 65 95 59 96 60 97 63 98
REMARK SMILES IDX 61 99
REMARK H PARENT 19 5 1 24 1 25 26 33 85 52 53 63
REMARK Flexibility Score: inf
ROOT
ATOM      1  C   UNL A   1      43.678  23.459  31.556  1.00  0.00     0.116 C 
ENDROOT
BRANCH   1   2
ATOM      2  N   UNL A   1      44.813  23.767  32.397  1.00  0.00    -0.352 N 
ATOM      3  C   UNL A   1      45.055  24.875  33.164  1.00  0.00     0.251 C 
ATOM      4  O   UNL A   1      46.194  25.085  33.570  1.00  0.00    -0.269 OA
ATOM      5  H   UNL A   1      45.515  23.078  32.423  1.00  0.00     0.163 HD
BRANCH   3   6
ATOM      6  C   UNL A   1      43.972  25.826  33.508  1.00  0.00     0.040 A 
ATOM      7  C   UNL A   1      41.656  27.316  34.029  1.00  0.00     0.119 A 
ATOM      8  C   UNL A   1      42.043  26.298  34.900  1.00  0.00     0.047 A 
ATOM      9  C   UNL A   1      42.490  27.660  32.963  1.00  0.00     0.047 A 
ATOM     10  C   UNL A   1      43.194  25.550  34.635  1.00  0.00     0.017 A 
ATOM     11  C   UNL A   1      43.613  26.886  32.671  1.00  0.00     0.017 A 
BRANCH   7  12
ATOM     12  O   UNL A   1      40.462  27.984  34.051  1.00  0.00    -0.493 OA
BRANCH  12  13
ATOM     13  C   UNL A   1      39.851  28.292  32.794  1.00  0.00     0.241 C 
BRANCH  13  14
ATOM     14  C   UNL A   1      39.253  29.704  32.685  1.00  0.00     0.116 C 
BRANCH  14  15
ATOM     15  S   UNL A   1      38.386  30.366  34.153  1.00  0.00    -0.120 SA
BRANCH  15  16
ATOM     16  C   UNL A   1      39.354  31.740  34.810  1.00  0.00     0.033 A 
ATOM     17  C   UNL A   1      40.486  31.699  35.657  1.00  0.00     0.045 A 
ATOM     18  C   UNL A   1      41.095  32.906  36.058  1.00  0.00     0.029 A 
ATOM     19  C   UNL A   1      40.585  34.141  35.668  1.00  0.00     0.041 A 
ATOM     20  C   UNL A   1      38.844  33.003  34.443  1.00  0.00     0.056 A 
ATOM     21  C   UNL A   1      39.459  34.177  34.866  1.00  0.00     0.124 A 
ATOM     22  F   UNL A   1      38.970  35.362  34.478  1.00  0.00    -0.207 F 
BRANCH  17  23
ATOM     23  N   UNL A   1      41.170  30.521  35.978  1.00  0.00    -0.398 N 
ATOM     24  H   UNL A   1      41.469  29.916  35.261  1.00  0.00     0.156 HD
ATOM     25  H   UNL A   1      41.352  30.298  36.919  1.00  0.00     0.156 HD
ENDBRANCH  17  23
ENDBRANCH  15  16
ENDBRANCH  14  15
ENDBRANCH  13  14
ENDBRANCH  12  13
ENDBRANCH   7  12
ENDBRANCH   3   6
ENDBRANCH   1   2
BRANCH   1  26
ATOM     26  C   UNL A   1      44.055  23.466  30.079  1.00  0.00     0.021 C 
BRANCH  26  27
ATOM     27  C   UNL A   1      42.870  23.400  29.112  1.00  0.00     0.002 C 
BRANCH  27  28
ATOM     28  C   UNL A   1      43.220  23.391  27.620  1.00  0.00     0.002 C 
BRANCH  28  29
ATOM     29  C   UNL A   1      42.389  22.455  26.743  1.00  0.00     0.021 C 
BRANCH  29  30
ATOM     30  C   UNL A   1      41.208  21.796  27.440  1.00  0.00     0.116 C 
BRANCH  30  31
ATOM     31  N   UNL A   1      40.012  21.773  26.617  1.00  0.00    -0.352 N 
ATOM     32  C   UNL A   1      39.115  22.785  26.370  1.00  0.00     0.251 C 
ATOM     33  H   UNL A   1      39.817  20.915  26.175  1.00  0.00     0.163 HD
ATOM     34  O   UNL A   1      38.072  22.563  25.766  1.00  0.00    -0.269 OA
BRANCH  32  35
ATOM     35  C   UNL A   1      39.402  24.144  26.875  1.00  0.00     0.039 A 
ATOM     36  C   UNL A   1      40.059  25.078  26.072  1.00  0.00     0.014 A 
ATOM     37  C   UNL A   1      39.046  24.469  28.187  1.00  0.00     0.014 A 
ATOM     38  C   UNL A   1      40.508  26.270  26.630  1.00  0.00     0.010 A 
ATOM     39  C   UNL A   1      39.422  25.705  28.719  1.00  0.00     0.010 A 
ATOM     40  C   UNL A   1      40.196  26.595  27.960  1.00  0.00    -0.014 A 
BRANCH  40  41
ATOM     41  C   UNL A   1      40.690  27.873  28.536  1.00  0.00     0.031 A 
ATOM     42  C   UNL A   1      39.739  28.996  28.844  1.00  0.00     0.074 A 
ATOM     43  C   UNL A   1      41.998  27.996  28.831  1.00  0.00     0.049 A 
ATOM     44  N   UNL A   1      39.993  30.179  29.349  1.00  0.00    -0.248 NA
ATOM     45  C   UNL A   1      38.316  28.768  28.548  1.00  0.00     0.031 C 
ATOM     46  C   UNL A   1      43.012  26.966  28.597  1.00  0.00     0.029 A 
ATOM     47  N   UNL A   1      42.695  29.025  29.412  1.00  0.00    -0.354 N 
ATOM     48  C   UNL A   1      38.772  30.836  29.417  1.00  0.00     0.074 A 
ATOM     49  C   UNL A   1      37.778  29.936  28.876  1.00  0.00     0.031 C 
ATOM     50  C   UNL A   1      44.187  27.390  29.084  1.00  0.00     0.029 A 
ATOM     51  C   UNL A   1      44.026  28.745  29.600  1.00  0.00     0.049 A 
ATOM     52  H   UNL A   1      42.282  29.879  29.670  1.00  0.00     0.167 HD
ATOM     53  C   UNL A   1      38.505  32.073  29.901  1.00  0.00     0.037 A 
ATOM     54  C   UNL A   1      45.012  29.500  30.119  1.00  0.00     0.037 A 
ATOM     55  C   UNL A   1      39.496  32.961  30.454  1.00  0.00     0.049 A 
ATOM     56  C   UNL A   1      44.698  30.888  30.595  1.00  0.00     0.074 A 
ATOM     57  C   UNL A   1      39.321  34.233  30.970  1.00  0.00     0.029 A 
ATOM     58  N   UNL A   1      40.847  32.665  30.568  1.00  0.00    -0.354 N 
ATOM     59  N   UNL A   1      43.541  31.502  30.642  1.00  0.00    -0.248 NA
ATOM     60  C   UNL A   1      45.828  31.694  31.077  1.00  0.00     0.031 C 
ATOM     61  C   UNL A   1      40.572  34.722  31.361  1.00  0.00     0.029 A 
ATOM     62  C   UNL A   1      41.519  33.738  31.132  1.00  0.00     0.049 A 
ATOM     63  H   UNL A   1      41.265  31.819  30.288  1.00  0.00     0.167 HD
ATOM     64  C   UNL A   1      43.798  32.759  31.172  1.00  0.00     0.074 A 
ATOM     65  C   UNL A   1      45.219  32.813  31.448  1.00  0.00     0.031 C 
ATOM     66  C   UNL A   1      42.933  33.776  31.404  1.00  0.00     0.037 A 
BRANCH  53  67
ATOM     67  C   UNL A   1      37.083  32.552  29.854  1.00  0.00     0.064 A 
ATOM     68  C   UNL A   1      36.212  32.369  30.939  1.00  0.00     0.173 A 
ATOM     69  C   UNL A   1      36.606  33.263  28.742  1.00  0.00     0.173 A 
ATOM     70  F   UNL A   1      36.615  31.686  32.021  1.00  0.00    -0.203 F 
ATOM     71  C   UNL A   1      34.913  32.870  30.905  1.00  0.00     0.198 A 
ATOM     72  C   UNL A   1      35.315  33.784  28.723  1.00  0.00     0.198 A 
ATOM     73  F   UNL A   1      37.401  33.472  27.681  1.00  0.00    -0.203 F 
ATOM     74  F   UNL A   1      34.088  32.655  31.940  1.00  0.00    -0.200 F 
ATOM     75  C   UNL A   1      34.468  33.584  29.803  1.00  0.00     0.200 A 
ATOM     76  F   UNL A   1      34.892  34.485  27.662  1.00  0.00    -0.200 F 
ATOM     77  F   UNL A   1      33.222  34.077  29.780  1.00  0.00    -0.200 F 
ENDBRANCH  53  67
BRANCH  54  78
ATOM     78  C   UNL A   1      46.385  28.942  30.222  1.00  0.00     0.064 A 
ATOM     79  C   UNL A   1      46.855  28.417  31.433  1.00  0.00     0.173 A 
ATOM     80  C   UNL A   1      47.236  28.885  29.108  1.00  0.00     0.173 A 
ATOM     81  F   UNL A   1      46.084  28.468  32.529  1.00  0.00    -0.203 F 
ATOM     82  C   UNL A   1      48.127  27.857  31.526  1.00  0.00     0.198 A 
ATOM     83  C   UNL A   1      48.496  28.299  29.196  1.00  0.00     0.198 A 
ATOM     84  F   UNL A   1      46.829  29.371  27.926  1.00  0.00    -0.203 F 
ATOM     85  F   UNL A   1      48.564  27.385  32.702  1.00  0.00    -0.200 F 
ATOM     86  C   UNL A   1      48.942  27.789  30.406  1.00  0.00     0.200 A 
ATOM     87  F   UNL A   1      49.273  28.221  28.107  1.00  0.00    -0.200 F 
ATOM     88  F   UNL A   1      50.158  27.233  30.493  1.00  0.00    -0.200 F 
ENDBRANCH  54  78
BRANCH  66  89
ATOM     89  C   UNL A   1      43.490  35.031  32.004  1.00  0.00     0.064 A 
ATOM     90  C   UNL A   1      43.762  36.161  31.220  1.00  0.00     0.173 A 
ATOM     91  C   UNL A   1      43.697  35.125  33.389  1.00  0.00     0.173 A 
ATOM     92  F   UNL A   1      43.593  36.114  29.889  1.00  0.00    -0.203 F 
ATOM     93  C   UNL A   1      44.235  37.336  31.798  1.00  0.00     0.198 A 
ATOM     94  C   UNL A   1      44.144  36.309  33.967  1.00  0.00     0.198 A 
ATOM     95  F   UNL A   1      43.446  34.074  34.184  1.00  0.00    -0.203 F 
ATOM     96  F   UNL A   1      44.519  38.392  31.025  1.00  0.00    -0.200 F 
ATOM     97  C   UNL A   1      44.417  37.412  33.171  1.00  0.00     0.200 A 
ATOM     98  F   UNL A   1      44.308  36.386  35.295  1.00  0.00    -0.200 F 
ATOM     99  F   UNL A   1      44.859  38.548  33.727  1.00  0.00    -0.200 F 
ENDBRANCH  66  89
ENDBRANCH  40  41
ENDBRANCH  32  35
ENDBRANCH  30  31
ENDBRANCH  29  30
ENDBRANCH  28  29
ENDBRANCH  27  28
ENDBRANCH  26  27
ENDBRANCH   1  26
TORSDOF 19
ENDMDL
MODEL 2
REMARK VINA RESULT:      -8.0      4.217     10.743
REMARK SMILES Nc1ccc(F)cc1SCCOc1ccc(C(=O)NCCCCCCNC(=O)c2ccc(-c3c4nc(c(-c5c(F)c(F)c(F)c(F)c5F)c5ccc([nH]5)c(-c5c(F)c(F)c(F)c(F)c5F)c5nc(c(-c6c(F)c(F)c(F)c(F)c6F)c6ccc3[nH]6)C=C5)C=C4)cc2)cc1
REMARK SMILES IDX 20 1 19 2 17 3 18 4 16 6 13 7 14 8 93 9 15 10 92 11 12 12
REMARK SMILES IDX 11 13 10 14 9 15 8 16 2 17 3 18 4 19 7 20 5 21 6 22 1 23
REMARK SMILES IDX 21 26 22 27 23 28 24 29 25 30 26 31 27 32 28 34 29 35 30 36
REMARK SMILES IDX 91 37 31 38 90 39 32 40 33 41 34 42 84 43 35 44 89 45 83 46
REMARK SMILES IDX 85 47 36 48 88 49 82 50 81 51 37 53 69 54 49 55 68 56 50 57
REMARK SMILES IDX 53 58 67 59 86 60 51 61 52 62 66 64 87 65 54 66 38 67 39 68
REMARK SMILES IDX 47 69 40 70 41 71 45 72 48 73 42 74 43 75 46 76 44 77 70 78
REMARK SMILES IDX 71 79 79 80 72 81 73 82 77 83 80 84 74 85 75 86 78 87 76 88
REMARK SMILES IDX 55 89 56 90 64 91 57 92 58 93 62 94 65 95 59 96 60 97 63 98
REMARK SMILES IDX 61 99
REMARK H PARENT 19 5 1 24 1 25 26 33 85 52 53 63
REMARK Flexibility Score: inf
ROOT
ATOM      1  C   UNL A   1      37.833  20.675  25.424  1.00  0.00     0.116 C 
ENDROOT
BRANCH   1   2
ATOM      2  N   UNL A   1      38.271  21.918  26.018  1.00  0.00    -0.352 N 
ATOM      3  C   UNL A   1      37.827  23.194  25.797  1.00  0.00     0.251 C 
ATOM      4  O   UNL A   1      38.514  24.140  26.172  1.00  0.00    -0.269 OA
ATOM      5  H   UNL A   1      38.994  21.835  26.681  1.00  0.00     0.163 HD
BRANCH   3   6
ATOM      6  C   UNL A   1      36.539  23.455  25.112  1.00  0.00     0.040 A 
ATOM      7  C   UNL A   1      34.332  24.195  23.552  1.00  0.00     0.119 A 
ATOM      8  C   UNL A   1      35.234  23.243  23.079  1.00  0.00     0.047 A 
ATOM      9  C   UNL A   1      34.473  24.688  24.851  1.00  0.00     0.047 A 
ATOM     10  C   UNL A   1      36.340  22.880  23.854  1.00  0.00     0.017 A 
ATOM     11  C   UNL A   1      35.599  24.362  25.607  1.00  0.00     0.017 A 
BRANCH   7  12
ATOM     12  O   UNL A   1      33.333  24.788  22.828  1.00  0.00    -0.493 OA
BRANCH  12  13
ATOM     13  C   UNL A   1      31.983  24.470  23.178  1.00  0.00     0.241 C 
BRANCH  13  14
ATOM     14  C   UNL A   1      31.640  22.972  23.176  1.00  0.00     0.116 C 
BRANCH  14  15
ATOM     15  S   UNL A   1      31.789  22.073  24.763  1.00  0.00    -0.120 SA
BRANCH  15  16
ATOM     16  C   UNL A   1      32.679  20.533  24.458  1.00  0.00     0.033 A 
ATOM     17  C   UNL A   1      33.874  20.068  25.056  1.00  0.00     0.045 A 
ATOM     18  C   UNL A   1      34.405  18.822  24.664  1.00  0.00     0.029 A 
ATOM     19  C   UNL A   1      33.799  18.053  23.674  1.00  0.00     0.041 A 
ATOM     20  C   UNL A   1      32.093  19.745  23.443  1.00  0.00     0.056 A 
ATOM     21  C   UNL A   1      32.649  18.527  23.069  1.00  0.00     0.124 A 
ATOM     22  F   UNL A   1      32.056  17.787  22.124  1.00  0.00    -0.207 F 
BRANCH  17  23
ATOM     23  N   UNL A   1      34.473  20.679  26.163  1.00  0.00    -0.398 N 
ATOM     24  H   UNL A   1      35.398  21.010  26.100  1.00  0.00     0.156 HD
ATOM     25  H   UNL A   1      33.969  20.779  27.003  1.00  0.00     0.156 HD
ENDBRANCH  17  23
ENDBRANCH  15  16
ENDBRANCH  14  15
ENDBRANCH  13  14
ENDBRANCH  12  13
ENDBRANCH   7  12
ENDBRANCH   3   6
ENDBRANCH   1   2
BRANCH   1  26
ATOM     26  C   UNL A   1      39.012  19.775  25.073  1.00  0.00     0.021 C 
BRANCH  26  27
ATOM     27  C   UNL A   1      39.983  19.508  26.225  1.00  0.00     0.002 C 
BRANCH  27  28
ATOM     28  C   UNL A   1      41.474  19.657  25.896  1.00  0.00     0.002 C 
BRANCH  28  29
ATOM     29  C   UNL A   1      42.153  20.919  26.425  1.00  0.00     0.021 C 
BRANCH  29  30
ATOM     30  C   UNL A   1      41.822  22.196  25.668  1.00  0.00     0.116 C 
BRANCH  30  31
ATOM     31  N   UNL A   1      42.979  22.774  25.010  1.00  0.00    -0.352 N 
ATOM     32  C   UNL A   1      43.491  24.044  25.123  1.00  0.00     0.251 C 
ATOM     33  H   UNL A   1      43.464  22.174  24.397  1.00  0.00     0.163 HD
ATOM     34  O   UNL A   1      44.394  24.424  24.386  1.00  0.00    -0.269 OA
BRANCH  32  35
ATOM     35  C   UNL A   1      42.916  24.968  26.123  1.00  0.00     0.039 A 
ATOM     36  C   UNL A   1      43.319  26.304  26.173  1.00  0.00     0.014 A 
ATOM     37  C   UNL A   1      41.994  24.475  27.050  1.00  0.00     0.014 A 
ATOM     38  C   UNL A   1      42.932  27.100  27.245  1.00  0.00     0.010 A 
ATOM     39  C   UNL A   1      41.536  25.304  28.078  1.00  0.00     0.010 A 
ATOM     40  C   UNL A   1      42.038  26.608  28.211  1.00  0.00    -0.014 A 
BRANCH  40  41
ATOM     41  C   UNL A   1      41.640  27.475  29.350  1.00  0.00     0.031 A 
ATOM     42  C   UNL A   1      42.471  27.529  30.602  1.00  0.00     0.074 A 
ATOM     43  C   UNL A   1      40.551  28.257  29.228  1.00  0.00     0.049 A 
ATOM     44  N   UNL A   1      42.277  28.228  31.693  1.00  0.00    -0.248 NA
ATOM     45  C   UNL A   1      43.679  26.690  30.640  1.00  0.00     0.031 C 
ATOM     46  C   UNL A   1      39.679  28.307  28.054  1.00  0.00     0.029 A 
ATOM     47  N   UNL A   1      40.006  29.177  30.088  1.00  0.00    -0.354 N 
ATOM     48  C   UNL A   1      43.323  27.904  32.546  1.00  0.00     0.074 A 
ATOM     49  C   UNL A   1      44.137  26.923  31.863  1.00  0.00     0.031 C 
ATOM     50  C   UNL A   1      38.746  29.250  28.240  1.00  0.00     0.029 A 
ATOM     51  C   UNL A   1      38.909  29.822  29.572  1.00  0.00     0.049 A 
ATOM     52  H   UNL A   1      40.365  29.358  30.985  1.00  0.00     0.167 HD
ATOM     53  C   UNL A   1      43.586  28.393  33.783  1.00  0.00     0.037 A 
ATOM     54  C   UNL A   1      38.113  30.762  30.116  1.00  0.00     0.037 A 
ATOM     55  C   UNL A   1      42.782  29.382  34.454  1.00  0.00     0.049 A 
ATOM     56  C   UNL A   1      38.395  31.244  31.509  1.00  0.00     0.074 A 
ATOM     57  C   UNL A   1      42.969  29.939  35.706  1.00  0.00     0.029 A 
ATOM     58  N   UNL A   1      41.640  29.965  33.923  1.00  0.00    -0.354 N 
ATOM     59  N   UNL A   1      39.381  30.920  32.310  1.00  0.00    -0.248 NA
ATOM     60  C   UNL A   1      37.448  32.211  32.080  1.00  0.00     0.031 C 
ATOM     61  C   UNL A   1      41.919  30.831  35.951  1.00  0.00     0.029 A 
ATOM     62  C   UNL A   1      41.104  30.865  34.831  1.00  0.00     0.049 A 
ATOM     63  H   UNL A   1      41.266  29.767  33.034  1.00  0.00     0.167 HD
ATOM     64  C   UNL A   1      39.184  31.652  33.472  1.00  0.00     0.074 A 
ATOM     65  C   UNL A   1      37.993  32.452  33.265  1.00  0.00     0.031 C 
ATOM     66  C   UNL A   1      39.921  31.656  34.609  1.00  0.00     0.037 A 
BRANCH  53  67
ATOM     67  C   UNL A   1      44.794  27.866  34.502  1.00  0.00     0.064 A 
ATOM     68  C   UNL A   1      46.036  28.513  34.420  1.00  0.00     0.173 A 
ATOM     69  C   UNL A   1      44.693  26.743  35.339  1.00  0.00     0.173 A 
ATOM     70  F   UNL A   1      46.189  29.583  33.625  1.00  0.00    -0.203 F 
ATOM     71  C   UNL A   1      47.135  28.047  35.138  1.00  0.00     0.198 A 
ATOM     72  C   UNL A   1      45.786  26.296  36.075  1.00  0.00     0.198 A 
ATOM     73  F   UNL A   1      43.525  26.093  35.459  1.00  0.00    -0.203 F 
ATOM     74  F   UNL A   1      48.320  28.663  35.019  1.00  0.00    -0.200 F 
ATOM     75  C   UNL A   1      47.008  26.946  35.972  1.00  0.00     0.200 A 
ATOM     76  F   UNL A   1      45.658  25.240  36.890  1.00  0.00    -0.200 F 
ATOM     77  F   UNL A   1      48.062  26.509  36.673  1.00  0.00    -0.200 F 
ENDBRANCH  53  67
BRANCH  54  78
ATOM     78  C   UNL A   1      36.983  31.313  29.325  1.00  0.00     0.064 A 
ATOM     79  C   UNL A   1      35.856  30.528  29.045  1.00  0.00     0.173 A 
ATOM     80  C   UNL A   1      36.988  32.639  28.869  1.00  0.00     0.173 A 
ATOM     81  F   UNL A   1      35.815  29.249  29.443  1.00  0.00    -0.203 F 
ATOM     82  C   UNL A   1      34.776  31.052  28.337  1.00  0.00     0.198 A 
ATOM     83  C   UNL A   1      35.897  33.169  28.187  1.00  0.00     0.198 A 
ATOM     84  F   UNL A   1      38.043  33.431  29.116  1.00  0.00    -0.203 F 
ATOM     85  F   UNL A   1      33.721  30.274  28.059  1.00  0.00    -0.200 F 
ATOM     86  C   UNL A   1      34.792  32.373  27.918  1.00  0.00     0.200 A 
ATOM     87  F   UNL A   1      35.909  34.451  27.798  1.00  0.00    -0.200 F 
ATOM     88  F   UNL A   1      33.746  32.880  27.253  1.00  0.00    -0.200 F 
ENDBRANCH  54  78
BRANCH  66  89
ATOM     89  C   UNL A   1      39.478  32.567  35.714  1.00  0.00     0.064 A 
ATOM     90  C   UNL A   1      38.584  32.137  36.705  1.00  0.00     0.173 A 
ATOM     91  C   UNL A   1      40.002  33.865  35.818  1.00  0.00     0.173 A 
ATOM     92  F   UNL A   1      38.046  30.910  36.640  1.00  0.00    -0.203 F 
ATOM     93  C   UNL A   1      38.219  32.979  37.752  1.00  0.00     0.198 A 
ATOM     94  C   UNL A   1      39.656  34.694  36.880  1.00  0.00     0.198 A 
ATOM     95  F   UNL A   1      40.866  34.321  34.898  1.00  0.00    -0.203 F 
ATOM     96  F   UNL A   1      37.337  32.559  38.669  1.00  0.00    -0.200 F 
ATOM     97  C   UNL A   1      38.761  34.252  37.844  1.00  0.00     0.200 A 
ATOM     98  F   UNL A   1      40.189  35.919  36.975  1.00  0.00    -0.200 F 
ATOM     99  F   UNL A   1      38.419  35.056  38.860  1.00  0.00    -0.200 F 
ENDBRANCH  66  89
ENDBRANCH  40  41
ENDBRANCH  32  35
ENDBRANCH  30  31
ENDBRANCH  29  30
ENDBRANCH  28  29
ENDBRANCH  27  28
ENDBRANCH  26  27
ENDBRANCH   1  26
TORSDOF 19
ENDMDL
MODEL 3
REMARK VINA RESULT:      -8.0      4.057      9.208
REMARK SMILES Nc1ccc(F)cc1SCCOc1ccc(C(=O)NCCCCCCNC(=O)c2ccc(-c3c4nc(c(-c5c(F)c(F)c(F)c(F)c5F)c5ccc([nH]5)c(-c5c(F)c(F)c(F)c(F)c5F)c5nc(c(-c6c(F)c(F)c(F)c(F)c6F)c6ccc3[nH]6)C=C5)C=C4)cc2)cc1
REMARK SMILES IDX 20 1 19 2 17 3 18 4 16 6 13 7 14 8 93 9 15 10 92 11 12 12
REMARK SMILES IDX 11 13 10 14 9 15 8 16 2 17 3 18 4 19 7 20 5 21 6 22 1 23
REMARK SMILES IDX 21 26 22 27 23 28 24 29 25 30 26 31 27 32 28 34 29 35 30 36
REMARK SMILES IDX 91 37 31 38 90 39 32 40 33 41 34 42 84 43 35 44 89 45 83 46
REMARK SMILES IDX 85 47 36 48 88 49 82 50 81 51 37 53 69 54 49 55 68 56 50 57
REMARK SMILES IDX 53 58 67 59 86 60 51 61 52 62 66 64 87 65 54 66 38 67 39 68
REMARK SMILES IDX 47 69 40 70 41 71 45 72 48 73 42 74 43 75 46 76 44 77 70 78
REMARK SMILES IDX 71 79 79 80 72 81 73 82 77 83 80 84 74 85 75 86 78 87 76 88
REMARK SMILES IDX 55 89 56 90 64 91 57 92 58 93 62 94 65 95 59 96 60 97 63 98
REMARK SMILES IDX 61 99
REMARK H PARENT 19 5 1 24 1 25 26 33 85 52 53 63
REMARK Flexibility Score: inf
ROOT
ATOM      1  C   UNL A   1      33.210  22.643  25.747  1.00  0.00     0.116 C 
ENDROOT
BRANCH   1   2
ATOM      2  N   UNL A   1      33.424  22.751  24.321  1.00  0.00    -0.352 N 
ATOM      3  C   UNL A   1      34.577  23.007  23.629  1.00  0.00     0.251 C 
ATOM      4  O   UNL A   1      34.505  23.350  22.452  1.00  0.00    -0.269 OA
ATOM      5  H   UNL A   1      32.622  22.620  23.766  1.00  0.00     0.163 HD
BRANCH   3   6
ATOM      6  C   UNL A   1      35.906  22.882  24.271  1.00  0.00     0.040 A 
ATOM      7  C   UNL A   1      38.218  22.414  25.785  1.00  0.00     0.119 A 
ATOM      8  C   UNL A   1      37.699  21.407  24.972  1.00  0.00     0.047 A 
ATOM      9  C   UNL A   1      37.645  23.687  25.750  1.00  0.00     0.047 A 
ATOM     10  C   UNL A   1      36.541  21.639  24.223  1.00  0.00     0.017 A 
ATOM     11  C   UNL A   1      36.464  23.907  25.040  1.00  0.00     0.017 A 
BRANCH   7  12
ATOM     12  O   UNL A   1      39.211  22.267  26.715  1.00  0.00    -0.493 OA
BRANCH  12  13
ATOM     13  C   UNL A   1      40.009  21.082  26.650  1.00  0.00     0.241 C 
BRANCH  13  14
ATOM     14  C   UNL A   1      41.427  21.276  26.089  1.00  0.00     0.116 C 
BRANCH  14  15
ATOM     15  S   UNL A   1      42.509  19.803  26.008  1.00  0.00    -0.120 SA
BRANCH  15  16
ATOM     16  C   UNL A   1      44.114  20.316  25.361  1.00  0.00     0.033 A 
ATOM     17  C   UNL A   1      44.961  19.636  24.455  1.00  0.00     0.045 A 
ATOM     18  C   UNL A   1      46.188  20.223  24.081  1.00  0.00     0.029 A 
ATOM     19  C   UNL A   1      46.601  21.442  24.611  1.00  0.00     0.041 A 
ATOM     20  C   UNL A   1      44.563  21.541  25.900  1.00  0.00     0.056 A 
ATOM     21  C   UNL A   1      45.785  22.088  25.521  1.00  0.00     0.124 A 
ATOM     22  F   UNL A   1      46.172  23.266  26.026  1.00  0.00    -0.207 F 
BRANCH  17  23
ATOM     23  N   UNL A   1      44.577  18.492  23.747  1.00  0.00    -0.398 N 
ATOM     24  H   UNL A   1      45.232  18.021  23.182  1.00  0.00     0.156 HD
ATOM     25  H   UNL A   1      43.653  18.160  23.813  1.00  0.00     0.156 HD
ENDBRANCH  17  23
ENDBRANCH  15  16
ENDBRANCH  14  15
ENDBRANCH  13  14
ENDBRANCH  12  13
ENDBRANCH   7  12
ENDBRANCH   3   6
ENDBRANCH   1   2
BRANCH   1  26
ATOM     26  C   UNL A   1      32.653  23.935  26.331  1.00  0.00     0.021 C 
BRANCH  26  27
ATOM     27  C   UNL A   1      32.720  25.145  25.397  1.00  0.00     0.002 C 
BRANCH  27  28
ATOM     28  C   UNL A   1      33.683  26.263  25.813  1.00  0.00     0.002 C 
BRANCH  28  29
ATOM     29  C   UNL A   1      33.397  27.645  25.228  1.00  0.00     0.021 C 
BRANCH  29  30
ATOM     30  C   UNL A   1      34.212  28.782  25.826  1.00  0.00     0.116 C 
BRANCH  30  31
ATOM     31  N   UNL A   1      33.414  29.964  26.095  1.00  0.00    -0.352 N 
ATOM     32  C   UNL A   1      33.598  30.929  27.056  1.00  0.00     0.251 C 
ATOM     33  H   UNL A   1      32.632  30.091  25.509  1.00  0.00     0.163 HD
ATOM     34  O   UNL A   1      32.748  31.792  27.248  1.00  0.00    -0.269 OA
BRANCH  32  35
ATOM     35  C   UNL A   1      34.820  30.897  27.887  1.00  0.00     0.039 A 
ATOM     36  C   UNL A   1      35.691  31.988  27.915  1.00  0.00     0.014 A 
ATOM     37  C   UNL A   1      35.116  29.740  28.612  1.00  0.00     0.014 A 
ATOM     38  C   UNL A   1      36.932  31.862  28.528  1.00  0.00     0.010 A 
ATOM     39  C   UNL A   1      36.328  29.648  29.301  1.00  0.00     0.010 A 
ATOM     40  C   UNL A   1      37.265  30.689  29.226  1.00  0.00    -0.014 A 
BRANCH  40  41
ATOM     41  C   UNL A   1      38.599  30.575  29.870  1.00  0.00     0.031 A 
ATOM     42  C   UNL A   1      38.858  31.187  31.219  1.00  0.00     0.074 A 
ATOM     43  C   UNL A   1      39.565  29.868  29.254  1.00  0.00     0.049 A 
ATOM     44  N   UNL A   1      39.958  31.185  31.930  1.00  0.00    -0.248 NA
ATOM     45  C   UNL A   1      37.737  31.896  31.857  1.00  0.00     0.031 C 
ATOM     46  C   UNL A   1      39.425  29.210  27.954  1.00  0.00     0.029 A 
ATOM     47  N   UNL A   1      40.843  29.561  29.647  1.00  0.00    -0.354 N 
ATOM     48  C   UNL A   1      39.668  31.900  33.085  1.00  0.00     0.074 A 
ATOM     49  C   UNL A   1      38.298  32.347  32.972  1.00  0.00     0.031 C 
ATOM     50  C   UNL A   1      40.547  28.529  27.684  1.00  0.00     0.029 A 
ATOM     51  C   UNL A   1      41.510  28.757  28.755  1.00  0.00     0.049 A 
ATOM     52  H   UNL A   1      41.242  29.884  30.486  1.00  0.00     0.167 HD
ATOM     53  C   UNL A   1      40.471  32.146  34.149  1.00  0.00     0.037 A 
ATOM     54  C   UNL A   1      42.764  28.269  28.789  1.00  0.00     0.037 A 
ATOM     55  C   UNL A   1      41.831  31.684  34.266  1.00  0.00     0.049 A 
ATOM     56  C   UNL A   1      43.650  28.605  29.954  1.00  0.00     0.074 A 
ATOM     57  C   UNL A   1      42.722  31.882  35.305  1.00  0.00     0.029 A 
ATOM     58  N   UNL A   1      42.493  30.926  33.310  1.00  0.00    -0.354 N 
ATOM     59  N   UNL A   1      43.367  29.292  31.034  1.00  0.00    -0.248 NA
ATOM     60  C   UNL A   1      45.032  28.110  29.899  1.00  0.00     0.031 C 
ATOM     61  C   UNL A   1      43.936  31.278  34.963  1.00  0.00     0.029 A 
ATOM     62  C   UNL A   1      43.787  30.662  33.731  1.00  0.00     0.049 A 
ATOM     63  H   UNL A   1      42.101  30.622  32.459  1.00  0.00     0.167 HD
ATOM     64  C   UNL A   1      44.528  29.300  31.794  1.00  0.00     0.074 A 
ATOM     65  C   UNL A   1      45.514  28.534  31.060  1.00  0.00     0.031 C 
ATOM     66  C   UNL A   1      44.756  29.894  32.991  1.00  0.00     0.037 A 
BRANCH  53  67
ATOM     67  C   UNL A   1      39.907  32.956  35.280  1.00  0.00     0.064 A 
ATOM     68  C   UNL A   1      39.218  32.352  36.342  1.00  0.00     0.173 A 
ATOM     69  C   UNL A   1      40.118  34.343  35.338  1.00  0.00     0.173 A 
ATOM     70  F   UNL A   1      38.979  31.032  36.329  1.00  0.00    -0.203 F 
ATOM     71  C   UNL A   1      38.750  33.109  37.414  1.00  0.00     0.198 A 
ATOM     72  C   UNL A   1      39.671  35.092  36.423  1.00  0.00     0.198 A 
ATOM     73  F   UNL A   1      40.777  34.969  34.351  1.00  0.00    -0.203 F 
ATOM     74  F   UNL A   1      38.066  32.514  38.402  1.00  0.00    -0.200 F 
ATOM     75  C   UNL A   1      38.984  34.475  37.459  1.00  0.00     0.200 A 
ATOM     76  F   UNL A   1      39.910  36.409  36.471  1.00  0.00    -0.200 F 
ATOM     77  F   UNL A   1      38.546  35.198  38.499  1.00  0.00    -0.200 F 
ENDBRANCH  53  67
BRANCH  54  78
ATOM     78  C   UNL A   1      43.241  27.398  27.685  1.00  0.00     0.064 A 
ATOM     79  C   UNL A   1      42.918  26.035  27.657  1.00  0.00     0.173 A 
ATOM     80  C   UNL A   1      43.992  27.916  26.619  1.00  0.00     0.173 A 
ATOM     81  F   UNL A   1      42.219  25.492  28.664  1.00  0.00    -0.203 F 
ATOM     82  C   UNL A   1      43.329  25.222  26.603  1.00  0.00     0.198 A 
ATOM     83  C   UNL A   1      44.378  27.108  25.553  1.00  0.00     0.198 A 
ATOM     84  F   UNL A   1      44.322  29.216  26.599  1.00  0.00    -0.203 F 
ATOM     85  F   UNL A   1      43.030  23.916  26.612  1.00  0.00    -0.200 F 
ATOM     86  C   UNL A   1      44.049  25.760  25.547  1.00  0.00     0.200 A 
ATOM     87  F   UNL A   1      45.059  27.636  24.526  1.00  0.00    -0.200 F 
ATOM     88  F   UNL A   1      44.428  24.981  24.526  1.00  0.00    -0.200 F 
ENDBRANCH  54  78
BRANCH  66  89
ATOM     89  C   UNL A   1      46.116  29.725  33.597  1.00  0.00     0.064 A 
ATOM     90  C   UNL A   1      46.415  28.643  34.436  1.00  0.00     0.173 A 
ATOM     91  C   UNL A   1      47.149  30.622  33.285  1.00  0.00     0.173 A 
ATOM     92  F   UNL A   1      45.456  27.767  34.774  1.00  0.00    -0.203 F 
ATOM     93  C   UNL A   1      47.695  28.473  34.954  1.00  0.00     0.198 A 
ATOM     94  C   UNL A   1      48.434  30.435  33.783  1.00  0.00     0.198 A 
ATOM     95  F   UNL A   1      46.915  31.671  32.481  1.00  0.00    -0.203 F 
ATOM     96  F   UNL A   1      47.950  27.450  35.782  1.00  0.00    -0.200 F 
ATOM     97  C   UNL A   1      48.706  29.362  34.620  1.00  0.00     0.200 A 
ATOM     98  F   UNL A   1      49.413  31.287  33.451  1.00  0.00    -0.200 F 
ATOM     99  F   UNL A   1      49.942  29.189  35.110  1.00  0.00    -0.200 F 
ENDBRANCH  66  89
ENDBRANCH  40  41
ENDBRANCH  32  35
ENDBRANCH  30  31
ENDBRANCH  29  30
ENDBRANCH  28  29
ENDBRANCH  27  28
ENDBRANCH  26  27
ENDBRANCH   1  26
TORSDOF 19
ENDMDL
