MODEL 1
REMARK VINA RESULT:     -11.6      0.000      0.000
REMARK SMILES O=C(NCCCCCCNC(=O)[C@@]1([NH2+]C2CC2)CCC[C@H]1CCn1ccnc1)c1ccc(-c2c3nc(c(-c4c(F)c(F)c(F)c(F)c4F)c4ccc([nH]4)c(-c4c(F)c(F)c(F)c(F)c4F)c4nc(c(-c5c(F)c(F)c(F)c(F)c5F)c5ccc2[nH]5)C=C4)C=C3)cc1
REMARK SMILES IDX 7 1 6 2 5 3 4 4 3 5 1 6 2 7 29 9 30 10 91 11 31 12 90 13
REMARK SMILES IDX 32 14 33 15 34 16 84 17 35 18 89 19 83 20 85 21 36 22 88 23
REMARK SMILES IDX 82 24 81 25 37 27 69 28 49 29 68 30 50 31 53 32 67 33 86 34
REMARK SMILES IDX 51 35 52 36 66 38 87 39 54 40 38 41 39 42 47 43 40 44 41 45
REMARK SMILES IDX 45 46 48 47 42 48 43 49 46 50 44 51 70 52 71 53 79 54 72 55
REMARK SMILES IDX 73 56 77 57 80 58 74 59 75 60 78 61 76 62 55 63 56 64 64 65
REMARK SMILES IDX 57 66 58 67 62 68 65 69 59 70 60 71 63 72 61 73 8 74 9 75
REMARK SMILES IDX 10 76 11 77 12 79 13 80 18 81 21 82 19 83 20 84 14 85 15 88
REMARK SMILES IDX 16 89 17 90 22 91 23 92 24 93 25 94 28 95 26 96 27 97
REMARK H PARENT 3 8 85 26 53 37 10 78 14 86 14 87
REMARK Flexibility Score: inf
ROOT
ATOM      1  C   UNL A   1      34.086  23.979  25.124  1.00  0.00     0.002 C 
ENDROOT
BRANCH   1   2
ATOM      2  C   UNL A   1      34.814  23.088  24.116  1.00  0.00     0.002 C 
BRANCH   2   3
ATOM      3  C   UNL A   1      36.315  22.871  24.338  1.00  0.00     0.021 C 
BRANCH   3   4
ATOM      4  C   UNL A   1      36.755  22.439  25.737  1.00  0.00     0.116 C 
BRANCH   4   5
ATOM      5  N   UNL A   1      37.974  21.656  25.816  1.00  0.00    -0.352 N 
ATOM      6  O   UNL A   1      40.032  20.962  26.309  1.00  0.00    -0.269 OA
ATOM      7  C   UNL A   1      39.222  21.893  26.321  1.00  0.00     0.251 C 
ATOM      8  H   UNL A   1      37.882  20.760  25.420  1.00  0.00     0.163 HD
BRANCH   7   9
ATOM      9  C   UNL A   1      39.673  23.216  26.811  1.00  0.00     0.039 A 
ATOM     10  C   UNL A   1      39.049  24.425  26.500  1.00  0.00     0.014 A 
ATOM     11  C   UNL A   1      40.779  23.215  27.677  1.00  0.00     0.014 A 
ATOM     12  C   UNL A   1      39.579  25.622  26.969  1.00  0.00     0.010 A 
ATOM     13  C   UNL A   1      41.288  24.405  28.180  1.00  0.00     0.010 A 
ATOM     14  C   UNL A   1      40.699  25.612  27.808  1.00  0.00    -0.014 A 
BRANCH  14  15
ATOM     15  C   UNL A   1      41.059  26.863  28.479  1.00  0.00     0.031 A 
ATOM     16  C   UNL A   1      42.296  27.505  27.940  1.00  0.00     0.074 A 
ATOM     17  C   UNL A   1      40.266  27.502  29.361  1.00  0.00     0.049 A 
ATOM     18  N   UNL A   1      43.356  27.882  28.579  1.00  0.00    -0.248 NA
ATOM     19  C   UNL A   1      42.394  27.666  26.478  1.00  0.00     0.031 C 
ATOM     20  C   UNL A   1      38.897  27.146  29.735  1.00  0.00     0.029 A 
ATOM     21  N   UNL A   1      40.470  28.685  30.019  1.00  0.00    -0.354 N 
ATOM     22  C   UNL A   1      44.182  28.481  27.629  1.00  0.00     0.074 A 
ATOM     23  C   UNL A   1      43.611  28.192  26.343  1.00  0.00     0.031 C 
ATOM     24  C   UNL A   1      38.322  28.193  30.366  1.00  0.00     0.029 A 
ATOM     25  C   UNL A   1      39.310  29.247  30.537  1.00  0.00     0.049 A 
ATOM     26  H   UNL A   1      41.358  29.100  30.114  1.00  0.00     0.167 HD
ATOM     27  C   UNL A   1      45.132  29.387  27.991  1.00  0.00     0.037 A 
ATOM     28  C   UNL A   1      39.148  30.510  31.003  1.00  0.00     0.037 A 
ATOM     29  C   UNL A   1      45.503  29.231  29.373  1.00  0.00     0.049 A 
ATOM     30  C   UNL A   1      40.490  31.068  31.291  1.00  0.00     0.074 A 
ATOM     31  C   UNL A   1      46.041  28.214  30.138  1.00  0.00     0.029 A 
ATOM     32  N   UNL A   1      45.031  30.156  30.265  1.00  0.00    -0.354 N 
ATOM     33  N   UNL A   1      41.252  30.688  32.276  1.00  0.00    -0.248 NA
ATOM     34  C   UNL A   1      41.153  31.838  30.250  1.00  0.00     0.031 C 
ATOM     35  C   UNL A   1      45.457  28.369  31.431  1.00  0.00     0.029 A 
ATOM     36  C   UNL A   1      44.632  29.493  31.391  1.00  0.00     0.049 A 
ATOM     37  H   UNL A   1      44.987  31.129  30.121  1.00  0.00     0.167 HD
ATOM     38  C   UNL A   1      42.538  30.770  31.769  1.00  0.00     0.074 A 
ATOM     39  C   UNL A   1      42.425  31.617  30.587  1.00  0.00     0.031 C 
ATOM     40  C   UNL A   1      43.505  29.906  32.192  1.00  0.00     0.037 A 
BRANCH  27  41
ATOM     41  C   UNL A   1      45.383  30.680  27.235  1.00  0.00     0.064 A 
ATOM     42  C   UNL A   1      46.716  31.057  26.962  1.00  0.00     0.173 A 
ATOM     43  C   UNL A   1      44.425  31.708  27.084  1.00  0.00     0.173 A 
ATOM     44  F   UNL A   1      47.715  30.168  27.072  1.00  0.00    -0.203 F 
ATOM     45  C   UNL A   1      47.069  32.381  26.689  1.00  0.00     0.198 A 
ATOM     46  C   UNL A   1      44.777  33.017  26.758  1.00  0.00     0.198 A 
ATOM     47  F   UNL A   1      43.129  31.528  27.354  1.00  0.00    -0.203 F 
ATOM     48  F   UNL A   1      48.363  32.718  26.596  1.00  0.00    -0.200 F 
ATOM     49  C   UNL A   1      46.101  33.362  26.602  1.00  0.00     0.200 A 
ATOM     50  F   UNL A   1      43.823  33.956  26.691  1.00  0.00    -0.200 F 
ATOM     51  F   UNL A   1      46.442  34.644  26.420  1.00  0.00    -0.200 F 
ENDBRANCH  27  41
BRANCH  28  52
ATOM     52  C   UNL A   1      37.939  31.372  30.988  1.00  0.00     0.064 A 
ATOM     53  C   UNL A   1      37.342  31.762  29.777  1.00  0.00     0.173 A 
ATOM     54  C   UNL A   1      37.187  31.603  32.156  1.00  0.00     0.173 A 
ATOM     55  F   UNL A   1      37.966  31.540  28.611  1.00  0.00    -0.203 F 
ATOM     56  C   UNL A   1      36.059  32.320  29.735  1.00  0.00     0.198 A 
ATOM     57  C   UNL A   1      35.914  32.173  32.114  1.00  0.00     0.198 A 
ATOM     58  F   UNL A   1      37.627  31.193  33.353  1.00  0.00    -0.203 F 
ATOM     59  F   UNL A   1      35.495  32.613  28.554  1.00  0.00    -0.200 F 
ATOM     60  C   UNL A   1      35.342  32.516  30.903  1.00  0.00     0.200 A 
ATOM     61  F   UNL A   1      35.218  32.326  33.250  1.00  0.00    -0.200 F 
ATOM     62  F   UNL A   1      34.091  32.993  30.860  1.00  0.00    -0.200 F 
ENDBRANCH  28  52
BRANCH  40  63
ATOM     63  C   UNL A   1      43.259  29.160  33.469  1.00  0.00     0.064 A 
ATOM     64  C   UNL A   1      42.482  27.994  33.574  1.00  0.00     0.173 A 
ATOM     65  C   UNL A   1      43.925  29.600  34.623  1.00  0.00     0.173 A 
ATOM     66  F   UNL A   1      41.898  27.451  32.497  1.00  0.00    -0.203 F 
ATOM     67  C   UNL A   1      42.330  27.339  34.795  1.00  0.00     0.198 A 
ATOM     68  C   UNL A   1      43.807  28.919  35.828  1.00  0.00     0.198 A 
ATOM     69  F   UNL A   1      44.723  30.679  34.568  1.00  0.00    -0.203 F 
ATOM     70  F   UNL A   1      41.556  26.247  34.879  1.00  0.00    -0.200 F 
ATOM     71  C   UNL A   1      42.997  27.798  35.919  1.00  0.00     0.200 A 
ATOM     72  F   UNL A   1      44.492  29.340  36.900  1.00  0.00    -0.200 F 
ATOM     73  F   UNL A   1      42.877  27.150  37.084  1.00  0.00    -0.200 F 
ENDBRANCH  40  63
ENDBRANCH  14  15
ENDBRANCH   7   9
ENDBRANCH   4   5
ENDBRANCH   3   4
ENDBRANCH   2   3
ENDBRANCH   1   2
BRANCH   1  74
ATOM     74  C   UNL A   1      32.661  23.557  25.480  1.00  0.00     0.021 C 
BRANCH  74  75
ATOM     75  C   UNL A   1      31.660  23.326  24.315  1.00  0.00     0.116 C 
BRANCH  75  76
ATOM     76  N   UNL A   1      30.754  24.478  24.199  1.00  0.00    -0.351 N 
ATOM     77  C   UNL A   1      30.656  25.821  24.237  1.00  0.00     0.281 C 
ATOM     78  H   UNL A   1      29.853  24.125  24.020  1.00  0.00     0.163 HD
ATOM     79  O   UNL A   1      29.453  26.107  24.445  1.00  0.00    -0.268 OA
BRANCH  77  80
ATOM     80  C   UNL A   1      31.661  27.048  23.988  1.00  0.00     0.178 C 
ATOM     81  C   UNL A   1      32.559  26.563  22.801  1.00  0.00     0.079 C 
ATOM     82  C   UNL A   1      31.353  28.506  23.452  1.00  0.00     0.062 C 
ATOM     83  C   UNL A   1      33.419  27.714  22.338  1.00  0.00     0.008 C 
ATOM     84  C   UNL A   1      32.629  28.958  22.674  1.00  0.00     0.011 C 
BRANCH  80  85
ATOM     85  N   UNL A   1      32.462  27.320  25.219  1.00  0.00    -0.331 N 
ATOM     86  H   UNL A   1      33.403  27.533  24.889  1.00  0.00     0.347 HD
ATOM     87  H   UNL A   1      32.255  26.479  25.759  1.00  0.00     0.347 HD
BRANCH  85  88
ATOM     88  C   UNL A   1      32.157  28.346  26.211  1.00  0.00     0.183 C 
ATOM     89  C   UNL A   1      31.773  28.196  27.647  1.00  0.00     0.071 C 
ATOM     90  C   UNL A   1      33.183  28.560  27.306  1.00  0.00     0.071 C 
ENDBRANCH  85  88
ENDBRANCH  80  85
BRANCH  82  91
ATOM     91  C   UNL A   1      30.156  28.795  22.546  1.00  0.00     0.032 C 
BRANCH  91  92
ATOM     92  C   UNL A   1      29.127  29.695  23.187  1.00  0.00     0.123 C 
BRANCH  92  93
ATOM     93  N   UNL A   1      28.523  30.758  22.414  1.00  0.00    -0.337 N 
ATOM     94  C   UNL A   1      28.385  30.822  21.051  1.00  0.00     0.107 A 
ATOM     95  C   UNL A   1      28.272  32.017  22.890  1.00  0.00     0.199 A 
ATOM     96  C   UNL A   1      28.100  32.136  20.768  1.00  0.00     0.130 A 
ATOM     97  N   UNL A   1      28.031  32.869  21.919  1.00  0.00    -0.245 NA
ENDBRANCH  92  93
ENDBRANCH  91  92
ENDBRANCH  82  91
ENDBRANCH  77  80
ENDBRANCH  75  76
ENDBRANCH  74  75
ENDBRANCH   1  74
TORSDOF 18
ENDMDL
MODEL 2
REMARK VINA RESULT:     -11.6      2.813      8.037
REMARK SMILES O=C(NCCCCCCNC(=O)[C@@]1([NH2+]C2CC2)CCC[C@H]1CCn1ccnc1)c1ccc(-c2c3nc(c(-c4c(F)c(F)c(F)c(F)c4F)c4ccc([nH]4)c(-c4c(F)c(F)c(F)c(F)c4F)c4nc(c(-c5c(F)c(F)c(F)c(F)c5F)c5ccc2[nH]5)C=C4)C=C3)cc1
REMARK SMILES IDX 7 1 6 2 5 3 4 4 3 5 1 6 2 7 29 9 30 10 91 11 31 12 90 13
REMARK SMILES IDX 32 14 33 15 34 16 84 17 35 18 89 19 83 20 85 21 36 22 88 23
REMARK SMILES IDX 82 24 81 25 37 27 69 28 49 29 68 30 50 31 53 32 67 33 86 34
REMARK SMILES IDX 51 35 52 36 66 38 87 39 54 40 38 41 39 42 47 43 40 44 41 45
REMARK SMILES IDX 45 46 48 47 42 48 43 49 46 50 44 51 70 52 71 53 79 54 72 55
REMARK SMILES IDX 73 56 77 57 80 58 74 59 75 60 78 61 76 62 55 63 56 64 64 65
REMARK SMILES IDX 57 66 58 67 62 68 65 69 59 70 60 71 63 72 61 73 8 74 9 75
REMARK SMILES IDX 10 76 11 77 12 79 13 80 18 81 21 82 19 83 20 84 14 85 15 88
REMARK SMILES IDX 16 89 17 90 22 91 23 92 24 93 25 94 28 95 26 96 27 97
REMARK H PARENT 3 8 85 26 53 37 10 78 14 86 14 87
REMARK Flexibility Score: inf
ROOT
ATOM      1  C   UNL A   1      33.672  31.365  27.596  1.00  0.00     0.002 C 
ENDROOT
BRANCH   1   2
ATOM      2  C   UNL A   1      34.155  32.693  28.182  1.00  0.00     0.002 C 
BRANCH   2   3
ATOM      3  C   UNL A   1      33.151  33.851  28.198  1.00  0.00     0.021 C 
BRANCH   3   4
ATOM      4  C   UNL A   1      33.514  35.073  29.043  1.00  0.00     0.116 C 
BRANCH   4   5
ATOM      5  N   UNL A   1      33.096  35.044  30.431  1.00  0.00    -0.352 N 
ATOM      6  O   UNL A   1      33.068  34.787  32.643  1.00  0.00    -0.269 OA
ATOM      7  C   UNL A   1      33.661  34.571  31.583  1.00  0.00     0.251 C 
ATOM      8  H   UNL A   1      32.213  35.454  30.576  1.00  0.00     0.163 HD
BRANCH   7   9
ATOM      9  C   UNL A   1      34.899  33.758  31.617  1.00  0.00     0.039 A 
ATOM     10  C   UNL A   1      34.927  32.364  31.587  1.00  0.00     0.014 A 
ATOM     11  C   UNL A   1      36.110  34.471  31.638  1.00  0.00     0.014 A 
ATOM     12  C   UNL A   1      36.140  31.690  31.674  1.00  0.00     0.010 A 
ATOM     13  C   UNL A   1      37.326  33.801  31.685  1.00  0.00     0.010 A 
ATOM     14  C   UNL A   1      37.339  32.408  31.724  1.00  0.00    -0.014 A 
BRANCH  14  15
ATOM     15  C   UNL A   1      38.588  31.664  31.554  1.00  0.00     0.031 A 
ATOM     16  C   UNL A   1      39.310  31.390  32.834  1.00  0.00     0.074 A 
ATOM     17  C   UNL A   1      38.974  31.090  30.397  1.00  0.00     0.049 A 
ATOM     18  N   UNL A   1      40.538  31.658  33.142  1.00  0.00    -0.248 NA
ATOM     19  C   UNL A   1      38.527  30.823  33.946  1.00  0.00     0.031 C 
ATOM     20  C   UNL A   1      38.207  31.012  29.153  1.00  0.00     0.029 A 
ATOM     21  N   UNL A   1      40.087  30.342  30.124  1.00  0.00    -0.354 N 
ATOM     22  C   UNL A   1      40.732  31.140  34.422  1.00  0.00     0.074 A 
ATOM     23  C   UNL A   1      39.435  30.774  34.920  1.00  0.00     0.031 C 
ATOM     24  C   UNL A   1      38.765  30.085  28.345  1.00  0.00     0.029 A 
ATOM     25  C   UNL A   1      39.983  29.586  28.962  1.00  0.00     0.049 A 
ATOM     26  H   UNL A   1      40.887  30.340  30.698  1.00  0.00     0.167 HD
ATOM     27  C   UNL A   1      41.975  30.816  34.872  1.00  0.00     0.037 A 
ATOM     28  C   UNL A   1      40.793  28.570  28.571  1.00  0.00     0.037 A 
ATOM     29  C   UNL A   1      42.995  31.529  34.146  1.00  0.00     0.049 A 
ATOM     30  C   UNL A   1      42.058  28.673  29.335  1.00  0.00     0.074 A 
ATOM     31  C   UNL A   1      43.308  32.858  33.939  1.00  0.00     0.029 A 
ATOM     32  N   UNL A   1      43.720  30.829  33.220  1.00  0.00    -0.354 N 
ATOM     33  N   UNL A   1      42.956  29.599  29.156  1.00  0.00    -0.248 NA
ATOM     34  C   UNL A   1      42.179  27.916  30.572  1.00  0.00     0.031 C 
ATOM     35  C   UNL A   1      43.844  32.916  32.619  1.00  0.00     0.029 A 
ATOM     36  C   UNL A   1      43.865  31.617  32.112  1.00  0.00     0.049 A 
ATOM     37  H   UNL A   1      44.076  29.918  33.332  1.00  0.00     0.167 HD
ATOM     38  C   UNL A   1      43.455  29.844  30.424  1.00  0.00     0.074 A 
ATOM     39  C   UNL A   1      43.055  28.689  31.218  1.00  0.00     0.031 C 
ATOM     40  C   UNL A   1      43.888  31.091  30.769  1.00  0.00     0.037 A 
BRANCH  27  41
ATOM     41  C   UNL A   1      42.280  29.541  35.639  1.00  0.00     0.064 A 
ATOM     42  C   UNL A   1      43.223  29.591  36.688  1.00  0.00     0.173 A 
ATOM     43  C   UNL A   1      41.966  28.244  35.174  1.00  0.00     0.173 A 
ATOM     44  F   UNL A   1      43.603  30.767  37.211  1.00  0.00    -0.203 F 
ATOM     45  C   UNL A   1      43.887  28.448  37.141  1.00  0.00     0.198 A 
ATOM     46  C   UNL A   1      42.592  27.101  35.668  1.00  0.00     0.198 A 
ATOM     47  F   UNL A   1      41.132  28.029  34.153  1.00  0.00    -0.203 F 
ATOM     48  F   UNL A   1      44.887  28.568  38.025  1.00  0.00    -0.200 F 
ATOM     49  C   UNL A   1      43.581  27.206  36.621  1.00  0.00     0.200 A 
ATOM     50  F   UNL A   1      42.289  25.907  35.140  1.00  0.00    -0.200 F 
ATOM     51  F   UNL A   1      44.270  26.120  36.994  1.00  0.00    -0.200 F 
ENDBRANCH  27  41
BRANCH  28  52
ATOM     52  C   UNL A   1      40.471  27.364  27.767  1.00  0.00     0.064 A 
ATOM     53  C   UNL A   1      41.219  27.035  26.623  1.00  0.00     0.173 A 
ATOM     54  C   UNL A   1      39.605  26.366  28.254  1.00  0.00     0.173 A 
ATOM     55  F   UNL A   1      42.101  27.908  26.116  1.00  0.00    -0.203 F 
ATOM     56  C   UNL A   1      41.128  25.774  26.024  1.00  0.00     0.198 A 
ATOM     57  C   UNL A   1      39.505  25.114  27.646  1.00  0.00     0.198 A 
ATOM     58  F   UNL A   1      38.910  26.547  29.385  1.00  0.00    -0.203 F 
ATOM     59  F   UNL A   1      41.911  25.473  24.977  1.00  0.00    -0.200 F 
ATOM     60  C   UNL A   1      40.278  24.811  26.541  1.00  0.00     0.200 A 
ATOM     61  F   UNL A   1      38.703  24.181  28.178  1.00  0.00    -0.200 F 
ATOM     62  F   UNL A   1      40.236  23.584  26.005  1.00  0.00    -0.200 F 
ENDBRANCH  28  52
BRANCH  40  63
ATOM     63  C   UNL A   1      44.180  32.056  29.659  1.00  0.00     0.064 A 
ATOM     64  C   UNL A   1      43.262  32.991  29.154  1.00  0.00     0.173 A 
ATOM     65  C   UNL A   1      45.488  32.093  29.152  1.00  0.00     0.173 A 
ATOM     66  F   UNL A   1      42.024  33.090  29.658  1.00  0.00    -0.203 F 
ATOM     67  C   UNL A   1      43.623  33.879  28.141  1.00  0.00     0.198 A 
ATOM     68  C   UNL A   1      45.857  33.010  28.174  1.00  0.00     0.198 A 
ATOM     69  F   UNL A   1      46.421  31.257  29.636  1.00  0.00    -0.203 F 
ATOM     70  F   UNL A   1      42.721  34.741  27.650  1.00  0.00    -0.200 F 
ATOM     71  C   UNL A   1      44.921  33.891  27.657  1.00  0.00     0.200 A 
ATOM     72  F   UNL A   1      47.125  33.049  27.744  1.00  0.00    -0.200 F 
ATOM     73  F   UNL A   1      45.277  34.766  26.708  1.00  0.00    -0.200 F 
ENDBRANCH  40  63
ENDBRANCH  14  15
ENDBRANCH   7   9
ENDBRANCH   4   5
ENDBRANCH   3   4
ENDBRANCH   2   3
ENDBRANCH   1   2
BRANCH   1  74
ATOM     74  C   UNL A   1      34.659  30.202  27.680  1.00  0.00     0.021 C 
BRANCH  74  75
ATOM     75  C   UNL A   1      34.469  29.016  26.694  1.00  0.00     0.116 C 
BRANCH  75  76
ATOM     76  N   UNL A   1      33.296  28.222  27.088  1.00  0.00    -0.351 N 
ATOM     77  C   UNL A   1      32.179  27.603  26.658  1.00  0.00     0.281 C 
ATOM     78  H   UNL A   1      33.347  28.086  28.062  1.00  0.00     0.163 HD
ATOM     79  O   UNL A   1      31.426  27.450  27.648  1.00  0.00    -0.268 OA
BRANCH  77  80
ATOM     80  C   UNL A   1      31.687  26.972  25.266  1.00  0.00     0.178 C 
ATOM     81  C   UNL A   1      30.264  26.407  25.591  1.00  0.00     0.079 C 
ATOM     82  C   UNL A   1      31.331  27.699  23.904  1.00  0.00     0.062 C 
ATOM     83  C   UNL A   1      29.609  25.963  24.305  1.00  0.00     0.008 C 
ATOM     84  C   UNL A   1      30.220  26.832  23.231  1.00  0.00     0.011 C 
BRANCH  80  85
ATOM     85  N   UNL A   1      32.626  25.900  24.822  1.00  0.00    -0.331 N 
ATOM     86  H   UNL A   1      33.357  26.379  24.296  1.00  0.00     0.347 HD
ATOM     87  H   UNL A   1      31.971  25.258  24.376  1.00  0.00     0.347 HD
BRANCH  85  88
ATOM     88  C   UNL A   1      33.330  24.977  25.709  1.00  0.00     0.183 C 
ATOM     89  C   UNL A   1      34.020  23.693  25.388  1.00  0.00     0.071 C 
ATOM     90  C   UNL A   1      34.839  24.929  25.580  1.00  0.00     0.071 C 
ENDBRANCH  85  88
ENDBRANCH  80  85
BRANCH  82  91
ATOM     91  C   UNL A   1      30.845  29.148  23.867  1.00  0.00     0.032 C 
BRANCH  91  92
ATOM     92  C   UNL A   1      30.298  29.559  22.522  1.00  0.00     0.123 C 
BRANCH  92  93
ATOM     93  N   UNL A   1      29.229  30.532  22.449  1.00  0.00    -0.337 N 
ATOM     94  C   UNL A   1      28.639  31.039  21.320  1.00  0.00     0.107 A 
ATOM     95  C   UNL A   1      28.846  31.341  23.485  1.00  0.00     0.199 A 
ATOM     96  C   UNL A   1      27.962  32.162  21.727  1.00  0.00     0.130 A 
ATOM     97  N   UNL A   1      28.096  32.340  23.076  1.00  0.00    -0.245 NA
ENDBRANCH  92  93
ENDBRANCH  91  92
ENDBRANCH  82  91
ENDBRANCH  77  80
ENDBRANCH  75  76
ENDBRANCH  74  75
ENDBRANCH   1  74
TORSDOF 18
ENDMDL
MODEL 3
REMARK VINA RESULT:     -11.5      3.122      8.800
REMARK SMILES O=C(NCCCCCCNC(=O)[C@@]1([NH2+]C2CC2)CCC[C@H]1CCn1ccnc1)c1ccc(-c2c3nc(c(-c4c(F)c(F)c(F)c(F)c4F)c4ccc([nH]4)c(-c4c(F)c(F)c(F)c(F)c4F)c4nc(c(-c5c(F)c(F)c(F)c(F)c5F)c5ccc2[nH]5)C=C4)C=C3)cc1
REMARK SMILES IDX 7 1 6 2 5 3 4 4 3 5 1 6 2 7 29 9 30 10 91 11 31 12 90 13
REMARK SMILES IDX 32 14 33 15 34 16 84 17 35 18 89 19 83 20 85 21 36 22 88 23
REMARK SMILES IDX 82 24 81 25 37 27 69 28 49 29 68 30 50 31 53 32 67 33 86 34
REMARK SMILES IDX 51 35 52 36 66 38 87 39 54 40 38 41 39 42 47 43 40 44 41 45
REMARK SMILES IDX 45 46 48 47 42 48 43 49 46 50 44 51 70 52 71 53 79 54 72 55
REMARK SMILES IDX 73 56 77 57 80 58 74 59 75 60 78 61 76 62 55 63 56 64 64 65
REMARK SMILES IDX 57 66 58 67 62 68 65 69 59 70 60 71 63 72 61 73 8 74 9 75
REMARK SMILES IDX 10 76 11 77 12 79 13 80 18 81 21 82 19 83 20 84 14 85 15 88
REMARK SMILES IDX 16 89 17 90 22 91 23 92 24 93 25 94 28 95 26 96 27 97
REMARK H PARENT 3 8 85 26 53 37 10 78 14 86 14 87
REMARK Flexibility Score: inf
ROOT
ATOM      1  C   UNL A   1      30.994  27.721  24.904  1.00  0.00     0.002 C 
ENDROOT
BRANCH   1   2
ATOM      2  C   UNL A   1      31.502  29.146  25.129  1.00  0.00     0.002 C 
BRANCH   2   3
ATOM      3  C   UNL A   1      32.949  29.299  25.610  1.00  0.00     0.021 C 
BRANCH   3   4
ATOM      4  C   UNL A   1      33.162  29.533  27.107  1.00  0.00     0.116 C 
BRANCH   4   5
ATOM      5  N   UNL A   1      33.245  30.916  27.537  1.00  0.00    -0.352 N 
ATOM      6  O   UNL A   1      34.008  32.885  28.244  1.00  0.00    -0.269 OA
ATOM      7  C   UNL A   1      34.244  31.687  28.063  1.00  0.00     0.251 C 
ATOM      8  H   UNL A   1      32.398  31.406  27.425  1.00  0.00     0.163 HD
BRANCH   7   9
ATOM      9  C   UNL A   1      35.556  31.151  28.491  1.00  0.00     0.039 A 
ATOM     10  C   UNL A   1      35.804  29.808  28.774  1.00  0.00     0.014 A 
ATOM     11  C   UNL A   1      36.611  32.077  28.567  1.00  0.00     0.014 A 
ATOM     12  C   UNL A   1      37.061  29.410  29.218  1.00  0.00     0.010 A 
ATOM     13  C   UNL A   1      37.878  31.677  28.973  1.00  0.00     0.010 A 
ATOM     14  C   UNL A   1      38.097  30.345  29.319  1.00  0.00    -0.014 A 
BRANCH  14  15
ATOM     15  C   UNL A   1      39.453  29.839  29.538  1.00  0.00     0.031 A 
ATOM     16  C   UNL A   1      39.877  29.844  30.971  1.00  0.00     0.074 A 
ATOM     17  C   UNL A   1      40.196  29.233  28.591  1.00  0.00     0.049 A 
ATOM     18  N   UNL A   1      40.934  30.371  31.500  1.00  0.00    -0.248 NA
ATOM     19  C   UNL A   1      38.950  29.256  31.955  1.00  0.00     0.031 C 
ATOM     20  C   UNL A   1      39.776  28.881  27.234  1.00  0.00     0.029 A 
ATOM     21  N   UNL A   1      41.447  28.687  28.681  1.00  0.00    -0.354 N 
ATOM     22  C   UNL A   1      40.892  30.037  32.853  1.00  0.00     0.074 A 
ATOM     23  C   UNL A   1      39.590  29.483  33.101  1.00  0.00     0.031 C 
ATOM     24  C   UNL A   1      40.656  27.998  26.712  1.00  0.00     0.029 A 
ATOM     25  C   UNL A   1      41.752  27.808  27.649  1.00  0.00     0.049 A 
ATOM     26  H   UNL A   1      42.073  28.898  29.411  1.00  0.00     0.167 HD
ATOM     27  C   UNL A   1      42.025  30.005  33.607  1.00  0.00     0.037 A 
ATOM     28  C   UNL A   1      42.786  26.931  27.598  1.00  0.00     0.037 A 
ATOM     29  C   UNL A   1      43.061  30.820  33.028  1.00  0.00     0.049 A 
ATOM     30  C   UNL A   1      43.794  27.353  28.598  1.00  0.00     0.074 A 
ATOM     31  C   UNL A   1      43.196  32.155  32.704  1.00  0.00     0.029 A 
ATOM     32  N   UNL A   1      44.093  30.179  32.396  1.00  0.00    -0.354 N 
ATOM     33  N   UNL A   1      44.546  28.409  28.488  1.00  0.00    -0.248 NA
ATOM     34  C   UNL A   1      43.731  26.766  29.928  1.00  0.00     0.031 C 
ATOM     35  C   UNL A   1      44.020  32.177  31.539  1.00  0.00     0.029 A 
ATOM     36  C   UNL A   1      44.373  30.860  31.245  1.00  0.00     0.049 A 
ATOM     37  H   UNL A   1      44.553  29.369  32.715  1.00  0.00     0.167 HD
ATOM     38  C   UNL A   1      44.677  28.876  29.785  1.00  0.00     0.074 A 
ATOM     39  C   UNL A   1      44.287  27.754  30.631  1.00  0.00     0.031 C 
ATOM     40  C   UNL A   1      44.806  30.212  30.031  1.00  0.00     0.037 A 
BRANCH  27  41
ATOM     41  C   UNL A   1      42.336  28.898  34.600  1.00  0.00     0.064 A 
ATOM     42  C   UNL A   1      42.976  29.237  35.812  1.00  0.00     0.173 A 
ATOM     43  C   UNL A   1      42.357  27.524  34.273  1.00  0.00     0.173 A 
ATOM     44  F   UNL A   1      43.023  30.511  36.229  1.00  0.00    -0.203 F 
ATOM     45  C   UNL A   1      43.685  28.294  36.562  1.00  0.00     0.198 A 
ATOM     46  C   UNL A   1      43.020  26.579  35.054  1.00  0.00     0.198 A 
ATOM     47  F   UNL A   1      41.841  27.048  33.135  1.00  0.00    -0.203 F 
ATOM     48  F   UNL A   1      44.408  28.694  37.617  1.00  0.00    -0.200 F 
ATOM     49  C   UNL A   1      43.719  26.970  36.174  1.00  0.00     0.200 A 
ATOM     50  F   UNL A   1      43.051  25.301  34.652  1.00  0.00    -0.200 F 
ATOM     51  F   UNL A   1      44.463  26.080  36.844  1.00  0.00    -0.200 F 
ENDBRANCH  27  41
BRANCH  28  52
ATOM     52  C   UNL A   1      42.867  25.609  26.927  1.00  0.00     0.064 A 
ATOM     53  C   UNL A   1      43.704  25.411  25.815  1.00  0.00     0.173 A 
ATOM     54  C   UNL A   1      42.341  24.448  27.525  1.00  0.00     0.173 A 
ATOM     55  F   UNL A   1      44.285  26.457  25.209  1.00  0.00    -0.203 F 
ATOM     56  C   UNL A   1      44.018  24.129  25.351  1.00  0.00     0.198 A 
ATOM     57  C   UNL A   1      42.644  23.170  27.052  1.00  0.00     0.198 A 
ATOM     58  F   UNL A   1      41.601  24.520  28.640  1.00  0.00    -0.203 F 
ATOM     59  F   UNL A   1      44.877  23.979  24.331  1.00  0.00    -0.200 F 
ATOM     60  C   UNL A   1      43.496  23.009  25.976  1.00  0.00     0.200 A 
ATOM     61  F   UNL A   1      42.158  22.095  27.687  1.00  0.00    -0.200 F 
ATOM     62  F   UNL A   1      43.844  21.781  25.571  1.00  0.00    -0.200 F 
ENDBRANCH  28  52
BRANCH  40  63
ATOM     63  C   UNL A   1      45.199  31.094  28.884  1.00  0.00     0.064 A 
ATOM     64  C   UNL A   1      44.305  31.605  27.929  1.00  0.00     0.173 A 
ATOM     65  C   UNL A   1      46.535  31.515  28.811  1.00  0.00     0.173 A 
ATOM     66  F   UNL A   1      42.994  31.333  27.990  1.00  0.00    -0.203 F 
ATOM     67  C   UNL A   1      44.745  32.448  26.910  1.00  0.00     0.198 A 
ATOM     68  C   UNL A   1      46.962  32.392  27.821  1.00  0.00     0.198 A 
ATOM     69  F   UNL A   1      47.422  31.100  29.730  1.00  0.00    -0.203 F 
ATOM     70  F   UNL A   1      43.881  32.898  25.988  1.00  0.00    -0.200 F 
ATOM     71  C   UNL A   1      46.071  32.846  26.861  1.00  0.00     0.200 A 
ATOM     72  F   UNL A   1      48.235  32.811  27.807  1.00  0.00    -0.200 F 
ATOM     73  F   UNL A   1      46.488  33.683  25.902  1.00  0.00    -0.200 F 
ENDBRANCH  40  63
ENDBRANCH  14  15
ENDBRANCH   7   9
ENDBRANCH   4   5
ENDBRANCH   3   4
ENDBRANCH   2   3
ENDBRANCH   1   2
BRANCH   1  74
ATOM     74  C   UNL A   1      31.364  26.704  25.983  1.00  0.00     0.021 C 
BRANCH  74  75
ATOM     75  C   UNL A   1      30.515  25.406  26.079  1.00  0.00     0.116 C 
BRANCH  75  76
ATOM     76  N   UNL A   1      31.232  24.398  26.875  1.00  0.00    -0.351 N 
ATOM     77  C   UNL A   1      32.100  23.369  26.840  1.00  0.00     0.281 C 
ATOM     78  H   UNL A   1      30.974  24.530  27.815  1.00  0.00     0.163 HD
ATOM     79  O   UNL A   1      31.949  22.711  27.896  1.00  0.00    -0.268 OA
BRANCH  77  80
ATOM     80  C   UNL A   1      33.274  22.898  25.852  1.00  0.00     0.178 C 
ATOM     81  C   UNL A   1      34.424  22.457  26.818  1.00  0.00     0.079 C 
ATOM     82  C   UNL A   1      33.322  21.656  24.869  1.00  0.00     0.062 C 
ATOM     83  C   UNL A   1      35.518  21.801  26.008  1.00  0.00     0.008 C 
ATOM     84  C   UNL A   1      34.819  21.216  24.803  1.00  0.00     0.011 C 
BRANCH  80  85
ATOM     85  N   UNL A   1      33.689  24.025  24.965  1.00  0.00    -0.331 N 
ATOM     86  H   UNL A   1      34.709  24.040  25.005  1.00  0.00     0.347 HD
ATOM     87  H   UNL A   1      33.122  24.779  25.353  1.00  0.00     0.347 HD
BRANCH  85  88
ATOM     88  C   UNL A   1      33.355  24.150  23.550  1.00  0.00     0.183 C 
ATOM     89  C   UNL A   1      32.159  24.771  22.908  1.00  0.00     0.071 C 
ATOM     90  C   UNL A   1      33.441  25.540  22.951  1.00  0.00     0.071 C 
ENDBRANCH  85  88
ENDBRANCH  80  85
BRANCH  82  91
ATOM     91  C   UNL A   1      32.501  20.392  25.127  1.00  0.00     0.032 C 
BRANCH  91  92
ATOM     92  C   UNL A   1      32.461  19.456  23.944  1.00  0.00     0.123 C 
BRANCH  92  93
ATOM     93  N   UNL A   1      32.724  18.046  24.137  1.00  0.00    -0.337 N 
ATOM     94  C   UNL A   1      32.548  17.314  25.283  1.00  0.00     0.107 A 
ATOM     95  C   UNL A   1      33.488  17.278  23.299  1.00  0.00     0.199 A 
ATOM     96  C   UNL A   1      33.257  16.153  25.095  1.00  0.00     0.130 A 
ATOM     97  N   UNL A   1      33.836  16.140  23.857  1.00  0.00    -0.245 NA
ENDBRANCH  92  93
ENDBRANCH  91  92
ENDBRANCH  82  91
ENDBRANCH  77  80
ENDBRANCH  75  76
ENDBRANCH  74  75
ENDBRANCH   1  74
TORSDOF 18
ENDMDL
