MODEL 1
REMARK VINA RESULT:     -12.3      0.000      0.000
REMARK SMILES COc1ccc(-c2ccc(CCC(=O)NCCCCCCNC(=O)c3ccc(-c4c5nc(c(-c6c(F)c(F)c(F)c(F)c6F)c6ccc([nH]6)c(-c6c(F)c(F)c(F)c(F)c6F)c6nc(c(-c7c(F)c(F)c(F)c(F)c7F)c7ccc4[nH]7)C=C6)C=C5)cc3)n2-c2ccc(C(C)=O)cc2)cc1
REMARK SMILES IDX 17 1 16 2 15 3 13 4 14 5 12 7 11 8 10 9 7 10 8 11 88 12 9 13
REMARK SMILES IDX 6 14 3 15 4 16 99 17 5 18 98 19 2 20 1 21 89 22 90 23 97 24
REMARK SMILES IDX 91 25 96 26 92 27 93 28 94 29 95 30 18 31 19 32 20 33 21 34
REMARK SMILES IDX 22 35 23 36 24 38 25 39 26 40 87 41 27 42 86 43 28 44 29 45
REMARK SMILES IDX 30 46 80 47 31 48 85 49 79 50 81 51 32 52 84 53 78 54 77 55
REMARK SMILES IDX 33 57 65 58 45 59 64 60 46 61 49 62 63 63 82 64 47 65 48 66
REMARK SMILES IDX 62 68 83 69 50 70 34 71 35 72 43 73 36 74 37 75 41 76 44 77
REMARK SMILES IDX 38 78 39 79 42 80 40 81 66 82 67 83 75 84 68 85 69 86 73 87
REMARK SMILES IDX 76 88 70 89 71 90 74 91 72 92 51 93 52 94 60 95 53 96 54 97
REMARK SMILES IDX 58 98 61 99 55 100 56 101 59 102 57 103
REMARK H PARENT 15 6 22 37 81 56 49 67
REMARK Flexibility Score: inf
ROOT
ATOM      1  C   UNL A   1      34.508  20.856  25.724  1.00  0.00     0.021 C 
ENDROOT
BRANCH   1   2
ATOM      2  C   UNL A   1      33.850  21.581  26.894  1.00  0.00     0.116 C 
BRANCH   2   3
ATOM      3  N   UNL A   1      32.449  21.818  26.610  1.00  0.00    -0.356 N 
ATOM      4  C   UNL A   1      31.746  22.981  26.684  1.00  0.00     0.220 C 
ATOM      5  O   UNL A   1      30.517  22.932  26.608  1.00  0.00    -0.275 OA
ATOM      6  H   UNL A   1      31.935  21.028  26.325  1.00  0.00     0.163 HD
BRANCH   4   7
ATOM      7  C   UNL A   1      32.467  24.308  26.817  1.00  0.00     0.106 C 
BRANCH   7   8
ATOM      8  C   UNL A   1      33.298  24.667  25.586  1.00  0.00     0.064 C 
BRANCH   8   9
ATOM      9  C   UNL A   1      32.494  25.241  24.447  1.00  0.00     0.024 A 
ATOM     10  C   UNL A   1      30.945  26.517  23.401  1.00  0.00     0.053 A 
ATOM     11  C   UNL A   1      31.382  25.541  22.515  1.00  0.00     0.029 A 
ATOM     12  N   UNL A   1      31.812  26.457  24.493  1.00  0.00    -0.314 N 
ATOM     13  C   UNL A   1      32.351  24.749  23.165  1.00  0.00     0.024 A 
BRANCH  10  14
ATOM     14  C   UNL A   1      30.026  27.612  23.088  1.00  0.00    -0.001 A 
ATOM     15  C   UNL A   1      28.280  29.682  22.322  1.00  0.00     0.118 A 
ATOM     16  C   UNL A   1      29.638  29.743  22.011  1.00  0.00     0.047 A 
ATOM     17  C   UNL A   1      27.790  28.577  23.019  1.00  0.00     0.047 A 
ATOM     18  C   UNL A   1      30.506  28.719  22.386  1.00  0.00     0.014 A 
ATOM     19  C   UNL A   1      28.663  27.544  23.402  1.00  0.00     0.014 A 
BRANCH  15  20
ATOM     20  O   UNL A   1      27.545  30.735  21.853  1.00  0.00    -0.497 OA
ATOM     21  C   UNL A   1      28.170  31.588  20.904  1.00  0.00     0.278 C 
ENDBRANCH  15  20
ENDBRANCH  10  14
BRANCH  12  22
ATOM     22  C   UNL A   1      32.228  27.579  25.253  1.00  0.00     0.046 A 
ATOM     23  C   UNL A   1      33.419  28.199  24.858  1.00  0.00     0.027 A 
ATOM     24  C   UNL A   1      31.443  28.130  26.262  1.00  0.00     0.027 A 
ATOM     25  C   UNL A   1      33.838  29.374  25.472  1.00  0.00     0.014 A 
ATOM     26  C   UNL A   1      31.884  29.300  26.894  1.00  0.00     0.014 A 
ATOM     27  C   UNL A   1      33.077  29.937  26.498  1.00  0.00     0.017 A 
BRANCH  27  28
ATOM     28  C   UNL A   1      33.476  31.201  27.191  1.00  0.00     0.159 C 
ATOM     29  C   UNL A   1      32.441  32.220  27.605  1.00  0.00     0.093 C 
ATOM     30  O   UNL A   1      34.667  31.400  27.432  1.00  0.00    -0.295 OA
ENDBRANCH  27  28
ENDBRANCH  12  22
ENDBRANCH   8   9
ENDBRANCH   7   8
ENDBRANCH   4   7
ENDBRANCH   2   3
ENDBRANCH   1   2
BRANCH   1  31
ATOM     31  C   UNL A   1      34.933  21.742  24.561  1.00  0.00     0.002 C 
BRANCH  31  32
ATOM     32  C   UNL A   1      36.431  22.051  24.523  1.00  0.00     0.002 C 
BRANCH  32  33
ATOM     33  C   UNL A   1      36.805  23.539  24.633  1.00  0.00     0.021 C 
BRANCH  33  34
ATOM     34  C   UNL A   1      37.230  23.982  26.035  1.00  0.00     0.116 C 
BRANCH  34  35
ATOM     35  N   UNL A   1      38.388  23.220  26.465  1.00  0.00    -0.352 N 
ATOM     36  C   UNL A   1      39.638  23.643  26.818  1.00  0.00     0.251 C 
ATOM     37  H   UNL A   1      38.251  22.246  26.507  1.00  0.00     0.163 HD
ATOM     38  O   UNL A   1      40.574  22.858  26.734  1.00  0.00    -0.269 OA
BRANCH  36  39
ATOM     39  C   UNL A   1      39.880  25.007  27.328  1.00  0.00     0.039 A 
ATOM     40  C   UNL A   1      39.491  25.279  28.646  1.00  0.00     0.014 A 
ATOM     41  C   UNL A   1      40.328  26.041  26.496  1.00  0.00     0.014 A 
ATOM     42  C   UNL A   1      39.559  26.576  29.137  1.00  0.00     0.010 A 
ATOM     43  C   UNL A   1      40.412  27.340  26.987  1.00  0.00     0.010 A 
ATOM     44  C   UNL A   1      40.029  27.603  28.308  1.00  0.00    -0.014 A 
BRANCH  44  45
ATOM     45  C   UNL A   1      40.307  28.921  28.917  1.00  0.00     0.031 A 
ATOM     46  C   UNL A   1      39.006  29.759  29.033  1.00  0.00     0.074 A 
ATOM     47  C   UNL A   1      41.611  29.184  29.249  1.00  0.00     0.049 A 
ATOM     48  N   UNL A   1      38.846  31.036  29.203  1.00  0.00    -0.248 NA
ATOM     49  C   UNL A   1      37.680  29.080  28.916  1.00  0.00     0.031 C 
ATOM     50  C   UNL A   1      42.733  28.220  29.126  1.00  0.00     0.029 A 
ATOM     51  N   UNL A   1      42.273  30.290  29.750  1.00  0.00    -0.354 N 
ATOM     52  C   UNL A   1      37.467  31.275  29.428  1.00  0.00     0.074 A 
ATOM     53  C   UNL A   1      36.792  30.053  29.134  1.00  0.00     0.031 C 
ATOM     54  C   UNL A   1      43.914  28.796  29.445  1.00  0.00     0.029 A 
ATOM     55  C   UNL A   1      43.694  30.176  29.829  1.00  0.00     0.049 A 
ATOM     56  H   UNL A   1      41.795  31.104  30.031  1.00  0.00     0.167 HD
ATOM     57  C   UNL A   1      36.993  32.433  29.978  1.00  0.00     0.037 A 
ATOM     58  C   UNL A   1      44.619  31.137  30.159  1.00  0.00     0.037 A 
ATOM     59  C   UNL A   1      38.065  33.343  30.168  1.00  0.00     0.049 A 
ATOM     60  C   UNL A   1      43.815  32.240  30.680  1.00  0.00     0.074 A 
ATOM     61  C   UNL A   1      38.801  34.060  29.267  1.00  0.00     0.029 A 
ATOM     62  N   UNL A   1      38.731  33.271  31.365  1.00  0.00    -0.354 N 
ATOM     63  N   UNL A   1      43.251  32.222  31.848  1.00  0.00    -0.248 NA
ATOM     64  C   UNL A   1      43.601  33.427  29.851  1.00  0.00     0.031 C 
ATOM     65  C   UNL A   1      40.103  33.952  29.784  1.00  0.00     0.029 A 
ATOM     66  C   UNL A   1      40.060  33.446  31.090  1.00  0.00     0.049 A 
ATOM     67  H   UNL A   1      38.331  33.123  32.253  1.00  0.00     0.167 HD
ATOM     68  C   UNL A   1      42.326  33.223  31.722  1.00  0.00     0.074 A 
ATOM     69  C   UNL A   1      42.805  34.105  30.676  1.00  0.00     0.031 C 
ATOM     70  C   UNL A   1      41.034  32.939  32.022  1.00  0.00     0.037 A 
BRANCH  57  71
ATOM     71  C   UNL A   1      35.683  32.819  30.605  1.00  0.00     0.064 A 
ATOM     72  C   UNL A   1      34.925  33.853  29.998  1.00  0.00     0.173 A 
ATOM     73  C   UNL A   1      35.373  32.524  31.935  1.00  0.00     0.173 A 
ATOM     74  F   UNL A   1      35.127  34.191  28.715  1.00  0.00    -0.203 F 
ATOM     75  C   UNL A   1      34.025  34.632  30.723  1.00  0.00     0.198 A 
ATOM     76  C   UNL A   1      34.426  33.271  32.644  1.00  0.00     0.198 A 
ATOM     77  F   UNL A   1      36.069  31.603  32.607  1.00  0.00    -0.203 F 
ATOM     78  F   UNL A   1      33.454  35.702  30.150  1.00  0.00    -0.200 F 
ATOM     79  C   UNL A   1      33.788  34.350  32.052  1.00  0.00     0.200 A 
ATOM     80  F   UNL A   1      34.203  32.999  33.938  1.00  0.00    -0.200 F 
ATOM     81  F   UNL A   1      32.984  35.143  32.776  1.00  0.00    -0.200 F 
ENDBRANCH  57  71
BRANCH  58  82
ATOM     82  C   UNL A   1      46.111  31.417  30.155  1.00  0.00     0.064 A 
ATOM     83  C   UNL A   1      46.907  31.638  29.030  1.00  0.00     0.173 A 
ATOM     84  C   UNL A   1      46.785  31.650  31.398  1.00  0.00     0.173 A 
ATOM     85  F   UNL A   1      46.450  31.365  27.803  1.00  0.00    -0.203 F 
ATOM     86  C   UNL A   1      48.211  32.171  29.137  1.00  0.00     0.198 A 
ATOM     87  C   UNL A   1      48.040  32.242  31.503  1.00  0.00     0.198 A 
ATOM     88  F   UNL A   1      46.228  31.332  32.576  1.00  0.00    -0.203 F 
ATOM     89  F   UNL A   1      48.939  32.379  28.031  1.00  0.00    -0.200 F 
ATOM     90  C   UNL A   1      48.752  32.522  30.365  1.00  0.00     0.200 A 
ATOM     91  F   UNL A   1      48.525  32.566  32.711  1.00  0.00    -0.200 F 
ATOM     92  F   UNL A   1      49.948  33.120  30.453  1.00  0.00    -0.200 F 
ENDBRANCH  58  82
BRANCH  70  93
ATOM     93  C   UNL A   1      40.870  31.791  33.012  1.00  0.00     0.064 A 
ATOM     94  C   UNL A   1      41.399  31.916  34.311  1.00  0.00     0.173 A 
ATOM     95  C   UNL A   1      40.354  30.524  32.689  1.00  0.00     0.173 A 
ATOM     96  F   UNL A   1      41.879  33.098  34.726  1.00  0.00    -0.203 F 
ATOM     97  C   UNL A   1      41.457  30.836  35.198  1.00  0.00     0.198 A 
ATOM     98  C   UNL A   1      40.405  29.442  33.575  1.00  0.00     0.198 A 
ATOM     99  F   UNL A   1      39.777  30.303  31.510  1.00  0.00    -0.203 F 
ATOM    100  F   UNL A   1      41.990  30.999  36.417  1.00  0.00    -0.200 F 
ATOM    101  C   UNL A   1      40.967  29.596  34.827  1.00  0.00     0.200 A 
ATOM    102  F   UNL A   1      39.903  28.251  33.210  1.00  0.00    -0.200 F 
ATOM    103  F   UNL A   1      41.016  28.561  35.678  1.00  0.00    -0.200 F 
ENDBRANCH  70  93
ENDBRANCH  44  45
ENDBRANCH  36  39
ENDBRANCH  34  35
ENDBRANCH  33  34
ENDBRANCH  32  33
ENDBRANCH  31  32
ENDBRANCH   1  31
TORSDOF 19
ENDMDL
MODEL 2
REMARK VINA RESULT:     -10.9      3.066      4.661
REMARK SMILES COc1ccc(-c2ccc(CCC(=O)NCCCCCCNC(=O)c3ccc(-c4c5nc(c(-c6c(F)c(F)c(F)c(F)c6F)c6ccc([nH]6)c(-c6c(F)c(F)c(F)c(F)c6F)c6nc(c(-c7c(F)c(F)c(F)c(F)c7F)c7ccc4[nH]7)C=C6)C=C5)cc3)n2-c2ccc(C(C)=O)cc2)cc1
REMARK SMILES IDX 17 1 16 2 15 3 13 4 14 5 12 7 11 8 10 9 7 10 8 11 88 12 9 13
REMARK SMILES IDX 6 14 3 15 4 16 99 17 5 18 98 19 2 20 1 21 89 22 90 23 97 24
REMARK SMILES IDX 91 25 96 26 92 27 93 28 94 29 95 30 18 31 19 32 20 33 21 34
REMARK SMILES IDX 22 35 23 36 24 38 25 39 26 40 87 41 27 42 86 43 28 44 29 45
REMARK SMILES IDX 30 46 80 47 31 48 85 49 79 50 81 51 32 52 84 53 78 54 77 55
REMARK SMILES IDX 33 57 65 58 45 59 64 60 46 61 49 62 63 63 82 64 47 65 48 66
REMARK SMILES IDX 62 68 83 69 50 70 34 71 35 72 43 73 36 74 37 75 41 76 44 77
REMARK SMILES IDX 38 78 39 79 42 80 40 81 66 82 67 83 75 84 68 85 69 86 73 87
REMARK SMILES IDX 76 88 70 89 71 90 74 91 72 92 51 93 52 94 60 95 53 96 54 97
REMARK SMILES IDX 58 98 61 99 55 100 56 101 59 102 57 103
REMARK H PARENT 15 6 22 37 81 56 49 67
REMARK Flexibility Score: inf
ROOT
ATOM      1  C   UNL A   1      34.257  20.507  25.303  1.00  0.00     0.021 C 
ENDROOT
BRANCH   1   2
ATOM      2  C   UNL A   1      33.460  20.935  26.532  1.00  0.00     0.116 C 
BRANCH   2   3
ATOM      3  N   UNL A   1      32.128  21.350  26.144  1.00  0.00    -0.356 N 
ATOM      4  C   UNL A   1      31.488  22.524  26.400  1.00  0.00     0.220 C 
ATOM      5  O   UNL A   1      30.281  22.599  26.166  1.00  0.00    -0.275 OA
ATOM      6  H   UNL A   1      31.614  20.691  25.623  1.00  0.00     0.163 HD
BRANCH   4   7
ATOM      7  C   UNL A   1      32.258  23.719  26.925  1.00  0.00     0.106 C 
BRANCH   7   8
ATOM      8  C   UNL A   1      33.153  24.369  25.870  1.00  0.00     0.064 C 
BRANCH   8   9
ATOM      9  C   UNL A   1      32.402  24.944  24.695  1.00  0.00     0.024 A 
ATOM     10  C   UNL A   1      30.928  26.247  23.577  1.00  0.00     0.053 A 
ATOM     11  C   UNL A   1      31.358  25.238  22.725  1.00  0.00     0.029 A 
ATOM     12  N   UNL A   1      31.761  26.182  24.696  1.00  0.00    -0.314 N 
ATOM     13  C   UNL A   1      32.280  24.428  23.421  1.00  0.00     0.024 A 
BRANCH  10  14
ATOM     14  C   UNL A   1      30.057  27.364  23.213  1.00  0.00    -0.001 A 
ATOM     15  C   UNL A   1      28.402  29.471  22.352  1.00  0.00     0.118 A 
ATOM     16  C   UNL A   1      29.764  29.468  22.056  1.00  0.00     0.047 A 
ATOM     17  C   UNL A   1      27.861  28.413  23.083  1.00  0.00     0.047 A 
ATOM     18  C   UNL A   1      30.587  28.425  22.478  1.00  0.00     0.014 A 
ATOM     19  C   UNL A   1      28.689  27.362  23.514  1.00  0.00     0.014 A 
BRANCH  15  20
ATOM     20  O   UNL A   1      27.713  30.534  21.836  1.00  0.00    -0.497 OA
ATOM     21  C   UNL A   1      28.458  31.489  21.094  1.00  0.00     0.278 C 
ENDBRANCH  15  20
ENDBRANCH  10  14
BRANCH  12  22
ATOM     22  C   UNL A   1      32.192  27.306  25.444  1.00  0.00     0.046 A 
ATOM     23  C   UNL A   1      33.307  27.996  24.955  1.00  0.00     0.027 A 
ATOM     24  C   UNL A   1      31.481  27.792  26.537  1.00  0.00     0.027 A 
ATOM     25  C   UNL A   1      33.725  29.177  25.559  1.00  0.00     0.014 A 
ATOM     26  C   UNL A   1      31.923  28.968  27.158  1.00  0.00     0.014 A 
ATOM     27  C   UNL A   1      33.039  29.676  26.669  1.00  0.00     0.017 A 
BRANCH  27  28
ATOM     28  C   UNL A   1      33.440  30.942  27.355  1.00  0.00     0.159 C 
ATOM     29  C   UNL A   1      34.784  31.069  28.031  1.00  0.00     0.093 C 
ATOM     30  O   UNL A   1      32.659  31.895  27.355  1.00  0.00    -0.295 OA
ENDBRANCH  27  28
ENDBRANCH  12  22
ENDBRANCH   8   9
ENDBRANCH   7   8
ENDBRANCH   4   7
ENDBRANCH   2   3
ENDBRANCH   1   2
BRANCH   1  31
ATOM     31  C   UNL A   1      34.629  21.628  24.342  1.00  0.00     0.002 C 
BRANCH  31  32
ATOM     32  C   UNL A   1      36.113  22.001  24.358  1.00  0.00     0.002 C 
BRANCH  32  33
ATOM     33  C   UNL A   1      36.419  23.492  24.581  1.00  0.00     0.021 C 
BRANCH  33  34
ATOM     34  C   UNL A   1      37.245  23.787  25.836  1.00  0.00     0.116 C 
BRANCH  34  35
ATOM     35  N   UNL A   1      38.008  22.612  26.213  1.00  0.00    -0.352 N 
ATOM     36  C   UNL A   1      39.349  22.468  26.434  1.00  0.00     0.251 C 
ATOM     37  H   UNL A   1      37.477  21.791  26.326  1.00  0.00     0.163 HD
ATOM     38  O   UNL A   1      39.851  21.358  26.321  1.00  0.00    -0.269 OA
BRANCH  36  39
ATOM     39  C   UNL A   1      40.195  23.608  26.839  1.00  0.00     0.039 A 
ATOM     40  C   UNL A   1      41.082  23.404  27.905  1.00  0.00     0.014 A 
ATOM     41  C   UNL A   1      40.020  24.889  26.300  1.00  0.00     0.014 A 
ATOM     42  C   UNL A   1      41.799  24.472  28.425  1.00  0.00     0.010 A 
ATOM     43  C   UNL A   1      40.747  25.961  26.809  1.00  0.00     0.010 A 
ATOM     44  C   UNL A   1      41.637  25.748  27.869  1.00  0.00    -0.014 A 
BRANCH  44  45
ATOM     45  C   UNL A   1      42.573  26.815  28.283  1.00  0.00     0.031 A 
ATOM     46  C   UNL A   1      41.810  27.981  28.968  1.00  0.00     0.074 A 
ATOM     47  C   UNL A   1      43.899  26.620  27.992  1.00  0.00     0.049 A 
ATOM     48  N   UNL A   1      42.177  29.206  29.187  1.00  0.00    -0.248 NA
ATOM     49  C   UNL A   1      40.417  27.759  29.463  1.00  0.00     0.031 C 
ATOM     50  C   UNL A   1      44.465  25.392  27.382  1.00  0.00     0.029 A 
ATOM     51  N   UNL A   1      45.039  27.388  28.137  1.00  0.00    -0.354 N 
ATOM     52  C   UNL A   1      41.194  29.814  30.008  1.00  0.00     0.074 A 
ATOM     53  C   UNL A   1      40.091  28.910  30.054  1.00  0.00     0.031 C 
ATOM     54  C   UNL A   1      45.788  25.530  27.133  1.00  0.00     0.029 A 
ATOM     55  C   UNL A   1      46.230  26.840  27.570  1.00  0.00     0.049 A 
ATOM     56  H   UNL A   1      45.031  28.257  28.601  1.00  0.00     0.167 HD
ATOM     57  C   UNL A   1      41.418  30.966  30.708  1.00  0.00     0.037 A 
ATOM     58  C   UNL A   1      47.470  27.416  27.445  1.00  0.00     0.037 A 
ATOM     59  C   UNL A   1      42.706  31.471  30.392  1.00  0.00     0.049 A 
ATOM     60  C   UNL A   1      47.386  28.620  28.268  1.00  0.00     0.074 A 
ATOM     61  C   UNL A   1      43.184  32.058  29.253  1.00  0.00     0.029 A 
ATOM     62  N   UNL A   1      43.750  31.025  31.162  1.00  0.00    -0.354 N 
ATOM     63  N   UNL A   1      47.402  28.601  29.565  1.00  0.00    -0.248 NA
ATOM     64  C   UNL A   1      47.254  29.926  27.619  1.00  0.00     0.031 C 
ATOM     65  C   UNL A   1      44.461  31.487  29.130  1.00  0.00     0.029 A 
ATOM     66  C   UNL A   1      44.809  30.829  30.318  1.00  0.00     0.049 A 
ATOM     67  H   UNL A   1      43.740  30.875  32.135  1.00  0.00     0.167 HD
ATOM     68  C   UNL A   1      46.908  29.842  29.864  1.00  0.00     0.074 A 
ATOM     69  C   UNL A   1      47.163  30.682  28.711  1.00  0.00     0.031 C 
ATOM     70  C   UNL A   1      45.853  29.920  30.714  1.00  0.00     0.037 A 
BRANCH  57  71
ATOM     71  C   UNL A   1      40.714  31.632  31.855  1.00  0.00     0.064 A 
ATOM     72  C   UNL A   1      40.382  30.847  32.990  1.00  0.00     0.173 A 
ATOM     73  C   UNL A   1      40.017  32.834  31.711  1.00  0.00     0.173 A 
ATOM     74  F   UNL A   1      41.016  29.690  33.233  1.00  0.00    -0.203 F 
ATOM     75  C   UNL A   1      39.322  31.178  33.832  1.00  0.00     0.198 A 
ATOM     76  C   UNL A   1      38.992  33.192  32.593  1.00  0.00     0.198 A 
ATOM     77  F   UNL A   1      40.222  33.615  30.646  1.00  0.00    -0.203 F 
ATOM     78  F   UNL A   1      38.940  30.323  34.792  1.00  0.00    -0.200 F 
ATOM     79  C   UNL A   1      38.616  32.344  33.623  1.00  0.00     0.200 A 
ATOM     80  F   UNL A   1      38.302  34.323  32.383  1.00  0.00    -0.200 F 
ATOM     81  F   UNL A   1      37.547  32.629  34.380  1.00  0.00    -0.200 F 
ENDBRANCH  57  71
BRANCH  58  82
ATOM     82  C   UNL A   1      48.817  27.230  26.770  1.00  0.00     0.064 A 
ATOM     83  C   UNL A   1      50.002  26.826  27.388  1.00  0.00     0.173 A 
ATOM     84  C   UNL A   1      48.902  27.301  25.341  1.00  0.00     0.173 A 
ATOM     85  F   UNL A   1      50.108  26.811  28.722  1.00  0.00    -0.203 F 
ATOM     86  C   UNL A   1      51.123  26.406  26.639  1.00  0.00     0.198 A 
ATOM     87  C   UNL A   1      49.979  26.819  24.602  1.00  0.00     0.198 A 
ATOM     88  F   UNL A   1      47.917  27.823  24.598  1.00  0.00    -0.203 F 
ATOM     89  F   UNL A   1      52.238  26.016  27.272  1.00  0.00    -0.200 F 
ATOM     90  C   UNL A   1      51.090  26.351  25.254  1.00  0.00     0.200 A 
ATOM     91  F   UNL A   1      49.904  26.783  23.263  1.00  0.00    -0.200 F 
ATOM     92  F   UNL A   1      52.120  25.856  24.553  1.00  0.00    -0.200 F 
ENDBRANCH  58  82
BRANCH  70  93
ATOM     93  C   UNL A   1      45.750  28.742  31.677  1.00  0.00     0.064 A 
ATOM     94  C   UNL A   1      46.812  28.476  32.562  1.00  0.00     0.173 A 
ATOM     95  C   UNL A   1      44.725  27.780  31.657  1.00  0.00     0.173 A 
ATOM     96  F   UNL A   1      47.819  29.354  32.681  1.00  0.00    -0.203 F 
ATOM     97  C   UNL A   1      46.868  27.305  33.327  1.00  0.00     0.198 A 
ATOM     98  C   UNL A   1      44.773  26.611  32.424  1.00  0.00     0.198 A 
ATOM     99  F   UNL A   1      43.643  27.953  30.901  1.00  0.00    -0.203 F 
ATOM    100  F   UNL A   1      47.911  27.087  34.139  1.00  0.00    -0.200 F 
ATOM    101  C   UNL A   1      45.851  26.369  33.251  1.00  0.00     0.200 A 
ATOM    102  F   UNL A   1      43.768  25.723  32.359  1.00  0.00    -0.200 F 
ATOM    103  F   UNL A   1      45.901  25.250  33.989  1.00  0.00    -0.200 F 
ENDBRANCH  70  93
ENDBRANCH  44  45
ENDBRANCH  36  39
ENDBRANCH  34  35
ENDBRANCH  33  34
ENDBRANCH  32  33
ENDBRANCH  31  32
ENDBRANCH   1  31
TORSDOF 19
ENDMDL
MODEL 3
REMARK VINA RESULT:     -10.9      5.382     11.472
REMARK SMILES COc1ccc(-c2ccc(CCC(=O)NCCCCCCNC(=O)c3ccc(-c4c5nc(c(-c6c(F)c(F)c(F)c(F)c6F)c6ccc([nH]6)c(-c6c(F)c(F)c(F)c(F)c6F)c6nc(c(-c7c(F)c(F)c(F)c(F)c7F)c7ccc4[nH]7)C=C6)C=C5)cc3)n2-c2ccc(C(C)=O)cc2)cc1
REMARK SMILES IDX 17 1 16 2 15 3 13 4 14 5 12 7 11 8 10 9 7 10 8 11 88 12 9 13
REMARK SMILES IDX 6 14 3 15 4 16 99 17 5 18 98 19 2 20 1 21 89 22 90 23 97 24
REMARK SMILES IDX 91 25 96 26 92 27 93 28 94 29 95 30 18 31 19 32 20 33 21 34
REMARK SMILES IDX 22 35 23 36 24 38 25 39 26 40 87 41 27 42 86 43 28 44 29 45
REMARK SMILES IDX 30 46 80 47 31 48 85 49 79 50 81 51 32 52 84 53 78 54 77 55
REMARK SMILES IDX 33 57 65 58 45 59 64 60 46 61 49 62 63 63 82 64 47 65 48 66
REMARK SMILES IDX 62 68 83 69 50 70 34 71 35 72 43 73 36 74 37 75 41 76 44 77
REMARK SMILES IDX 38 78 39 79 42 80 40 81 66 82 67 83 75 84 68 85 69 86 73 87
REMARK SMILES IDX 76 88 70 89 71 90 74 91 72 92 51 93 52 94 60 95 53 96 54 97
REMARK SMILES IDX 58 98 61 99 55 100 56 101 59 102 57 103
REMARK H PARENT 15 6 22 37 81 56 49 67
REMARK Flexibility Score: inf
ROOT
ATOM      1  C   UNL A   1      47.485  31.096  29.696  1.00  0.00     0.021 C 
ENDROOT
BRANCH   1   2
ATOM      2  C   UNL A   1      46.633  29.889  29.315  1.00  0.00     0.116 C 
BRANCH   2   3
ATOM      3  N   UNL A   1      46.271  29.955  27.914  1.00  0.00    -0.356 N 
ATOM      4  C   UNL A   1      45.044  29.825  27.340  1.00  0.00     0.220 C 
ATOM      5  O   UNL A   1      44.976  29.700  26.116  1.00  0.00    -0.275 OA
ATOM      6  H   UNL A   1      47.016  30.117  27.291  1.00  0.00     0.163 HD
BRANCH   4   7
ATOM      7  C   UNL A   1      43.790  29.872  28.190  1.00  0.00     0.106 C 
BRANCH   7   8
ATOM      8  C   UNL A   1      42.530  29.462  27.428  1.00  0.00     0.064 C 
BRANCH   8   9
ATOM      9  C   UNL A   1      41.864  28.219  27.963  1.00  0.00     0.024 A 
ATOM     10  C   UNL A   1      41.141  26.075  28.006  1.00  0.00     0.053 A 
ATOM     11  C   UNL A   1      40.505  26.774  29.024  1.00  0.00     0.029 A 
ATOM     12  N   UNL A   1      42.141  26.923  27.527  1.00  0.00    -0.314 N 
ATOM     13  C   UNL A   1      40.959  28.109  28.999  1.00  0.00     0.024 A 
BRANCH  10  14
ATOM     14  C   UNL A   1      41.038  24.637  27.758  1.00  0.00    -0.001 A 
ATOM     15  C   UNL A   1      40.782  21.852  27.438  1.00  0.00     0.118 A 
ATOM     16  C   UNL A   1      41.713  22.385  28.329  1.00  0.00     0.047 A 
ATOM     17  C   UNL A   1      39.971  22.717  26.702  1.00  0.00     0.047 A 
ATOM     18  C   UNL A   1      41.841  23.763  28.492  1.00  0.00     0.014 A 
ATOM     19  C   UNL A   1      40.100  24.107  26.862  1.00  0.00     0.014 A 
BRANCH  15  20
ATOM     20  O   UNL A   1      40.738  20.486  27.416  1.00  0.00    -0.497 OA
ATOM     21  C   UNL A   1      40.153  19.876  26.274  1.00  0.00     0.278 C 
ENDBRANCH  15  20
ENDBRANCH  10  14
BRANCH  12  22
ATOM     22  C   UNL A   1      43.406  26.491  27.055  1.00  0.00     0.046 A 
ATOM     23  C   UNL A   1      43.567  26.419  25.667  1.00  0.00     0.027 A 
ATOM     24  C   UNL A   1      44.484  26.269  27.907  1.00  0.00     0.027 A 
ATOM     25  C   UNL A   1      44.809  26.119  25.118  1.00  0.00     0.014 A 
ATOM     26  C   UNL A   1      45.726  25.941  27.348  1.00  0.00     0.014 A 
ATOM     27  C   UNL A   1      45.902  25.874  25.951  1.00  0.00     0.017 A 
BRANCH  27  28
ATOM     28  C   UNL A   1      47.261  25.552  25.417  1.00  0.00     0.159 C 
ATOM     29  C   UNL A   1      48.503  25.824  26.233  1.00  0.00     0.093 C 
ATOM     30  O   UNL A   1      47.359  25.048  24.298  1.00  0.00    -0.295 OA
ENDBRANCH  27  28
ENDBRANCH  12  22
ENDBRANCH   8   9
ENDBRANCH   7   8
ENDBRANCH   4   7
ENDBRANCH   2   3
ENDBRANCH   1   2
BRANCH   1  31
ATOM     31  C   UNL A   1      46.862  32.454  29.403  1.00  0.00     0.002 C 
BRANCH  31  32
ATOM     32  C   UNL A   1      47.306  33.566  30.355  1.00  0.00     0.002 C 
BRANCH  32  33
ATOM     33  C   UNL A   1      47.895  34.819  29.683  1.00  0.00     0.021 C 
BRANCH  33  34
ATOM     34  C   UNL A   1      47.748  34.847  28.160  1.00  0.00     0.116 C 
BRANCH  34  35
ATOM     35  N   UNL A   1      46.989  36.015  27.757  1.00  0.00    -0.352 N 
ATOM     36  C   UNL A   1      45.641  36.179  27.606  1.00  0.00     0.251 C 
ATOM     37  H   UNL A   1      47.529  36.814  27.562  1.00  0.00     0.163 HD
ATOM     38  O   UNL A   1      45.231  37.068  26.870  1.00  0.00    -0.269 OA
BRANCH  36  39
ATOM     39  C   UNL A   1      44.670  35.336  28.333  1.00  0.00     0.039 A 
ATOM     40  C   UNL A   1      44.371  35.694  29.654  1.00  0.00     0.014 A 
ATOM     41  C   UNL A   1      44.184  34.137  27.798  1.00  0.00     0.014 A 
ATOM     42  C   UNL A   1      43.580  34.864  30.435  1.00  0.00     0.010 A 
ATOM     43  C   UNL A   1      43.379  33.308  28.572  1.00  0.00     0.010 A 
ATOM     44  C   UNL A   1      43.077  33.675  29.889  1.00  0.00    -0.014 A 
BRANCH  44  45
ATOM     45  C   UNL A   1      42.059  32.928  30.658  1.00  0.00     0.031 A 
ATOM     46  C   UNL A   1      42.696  31.708  31.374  1.00  0.00     0.074 A 
ATOM     47  C   UNL A   1      40.773  33.402  30.600  1.00  0.00     0.049 A 
ATOM     48  N   UNL A   1      42.139  30.646  31.871  1.00  0.00    -0.248 NA
ATOM     49  C   UNL A   1      44.179  31.645  31.542  1.00  0.00     0.031 C 
ATOM     50  C   UNL A   1      40.353  34.644  29.906  1.00  0.00     0.029 A 
ATOM     51  N   UNL A   1      39.561  32.958  31.097  1.00  0.00    -0.354 N 
ATOM     52  C   UNL A   1      43.134  29.925  32.578  1.00  0.00     0.074 A 
ATOM     53  C   UNL A   1      44.383  30.532  32.250  1.00  0.00     0.031 C 
ATOM     54  C   UNL A   1      39.010  34.801  29.948  1.00  0.00     0.029 A 
ATOM     55  C   UNL A   1      38.414  33.704  30.685  1.00  0.00     0.049 A 
ATOM     56  H   UNL A   1      39.493  32.179  31.694  1.00  0.00     0.167 HD
ATOM     57  C   UNL A   1      42.839  28.959  33.499  1.00  0.00     0.037 A 
ATOM     58  C   UNL A   1      37.086  33.436  30.906  1.00  0.00     0.037 A 
ATOM     59  C   UNL A   1      41.437  28.746  33.533  1.00  0.00     0.049 A 
ATOM     60  C   UNL A   1      37.101  32.360  31.894  1.00  0.00     0.074 A 
ATOM     61  C   UNL A   1      40.598  28.155  32.629  1.00  0.00     0.029 A 
ATOM     62  N   UNL A   1      40.715  29.526  34.402  1.00  0.00    -0.354 N 
ATOM     63  N   UNL A   1      37.388  32.545  33.146  1.00  0.00    -0.248 NA
ATOM     64  C   UNL A   1      36.804  30.990  31.471  1.00  0.00     0.031 C 
ATOM     65  C   UNL A   1      39.476  29.000  32.660  1.00  0.00     0.029 A 
ATOM     66  C   UNL A   1      39.556  29.866  33.758  1.00  0.00     0.049 A 
ATOM     67  H   UNL A   1      40.980  29.790  35.313  1.00  0.00     0.167 HD
ATOM     68  C   UNL A   1      37.666  31.269  33.556  1.00  0.00     0.074 A 
ATOM     69  C   UNL A   1      36.982  30.378  32.640  1.00  0.00     0.031 C 
ATOM     70  C   UNL A   1      38.847  31.044  34.185  1.00  0.00     0.037 A 
BRANCH  57  71
ATOM     71  C   UNL A   1      43.633  28.290  34.586  1.00  0.00     0.064 A 
ATOM     72  C   UNL A   1      43.613  26.874  34.660  1.00  0.00     0.173 A 
ATOM     73  C   UNL A   1      44.038  28.964  35.741  1.00  0.00     0.173 A 
ATOM     74  F   UNL A   1      43.267  26.134  33.595  1.00  0.00    -0.203 F 
ATOM     75  C   UNL A   1      43.841  26.193  35.855  1.00  0.00     0.198 A 
ATOM     76  C   UNL A   1      44.323  28.274  36.924  1.00  0.00     0.198 A 
ATOM     77  F   UNL A   1      44.037  30.299  35.784  1.00  0.00    -0.203 F 
ATOM     78  F   UNL A   1      43.650  24.868  35.916  1.00  0.00    -0.200 F 
ATOM     79  C   UNL A   1      44.180  26.897  36.992  1.00  0.00     0.200 A 
ATOM     80  F   UNL A   1      44.646  28.961  38.029  1.00  0.00    -0.200 F 
ATOM     81  F   UNL A   1      44.323  26.257  38.162  1.00  0.00    -0.200 F 
ENDBRANCH  57  71
BRANCH  58  82
ATOM     82  C   UNL A   1      35.690  33.858  30.484  1.00  0.00     0.064 A 
ATOM     83  C   UNL A   1      34.764  34.548  31.268  1.00  0.00     0.173 A 
ATOM     84  C   UNL A   1      35.294  33.706  29.115  1.00  0.00     0.173 A 
ATOM     85  F   UNL A   1      34.945  34.679  32.587  1.00  0.00    -0.203 F 
ATOM     86  C   UNL A   1      33.614  35.145  30.704  1.00  0.00     0.198 A 
ATOM     87  C   UNL A   1      34.202  34.354  28.545  1.00  0.00     0.198 A 
ATOM     88  F   UNL A   1      35.981  32.934  28.261  1.00  0.00    -0.203 F 
ATOM     89  F   UNL A   1      32.754  35.808  31.490  1.00  0.00    -0.200 F 
ATOM     90  C   UNL A   1      33.365  35.094  29.341  1.00  0.00     0.200 A 
ATOM     91  F   UNL A   1      33.999  34.279  27.221  1.00  0.00    -0.200 F 
ATOM     92  F   UNL A   1      32.328  35.746  28.798  1.00  0.00    -0.200 F 
ENDBRANCH  58  82
BRANCH  70  93
ATOM     93  C   UNL A   1      39.413  32.272  34.888  1.00  0.00     0.064 A 
ATOM     94  C   UNL A   1      38.695  32.857  35.948  1.00  0.00     0.173 A 
ATOM     95  C   UNL A   1      40.549  32.984  34.463  1.00  0.00     0.173 A 
ATOM     96  F   UNL A   1      37.617  32.234  36.449  1.00  0.00    -0.203 F 
ATOM     97  C   UNL A   1      39.056  34.090  36.501  1.00  0.00     0.198 A 
ATOM     98  C   UNL A   1      40.918  34.215  35.018  1.00  0.00     0.198 A 
ATOM     99  F   UNL A   1      41.338  32.500  33.507  1.00  0.00    -0.203 F 
ATOM    100  F   UNL A   1      38.327  34.617  37.495  1.00  0.00    -0.200 F 
ATOM    101  C   UNL A   1      40.164  34.773  36.030  1.00  0.00     0.200 A 
ATOM    102  F   UNL A   1      42.009  34.854  34.567  1.00  0.00    -0.200 F 
ATOM    103  F   UNL A   1      40.515  35.952  36.564  1.00  0.00    -0.200 F 
ENDBRANCH  70  93
ENDBRANCH  44  45
ENDBRANCH  36  39
ENDBRANCH  34  35
ENDBRANCH  33  34
ENDBRANCH  32  33
ENDBRANCH  31  32
ENDBRANCH   1  31
TORSDOF 19
ENDMDL
