MODEL 1
REMARK VINA RESULT:     -12.2      0.000      0.000
REMARK SMILES Cc1nn(CC(=O)NCCCCCCNC(=O)c2ccc(-c3c4nc(c(-c5c(F)c(F)c(F)c(F)c5F)c5ccc([nH]5)c(-c5c(F)c(F)c(F)c(F)c5F)c5nc(c(-c6c(F)c(F)c(F)c(F)c6F)c6ccc3[nH]6)C=C5)C=C4)cc2)c(C)c1S(=O)(=O)N1CCC(C)(C)C1
REMARK SMILES IDX 11 1 10 2 9 3 8 4 6 5 7 6 5 8 4 9 1 10 2 11 3 12 83 13 81 14
REMARK SMILES IDX 82 15 84 16 85 17 86 18 87 19 88 20 93 21 89 22 90 23 91 24
REMARK SMILES IDX 92 25 12 26 13 27 14 28 15 29 16 30 17 32 18 33 19 34 80 35
REMARK SMILES IDX 20 36 79 37 21 38 22 39 23 40 73 41 24 42 78 43 72 44 74 45
REMARK SMILES IDX 25 46 77 47 71 48 70 49 26 51 58 52 38 53 57 54 39 55 42 56
REMARK SMILES IDX 56 57 75 58 40 59 41 60 55 62 76 63 43 64 27 65 28 66 36 67
REMARK SMILES IDX 29 68 30 69 34 70 37 71 31 72 32 73 35 74 33 75 59 76 60 77
REMARK SMILES IDX 68 78 61 79 62 80 66 81 69 82 63 83 64 84 67 85 65 86 44 87
REMARK SMILES IDX 45 88 53 89 46 90 47 91 51 92 54 93 48 94 49 95 52 96 50 97
REMARK H PARENT 8 7 15 31 74 50 42 61
REMARK Flexibility Score: inf
ROOT
ATOM      1  C   UNL A   1      40.488  22.041  26.449  1.00  0.00     0.002 C 
ENDROOT
BRANCH   1   2
ATOM      2  C   UNL A   1      39.052  21.647  26.085  1.00  0.00     0.021 C 
BRANCH   2   3
ATOM      3  C   UNL A   1      38.084  22.828  26.050  1.00  0.00     0.116 C 
BRANCH   3   4
ATOM      4  N   UNL A   1      37.768  23.224  24.694  1.00  0.00    -0.354 N 
ATOM      5  C   UNL A   1      36.847  22.708  23.826  1.00  0.00     0.241 C 
ATOM      6  O   UNL A   1      36.788  23.215  22.701  1.00  0.00    -0.273 OA
ATOM      7  H   UNL A   1      38.296  23.977  24.345  1.00  0.00     0.163 HD
BRANCH   5   8
ATOM      8  C   UNL A   1      35.832  21.675  24.269  1.00  0.00     0.244 C 
BRANCH   8   9
ATOM      9  N   UNL A   1      34.748  22.205  25.075  1.00  0.00    -0.259 N 
ATOM     10  C   UNL A   1      33.220  22.212  28.242  1.00  0.00     0.070 C 
ATOM     11  C   UNL A   1      33.577  22.474  26.831  1.00  0.00     0.080 A 
ATOM     12  N   UNL A   1      34.633  21.806  26.350  1.00  0.00    -0.176 NA
ATOM     13  C   UNL A   1      33.004  23.304  25.840  1.00  0.00     0.126 A 
ATOM     14  C   UNL A   1      33.756  23.073  24.694  1.00  0.00     0.056 A 
ATOM     15  C   UNL A   1      33.614  23.624  23.317  1.00  0.00     0.068 C 
BRANCH  13  16
ATOM     16  S   UNL A   1      31.668  24.394  25.909  1.00  0.00     0.246 S 
ATOM     17  O   UNL A   1      30.840  23.939  24.800  1.00  0.00    -0.207 OA
ATOM     18  O   UNL A   1      31.223  24.291  27.274  1.00  0.00    -0.207 OA
BRANCH  16  19
ATOM     19  N   UNL A   1      32.057  25.973  25.613  1.00  0.00    -0.197 NA
ATOM     20  C   UNL A   1      31.058  26.991  25.307  1.00  0.00     0.103 C 
ATOM     21  C   UNL A   1      33.342  26.532  26.017  1.00  0.00     0.109 C 
ATOM     22  C   UNL A   1      31.653  28.276  25.870  1.00  0.00     0.024 C 
ATOM     23  C   UNL A   1      33.171  28.045  25.840  1.00  0.00    -0.020 C 
ATOM     24  C   UNL A   1      33.761  28.538  24.515  1.00  0.00     0.012 C 
ATOM     25  C   UNL A   1      33.853  28.772  26.984  1.00  0.00     0.012 C 
ENDBRANCH  16  19
ENDBRANCH  13  16
ENDBRANCH   8   9
ENDBRANCH   5   8
ENDBRANCH   3   4
ENDBRANCH   2   3
ENDBRANCH   1   2
BRANCH   1  26
ATOM     26  C   UNL A   1      41.123  21.249  27.606  1.00  0.00     0.002 C 
BRANCH  26  27
ATOM     27  C   UNL A   1      42.145  20.167  27.219  1.00  0.00     0.021 C 
BRANCH  27  28
ATOM     28  C   UNL A   1      42.220  19.916  25.724  1.00  0.00     0.116 C 
BRANCH  28  29
ATOM     29  N   UNL A   1      43.592  19.686  25.252  1.00  0.00    -0.352 N 
ATOM     30  C   UNL A   1      44.539  20.618  24.857  1.00  0.00     0.251 C 
ATOM     31  H   UNL A   1      43.879  18.745  25.212  1.00  0.00     0.163 HD
ATOM     32  O   UNL A   1      45.502  20.308  24.170  1.00  0.00    -0.269 OA
BRANCH  30  33
ATOM     33  C   UNL A   1      44.369  22.004  25.320  1.00  0.00     0.039 A 
ATOM     34  C   UNL A   1      43.565  22.949  24.675  1.00  0.00     0.014 A 
ATOM     35  C   UNL A   1      45.023  22.317  26.501  1.00  0.00     0.014 A 
ATOM     36  C   UNL A   1      43.399  24.197  25.276  1.00  0.00     0.010 A 
ATOM     37  C   UNL A   1      44.604  23.386  27.223  1.00  0.00     0.010 A 
ATOM     38  C   UNL A   1      43.932  24.398  26.556  1.00  0.00    -0.014 A 
BRANCH  38  39
ATOM     39  C   UNL A   1      43.814  25.633  27.314  1.00  0.00     0.031 A 
ATOM     40  C   UNL A   1      44.864  26.634  27.007  1.00  0.00     0.074 A 
ATOM     41  C   UNL A   1      42.669  25.901  27.986  1.00  0.00     0.049 A 
ATOM     42  N   UNL A   1      45.746  27.123  27.813  1.00  0.00    -0.248 NA
ATOM     43  C   UNL A   1      45.052  27.035  25.603  1.00  0.00     0.031 C 
ATOM     44  C   UNL A   1      41.469  25.057  28.101  1.00  0.00     0.029 A 
ATOM     45  N   UNL A   1      42.286  27.029  28.645  1.00  0.00    -0.354 N 
ATOM     46  C   UNL A   1      46.476  28.041  27.063  1.00  0.00     0.074 A 
ATOM     47  C   UNL A   1      46.140  27.802  25.685  1.00  0.00     0.031 C 
ATOM     48  C   UNL A   1      40.450  25.766  28.629  1.00  0.00     0.029 A 
ATOM     49  C   UNL A   1      40.937  27.071  29.022  1.00  0.00     0.049 A 
ATOM     50  H   UNL A   1      42.913  27.763  28.844  1.00  0.00     0.167 HD
ATOM     51  C   UNL A   1      47.091  29.098  27.661  1.00  0.00     0.037 A 
ATOM     52  C   UNL A   1      40.293  28.119  29.607  1.00  0.00     0.037 A 
ATOM     53  C   UNL A   1      47.196  28.893  29.083  1.00  0.00     0.049 A 
ATOM     54  C   UNL A   1      41.380  28.967  30.178  1.00  0.00     0.074 A 
ATOM     55  C   UNL A   1      47.868  27.997  29.888  1.00  0.00     0.029 A 
ATOM     56  N   UNL A   1      46.212  29.444  29.866  1.00  0.00    -0.354 N 
ATOM     57  N   UNL A   1      42.126  28.595  31.183  1.00  0.00    -0.248 NA
ATOM     58  C   UNL A   1      41.944  30.025  29.350  1.00  0.00     0.031 C 
ATOM     59  C   UNL A   1      46.979  27.726  30.969  1.00  0.00     0.029 A 
ATOM     60  C   UNL A   1      45.841  28.520  30.808  1.00  0.00     0.049 A 
ATOM     61  H   UNL A   1      45.837  30.350  29.769  1.00  0.00     0.167 HD
ATOM     62  C   UNL A   1      43.398  29.064  30.882  1.00  0.00     0.074 A 
ATOM     63  C   UNL A   1      43.205  30.015  29.792  1.00  0.00     0.031 C 
ATOM     64  C   UNL A   1      44.506  28.418  31.353  1.00  0.00     0.037 A 
BRANCH  51  65
ATOM     65  C   UNL A   1      47.231  30.467  27.040  1.00  0.00     0.064 A 
ATOM     66  C   UNL A   1      48.489  31.101  27.063  1.00  0.00     0.173 A 
ATOM     67  C   UNL A   1      46.138  31.297  26.708  1.00  0.00     0.173 A 
ATOM     68  F   UNL A   1      49.595  30.413  27.383  1.00  0.00    -0.203 F 
ATOM     69  C   UNL A   1      48.626  32.476  26.851  1.00  0.00     0.198 A 
ATOM     70  C   UNL A   1      46.286  32.656  26.442  1.00  0.00     0.198 A 
ATOM     71  F   UNL A   1      44.873  30.864  26.741  1.00  0.00    -0.203 F 
ATOM     72  F   UNL A   1      49.822  33.058  27.012  1.00  0.00    -0.200 F 
ATOM     73  C   UNL A   1      47.523  33.254  26.547  1.00  0.00     0.200 A 
ATOM     74  F   UNL A   1      45.201  33.396  26.171  1.00  0.00    -0.200 F 
ATOM     75  F   UNL A   1      47.641  34.580  26.411  1.00  0.00    -0.200 F 
ENDBRANCH  51  65
BRANCH  52  76
ATOM     76  C   UNL A   1      38.860  28.565  29.560  1.00  0.00     0.064 A 
ATOM     77  C   UNL A   1      38.136  28.719  30.764  1.00  0.00     0.173 A 
ATOM     78  C   UNL A   1      38.256  29.144  28.425  1.00  0.00     0.173 A 
ATOM     79  F   UNL A   1      38.603  28.203  31.909  1.00  0.00    -0.203 F 
ATOM     80  C   UNL A   1      36.972  29.497  30.845  1.00  0.00     0.198 A 
ATOM     81  C   UNL A   1      37.091  29.921  28.509  1.00  0.00     0.198 A 
ATOM     82  F   UNL A   1      38.857  29.129  27.230  1.00  0.00    -0.203 F 
ATOM     83  F   UNL A   1      36.393  29.708  32.037  1.00  0.00    -0.200 F 
ATOM     84  C   UNL A   1      36.469  30.125  29.723  1.00  0.00     0.200 A 
ATOM     85  F   UNL A   1      36.658  30.580  27.423  1.00  0.00    -0.200 F 
ATOM     86  F   UNL A   1      35.437  30.975  29.822  1.00  0.00    -0.200 F 
ENDBRANCH  52  76
BRANCH  64  87
ATOM     87  C   UNL A   1      44.279  27.346  32.385  1.00  0.00     0.064 A 
ATOM     88  C   UNL A   1      43.944  27.608  33.727  1.00  0.00     0.173 A 
ATOM     89  C   UNL A   1      44.263  26.011  31.970  1.00  0.00     0.173 A 
ATOM     90  F   UNL A   1      43.845  28.861  34.178  1.00  0.00    -0.203 F 
ATOM     91  C   UNL A   1      43.647  26.578  34.617  1.00  0.00     0.198 A 
ATOM     92  C   UNL A   1      43.931  24.985  32.852  1.00  0.00     0.198 A 
ATOM     93  F   UNL A   1      44.520  25.705  30.689  1.00  0.00    -0.203 F 
ATOM     94  F   UNL A   1      43.343  26.858  35.893  1.00  0.00    -0.200 F 
ATOM     95  C   UNL A   1      43.634  25.267  34.175  1.00  0.00     0.200 A 
ATOM     96  F   UNL A   1      43.872  23.722  32.408  1.00  0.00    -0.200 F 
ATOM     97  F   UNL A   1      43.307  24.277  35.018  1.00  0.00    -0.200 F 
ENDBRANCH  64  87
ENDBRANCH  38  39
ENDBRANCH  30  33
ENDBRANCH  28  29
ENDBRANCH  27  28
ENDBRANCH  26  27
ENDBRANCH   1  26
TORSDOF 16
ENDMDL
MODEL 2
REMARK VINA RESULT:     -12.2      2.697      4.011
REMARK SMILES Cc1nn(CC(=O)NCCCCCCNC(=O)c2ccc(-c3c4nc(c(-c5c(F)c(F)c(F)c(F)c5F)c5ccc([nH]5)c(-c5c(F)c(F)c(F)c(F)c5F)c5nc(c(-c6c(F)c(F)c(F)c(F)c6F)c6ccc3[nH]6)C=C5)C=C4)cc2)c(C)c1S(=O)(=O)N1CCC(C)(C)C1
REMARK SMILES IDX 11 1 10 2 9 3 8 4 6 5 7 6 5 8 4 9 1 10 2 11 3 12 83 13 81 14
REMARK SMILES IDX 82 15 84 16 85 17 86 18 87 19 88 20 93 21 89 22 90 23 91 24
REMARK SMILES IDX 92 25 12 26 13 27 14 28 15 29 16 30 17 32 18 33 19 34 80 35
REMARK SMILES IDX 20 36 79 37 21 38 22 39 23 40 73 41 24 42 78 43 72 44 74 45
REMARK SMILES IDX 25 46 77 47 71 48 70 49 26 51 58 52 38 53 57 54 39 55 42 56
REMARK SMILES IDX 56 57 75 58 40 59 41 60 55 62 76 63 43 64 27 65 28 66 36 67
REMARK SMILES IDX 29 68 30 69 34 70 37 71 31 72 32 73 35 74 33 75 59 76 60 77
REMARK SMILES IDX 68 78 61 79 62 80 66 81 69 82 63 83 64 84 67 85 65 86 44 87
REMARK SMILES IDX 45 88 53 89 46 90 47 91 51 92 54 93 48 94 49 95 52 96 50 97
REMARK H PARENT 8 7 15 31 74 50 42 61
REMARK Flexibility Score: inf
ROOT
ATOM      1  C   UNL A   1      36.884  23.712  25.707  1.00  0.00     0.002 C 
ENDROOT
BRANCH   1   2
ATOM      2  C   UNL A   1      36.469  22.249  25.523  1.00  0.00     0.021 C 
BRANCH   2   3
ATOM      3  C   UNL A   1      35.158  21.892  26.219  1.00  0.00     0.116 C 
BRANCH   3   4
ATOM      4  N   UNL A   1      34.667  20.593  25.808  1.00  0.00    -0.354 N 
ATOM      5  C   UNL A   1      33.727  20.272  24.870  1.00  0.00     0.241 C 
ATOM      6  O   UNL A   1      33.465  19.074  24.722  1.00  0.00    -0.273 OA
ATOM      7  H   UNL A   1      35.071  19.827  26.275  1.00  0.00     0.163 HD
BRANCH   5   8
ATOM      8  C   UNL A   1      33.148  21.316  23.938  1.00  0.00     0.244 C 
BRANCH   8   9
ATOM      9  N   UNL A   1      32.204  22.224  24.565  1.00  0.00    -0.259 N 
ATOM     10  C   UNL A   1      29.774  22.606  27.076  1.00  0.00     0.070 C 
ATOM     11  C   UNL A   1      30.714  22.829  25.958  1.00  0.00     0.080 A 
ATOM     12  N   UNL A   1      31.449  21.777  25.579  1.00  0.00    -0.176 NA
ATOM     13  C   UNL A   1      31.000  23.963  25.162  1.00  0.00     0.126 A 
ATOM     14  C   UNL A   1      31.937  23.529  24.233  1.00  0.00     0.056 A 
ATOM     15  C   UNL A   1      32.591  24.254  23.108  1.00  0.00     0.068 C 
BRANCH  13  16
ATOM     16  S   UNL A   1      30.384  25.574  25.224  1.00  0.00     0.246 S 
ATOM     17  O   UNL A   1      29.739  25.709  23.925  1.00  0.00    -0.207 OA
ATOM     18  O   UNL A   1      29.627  25.596  26.449  1.00  0.00    -0.207 OA
BRANCH  16  19
ATOM     19  N   UNL A   1      31.545  26.747  25.317  1.00  0.00    -0.197 NA
ATOM     20  C   UNL A   1      32.623  26.719  26.299  1.00  0.00     0.103 C 
ATOM     21  C   UNL A   1      31.803  27.656  24.206  1.00  0.00     0.109 C 
ATOM     22  C   UNL A   1      33.784  27.410  25.595  1.00  0.00     0.024 C 
ATOM     23  C   UNL A   1      33.117  28.351  24.581  1.00  0.00    -0.020 C 
ATOM     24  C   UNL A   1      32.880  29.730  25.205  1.00  0.00     0.012 C 
ATOM     25  C   UNL A   1      33.979  28.512  23.342  1.00  0.00     0.012 C 
ENDBRANCH  16  19
ENDBRANCH  13  16
ENDBRANCH   8   9
ENDBRANCH   5   8
ENDBRANCH   3   4
ENDBRANCH   2   3
ENDBRANCH   1   2
BRANCH   1  26
ATOM     26  C   UNL A   1      38.225  23.940  26.427  1.00  0.00     0.002 C 
BRANCH  26  27
ATOM     27  C   UNL A   1      39.152  22.720  26.554  1.00  0.00     0.021 C 
BRANCH  27  28
ATOM     28  C   UNL A   1      40.393  22.990  27.385  1.00  0.00     0.116 C 
BRANCH  28  29
ATOM     29  N   UNL A   1      41.638  22.838  26.619  1.00  0.00    -0.352 N 
ATOM     30  C   UNL A   1      42.391  23.818  25.990  1.00  0.00     0.251 C 
ATOM     31  H   UNL A   1      41.984  21.920  26.543  1.00  0.00     0.163 HD
ATOM     32  O   UNL A   1      43.196  23.546  25.109  1.00  0.00    -0.269 OA
BRANCH  30  33
ATOM     33  C   UNL A   1      42.216  25.208  26.437  1.00  0.00     0.039 A 
ATOM     34  C   UNL A   1      41.281  26.092  25.891  1.00  0.00     0.014 A 
ATOM     35  C   UNL A   1      43.014  25.590  27.504  1.00  0.00     0.014 A 
ATOM     36  C   UNL A   1      41.137  27.349  26.478  1.00  0.00     0.010 A 
ATOM     37  C   UNL A   1      42.648  26.661  28.251  1.00  0.00     0.010 A 
ATOM     38  C   UNL A   1      41.836  27.617  27.663  1.00  0.00    -0.014 A 
BRANCH  38  39
ATOM     39  C   UNL A   1      41.762  28.869  28.398  1.00  0.00     0.031 A 
ATOM     40  C   UNL A   1      42.904  29.782  28.154  1.00  0.00     0.074 A 
ATOM     41  C   UNL A   1      40.598  29.233  28.988  1.00  0.00     0.049 A 
ATOM     42  N   UNL A   1      43.766  30.215  29.012  1.00  0.00    -0.248 NA
ATOM     43  C   UNL A   1      43.216  30.147  26.761  1.00  0.00     0.031 C 
ATOM     44  C   UNL A   1      39.332  28.484  29.030  1.00  0.00     0.029 A 
ATOM     45  N   UNL A   1      40.261  30.397  29.609  1.00  0.00    -0.354 N 
ATOM     46  C   UNL A   1      44.612  31.064  28.304  1.00  0.00     0.074 A 
ATOM     47  C   UNL A   1      44.352  30.830  26.910  1.00  0.00     0.031 C 
ATOM     48  C   UNL A   1      38.338  29.276  29.481  1.00  0.00     0.029 A 
ATOM     49  C   UNL A   1      38.896  30.546  29.894  1.00  0.00     0.049 A 
ATOM     50  H   UNL A   1      40.927  31.084  29.842  1.00  0.00     0.167 HD
ATOM     51  C   UNL A   1      45.265  32.080  28.932  1.00  0.00     0.037 A 
ATOM     52  C   UNL A   1      38.297  31.649  30.423  1.00  0.00     0.037 A 
ATOM     53  C   UNL A   1      45.259  31.889  30.360  1.00  0.00     0.049 A 
ATOM     54  C   UNL A   1      39.405  32.420  31.057  1.00  0.00     0.074 A 
ATOM     55  C   UNL A   1      45.805  30.957  31.217  1.00  0.00     0.029 A 
ATOM     56  N   UNL A   1      44.270  32.525  31.069  1.00  0.00    -0.354 N 
ATOM     57  N   UNL A   1      40.051  32.008  32.114  1.00  0.00    -0.248 NA
ATOM     58  C   UNL A   1      40.102  33.421  30.259  1.00  0.00     0.031 C 
ATOM     59  C   UNL A   1      44.827  30.771  32.238  1.00  0.00     0.029 A 
ATOM     60  C   UNL A   1      43.767  31.646  31.993  1.00  0.00     0.049 A 
ATOM     61  H   UNL A   1      43.973  33.455  30.938  1.00  0.00     0.167 HD
ATOM     62  C   UNL A   1      41.374  32.375  31.896  1.00  0.00     0.074 A 
ATOM     63  C   UNL A   1      41.327  33.322  30.785  1.00  0.00     0.031 C 
ATOM     64  C   UNL A   1      42.394  31.654  32.447  1.00  0.00     0.037 A 
BRANCH  51  65
ATOM     65  C   UNL A   1      45.551  33.425  28.308  1.00  0.00     0.064 A 
ATOM     66  C   UNL A   1      44.473  34.206  27.847  1.00  0.00     0.173 A 
ATOM     67  C   UNL A   1      46.830  33.834  27.870  1.00  0.00     0.173 A 
ATOM     68  F   UNL A   1      43.213  33.899  28.187  1.00  0.00    -0.203 F 
ATOM     69  C   UNL A   1      44.658  35.263  26.951  1.00  0.00     0.198 A 
ATOM     70  C   UNL A   1      47.014  34.923  27.020  1.00  0.00     0.198 A 
ATOM     71  F   UNL A   1      47.938  33.137  28.141  1.00  0.00    -0.203 F 
ATOM     72  F   UNL A   1      43.593  35.893  26.438  1.00  0.00    -0.200 F 
ATOM     73  C   UNL A   1      45.928  35.616  26.533  1.00  0.00     0.200 A 
ATOM     74  F   UNL A   1      48.252  35.234  26.610  1.00  0.00    -0.200 F 
ATOM     75  F   UNL A   1      46.102  36.582  25.623  1.00  0.00    -0.200 F 
ENDBRANCH  51  65
BRANCH  52  76
ATOM     76  C   UNL A   1      36.909  32.202  30.275  1.00  0.00     0.064 A 
ATOM     77  C   UNL A   1      35.979  32.049  31.328  1.00  0.00     0.173 A 
ATOM     78  C   UNL A   1      36.540  33.138  29.286  1.00  0.00     0.173 A 
ATOM     79  F   UNL A   1      36.214  31.181  32.321  1.00  0.00    -0.203 F 
ATOM     80  C   UNL A   1      34.840  32.858  31.446  1.00  0.00     0.198 A 
ATOM     81  C   UNL A   1      35.398  33.945  29.407  1.00  0.00     0.198 A 
ATOM     82  F   UNL A   1      37.350  33.430  28.263  1.00  0.00    -0.203 F 
ATOM     83  F   UNL A   1      34.057  32.751  32.530  1.00  0.00    -0.200 F 
ATOM     84  C   UNL A   1      34.568  33.829  30.503  1.00  0.00     0.200 A 
ATOM     85  F   UNL A   1      35.189  34.928  28.518  1.00  0.00    -0.200 F 
ATOM     86  F   UNL A   1      33.557  34.690  30.682  1.00  0.00    -0.200 F 
ENDBRANCH  52  76
BRANCH  64  87
ATOM     87  C   UNL A   1      42.017  30.618  33.472  1.00  0.00     0.064 A 
ATOM     88  C   UNL A   1      41.739  29.274  33.163  1.00  0.00     0.173 A 
ATOM     89  C   UNL A   1      42.076  30.965  34.825  1.00  0.00     0.173 A 
ATOM     90  F   UNL A   1      41.757  28.841  31.899  1.00  0.00    -0.203 F 
ATOM     91  C   UNL A   1      41.493  28.334  34.162  1.00  0.00     0.198 A 
ATOM     92  C   UNL A   1      41.865  30.017  35.824  1.00  0.00     0.198 A 
ATOM     93  F   UNL A   1      42.392  32.220  35.181  1.00  0.00    -0.203 F 
ATOM     94  F   UNL A   1      41.219  27.062  33.836  1.00  0.00    -0.200 F 
ATOM     95  C   UNL A   1      41.564  28.706  35.492  1.00  0.00     0.200 A 
ATOM     96  F   UNL A   1      41.983  30.371  37.110  1.00  0.00    -0.200 F 
ATOM     97  F   UNL A   1      41.370  27.795  36.456  1.00  0.00    -0.200 F 
ENDBRANCH  64  87
ENDBRANCH  38  39
ENDBRANCH  30  33
ENDBRANCH  28  29
ENDBRANCH  27  28
ENDBRANCH  26  27
ENDBRANCH   1  26
TORSDOF 16
ENDMDL
MODEL 3
REMARK VINA RESULT:     -12.1      1.298      1.959
REMARK SMILES Cc1nn(CC(=O)NCCCCCCNC(=O)c2ccc(-c3c4nc(c(-c5c(F)c(F)c(F)c(F)c5F)c5ccc([nH]5)c(-c5c(F)c(F)c(F)c(F)c5F)c5nc(c(-c6c(F)c(F)c(F)c(F)c6F)c6ccc3[nH]6)C=C5)C=C4)cc2)c(C)c1S(=O)(=O)N1CCC(C)(C)C1
REMARK SMILES IDX 11 1 10 2 9 3 8 4 6 5 7 6 5 8 4 9 1 10 2 11 3 12 83 13 81 14
REMARK SMILES IDX 82 15 84 16 85 17 86 18 87 19 88 20 93 21 89 22 90 23 91 24
REMARK SMILES IDX 92 25 12 26 13 27 14 28 15 29 16 30 17 32 18 33 19 34 80 35
REMARK SMILES IDX 20 36 79 37 21 38 22 39 23 40 73 41 24 42 78 43 72 44 74 45
REMARK SMILES IDX 25 46 77 47 71 48 70 49 26 51 58 52 38 53 57 54 39 55 42 56
REMARK SMILES IDX 56 57 75 58 40 59 41 60 55 62 76 63 43 64 27 65 28 66 36 67
REMARK SMILES IDX 29 68 30 69 34 70 37 71 31 72 32 73 35 74 33 75 59 76 60 77
REMARK SMILES IDX 68 78 61 79 62 80 66 81 69 82 63 83 64 84 67 85 65 86 44 87
REMARK SMILES IDX 45 88 53 89 46 90 47 91 51 92 54 93 48 94 49 95 52 96 50 97
REMARK H PARENT 8 7 15 31 74 50 42 61
REMARK Flexibility Score: inf
ROOT
ATOM      1  C   UNL A   1      40.432  21.002  26.763  1.00  0.00     0.002 C 
ENDROOT
BRANCH   1   2
ATOM      2  C   UNL A   1      39.636  20.412  25.594  1.00  0.00     0.021 C 
BRANCH   2   3
ATOM      3  C   UNL A   1      38.226  20.983  25.464  1.00  0.00     0.116 C 
BRANCH   3   4
ATOM      4  N   UNL A   1      38.102  22.265  26.126  1.00  0.00    -0.354 N 
ATOM      5  C   UNL A   1      37.400  23.376  25.753  1.00  0.00     0.241 C 
ATOM      6  O   UNL A   1      37.477  24.365  26.490  1.00  0.00    -0.273 OA
ATOM      7  H   UNL A   1      38.599  22.348  26.972  1.00  0.00     0.163 HD
BRANCH   5   8
ATOM      8  C   UNL A   1      36.440  23.351  24.582  1.00  0.00     0.244 C 
BRANCH   8   9
ATOM      9  N   UNL A   1      35.083  22.965  24.925  1.00  0.00    -0.259 N 
ATOM     10  C   UNL A   1      32.781  20.315  25.123  1.00  0.00     0.070 C 
ATOM     11  C   UNL A   1      33.443  21.635  25.189  1.00  0.00     0.080 A 
ATOM     12  N   UNL A   1      34.715  21.684  24.774  1.00  0.00    -0.176 NA
ATOM     13  C   UNL A   1      32.992  22.911  25.600  1.00  0.00     0.126 A 
ATOM     14  C   UNL A   1      34.063  23.766  25.373  1.00  0.00     0.056 A 
ATOM     15  C   UNL A   1      34.184  25.237  25.571  1.00  0.00     0.068 C 
BRANCH  13  16
ATOM     16  S   UNL A   1      31.476  23.421  26.246  1.00  0.00     0.246 S 
ATOM     17  O   UNL A   1      30.593  22.326  25.867  1.00  0.00    -0.207 OA
ATOM     18  O   UNL A   1      31.778  23.703  27.625  1.00  0.00    -0.207 OA
BRANCH  16  19
ATOM     19  N   UNL A   1      30.868  24.797  25.562  1.00  0.00    -0.197 NA
ATOM     20  C   UNL A   1      30.876  26.089  26.239  1.00  0.00     0.103 C 
ATOM     21  C   UNL A   1      30.652  24.905  24.124  1.00  0.00     0.109 C 
ATOM     22  C   UNL A   1      30.999  27.102  25.108  1.00  0.00     0.024 C 
ATOM     23  C   UNL A   1      30.386  26.396  23.889  1.00  0.00    -0.020 C 
ATOM     24  C   UNL A   1      28.888  26.703  23.790  1.00  0.00     0.012 C 
ATOM     25  C   UNL A   1      31.065  26.838  22.606  1.00  0.00     0.012 C 
ENDBRANCH  16  19
ENDBRANCH  13  16
ENDBRANCH   8   9
ENDBRANCH   5   8
ENDBRANCH   3   4
ENDBRANCH   2   3
ENDBRANCH   1   2
BRANCH   1  26
ATOM     26  C   UNL A   1      41.682  20.210  27.186  1.00  0.00     0.002 C 
BRANCH  26  27
ATOM     27  C   UNL A   1      42.205  19.167  26.185  1.00  0.00     0.021 C 
BRANCH  27  28
ATOM     28  C   UNL A   1      43.676  18.837  26.370  1.00  0.00     0.116 C 
BRANCH  28  29
ATOM     29  N   UNL A   1      44.437  18.898  25.114  1.00  0.00    -0.352 N 
ATOM     30  C   UNL A   1      44.634  19.984  24.275  1.00  0.00     0.251 C 
ATOM     31  H   UNL A   1      44.863  18.058  24.831  1.00  0.00     0.163 HD
ATOM     32  O   UNL A   1      44.980  19.843  23.110  1.00  0.00    -0.269 OA
BRANCH  30  33
ATOM     33  C   UNL A   1      44.444  21.329  24.839  1.00  0.00     0.039 A 
ATOM     34  C   UNL A   1      43.403  22.187  24.476  1.00  0.00     0.014 A 
ATOM     35  C   UNL A   1      45.349  21.688  25.826  1.00  0.00     0.014 A 
ATOM     36  C   UNL A   1      43.268  23.393  25.165  1.00  0.00     0.010 A 
ATOM     37  C   UNL A   1      45.023  22.684  26.687  1.00  0.00     0.010 A 
ATOM     38  C   UNL A   1      44.095  23.625  26.273  1.00  0.00    -0.014 A 
BRANCH  38  39
ATOM     39  C   UNL A   1      44.049  24.820  27.099  1.00  0.00     0.031 A 
ATOM     40  C   UNL A   1      45.179  25.753  26.878  1.00  0.00     0.074 A 
ATOM     41  C   UNL A   1      42.908  25.134  27.760  1.00  0.00     0.049 A 
ATOM     42  N   UNL A   1      46.073  26.126  27.731  1.00  0.00    -0.248 NA
ATOM     43  C   UNL A   1      45.434  26.220  25.505  1.00  0.00     0.031 C 
ATOM     44  C   UNL A   1      41.646  24.379  27.797  1.00  0.00     0.029 A 
ATOM     45  N   UNL A   1      42.594  26.248  28.477  1.00  0.00    -0.354 N 
ATOM     46  C   UNL A   1      46.889  27.028  27.055  1.00  0.00     0.074 A 
ATOM     47  C   UNL A   1      46.574  26.895  25.658  1.00  0.00     0.031 C 
ATOM     48  C   UNL A   1      40.669  25.132  28.343  1.00  0.00     0.029 A 
ATOM     49  C   UNL A   1      41.241  26.371  28.825  1.00  0.00     0.049 A 
ATOM     50  H   UNL A   1      43.268  26.919  28.733  1.00  0.00     0.167 HD
ATOM     51  C   UNL A   1      47.565  27.999  27.729  1.00  0.00     0.037 A 
ATOM     52  C   UNL A   1      40.661  27.429  29.457  1.00  0.00     0.037 A 
ATOM     53  C   UNL A   1      47.615  27.704  29.138  1.00  0.00     0.049 A 
ATOM     54  C   UNL A   1      41.793  28.157  30.101  1.00  0.00     0.074 A 
ATOM     55  C   UNL A   1      48.196  26.714  29.903  1.00  0.00     0.029 A 
ATOM     56  N   UNL A   1      46.654  28.283  29.930  1.00  0.00    -0.354 N 
ATOM     57  N   UNL A   1      42.481  27.672  31.099  1.00  0.00    -0.248 NA
ATOM     58  C   UNL A   1      42.457  29.216  29.352  1.00  0.00     0.031 C 
ATOM     59  C   UNL A   1      47.260  26.450  30.945  1.00  0.00     0.029 A 
ATOM     60  C   UNL A   1      46.189  27.336  30.806  1.00  0.00     0.049 A 
ATOM     61  H   UNL A   1      46.351  29.218  29.879  1.00  0.00     0.167 HD
ATOM     62  C   UNL A   1      43.793  28.060  30.857  1.00  0.00     0.074 A 
ATOM     63  C   UNL A   1      43.701  29.084  29.821  1.00  0.00     0.031 C 
ATOM     64  C   UNL A   1      44.836  27.305  31.313  1.00  0.00     0.037 A 
BRANCH  51  65
ATOM     65  C   UNL A   1      47.824  29.387  27.194  1.00  0.00     0.064 A 
ATOM     66  C   UNL A   1      49.129  29.912  27.261  1.00  0.00     0.173 A 
ATOM     67  C   UNL A   1      46.806  30.324  26.909  1.00  0.00     0.173 A 
ATOM     68  F   UNL A   1      50.171  29.116  27.543  1.00  0.00    -0.203 F 
ATOM     69  C   UNL A   1      49.382  31.281  27.135  1.00  0.00     0.198 A 
ATOM     70  C   UNL A   1      47.069  31.680  26.728  1.00  0.00     0.198 A 
ATOM     71  F   UNL A   1      45.509  29.996  26.910  1.00  0.00    -0.203 F 
ATOM     72  F   UNL A   1      50.620  31.750  27.338  1.00  0.00    -0.200 F 
ATOM     73  C   UNL A   1      48.350  32.164  26.876  1.00  0.00     0.200 A 
ATOM     74  F   UNL A   1      46.051  32.522  26.499  1.00  0.00    -0.200 F 
ATOM     75  F   UNL A   1      48.579  33.483  26.822  1.00  0.00    -0.200 F 
ENDBRANCH  51  65
BRANCH  52  76
ATOM     76  C   UNL A   1      39.268  27.985  29.404  1.00  0.00     0.064 A 
ATOM     77  C   UNL A   1      38.515  28.099  30.594  1.00  0.00     0.173 A 
ATOM     78  C   UNL A   1      38.749  28.695  28.301  1.00  0.00     0.173 A 
ATOM     79  F   UNL A   1      38.902  27.461  31.707  1.00  0.00    -0.203 F 
ATOM     80  C   UNL A   1      37.409  28.955  30.703  1.00  0.00     0.198 A 
ATOM     81  C   UNL A   1      37.641  29.549  28.413  1.00  0.00     0.198 A 
ATOM     82  F   UNL A   1      39.389  28.729  27.127  1.00  0.00    -0.203 F 
ATOM     83  F   UNL A   1      36.806  29.115  31.890  1.00  0.00    -0.200 F 
ATOM     84  C   UNL A   1      36.994  29.705  29.622  1.00  0.00     0.200 A 
ATOM     85  F   UNL A   1      37.296  30.322  27.372  1.00  0.00    -0.200 F 
ATOM     86  F   UNL A   1      36.024  30.620  29.758  1.00  0.00    -0.200 F 
ENDBRANCH  52  76
BRANCH  64  87
ATOM     87  C   UNL A   1      44.501  26.195  32.274  1.00  0.00     0.064 A 
ATOM     88  C   UNL A   1      44.326  24.852  31.891  1.00  0.00     0.173 A 
ATOM     89  C   UNL A   1      44.495  26.477  33.643  1.00  0.00     0.173 A 
ATOM     90  F   UNL A   1      44.413  24.487  30.609  1.00  0.00    -0.203 F 
ATOM     91  C   UNL A   1      44.116  23.849  32.834  1.00  0.00     0.198 A 
ATOM     92  C   UNL A   1      44.321  25.467  34.587  1.00  0.00     0.198 A 
ATOM     93  F   UNL A   1      44.712  27.731  34.070  1.00  0.00    -0.203 F 
ATOM     94  F   UNL A   1      43.942  22.579  32.438  1.00  0.00    -0.200 F 
ATOM     95  C   UNL A   1      44.121  24.157  34.183  1.00  0.00     0.200 A 
ATOM     96  F   UNL A   1      44.375  25.763  35.893  1.00  0.00    -0.200 F 
ATOM     97  F   UNL A   1      43.962  23.188  35.095  1.00  0.00    -0.200 F 
ENDBRANCH  64  87
ENDBRANCH  38  39
ENDBRANCH  30  33
ENDBRANCH  28  29
ENDBRANCH  27  28
ENDBRANCH  26  27
ENDBRANCH   1  26
TORSDOF 16
ENDMDL
