MODEL 1
REMARK VINA RESULT:     -12.0      0.000      0.000
REMARK SMILES C=C(C)COc1cc(/C=C/c2cc(C(=O)NCCCCCCNC(=O)c3ccc(-c4c5nc(c(-c6c(F)c(F)c(F)c(F)c6F)c6ccc([nH]6)c(-c6c(F)c(F)c(F)c(F)c6F)c6nc(c(-c7c(F)c(F)c(F)c(F)c7F)c7ccc4[nH]7)C=C6)C=C5)cc3)ncn2)ccc1OC
REMARK SMILES IDX 18 1 17 2 16 3 14 4 15 5 13 7 11 8 12 9 91 10 90 11 89 12
REMARK SMILES IDX 10 13 9 14 8 15 6 16 7 17 94 18 93 19 92 20 5 21 4 22 2 23
REMARK SMILES IDX 1 24 3 25 95 26 96 27 19 28 20 29 21 30 22 31 23 32 24 33
REMARK SMILES IDX 25 35 26 36 27 37 88 38 28 39 87 40 29 41 30 42 31 43 81 44
REMARK SMILES IDX 32 45 86 46 80 47 82 48 33 49 85 50 79 51 78 52 34 54 66 55
REMARK SMILES IDX 46 56 65 57 47 58 50 59 64 60 83 61 48 62 49 63 63 65 84 66
REMARK SMILES IDX 51 67 35 68 36 69 44 70 37 71 38 72 42 73 45 74 39 75 40 76
REMARK SMILES IDX 43 77 41 78 67 79 68 80 76 81 69 82 70 83 74 84 77 85 71 86
REMARK SMILES IDX 72 87 75 88 73 89 52 90 53 91 61 92 54 93 55 94 59 95 62 96
REMARK SMILES IDX 56 97 57 98 60 99 58 100
REMARK H PARENT 16 6 23 34 82 53 50 64
REMARK Flexibility Score: inf
ROOT
ATOM      1  C   UNL A   1      32.863  29.249  24.694  1.00  0.00     0.021 C 
ENDROOT
BRANCH   1   2
ATOM      2  C   UNL A   1      33.082  29.337  23.181  1.00  0.00     0.116 C 
BRANCH   2   3
ATOM      3  N   UNL A   1      31.813  29.540  22.506  1.00  0.00    -0.351 N 
ATOM      4  C   UNL A   1      30.726  28.732  22.259  1.00  0.00     0.270 C 
ATOM      5  O   UNL A   1      29.806  29.241  21.615  1.00  0.00    -0.268 OA
ATOM      6  H   UNL A   1      31.708  30.452  22.148  1.00  0.00     0.163 HD
BRANCH   4   7
ATOM      7  C   UNL A   1      30.589  27.324  22.769  1.00  0.00     0.132 A 
ATOM      8  C   UNL A   1      31.363  25.178  23.306  1.00  0.00     0.067 A 
ATOM      9  C   UNL A   1      31.550  26.357  22.606  1.00  0.00     0.062 A 
ATOM     10  N   UNL A   1      30.237  24.893  23.973  1.00  0.00    -0.237 NA
ATOM     11  C   UNL A   1      29.311  25.863  23.982  1.00  0.00     0.223 A 
ATOM     12  N   UNL A   1      29.442  27.079  23.441  1.00  0.00    -0.231 NA
BRANCH   8  13
ATOM     13  C   UNL A   1      32.478  24.222  23.429  1.00  0.00     0.029 C 
ATOM     14  C   UNL A   1      32.258  23.090  24.120  1.00  0.00     0.010 C 
BRANCH  14  15
ATOM     15  C   UNL A   1      33.196  22.060  24.600  1.00  0.00    -0.022 A 
ATOM     16  C   UNL A   1      33.847  19.764  25.147  1.00  0.00     0.162 A 
ATOM     17  C   UNL A   1      32.851  20.756  24.986  1.00  0.00     0.058 A 
ATOM     18  C   UNL A   1      35.192  20.073  24.896  1.00  0.00     0.160 A 
ATOM     19  C   UNL A   1      35.531  21.398  24.616  1.00  0.00     0.051 A 
ATOM     20  C   UNL A   1      34.554  22.378  24.474  1.00  0.00     0.012 A 
BRANCH  16  21
ATOM     21  O   UNL A   1      33.426  18.478  25.367  1.00  0.00    -0.485 OA
BRANCH  21  22
ATOM     22  C   UNL A   1      32.328  18.079  24.528  1.00  0.00     0.260 C 
BRANCH  22  23
ATOM     23  C   UNL A   1      32.873  17.668  23.172  1.00  0.00    -0.043 C 
ATOM     24  C   UNL A   1      32.428  18.206  22.021  1.00  0.00     0.011 C 
ATOM     25  C   UNL A   1      34.029  16.704  23.163  1.00  0.00     0.042 C 
ENDBRANCH  22  23
ENDBRANCH  21  22
ENDBRANCH  16  21
BRANCH  18  26
ATOM     26  O   UNL A   1      36.292  19.271  24.830  1.00  0.00    -0.493 OA
ATOM     27  C   UNL A   1      37.586  19.838  24.809  1.00  0.00     0.278 C 
ENDBRANCH  18  26
ENDBRANCH  14  15
ENDBRANCH   8  13
ENDBRANCH   4   7
ENDBRANCH   2   3
ENDBRANCH   1   2
BRANCH   1  28
ATOM     28  C   UNL A   1      31.657  30.069  25.177  1.00  0.00     0.002 C 
BRANCH  28  29
ATOM     29  C   UNL A   1      31.740  30.536  26.637  1.00  0.00     0.002 C 
BRANCH  29  30
ATOM     30  C   UNL A   1      31.535  32.038  26.846  1.00  0.00     0.021 C 
BRANCH  30  31
ATOM     31  C   UNL A   1      32.824  32.814  27.095  1.00  0.00     0.116 C 
BRANCH  31  32
ATOM     32  N   UNL A   1      32.555  34.155  27.596  1.00  0.00    -0.352 N 
ATOM     33  C   UNL A   1      33.072  34.788  28.695  1.00  0.00     0.251 C 
ATOM     34  H   UNL A   1      31.910  34.680  27.070  1.00  0.00     0.163 HD
ATOM     35  O   UNL A   1      32.557  35.827  29.111  1.00  0.00    -0.269 OA
BRANCH  33  36
ATOM     36  C   UNL A   1      34.243  34.220  29.390  1.00  0.00     0.039 A 
ATOM     37  C   UNL A   1      34.041  33.371  30.480  1.00  0.00     0.014 A 
ATOM     38  C   UNL A   1      35.540  34.535  28.972  1.00  0.00     0.014 A 
ATOM     39  C   UNL A   1      35.140  32.795  31.118  1.00  0.00     0.010 A 
ATOM     40  C   UNL A   1      36.629  33.898  29.558  1.00  0.00     0.010 A 
ATOM     41  C   UNL A   1      36.441  33.028  30.641  1.00  0.00    -0.014 A 
BRANCH  41  42
ATOM     42  C   UNL A   1      37.618  32.374  31.267  1.00  0.00     0.031 A 
ATOM     43  C   UNL A   1      38.344  31.274  30.544  1.00  0.00     0.074 A 
ATOM     44  C   UNL A   1      37.995  32.733  32.509  1.00  0.00     0.049 A 
ATOM     45  N   UNL A   1      39.351  30.540  30.948  1.00  0.00    -0.248 NA
ATOM     46  C   UNL A   1      37.859  30.935  29.196  1.00  0.00     0.031 C 
ATOM     47  C   UNL A   1      37.343  33.756  33.328  1.00  0.00     0.029 A 
ATOM     48  N   UNL A   1      39.014  32.271  33.304  1.00  0.00    -0.354 N 
ATOM     49  C   UNL A   1      39.611  29.652  29.913  1.00  0.00     0.074 A 
ATOM     50  C   UNL A   1      38.621  29.896  28.887  1.00  0.00     0.031 C 
ATOM     51  C   UNL A   1      37.992  33.863  34.498  1.00  0.00     0.029 A 
ATOM     52  C   UNL A   1      39.077  32.887  34.531  1.00  0.00     0.049 A 
ATOM     53  H   UNL A   1      39.641  31.566  33.023  1.00  0.00     0.167 HD
ATOM     54  C   UNL A   1      40.602  28.734  29.817  1.00  0.00     0.037 A 
ATOM     55  C   UNL A   1      39.911  32.680  35.569  1.00  0.00     0.037 A 
ATOM     56  C   UNL A   1      41.595  28.507  30.834  1.00  0.00     0.049 A 
ATOM     57  C   UNL A   1      40.987  31.636  35.444  1.00  0.00     0.074 A 
ATOM     58  C   UNL A   1      42.668  27.635  30.813  1.00  0.00     0.029 A 
ATOM     59  N   UNL A   1      41.631  29.156  32.061  1.00  0.00    -0.354 N 
ATOM     60  N   UNL A   1      41.264  30.847  34.434  1.00  0.00    -0.248 NA
ATOM     61  C   UNL A   1      41.872  31.457  36.603  1.00  0.00     0.031 C 
ATOM     62  C   UNL A   1      43.320  27.714  32.047  1.00  0.00     0.029 A 
ATOM     63  C   UNL A   1      42.693  28.683  32.814  1.00  0.00     0.049 A 
ATOM     64  H   UNL A   1      40.996  29.850  32.352  1.00  0.00     0.167 HD
ATOM     65  C   UNL A   1      42.373  30.106  34.820  1.00  0.00     0.074 A 
ATOM     66  C   UNL A   1      42.726  30.549  36.153  1.00  0.00     0.031 C 
ATOM     67  C   UNL A   1      43.038  29.143  34.136  1.00  0.00     0.037 A 
BRANCH  54  68
ATOM     68  C   UNL A   1      40.666  27.906  28.565  1.00  0.00     0.064 A 
ATOM     69  C   UNL A   1      41.405  28.318  27.445  1.00  0.00     0.173 A 
ATOM     70  C   UNL A   1      40.014  26.665  28.497  1.00  0.00     0.173 A 
ATOM     71  F   UNL A   1      42.038  29.501  27.451  1.00  0.00    -0.203 F 
ATOM     72  C   UNL A   1      41.467  27.532  26.297  1.00  0.00     0.198 A 
ATOM     73  C   UNL A   1      40.107  25.867  27.359  1.00  0.00     0.198 A 
ATOM     74  F   UNL A   1      39.298  26.219  29.540  1.00  0.00    -0.203 F 
ATOM     75  F   UNL A   1      42.138  27.972  25.222  1.00  0.00    -0.200 F 
ATOM     76  C   UNL A   1      40.825  26.305  26.258  1.00  0.00     0.200 A 
ATOM     77  F   UNL A   1      39.498  24.673  27.330  1.00  0.00    -0.200 F 
ATOM     78  F   UNL A   1      40.894  25.545  25.156  1.00  0.00    -0.200 F 
ENDBRANCH  54  68
BRANCH  55  79
ATOM     79  C   UNL A   1      39.774  33.489  36.809  1.00  0.00     0.064 A 
ATOM     80  C   UNL A   1      40.535  34.651  36.999  1.00  0.00     0.173 A 
ATOM     81  C   UNL A   1      38.898  33.108  37.837  1.00  0.00     0.173 A 
ATOM     82  F   UNL A   1      41.401  35.046  36.055  1.00  0.00    -0.203 F 
ATOM     83  C   UNL A   1      40.446  35.386  38.179  1.00  0.00     0.198 A 
ATOM     84  C   UNL A   1      38.786  33.864  39.003  1.00  0.00     0.198 A 
ATOM     85  F   UNL A   1      38.145  32.007  37.705  1.00  0.00    -0.203 F 
ATOM     86  F   UNL A   1      41.227  36.460  38.357  1.00  0.00    -0.200 F 
ATOM     87  C   UNL A   1      39.568  34.994  39.178  1.00  0.00     0.200 A 
ATOM     88  F   UNL A   1      37.924  33.490  39.959  1.00  0.00    -0.200 F 
ATOM     89  F   UNL A   1      39.482  35.701  40.313  1.00  0.00    -0.200 F 
ENDBRANCH  55  79
BRANCH  67  90
ATOM     90  C   UNL A   1      44.242  28.534  34.796  1.00  0.00     0.064 A 
ATOM     91  C   UNL A   1      45.526  29.074  34.634  1.00  0.00     0.173 A 
ATOM     92  C   UNL A   1      44.100  27.418  35.635  1.00  0.00     0.173 A 
ATOM     93  F   UNL A   1      45.718  30.132  33.832  1.00  0.00    -0.203 F 
ATOM     94  C   UNL A   1      46.628  28.500  35.262  1.00  0.00     0.198 A 
ATOM     95  C   UNL A   1      45.199  26.869  36.291  1.00  0.00     0.198 A 
ATOM     96  F   UNL A   1      42.893  26.867  35.831  1.00  0.00    -0.203 F 
ATOM     97  F   UNL A   1      47.854  29.000  35.050  1.00  0.00    -0.200 F 
ATOM     98  C   UNL A   1      46.463  27.404  36.096  1.00  0.00     0.200 A 
ATOM     99  F   UNL A   1      45.034  25.821  37.110  1.00  0.00    -0.200 F 
ATOM    100  F   UNL A   1      47.524  26.859  36.708  1.00  0.00    -0.200 F 
ENDBRANCH  67  90
ENDBRANCH  41  42
ENDBRANCH  33  36
ENDBRANCH  31  32
ENDBRANCH  30  31
ENDBRANCH  29  30
ENDBRANCH  28  29
ENDBRANCH   1  28
TORSDOF 19
ENDMDL
MODEL 2
REMARK VINA RESULT:     -12.0      0.697      7.260
REMARK SMILES C=C(C)COc1cc(/C=C/c2cc(C(=O)NCCCCCCNC(=O)c3ccc(-c4c5nc(c(-c6c(F)c(F)c(F)c(F)c6F)c6ccc([nH]6)c(-c6c(F)c(F)c(F)c(F)c6F)c6nc(c(-c7c(F)c(F)c(F)c(F)c7F)c7ccc4[nH]7)C=C6)C=C5)cc3)ncn2)ccc1OC
REMARK SMILES IDX 18 1 17 2 16 3 14 4 15 5 13 7 11 8 12 9 91 10 90 11 89 12
REMARK SMILES IDX 10 13 9 14 8 15 6 16 7 17 94 18 93 19 92 20 5 21 4 22 2 23
REMARK SMILES IDX 1 24 3 25 95 26 96 27 19 28 20 29 21 30 22 31 23 32 24 33
REMARK SMILES IDX 25 35 26 36 27 37 88 38 28 39 87 40 29 41 30 42 31 43 81 44
REMARK SMILES IDX 32 45 86 46 80 47 82 48 33 49 85 50 79 51 78 52 34 54 66 55
REMARK SMILES IDX 46 56 65 57 47 58 50 59 64 60 83 61 48 62 49 63 63 65 84 66
REMARK SMILES IDX 51 67 35 68 36 69 44 70 37 71 38 72 42 73 45 74 39 75 40 76
REMARK SMILES IDX 43 77 41 78 67 79 68 80 76 81 69 82 70 83 74 84 77 85 71 86
REMARK SMILES IDX 72 87 75 88 73 89 52 90 53 91 61 92 54 93 55 94 59 95 62 96
REMARK SMILES IDX 56 97 57 98 60 99 58 100
REMARK H PARENT 16 6 23 34 82 53 50 64
REMARK Flexibility Score: inf
ROOT
ATOM      1  C   UNL A   1      32.815  29.202  24.938  1.00  0.00     0.021 C 
ENDROOT
BRANCH   1   2
ATOM      2  C   UNL A   1      33.113  29.137  23.437  1.00  0.00     0.116 C 
BRANCH   2   3
ATOM      3  N   UNL A   1      31.889  29.322  22.680  1.00  0.00    -0.351 N 
ATOM      4  C   UNL A   1      30.811  28.513  22.398  1.00  0.00     0.270 C 
ATOM      5  O   UNL A   1      29.936  29.002  21.680  1.00  0.00    -0.268 OA
ATOM      6  H   UNL A   1      31.813  30.220  22.282  1.00  0.00     0.163 HD
BRANCH   4   7
ATOM      7  C   UNL A   1      30.631  27.126  22.952  1.00  0.00     0.132 A 
ATOM      8  C   UNL A   1      31.160  24.856  23.201  1.00  0.00     0.067 A 
ATOM      9  C   UNL A   1      31.274  26.018  22.457  1.00  0.00     0.062 A 
ATOM     10  N   UNL A   1      30.337  24.737  24.252  1.00  0.00    -0.237 NA
ATOM     11  C   UNL A   1      29.670  25.849  24.590  1.00  0.00     0.223 A 
ATOM     12  N   UNL A   1      29.798  27.049  24.014  1.00  0.00    -0.231 NA
BRANCH   8  13
ATOM     13  C   UNL A   1      32.052  23.720  22.913  1.00  0.00     0.029 C 
ATOM     14  C   UNL A   1      32.020  22.671  23.753  1.00  0.00     0.010 C 
BRANCH  14  15
ATOM     15  C   UNL A   1      32.913  21.505  23.869  1.00  0.00    -0.022 A 
ATOM     16  C   UNL A   1      34.900  20.331  24.687  1.00  0.00     0.162 A 
ATOM     17  C   UNL A   1      34.234  21.530  24.340  1.00  0.00     0.058 A 
ATOM     18  C   UNL A   1      34.230  19.102  24.585  1.00  0.00     0.160 A 
ATOM     19  C   UNL A   1      32.956  19.082  24.015  1.00  0.00     0.051 A 
ATOM     20  C   UNL A   1      32.307  20.259  23.658  1.00  0.00     0.012 A 
BRANCH  16  21
ATOM     21  O   UNL A   1      36.126  20.442  25.290  1.00  0.00    -0.485 OA
BRANCH  21  22
ATOM     22  C   UNL A   1      37.069  21.227  24.540  1.00  0.00     0.260 C 
BRANCH  22  23
ATOM     23  C   UNL A   1      37.786  22.169  25.490  1.00  0.00    -0.043 C 
ATOM     24  C   UNL A   1      38.967  21.861  26.059  1.00  0.00     0.011 C 
ATOM     25  C   UNL A   1      37.178  23.532  25.690  1.00  0.00     0.042 C 
ENDBRANCH  22  23
ENDBRANCH  21  22
ENDBRANCH  16  21
BRANCH  18  26
ATOM     26  O   UNL A   1      34.592  17.854  24.996  1.00  0.00    -0.493 OA
ATOM     27  C   UNL A   1      33.718  16.760  24.806  1.00  0.00     0.278 C 
ENDBRANCH  18  26
ENDBRANCH  14  15
ENDBRANCH   8  13
ENDBRANCH   4   7
ENDBRANCH   2   3
ENDBRANCH   1   2
BRANCH   1  28
ATOM     28  C   UNL A   1      31.601  30.080  25.275  1.00  0.00     0.002 C 
BRANCH  28  29
ATOM     29  C   UNL A   1      31.604  30.662  26.695  1.00  0.00     0.002 C 
BRANCH  29  30
ATOM     30  C   UNL A   1      31.476  32.185  26.768  1.00  0.00     0.021 C 
BRANCH  30  31
ATOM     31  C   UNL A   1      32.789  32.907  27.051  1.00  0.00     0.116 C 
BRANCH  31  32
ATOM     32  N   UNL A   1      32.563  34.245  27.582  1.00  0.00    -0.352 N 
ATOM     33  C   UNL A   1      33.099  34.837  28.694  1.00  0.00     0.251 C 
ATOM     34  H   UNL A   1      31.936  34.802  27.066  1.00  0.00     0.163 HD
ATOM     35  O   UNL A   1      32.618  35.882  29.133  1.00  0.00    -0.269 OA
BRANCH  33  36
ATOM     36  C   UNL A   1      34.251  34.216  29.376  1.00  0.00     0.039 A 
ATOM     37  C   UNL A   1      34.020  33.282  30.388  1.00  0.00     0.014 A 
ATOM     38  C   UNL A   1      35.558  34.566  29.026  1.00  0.00     0.014 A 
ATOM     39  C   UNL A   1      35.101  32.657  31.010  1.00  0.00     0.010 A 
ATOM     40  C   UNL A   1      36.632  33.886  29.591  1.00  0.00     0.010 A 
ATOM     41  C   UNL A   1      36.415  32.930  30.594  1.00  0.00    -0.014 A 
BRANCH  41  42
ATOM     42  C   UNL A   1      37.574  32.230  31.200  1.00  0.00     0.031 A 
ATOM     43  C   UNL A   1      38.062  32.618  32.568  1.00  0.00     0.074 A 
ATOM     44  C   UNL A   1      38.222  31.282  30.494  1.00  0.00     0.049 A 
ATOM     45  N   UNL A   1      39.094  32.170  33.239  1.00  0.00    -0.248 NA
ATOM     46  C   UNL A   1      37.305  33.670  33.266  1.00  0.00     0.031 C 
ATOM     47  C   UNL A   1      37.870  30.849  29.141  1.00  0.00     0.029 A 
ATOM     48  N   UNL A   1      39.318  30.520  30.812  1.00  0.00    -0.354 N 
ATOM     49  C   UNL A   1      39.114  32.889  34.427  1.00  0.00     0.074 A 
ATOM     50  C   UNL A   1      38.030  33.844  34.362  1.00  0.00     0.031 C 
ATOM     51  C   UNL A   1      38.716  29.881  28.755  1.00  0.00     0.029 A 
ATOM     52  C   UNL A   1      39.696  29.656  29.813  1.00  0.00     0.049 A 
ATOM     53  H   UNL A   1      39.788  30.585  31.674  1.00  0.00     0.167 HD
ATOM     54  C   UNL A   1      39.945  32.746  35.486  1.00  0.00     0.037 A 
ATOM     55  C   UNL A   1      40.724  28.788  29.754  1.00  0.00     0.037 A 
ATOM     56  C   UNL A   1      41.012  31.782  35.551  1.00  0.00     0.049 A 
ATOM     57  C   UNL A   1      41.648  28.668  30.936  1.00  0.00     0.074 A 
ATOM     58  C   UNL A   1      41.880  31.526  36.598  1.00  0.00     0.029 A 
ATOM     59  N   UNL A   1      41.360  30.918  34.522  1.00  0.00    -0.354 N 
ATOM     60  N   UNL A   1      41.617  29.307  32.081  1.00  0.00    -0.248 NA
ATOM     61  C   UNL A   1      42.748  27.701  30.820  1.00  0.00     0.031 C 
ATOM     62  C   UNL A   1      42.788  30.547  36.182  1.00  0.00     0.029 A 
ATOM     63  C   UNL A   1      42.447  30.146  34.901  1.00  0.00     0.049 A 
ATOM     64  H   UNL A   1      40.902  30.862  33.653  1.00  0.00     0.167 HD
ATOM     65  C   UNL A   1      42.666  28.796  32.832  1.00  0.00     0.074 A 
ATOM     66  C   UNL A   1      43.307  27.784  32.018  1.00  0.00     0.031 C 
ATOM     67  C   UNL A   1      43.067  29.135  34.083  1.00  0.00     0.037 A 
BRANCH  54  68
ATOM     68  C   UNL A   1      39.733  33.653  36.665  1.00  0.00     0.064 A 
ATOM     69  C   UNL A   1      38.875  33.301  37.720  1.00  0.00     0.173 A 
ATOM     70  C   UNL A   1      40.427  34.868  36.765  1.00  0.00     0.173 A 
ATOM     71  F   UNL A   1      38.178  32.156  37.671  1.00  0.00    -0.203 F 
ATOM     72  C   UNL A   1      38.700  34.146  38.814  1.00  0.00     0.198 A 
ATOM     73  C   UNL A   1      40.275  35.693  37.876  1.00  0.00     0.198 A 
ATOM     74  F   UNL A   1      41.264  35.251  35.789  1.00  0.00    -0.203 F 
ATOM     75  F   UNL A   1      37.836  33.812  39.784  1.00  0.00    -0.200 F 
ATOM     76  C   UNL A   1      39.406  35.336  38.895  1.00  0.00     0.200 A 
ATOM     77  F   UNL A   1      40.971  36.836  37.960  1.00  0.00    -0.200 F 
ATOM     78  F   UNL A   1      39.244  36.142  39.954  1.00  0.00    -0.200 F 
ENDBRANCH  54  68
BRANCH  55  79
ATOM     79  C   UNL A   1      40.925  27.949  28.542  1.00  0.00     0.064 A 
ATOM     80  C   UNL A   1      41.696  28.411  27.467  1.00  0.00     0.173 A 
ATOM     81  C   UNL A   1      40.334  26.682  28.424  1.00  0.00     0.173 A 
ATOM     82  F   UNL A   1      42.265  29.624  27.522  1.00  0.00    -0.203 F 
ATOM     83  C   UNL A   1      41.848  27.650  26.310  1.00  0.00     0.198 A 
ATOM     84  C   UNL A   1      40.515  25.908  27.280  1.00  0.00     0.198 A 
ATOM     85  F   UNL A   1      39.588  26.192  29.425  1.00  0.00    -0.203 F 
ATOM     86  F   UNL A   1      42.543  28.140  25.274  1.00  0.00    -0.200 F 
ATOM     87  C   UNL A   1      41.260  26.397  26.218  1.00  0.00     0.200 A 
ATOM     88  F   UNL A   1      39.959  24.691  27.203  1.00  0.00    -0.200 F 
ATOM     89  F   UNL A   1      41.406  25.665  25.106  1.00  0.00    -0.200 F 
ENDBRANCH  55  79
BRANCH  67  90
ATOM     90  C   UNL A   1      44.223  28.375  34.666  1.00  0.00     0.064 A 
ATOM     91  C   UNL A   1      45.543  28.838  34.559  1.00  0.00     0.173 A 
ATOM     92  C   UNL A   1      44.001  27.186  35.378  1.00  0.00     0.173 A 
ATOM     93  F   UNL A   1      45.810  29.962  33.878  1.00  0.00    -0.203 F 
ATOM     94  C   UNL A   1      46.600  28.122  35.116  1.00  0.00     0.198 A 
ATOM     95  C   UNL A   1      45.056  26.492  35.964  1.00  0.00     0.198 A 
ATOM     96  F   UNL A   1      42.757  26.702  35.518  1.00  0.00    -0.203 F 
ATOM     97  F   UNL A   1      47.858  28.556  34.954  1.00  0.00    -0.200 F 
ATOM     98  C   UNL A   1      46.355  26.956  35.825  1.00  0.00     0.200 A 
ATOM     99  F   UNL A   1      44.815  25.374  36.664  1.00  0.00    -0.200 F 
ATOM    100  F   UNL A   1      47.373  26.274  36.368  1.00  0.00    -0.200 F 
ENDBRANCH  67  90
ENDBRANCH  41  42
ENDBRANCH  33  36
ENDBRANCH  31  32
ENDBRANCH  30  31
ENDBRANCH  29  30
ENDBRANCH  28  29
ENDBRANCH   1  28
TORSDOF 19
ENDMDL
MODEL 3
REMARK VINA RESULT:     -11.8      5.792     10.989
REMARK SMILES C=C(C)COc1cc(/C=C/c2cc(C(=O)NCCCCCCNC(=O)c3ccc(-c4c5nc(c(-c6c(F)c(F)c(F)c(F)c6F)c6ccc([nH]6)c(-c6c(F)c(F)c(F)c(F)c6F)c6nc(c(-c7c(F)c(F)c(F)c(F)c7F)c7ccc4[nH]7)C=C6)C=C5)cc3)ncn2)ccc1OC
REMARK SMILES IDX 18 1 17 2 16 3 14 4 15 5 13 7 11 8 12 9 91 10 90 11 89 12
REMARK SMILES IDX 10 13 9 14 8 15 6 16 7 17 94 18 93 19 92 20 5 21 4 22 2 23
REMARK SMILES IDX 1 24 3 25 95 26 96 27 19 28 20 29 21 30 22 31 23 32 24 33
REMARK SMILES IDX 25 35 26 36 27 37 88 38 28 39 87 40 29 41 30 42 31 43 81 44
REMARK SMILES IDX 32 45 86 46 80 47 82 48 33 49 85 50 79 51 78 52 34 54 66 55
REMARK SMILES IDX 46 56 65 57 47 58 50 59 64 60 83 61 48 62 49 63 63 65 84 66
REMARK SMILES IDX 51 67 35 68 36 69 44 70 37 71 38 72 42 73 45 74 39 75 40 76
REMARK SMILES IDX 43 77 41 78 67 79 68 80 76 81 69 82 70 83 74 84 77 85 71 86
REMARK SMILES IDX 72 87 75 88 73 89 52 90 53 91 61 92 54 93 55 94 59 95 62 96
REMARK SMILES IDX 56 97 57 98 60 99 58 100
REMARK H PARENT 16 6 23 34 82 53 50 64
REMARK Flexibility Score: inf
ROOT
ATOM      1  C   UNL A   1      39.181  22.792  26.477  1.00  0.00     0.021 C 
ENDROOT
BRANCH   1   2
ATOM      2  C   UNL A   1      38.133  21.874  25.842  1.00  0.00     0.116 C 
BRANCH   2   3
ATOM      3  N   UNL A   1      37.782  22.361  24.521  1.00  0.00    -0.351 N 
ATOM      4  C   UNL A   1      36.587  22.586  23.875  1.00  0.00     0.270 C 
ATOM      5  O   UNL A   1      36.664  22.988  22.712  1.00  0.00    -0.268 OA
ATOM      6  H   UNL A   1      38.568  22.576  23.968  1.00  0.00     0.163 HD
BRANCH   4   7
ATOM      7  C   UNL A   1      35.237  22.423  24.519  1.00  0.00     0.132 A 
ATOM      8  C   UNL A   1      33.151  23.164  25.289  1.00  0.00     0.067 A 
ATOM      9  C   UNL A   1      34.443  23.475  24.901  1.00  0.00     0.062 A 
ATOM     10  N   UNL A   1      32.722  21.906  25.462  1.00  0.00    -0.237 NA
ATOM     11  C   UNL A   1      33.611  20.948  25.165  1.00  0.00     0.223 A 
ATOM     12  N   UNL A   1      34.839  21.140  24.671  1.00  0.00    -0.231 NA
BRANCH   8  13
ATOM     13  C   UNL A   1      32.153  24.239  25.419  1.00  0.00     0.029 C 
ATOM     14  C   UNL A   1      32.175  25.227  24.508  1.00  0.00     0.010 C 
BRANCH  14  15
ATOM     15  C   UNL A   1      31.475  26.524  24.480  1.00  0.00    -0.022 A 
ATOM     16  C   UNL A   1      31.299  28.935  24.867  1.00  0.00     0.162 A 
ATOM     17  C   UNL A   1      31.855  27.674  25.187  1.00  0.00     0.058 A 
ATOM     18  C   UNL A   1      30.375  29.047  23.817  1.00  0.00     0.160 A 
ATOM     19  C   UNL A   1      29.927  27.881  23.194  1.00  0.00     0.051 A 
ATOM     20  C   UNL A   1      30.462  26.639  23.519  1.00  0.00     0.012 A 
BRANCH  16  21
ATOM     21  O   UNL A   1      31.832  30.035  25.486  1.00  0.00    -0.485 OA
BRANCH  21  22
ATOM     22  C   UNL A   1      32.015  29.868  26.902  1.00  0.00     0.260 C 
BRANCH  22  23
ATOM     23  C   UNL A   1      33.462  30.169  27.248  1.00  0.00    -0.043 C 
ATOM     24  C   UNL A   1      33.876  31.393  27.623  1.00  0.00     0.011 C 
ATOM     25  C   UNL A   1      34.416  29.004  27.269  1.00  0.00     0.042 C 
ENDBRANCH  22  23
ENDBRANCH  21  22
ENDBRANCH  16  21
BRANCH  18  26
ATOM     26  O   UNL A   1      29.827  30.148  23.227  1.00  0.00    -0.493 OA
ATOM     27  C   UNL A   1      29.009  30.010  22.084  1.00  0.00     0.278 C 
ENDBRANCH  18  26
ENDBRANCH  14  15
ENDBRANCH   8  13
ENDBRANCH   4   7
ENDBRANCH   2   3
ENDBRANCH   1   2
BRANCH   1  28
ATOM     28  C   UNL A   1      40.617  22.271  26.316  1.00  0.00     0.002 C 
BRANCH  28  29
ATOM     29  C   UNL A   1      40.900  20.937  27.022  1.00  0.00     0.002 C 
BRANCH  29  30
ATOM     30  C   UNL A   1      41.352  19.803  26.099  1.00  0.00     0.021 C 
BRANCH  30  31
ATOM     31  C   UNL A   1      42.692  19.185  26.483  1.00  0.00     0.116 C 
BRANCH  31  32
ATOM     32  N   UNL A   1      43.479  18.839  25.307  1.00  0.00    -0.352 N 
ATOM     33  C   UNL A   1      44.202  19.656  24.478  1.00  0.00     0.251 C 
ATOM     34  H   UNL A   1      43.495  17.882  25.077  1.00  0.00     0.163 HD
ATOM     35  O   UNL A   1      44.609  19.236  23.395  1.00  0.00    -0.269 OA
BRANCH  33  36
ATOM     36  C   UNL A   1      44.486  21.047  24.879  1.00  0.00     0.039 A 
ATOM     37  C   UNL A   1      43.977  22.094  24.107  1.00  0.00     0.014 A 
ATOM     38  C   UNL A   1      45.264  21.317  26.009  1.00  0.00     0.014 A 
ATOM     39  C   UNL A   1      44.204  23.414  24.501  1.00  0.00     0.010 A 
ATOM     40  C   UNL A   1      45.421  22.629  26.443  1.00  0.00     0.010 A 
ATOM     41  C   UNL A   1      44.899  23.691  25.689  1.00  0.00    -0.014 A 
BRANCH  41  42
ATOM     42  C   UNL A   1      45.096  25.086  26.158  1.00  0.00     0.031 A 
ATOM     43  C   UNL A   1      46.458  25.718  26.102  1.00  0.00     0.074 A 
ATOM     44  C   UNL A   1      44.056  25.762  26.685  1.00  0.00     0.049 A 
ATOM     45  N   UNL A   1      46.844  26.897  26.521  1.00  0.00    -0.248 NA
ATOM     46  C   UNL A   1      47.541  24.906  25.522  1.00  0.00     0.031 C 
ATOM     47  C   UNL A   1      42.697  25.241  26.833  1.00  0.00     0.029 A 
ATOM     48  N   UNL A   1      43.984  27.031  27.204  1.00  0.00    -0.354 N 
ATOM     49  C   UNL A   1      48.207  26.964  26.264  1.00  0.00     0.074 A 
ATOM     50  C   UNL A   1      48.596  25.685  25.710  1.00  0.00     0.031 C 
ATOM     51  C   UNL A   1      41.919  26.189  27.379  1.00  0.00     0.029 A 
ATOM     52  C   UNL A   1      42.733  27.367  27.662  1.00  0.00     0.049 A 
ATOM     53  H   UNL A   1      44.754  27.642  27.245  1.00  0.00     0.167 HD
ATOM     54  C   UNL A   1      49.051  28.006  26.450  1.00  0.00     0.037 A 
ATOM     55  C   UNL A   1      42.295  28.496  28.252  1.00  0.00     0.037 A 
ATOM     56  C   UNL A   1      48.655  29.281  26.986  1.00  0.00     0.049 A 
ATOM     57  C   UNL A   1      43.262  29.629  28.470  1.00  0.00     0.074 A 
ATOM     58  C   UNL A   1      49.423  30.416  27.170  1.00  0.00     0.029 A 
ATOM     59  N   UNL A   1      47.376  29.587  27.432  1.00  0.00    -0.354 N 
ATOM     60  N   UNL A   1      44.535  29.704  28.163  1.00  0.00    -0.248 NA
ATOM     61  C   UNL A   1      42.729  30.838  29.112  1.00  0.00     0.031 C 
ATOM     62  C   UNL A   1      48.626  31.390  27.778  1.00  0.00     0.029 A 
ATOM     63  C   UNL A   1      47.343  30.886  27.914  1.00  0.00     0.049 A 
ATOM     64  H   UNL A   1      46.607  28.973  27.409  1.00  0.00     0.167 HD
ATOM     65  C   UNL A   1      44.944  30.975  28.540  1.00  0.00     0.074 A 
ATOM     66  C   UNL A   1      43.781  31.643  29.087  1.00  0.00     0.031 C 
ATOM     67  C   UNL A   1      46.174  31.540  28.446  1.00  0.00     0.037 A 
BRANCH  54  68
ATOM     68  C   UNL A   1      50.491  27.813  26.066  1.00  0.00     0.064 A 
ATOM     69  C   UNL A   1      50.930  27.978  24.743  1.00  0.00     0.173 A 
ATOM     70  C   UNL A   1      51.452  27.500  27.040  1.00  0.00     0.173 A 
ATOM     71  F   UNL A   1      50.052  28.266  23.771  1.00  0.00    -0.203 F 
ATOM     72  C   UNL A   1      52.271  27.809  24.406  1.00  0.00     0.198 A 
ATOM     73  C   UNL A   1      52.797  27.367  26.704  1.00  0.00     0.198 A 
ATOM     74  F   UNL A   1      51.090  27.336  28.321  1.00  0.00    -0.203 F 
ATOM     75  F   UNL A   1      52.657  27.922  23.126  1.00  0.00    -0.200 F 
ATOM     76  C   UNL A   1      53.204  27.513  25.387  1.00  0.00     0.200 A 
ATOM     77  F   UNL A   1      53.700  27.095  27.657  1.00  0.00    -0.200 F 
ATOM     78  F   UNL A   1      54.496  27.362  25.062  1.00  0.00    -0.200 F 
ENDBRANCH  54  68
BRANCH  55  79
ATOM     79  C   UNL A   1      40.871  28.620  28.663  1.00  0.00     0.064 A 
ATOM     80  C   UNL A   1      40.460  28.260  29.954  1.00  0.00     0.173 A 
ATOM     81  C   UNL A   1      39.891  29.078  27.771  1.00  0.00     0.173 A 
ATOM     82  F   UNL A   1      41.356  27.797  30.838  1.00  0.00    -0.203 F 
ATOM     83  C   UNL A   1      39.120  28.329  30.329  1.00  0.00     0.198 A 
ATOM     84  C   UNL A   1      38.556  29.178  28.158  1.00  0.00     0.198 A 
ATOM     85  F   UNL A   1      40.231  29.438  26.524  1.00  0.00    -0.203 F 
ATOM     86  F   UNL A   1      38.747  27.924  31.551  1.00  0.00    -0.200 F 
ATOM     87  C   UNL A   1      38.169  28.792  29.432  1.00  0.00     0.200 A 
ATOM     88  F   UNL A   1      37.642  29.642  27.293  1.00  0.00    -0.200 F 
ATOM     89  F   UNL A   1      36.881  28.858  29.792  1.00  0.00    -0.200 F 
ENDBRANCH  55  79
BRANCH  67  90
ATOM     90  C   UNL A   1      46.315  32.964  28.901  1.00  0.00     0.064 A 
ATOM     91  C   UNL A   1      46.097  34.044  28.033  1.00  0.00     0.173 A 
ATOM     92  C   UNL A   1      46.635  33.251  30.237  1.00  0.00     0.173 A 
ATOM     93  F   UNL A   1      45.801  33.824  26.743  1.00  0.00    -0.203 F 
ATOM     94  C   UNL A   1      46.224  35.357  28.478  1.00  0.00     0.198 A 
ATOM     95  C   UNL A   1      46.726  34.565  30.687  1.00  0.00     0.198 A 
ATOM     96  F   UNL A   1      46.847  32.256  31.112  1.00  0.00    -0.203 F 
ATOM     97  F   UNL A   1      46.063  36.372  27.617  1.00  0.00    -0.200 F 
ATOM     98  C   UNL A   1      46.530  35.617  29.805  1.00  0.00     0.200 A 
ATOM     99  F   UNL A   1      47.005  34.814  31.975  1.00  0.00    -0.200 F 
ATOM    100  F   UNL A   1      46.642  36.882  30.234  1.00  0.00    -0.200 F 
ENDBRANCH  67  90
ENDBRANCH  41  42
ENDBRANCH  33  36
ENDBRANCH  31  32
ENDBRANCH  30  31
ENDBRANCH  29  30
ENDBRANCH  28  29
ENDBRANCH   1  28
TORSDOF 19
ENDMDL
