MODEL 1
REMARK VINA RESULT:     -11.7      0.000      0.000
REMARK SMILES O=C(NCCCCCCNC(=O)c1cccc(/C=N/NC(=S)Nc2ccccc2)c1O)c1ccc(-c2c3nc(c(-c4c(F)c(F)c(F)c(F)c4F)c4ccc([nH]4)c(-c4c(F)c(F)c(F)c(F)c4F)c4nc(c(-c5c(F)c(F)c(F)c(F)c5F)c5ccc2[nH]5)C=C4)C=C3)cc1
REMARK SMILES IDX 8 1 7 2 6 3 5 4 4 5 3 6 1 7 2 8 32 10 33 11 94 12 34 13
REMARK SMILES IDX 93 14 35 15 36 16 37 17 87 18 38 19 92 20 86 21 88 22 39 23
REMARK SMILES IDX 91 24 85 25 84 26 40 28 72 29 52 30 71 31 53 32 56 33 70 34
REMARK SMILES IDX 89 35 54 36 55 37 69 39 90 40 57 41 41 42 42 43 50 44 43 45
REMARK SMILES IDX 44 46 48 47 51 48 45 49 46 50 49 51 47 52 73 53 74 54 82 55
REMARK SMILES IDX 75 56 76 57 80 58 83 59 77 60 78 61 81 62 79 63 58 64 59 65
REMARK SMILES IDX 67 66 60 67 61 68 65 69 68 70 62 71 63 72 66 73 64 74 9 75
REMARK SMILES IDX 10 76 11 77 12 79 13 80 14 81 30 82 15 83 17 84 16 85 31 86
REMARK SMILES IDX 18 88 19 89 20 90 21 92 22 93 23 94 24 96 25 97 29 98 26 99
REMARK SMILES IDX 28 100 27 101
REMARK H PARENT 3 9 88 27 56 38 10 78 31 87 20 91 23 95
REMARK Flexibility Score: inf
ROOT
ATOM      1  C   UNL A   1      33.639  29.442  26.930  1.00  0.00     0.021 C 
ENDROOT
BRANCH   1   2
ATOM      2  C   UNL A   1      32.144  29.765  27.015  1.00  0.00     0.002 C 
BRANCH   2   3
ATOM      3  C   UNL A   1      31.604  30.806  26.030  1.00  0.00     0.002 C 
BRANCH   3   4
ATOM      4  C   UNL A   1      31.402  32.221  26.573  1.00  0.00     0.021 C 
BRANCH   4   5
ATOM      5  C   UNL A   1      32.637  32.885  27.170  1.00  0.00     0.116 C 
BRANCH   5   6
ATOM      6  N   UNL A   1      32.366  34.204  27.712  1.00  0.00    -0.352 N 
ATOM      7  O   UNL A   1      32.553  35.940  29.137  1.00  0.00    -0.269 OA
ATOM      8  C   UNL A   1      32.997  34.873  28.731  1.00  0.00     0.251 C 
ATOM      9  H   UNL A   1      31.623  34.689  27.286  1.00  0.00     0.163 HD
BRANCH   8  10
ATOM     10  C   UNL A   1      34.197  34.286  29.362  1.00  0.00     0.039 A 
ATOM     11  C   UNL A   1      35.479  34.555  28.871  1.00  0.00     0.014 A 
ATOM     12  C   UNL A   1      34.028  33.461  30.477  1.00  0.00     0.014 A 
ATOM     13  C   UNL A   1      36.581  33.904  29.418  1.00  0.00     0.010 A 
ATOM     14  C   UNL A   1      35.142  32.869  31.073  1.00  0.00     0.010 A 
ATOM     15  C   UNL A   1      36.423  33.065  30.533  1.00  0.00    -0.014 A 
BRANCH  15  16
ATOM     16  C   UNL A   1      37.604  32.432  31.169  1.00  0.00     0.031 A 
ATOM     17  C   UNL A   1      38.310  31.287  30.502  1.00  0.00     0.074 A 
ATOM     18  C   UNL A   1      38.010  32.870  32.374  1.00  0.00     0.049 A 
ATOM     19  N   UNL A   1      39.287  30.542  30.951  1.00  0.00    -0.248 NA
ATOM     20  C   UNL A   1      37.847  30.923  29.155  1.00  0.00     0.031 C 
ATOM     21  C   UNL A   1      37.402  33.975  33.116  1.00  0.00     0.029 A 
ATOM     22  N   UNL A   1      39.017  32.430  33.196  1.00  0.00    -0.354 N 
ATOM     23  C   UNL A   1      39.541  29.607  29.956  1.00  0.00     0.074 A 
ATOM     24  C   UNL A   1      38.594  29.861  28.891  1.00  0.00     0.031 C 
ATOM     25  C   UNL A   1      38.050  34.132  34.278  1.00  0.00     0.029 A 
ATOM     26  C   UNL A   1      39.074  33.099  34.393  1.00  0.00     0.049 A 
ATOM     27  H   UNL A   1      39.637  31.706  32.951  1.00  0.00     0.167 HD
ATOM     28  C   UNL A   1      40.480  28.631  29.937  1.00  0.00     0.037 A 
ATOM     29  C   UNL A   1      39.836  32.881  35.480  1.00  0.00     0.037 A 
ATOM     30  C   UNL A   1      41.414  28.390  31.008  1.00  0.00     0.049 A 
ATOM     31  C   UNL A   1      40.836  31.759  35.458  1.00  0.00     0.074 A 
ATOM     32  C   UNL A   1      42.428  27.450  31.076  1.00  0.00     0.029 A 
ATOM     33  N   UNL A   1      41.438  29.086  32.209  1.00  0.00    -0.354 N 
ATOM     34  N   UNL A   1      41.092  30.901  34.500  1.00  0.00    -0.248 NA
ATOM     35  C   UNL A   1      41.653  31.578  36.664  1.00  0.00     0.031 C 
ATOM     36  C   UNL A   1      43.020  27.533  32.340  1.00  0.00     0.029 A 
ATOM     37  C   UNL A   1      42.429  28.576  33.035  1.00  0.00     0.049 A 
ATOM     38  H   UNL A   1      40.840  29.833  32.441  1.00  0.00     0.167 HD
ATOM     39  C   UNL A   1      42.121  30.099  34.972  1.00  0.00     0.074 A 
ATOM     40  C   UNL A   1      42.442  30.575  36.303  1.00  0.00     0.031 C 
ATOM     41  C   UNL A   1      42.747  29.068  34.354  1.00  0.00     0.037 A 
BRANCH  28  42
ATOM     42  C   UNL A   1      40.518  27.725  28.737  1.00  0.00     0.064 A 
ATOM     43  C   UNL A   1      41.290  28.023  27.603  1.00  0.00     0.173 A 
ATOM     44  C   UNL A   1      39.776  26.533  28.726  1.00  0.00     0.173 A 
ATOM     45  F   UNL A   1      42.011  29.153  27.555  1.00  0.00    -0.203 F 
ATOM     46  C   UNL A   1      41.281  27.187  26.488  1.00  0.00     0.198 A 
ATOM     47  C   UNL A   1      39.800  25.681  27.624  1.00  0.00     0.198 A 
ATOM     48  F   UNL A   1      39.028  26.191  29.785  1.00  0.00    -0.203 F 
ATOM     49  F   UNL A   1      41.972  27.529  25.392  1.00  0.00    -0.200 F 
ATOM     50  C   UNL A   1      40.542  26.015  26.502  1.00  0.00     0.200 A 
ATOM     51  F   UNL A   1      39.096  24.540  27.647  1.00  0.00    -0.200 F 
ATOM     52  F   UNL A   1      40.533  25.213  25.428  1.00  0.00    -0.200 F 
ENDBRANCH  28  42
BRANCH  29  53
ATOM     53  C   UNL A   1      39.665  33.748  36.673  1.00  0.00     0.064 A 
ATOM     54  C   UNL A   1      40.300  34.994  36.755  1.00  0.00     0.173 A 
ATOM     55  C   UNL A   1      38.829  33.369  37.734  1.00  0.00     0.173 A 
ATOM     56  F   UNL A   1      41.120  35.393  35.772  1.00  0.00    -0.203 F 
ATOM     57  C   UNL A   1      40.110  35.826  37.856  1.00  0.00     0.198 A 
ATOM     58  C   UNL A   1      38.616  34.214  38.820  1.00  0.00     0.198 A 
ATOM     59  F   UNL A   1      38.191  32.189  37.698  1.00  0.00    -0.203 F 
ATOM     60  F   UNL A   1      40.751  37.000  37.924  1.00  0.00    -0.200 F 
ATOM     61  C   UNL A   1      39.261  35.439  38.882  1.00  0.00     0.200 A 
ATOM     62  F   UNL A   1      37.778  33.845  39.798  1.00  0.00    -0.200 F 
ATOM     63  F   UNL A   1      39.064  36.248  39.933  1.00  0.00    -0.200 F 
ENDBRANCH  29  53
BRANCH  41  64
ATOM     64  C   UNL A   1      43.888  28.413  35.078  1.00  0.00     0.064 A 
ATOM     65  C   UNL A   1      43.716  27.253  35.845  1.00  0.00     0.173 A 
ATOM     66  C   UNL A   1      45.188  28.926  34.946  1.00  0.00     0.173 A 
ATOM     67  F   UNL A   1      42.490  26.732  36.017  1.00  0.00    -0.203 F 
ATOM     68  C   UNL A   1      44.800  26.637  36.465  1.00  0.00     0.198 A 
ATOM     69  C   UNL A   1      46.274  28.290  35.540  1.00  0.00     0.198 A 
ATOM     70  F   UNL A   1      45.409  30.033  34.220  1.00  0.00    -0.203 F 
ATOM     71  F   UNL A   1      44.607  25.551  37.226  1.00  0.00    -0.200 F 
ATOM     72  C   UNL A   1      46.079  27.149  36.302  1.00  0.00     0.200 A 
ATOM     73  F   UNL A   1      47.511  28.779  35.368  1.00  0.00    -0.200 F 
ATOM     74  F   UNL A   1      47.124  26.546  36.885  1.00  0.00    -0.200 F 
ENDBRANCH  41  64
ENDBRANCH  15  16
ENDBRANCH   8  10
ENDBRANCH   5   6
ENDBRANCH   4   5
ENDBRANCH   3   4
ENDBRANCH   2   3
ENDBRANCH   1   2
BRANCH   1  75
ATOM     75  C   UNL A   1      34.006  28.239  26.071  1.00  0.00     0.116 C 
BRANCH  75  76
ATOM     76  N   UNL A   1      34.174  28.568  24.669  1.00  0.00    -0.352 N 
ATOM     77  C   UNL A   1      33.492  28.120  23.565  1.00  0.00     0.255 C 
ATOM     78  H   UNL A   1      34.892  29.215  24.479  1.00  0.00     0.163 HD
ATOM     79  O   UNL A   1      33.914  28.438  22.453  1.00  0.00    -0.269 OA
BRANCH  77  80
ATOM     80  C   UNL A   1      32.266  27.279  23.656  1.00  0.00     0.082 A 
ATOM     81  C   UNL A   1      31.042  27.964  23.702  1.00  0.00     0.018 A 
ATOM     82  C   UNL A   1      32.264  25.884  23.809  1.00  0.00     0.137 A 
ATOM     83  C   UNL A   1      29.840  27.273  23.879  1.00  0.00     0.002 A 
ATOM     84  C   UNL A   1      31.057  25.187  23.970  1.00  0.00     0.037 A 
ATOM     85  C   UNL A   1      29.848  25.886  24.015  1.00  0.00     0.014 A 
BRANCH  82  86
ATOM     86  O   UNL A   1      33.423  25.165  23.886  1.00  0.00    -0.506 OA
ATOM     87  H   UNL A   1      34.196  25.559  24.242  1.00  0.00     0.293 HD
ENDBRANCH  82  86
BRANCH  84  88
ATOM     88  C   UNL A   1      31.069  23.718  24.176  1.00  0.00     0.145 C 
ATOM     89  N   UNL A   1      31.556  23.206  25.263  1.00  0.00    -0.181 NA
BRANCH  89  90
ATOM     90  N   UNL A   1      31.652  21.849  25.395  1.00  0.00    -0.254 N 
ATOM     91  H   UNL A   1      30.783  21.404  25.516  1.00  0.00     0.193 HD
BRANCH  90  92
ATOM     92  C   UNL A   1      32.705  20.993  25.395  1.00  0.00     0.191 C 
ATOM     93  S   UNL A   1      32.640  19.682  24.347  1.00  0.00    -0.039 S 
BRANCH  92  94
ATOM     94  N   UNL A   1      33.823  21.136  26.143  1.00  0.00    -0.331 N 
ATOM     95  H   UNL A   1      33.786  20.680  27.014  1.00  0.00     0.169 HD
BRANCH  94  96
ATOM     96  C   UNL A   1      35.028  21.816  25.898  1.00  0.00     0.040 A 
ATOM     97  C   UNL A   1      36.091  21.074  25.371  1.00  0.00     0.026 A 
ATOM     98  C   UNL A   1      35.197  23.178  26.143  1.00  0.00     0.026 A 
ATOM     99  C   UNL A   1      37.271  21.714  24.984  1.00  0.00     0.002 A 
ATOM    100  C   UNL A   1      36.376  23.819  25.756  1.00  0.00     0.002 A 
ATOM    101  C   UNL A   1      37.403  23.092  25.155  1.00  0.00     0.000 A 
ENDBRANCH  94  96
ENDBRANCH  92  94
ENDBRANCH  90  92
ENDBRANCH  89  90
ENDBRANCH  84  88
ENDBRANCH  77  80
ENDBRANCH  75  76
ENDBRANCH   1  75
TORSDOF 19
ENDMDL
MODEL 2
REMARK VINA RESULT:     -11.7      1.069      2.248
REMARK SMILES O=C(NCCCCCCNC(=O)c1cccc(/C=N/NC(=S)Nc2ccccc2)c1O)c1ccc(-c2c3nc(c(-c4c(F)c(F)c(F)c(F)c4F)c4ccc([nH]4)c(-c4c(F)c(F)c(F)c(F)c4F)c4nc(c(-c5c(F)c(F)c(F)c(F)c5F)c5ccc2[nH]5)C=C4)C=C3)cc1
REMARK SMILES IDX 8 1 7 2 6 3 5 4 4 5 3 6 1 7 2 8 32 10 33 11 94 12 34 13
REMARK SMILES IDX 93 14 35 15 36 16 37 17 87 18 38 19 92 20 86 21 88 22 39 23
REMARK SMILES IDX 91 24 85 25 84 26 40 28 72 29 52 30 71 31 53 32 56 33 70 34
REMARK SMILES IDX 89 35 54 36 55 37 69 39 90 40 57 41 41 42 42 43 50 44 43 45
REMARK SMILES IDX 44 46 48 47 51 48 45 49 46 50 49 51 47 52 73 53 74 54 82 55
REMARK SMILES IDX 75 56 76 57 80 58 83 59 77 60 78 61 81 62 79 63 58 64 59 65
REMARK SMILES IDX 67 66 60 67 61 68 65 69 68 70 62 71 63 72 66 73 64 74 9 75
REMARK SMILES IDX 10 76 11 77 12 79 13 80 14 81 30 82 15 83 17 84 16 85 31 86
REMARK SMILES IDX 18 88 19 89 20 90 21 92 22 93 23 94 24 96 25 97 29 98 26 99
REMARK SMILES IDX 28 100 27 101
REMARK H PARENT 3 9 88 27 56 38 10 78 31 87 20 91 23 95
REMARK Flexibility Score: inf
ROOT
ATOM      1  C   UNL A   1      33.576  29.376  27.056  1.00  0.00     0.021 C 
ENDROOT
BRANCH   1   2
ATOM      2  C   UNL A   1      32.073  29.673  27.047  1.00  0.00     0.002 C 
BRANCH   2   3
ATOM      3  C   UNL A   1      31.586  30.748  26.071  1.00  0.00     0.002 C 
BRANCH   3   4
ATOM      4  C   UNL A   1      31.373  32.148  26.648  1.00  0.00     0.021 C 
BRANCH   4   5
ATOM      5  C   UNL A   1      32.628  32.870  27.122  1.00  0.00     0.116 C 
BRANCH   5   6
ATOM      6  N   UNL A   1      32.360  34.201  27.631  1.00  0.00    -0.352 N 
ATOM      7  O   UNL A   1      32.549  35.971  29.015  1.00  0.00    -0.269 OA
ATOM      8  C   UNL A   1      32.991  34.894  28.635  1.00  0.00     0.251 C 
ATOM      9  H   UNL A   1      31.618  34.678  27.194  1.00  0.00     0.163 HD
BRANCH   8  10
ATOM     10  C   UNL A   1      34.191  34.321  29.280  1.00  0.00     0.039 A 
ATOM     11  C   UNL A   1      35.471  34.556  28.769  1.00  0.00     0.014 A 
ATOM     12  C   UNL A   1      34.021  33.543  30.429  1.00  0.00     0.014 A 
ATOM     13  C   UNL A   1      36.570  33.915  29.335  1.00  0.00     0.010 A 
ATOM     14  C   UNL A   1      35.134  32.964  31.040  1.00  0.00     0.010 A 
ATOM     15  C   UNL A   1      36.412  33.124  30.483  1.00  0.00    -0.014 A 
BRANCH  15  16
ATOM     16  C   UNL A   1      37.592  32.504  31.136  1.00  0.00     0.031 A 
ATOM     17  C   UNL A   1      38.322  31.370  30.477  1.00  0.00     0.074 A 
ATOM     18  C   UNL A   1      37.974  32.945  32.348  1.00  0.00     0.049 A 
ATOM     19  N   UNL A   1      39.302  30.637  30.940  1.00  0.00    -0.248 NA
ATOM     20  C   UNL A   1      37.884  31.003  29.123  1.00  0.00     0.031 C 
ATOM     21  C   UNL A   1      37.340  34.040  33.082  1.00  0.00     0.029 A 
ATOM     22  N   UNL A   1      38.973  32.516  33.184  1.00  0.00    -0.354 N 
ATOM     23  C   UNL A   1      39.582  29.707  29.947  1.00  0.00     0.074 A 
ATOM     24  C   UNL A   1      38.648  29.951  28.868  1.00  0.00     0.031 C 
ATOM     25  C   UNL A   1      37.969  34.203  34.255  1.00  0.00     0.029 A 
ATOM     26  C   UNL A   1      39.004  33.183  34.383  1.00  0.00     0.049 A 
ATOM     27  H   UNL A   1      39.607  31.801  32.947  1.00  0.00     0.167 HD
ATOM     28  C   UNL A   1      40.534  28.742  29.940  1.00  0.00     0.037 A 
ATOM     29  C   UNL A   1      39.752  32.972  35.481  1.00  0.00     0.037 A 
ATOM     30  C   UNL A   1      41.455  28.511  31.025  1.00  0.00     0.049 A 
ATOM     31  C   UNL A   1      40.766  31.863  35.472  1.00  0.00     0.074 A 
ATOM     32  C   UNL A   1      42.479  27.584  31.106  1.00  0.00     0.029 A 
ATOM     33  N   UNL A   1      41.452  29.205  32.228  1.00  0.00    -0.354 N 
ATOM     34  N   UNL A   1      41.048  31.011  34.517  1.00  0.00    -0.248 NA
ATOM     35  C   UNL A   1      41.567  31.689  36.690  1.00  0.00     0.031 C 
ATOM     36  C   UNL A   1      43.051  27.672  32.379  1.00  0.00     0.029 A 
ATOM     37  C   UNL A   1      42.436  28.706  33.067  1.00  0.00     0.049 A 
ATOM     38  H   UNL A   1      40.840  29.944  32.452  1.00  0.00     0.167 HD
ATOM     39  C   UNL A   1      42.080  30.220  35.002  1.00  0.00     0.074 A 
ATOM     40  C   UNL A   1      42.375  30.697  36.339  1.00  0.00     0.031 C 
ATOM     41  C   UNL A   1      42.728  29.199  34.392  1.00  0.00     0.037 A 
BRANCH  28  42
ATOM     42  C   UNL A   1      40.601  27.840  28.739  1.00  0.00     0.064 A 
ATOM     43  C   UNL A   1      41.431  28.120  27.642  1.00  0.00     0.173 A 
ATOM     44  C   UNL A   1      39.829  26.669  28.689  1.00  0.00     0.173 A 
ATOM     45  F   UNL A   1      42.184  29.230  27.632  1.00  0.00    -0.203 F 
ATOM     46  C   UNL A   1      41.450  27.289  26.525  1.00  0.00     0.198 A 
ATOM     47  C   UNL A   1      39.879  25.820  27.586  1.00  0.00     0.198 A 
ATOM     48  F   UNL A   1      39.024  26.344  29.712  1.00  0.00    -0.203 F 
ATOM     49  F   UNL A   1      42.200  27.615  25.462  1.00  0.00    -0.200 F 
ATOM     50  C   UNL A   1      40.680  26.137  26.500  1.00  0.00     0.200 A 
ATOM     51  F   UNL A   1      39.144  24.699  27.571  1.00  0.00    -0.200 F 
ATOM     52  F   UNL A   1      40.697  25.339  25.423  1.00  0.00    -0.200 F 
ENDBRANCH  28  42
BRANCH  29  53
ATOM     53  C   UNL A   1      39.553  33.834  36.673  1.00  0.00     0.064 A 
ATOM     54  C   UNL A   1      38.744  33.417  37.738  1.00  0.00     0.173 A 
ATOM     55  C   UNL A   1      40.203  35.072  36.792  1.00  0.00     0.173 A 
ATOM     56  F   UNL A   1      38.091  32.248  37.664  1.00  0.00    -0.203 F 
ATOM     57  C   UNL A   1      38.587  34.208  38.874  1.00  0.00     0.198 A 
ATOM     58  C   UNL A   1      40.069  35.848  37.940  1.00  0.00     0.198 A 
ATOM     59  F   UNL A   1      40.996  35.512  35.804  1.00  0.00    -0.203 F 
ATOM     60  F   UNL A   1      37.784  33.799  39.866  1.00  0.00    -0.200 F 
ATOM     61  C   UNL A   1      39.257  35.417  38.978  1.00  0.00     0.200 A 
ATOM     62  F   UNL A   1      40.736  37.005  38.045  1.00  0.00    -0.200 F 
ATOM     63  F   UNL A   1      39.120  36.169  40.079  1.00  0.00    -0.200 F 
ENDBRANCH  29  53
BRANCH  41  64
ATOM     64  C   UNL A   1      43.866  28.557  35.132  1.00  0.00     0.064 A 
ATOM     65  C   UNL A   1      45.183  29.026  35.024  1.00  0.00     0.173 A 
ATOM     66  C   UNL A   1      43.618  27.494  36.014  1.00  0.00     0.173 A 
ATOM     67  F   UNL A   1      45.476  30.029  34.181  1.00  0.00    -0.203 F 
ATOM     68  C   UNL A   1      46.212  28.445  35.760  1.00  0.00     0.198 A 
ATOM     69  C   UNL A   1      44.643  26.937  36.773  1.00  0.00     0.198 A 
ATOM     70  F   UNL A   1      42.375  27.009  36.157  1.00  0.00    -0.203 F 
ATOM     71  F   UNL A   1      47.470  28.883  35.613  1.00  0.00    -0.200 F 
ATOM     72  C   UNL A   1      45.939  27.409  36.643  1.00  0.00     0.200 A 
ATOM     73  F   UNL A   1      44.374  25.947  37.636  1.00  0.00    -0.200 F 
ATOM     74  F   UNL A   1      46.927  26.864  37.364  1.00  0.00    -0.200 F 
ENDBRANCH  41  64
ENDBRANCH  15  16
ENDBRANCH   8  10
ENDBRANCH   5   6
ENDBRANCH   4   5
ENDBRANCH   3   4
ENDBRANCH   2   3
ENDBRANCH   1   2
BRANCH   1  75
ATOM     75  C   UNL A   1      34.020  28.194  26.206  1.00  0.00     0.116 C 
BRANCH  75  76
ATOM     76  N   UNL A   1      34.193  28.528  24.806  1.00  0.00    -0.352 N 
ATOM     77  C   UNL A   1      33.535  28.060  23.694  1.00  0.00     0.255 C 
ATOM     78  H   UNL A   1      34.892  29.197  24.622  1.00  0.00     0.163 HD
ATOM     79  O   UNL A   1      33.959  28.391  22.587  1.00  0.00    -0.269 OA
BRANCH  77  80
ATOM     80  C   UNL A   1      32.336  27.181  23.773  1.00  0.00     0.082 A 
ATOM     81  C   UNL A   1      31.088  27.822  23.710  1.00  0.00     0.018 A 
ATOM     82  C   UNL A   1      32.372  25.799  24.014  1.00  0.00     0.137 A 
ATOM     83  C   UNL A   1      29.903  27.098  23.866  1.00  0.00     0.002 A 
ATOM     84  C   UNL A   1      31.183  25.069  24.154  1.00  0.00     0.037 A 
ATOM     85  C   UNL A   1      29.950  25.723  24.090  1.00  0.00     0.014 A 
BRANCH  82  86
ATOM     86  O   UNL A   1      33.549  25.130  24.199  1.00  0.00    -0.506 OA
ATOM     87  H   UNL A   1      33.681  24.294  23.794  1.00  0.00     0.293 HD
ENDBRANCH  82  86
BRANCH  84  88
ATOM     88  C   UNL A   1      31.233  23.617  24.453  1.00  0.00     0.145 C 
ATOM     89  N   UNL A   1      31.645  23.192  25.607  1.00  0.00    -0.181 NA
BRANCH  89  90
ATOM     90  N   UNL A   1      31.781  21.851  25.832  1.00  0.00    -0.254 N 
ATOM     91  H   UNL A   1      30.932  21.400  26.041  1.00  0.00     0.193 HD
BRANCH  90  92
ATOM     92  C   UNL A   1      32.852  21.017  25.826  1.00  0.00     0.191 C 
ATOM     93  S   UNL A   1      34.359  21.692  25.523  1.00  0.00    -0.039 S 
BRANCH  92  94
ATOM     94  N   UNL A   1      32.806  19.691  26.086  1.00  0.00    -0.331 N 
ATOM     95  H   UNL A   1      32.602  19.469  27.023  1.00  0.00     0.169 HD
BRANCH  94  96
ATOM     96  C   UNL A   1      32.994  18.572  25.257  1.00  0.00     0.040 A 
ATOM     97  C   UNL A   1      32.898  18.770  23.875  1.00  0.00     0.026 A 
ATOM     98  C   UNL A   1      33.282  17.299  25.749  1.00  0.00     0.026 A 
ATOM     99  C   UNL A   1      33.203  17.731  22.993  1.00  0.00     0.002 A 
ATOM    100  C   UNL A   1      33.588  16.260  24.868  1.00  0.00     0.002 A 
ATOM    101  C   UNL A   1      33.571  16.481  23.491  1.00  0.00     0.000 A 
ENDBRANCH  94  96
ENDBRANCH  92  94
ENDBRANCH  90  92
ENDBRANCH  89  90
ENDBRANCH  84  88
ENDBRANCH  77  80
ENDBRANCH  75  76
ENDBRANCH   1  75
TORSDOF 19
ENDMDL
MODEL 3
REMARK VINA RESULT:     -11.2      1.643      7.434
REMARK SMILES O=C(NCCCCCCNC(=O)c1cccc(/C=N/NC(=S)Nc2ccccc2)c1O)c1ccc(-c2c3nc(c(-c4c(F)c(F)c(F)c(F)c4F)c4ccc([nH]4)c(-c4c(F)c(F)c(F)c(F)c4F)c4nc(c(-c5c(F)c(F)c(F)c(F)c5F)c5ccc2[nH]5)C=C4)C=C3)cc1
REMARK SMILES IDX 8 1 7 2 6 3 5 4 4 5 3 6 1 7 2 8 32 10 33 11 94 12 34 13
REMARK SMILES IDX 93 14 35 15 36 16 37 17 87 18 38 19 92 20 86 21 88 22 39 23
REMARK SMILES IDX 91 24 85 25 84 26 40 28 72 29 52 30 71 31 53 32 56 33 70 34
REMARK SMILES IDX 89 35 54 36 55 37 69 39 90 40 57 41 41 42 42 43 50 44 43 45
REMARK SMILES IDX 44 46 48 47 51 48 45 49 46 50 49 51 47 52 73 53 74 54 82 55
REMARK SMILES IDX 75 56 76 57 80 58 83 59 77 60 78 61 81 62 79 63 58 64 59 65
REMARK SMILES IDX 67 66 60 67 61 68 65 69 68 70 62 71 63 72 66 73 64 74 9 75
REMARK SMILES IDX 10 76 11 77 12 79 13 80 14 81 30 82 15 83 17 84 16 85 31 86
REMARK SMILES IDX 18 88 19 89 20 90 21 92 22 93 23 94 24 96 25 97 29 98 26 99
REMARK SMILES IDX 28 100 27 101
REMARK H PARENT 3 9 88 27 56 38 10 78 31 87 20 91 23 95
REMARK Flexibility Score: inf
ROOT
ATOM      1  C   UNL A   1      33.680  31.703  27.618  1.00  0.00     0.021 C 
ENDROOT
BRANCH   1   2
ATOM      2  C   UNL A   1      34.407  32.195  28.873  1.00  0.00     0.002 C 
BRANCH   2   3
ATOM      3  C   UNL A   1      34.567  33.710  29.031  1.00  0.00     0.002 C 
BRANCH   3   4
ATOM      4  C   UNL A   1      33.300  34.551  28.874  1.00  0.00     0.021 C 
BRANCH   4   5
ATOM      5  C   UNL A   1      33.399  35.996  29.346  1.00  0.00     0.116 C 
BRANCH   5   6
ATOM      6  N   UNL A   1      32.524  36.289  30.466  1.00  0.00    -0.352 N 
ATOM      7  O   UNL A   1      31.721  36.138  32.567  1.00  0.00    -0.269 OA
ATOM      8  C   UNL A   1      32.624  35.893  31.777  1.00  0.00     0.251 C 
ATOM      9  H   UNL A   1      31.746  36.854  30.256  1.00  0.00     0.163 HD
BRANCH   8  10
ATOM     10  C   UNL A   1      33.813  35.138  32.227  1.00  0.00     0.039 A 
ATOM     11  C   UNL A   1      35.088  35.711  32.198  1.00  0.00     0.014 A 
ATOM     12  C   UNL A   1      33.635  33.836  32.700  1.00  0.00     0.014 A 
ATOM     13  C   UNL A   1      36.200  34.940  32.526  1.00  0.00     0.010 A 
ATOM     14  C   UNL A   1      34.744  33.090  33.101  1.00  0.00     0.010 A 
ATOM     15  C   UNL A   1      36.036  33.627  32.993  1.00  0.00    -0.014 A 
BRANCH  15  16
ATOM     16  C   UNL A   1      37.212  32.830  33.420  1.00  0.00     0.031 A 
ATOM     17  C   UNL A   1      37.899  33.117  34.724  1.00  0.00     0.074 A 
ATOM     18  C   UNL A   1      37.683  31.872  32.602  1.00  0.00     0.049 A 
ATOM     19  N   UNL A   1      38.997  32.601  35.213  1.00  0.00    -0.248 NA
ATOM     20  C   UNL A   1      37.273  34.129  35.588  1.00  0.00     0.031 C 
ATOM     21  C   UNL A   1      37.097  31.505  31.313  1.00  0.00     0.029 A 
ATOM     22  N   UNL A   1      38.770  31.044  32.722  1.00  0.00    -0.354 N 
ATOM     23  C   UNL A   1      39.210  33.240  36.427  1.00  0.00     0.074 A 
ATOM     24  C   UNL A   1      38.140  34.202  36.588  1.00  0.00     0.031 C 
ATOM     25  C   UNL A   1      37.825  30.522  30.764  1.00  0.00     0.029 A 
ATOM     26  C   UNL A   1      38.965  30.237  31.629  1.00  0.00     0.049 A 
ATOM     27  H   UNL A   1      39.354  31.030  33.515  1.00  0.00     0.167 HD
ATOM     28  C   UNL A   1      40.205  33.036  37.324  1.00  0.00     0.037 A 
ATOM     29  C   UNL A   1      39.969  29.391  31.335  1.00  0.00     0.037 A 
ATOM     30  C   UNL A   1      41.264  32.074  37.148  1.00  0.00     0.049 A 
ATOM     31  C   UNL A   1      41.090  29.218  32.320  1.00  0.00     0.074 A 
ATOM     32  C   UNL A   1      42.302  31.763  38.010  1.00  0.00     0.029 A 
ATOM     33  N   UNL A   1      41.430  31.276  36.023  1.00  0.00    -0.354 N 
ATOM     34  N   UNL A   1      41.265  29.801  33.482  1.00  0.00    -0.248 NA
ATOM     35  C   UNL A   1      42.149  28.270  31.956  1.00  0.00     0.031 C 
ATOM     36  C   UNL A   1      43.130  30.828  37.380  1.00  0.00     0.029 A 
ATOM     37  C   UNL A   1      42.569  30.497  36.157  1.00  0.00     0.049 A 
ATOM     38  H   UNL A   1      40.827  31.265  35.244  1.00  0.00     0.167 HD
ATOM     39  C   UNL A   1      42.435  29.268  34.003  1.00  0.00     0.074 A 
ATOM     40  C   UNL A   1      42.927  28.312  33.030  1.00  0.00     0.031 C 
ATOM     41  C   UNL A   1      43.041  29.540  35.185  1.00  0.00     0.037 A 
BRANCH  28  42
ATOM     42  C   UNL A   1      40.217  33.896  38.557  1.00  0.00     0.064 A 
ATOM     43  C   UNL A   1      40.905  35.119  38.605  1.00  0.00     0.173 A 
ATOM     44  C   UNL A   1      39.518  33.496  39.707  1.00  0.00     0.173 A 
ATOM     45  F   UNL A   1      41.597  35.547  37.539  1.00  0.00    -0.203 F 
ATOM     46  C   UNL A   1      40.932  35.883  39.770  1.00  0.00     0.198 A 
ATOM     47  C   UNL A   1      39.516  34.281  40.858  1.00  0.00     0.198 A 
ATOM     48  F   UNL A   1      38.834  32.342  39.717  1.00  0.00    -0.203 F 
ATOM     49  F   UNL A   1      41.653  37.012  39.812  1.00  0.00    -0.200 F 
ATOM     50  C   UNL A   1      40.233  35.466  40.893  1.00  0.00     0.200 A 
ATOM     51  F   UNL A   1      38.826  33.883  41.937  1.00  0.00    -0.200 F 
ATOM     52  F   UNL A   1      40.261  36.201  42.013  1.00  0.00    -0.200 F 
ENDBRANCH  28  42
BRANCH  29  53
ATOM     53  C   UNL A   1      39.946  28.657  30.046  1.00  0.00     0.064 A 
ATOM     54  C   UNL A   1      40.534  29.199  28.897  1.00  0.00     0.173 A 
ATOM     55  C   UNL A   1      39.376  27.378  29.947  1.00  0.00     0.173 A 
ATOM     56  F   UNL A   1      41.079  30.424  28.937  1.00  0.00    -0.203 F 
ATOM     57  C   UNL A   1      40.548  28.495  27.695  1.00  0.00     0.198 A 
ATOM     58  C   UNL A   1      39.416  26.662  28.753  1.00  0.00     0.198 A 
ATOM     59  F   UNL A   1      38.809  26.811  31.022  1.00  0.00    -0.203 F 
ATOM     60  F   UNL A   1      41.091  29.049  26.602  1.00  0.00    -0.200 F 
ATOM     61  C   UNL A   1      39.998  27.223  27.627  1.00  0.00     0.200 A 
ATOM     62  F   UNL A   1      38.903  25.426  28.699  1.00  0.00    -0.200 F 
ATOM     63  F   UNL A   1      40.027  26.539  26.475  1.00  0.00    -0.200 F 
ENDBRANCH  29  53
BRANCH  41  64
ATOM     64  C   UNL A   1      44.273  28.755  35.531  1.00  0.00     0.064 A 
ATOM     65  C   UNL A   1      45.558  29.193  35.180  1.00  0.00     0.173 A 
ATOM     66  C   UNL A   1      44.164  27.576  36.284  1.00  0.00     0.173 A 
ATOM     67  F   UNL A   1      45.715  30.305  34.445  1.00  0.00    -0.203 F 
ATOM     68  C   UNL A   1      46.688  28.472  35.557  1.00  0.00     0.198 A 
ATOM     69  C   UNL A   1      45.297  26.874  36.687  1.00  0.00     0.198 A 
ATOM     70  F   UNL A   1      42.958  27.115  36.650  1.00  0.00    -0.203 F 
ATOM     71  F   UNL A   1      47.904  28.887  35.177  1.00  0.00    -0.200 F 
ATOM     72  C   UNL A   1      46.557  27.320  36.320  1.00  0.00     0.200 A 
ATOM     73  F   UNL A   1      45.168  25.771  37.438  1.00  0.00    -0.200 F 
ATOM     74  F   UNL A   1      47.646  26.637  36.698  1.00  0.00    -0.200 F 
ENDBRANCH  41  64
ENDBRANCH  15  16
ENDBRANCH   8  10
ENDBRANCH   5   6
ENDBRANCH   4   5
ENDBRANCH   3   4
ENDBRANCH   2   3
ENDBRANCH   1   2
BRANCH   1  75
ATOM     75  C   UNL A   1      33.911  30.243  27.251  1.00  0.00     0.116 C 
BRANCH  75  76
ATOM     76  N   UNL A   1      32.930  29.346  27.829  1.00  0.00    -0.352 N 
ATOM     77  C   UNL A   1      32.149  28.384  27.235  1.00  0.00     0.255 C 
ATOM     78  H   UNL A   1      32.802  29.441  28.800  1.00  0.00     0.163 HD
ATOM     79  O   UNL A   1      31.279  27.842  27.916  1.00  0.00    -0.269 OA
BRANCH  77  80
ATOM     80  C   UNL A   1      32.316  27.968  25.815  1.00  0.00     0.082 A 
ATOM     81  C   UNL A   1      31.952  28.913  24.842  1.00  0.00     0.018 A 
ATOM     82  C   UNL A   1      32.697  26.683  25.397  1.00  0.00     0.137 A 
ATOM     83  C   UNL A   1      31.985  28.590  23.483  1.00  0.00     0.002 A 
ATOM     84  C   UNL A   1      32.746  26.364  24.033  1.00  0.00     0.037 A 
ATOM     85  C   UNL A   1      32.379  27.316  23.078  1.00  0.00     0.014 A 
BRANCH  82  86
ATOM     86  O   UNL A   1      32.956  25.682  26.290  1.00  0.00    -0.506 OA
ATOM     87  H   UNL A   1      32.423  25.588  27.056  1.00  0.00     0.293 HD
ENDBRANCH  82  86
BRANCH  84  88
ATOM     88  C   UNL A   1      33.107  24.990  23.604  1.00  0.00     0.145 C 
ATOM     89  N   UNL A   1      32.328  23.988  23.866  1.00  0.00    -0.181 NA
BRANCH  89  90
ATOM     90  N   UNL A   1      32.721  22.717  23.554  1.00  0.00    -0.254 N 
ATOM     91  H   UNL A   1      32.695  22.524  22.590  1.00  0.00     0.193 HD
BRANCH  90  92
ATOM     92  C   UNL A   1      33.138  21.668  24.308  1.00  0.00     0.191 C 
ATOM     93  S   UNL A   1      32.574  20.141  23.893  1.00  0.00    -0.039 S 
BRANCH  92  94
ATOM     94  N   UNL A   1      34.005  21.750  25.343  1.00  0.00    -0.331 N 
ATOM     95  H   UNL A   1      33.609  21.542  26.219  1.00  0.00     0.169 HD
BRANCH  94  96
ATOM     96  C   UNL A   1      35.370  22.080  25.391  1.00  0.00     0.040 A 
ATOM     97  C   UNL A   1      35.709  23.356  25.856  1.00  0.00     0.026 A 
ATOM     98  C   UNL A   1      36.381  21.196  25.014  1.00  0.00     0.026 A 
ATOM     99  C   UNL A   1      37.048  23.699  26.052  1.00  0.00     0.002 A 
ATOM    100  C   UNL A   1      37.720  21.539  25.210  1.00  0.00     0.002 A 
ATOM    101  C   UNL A   1      38.053  22.780  25.751  1.00  0.00     0.000 A 
ENDBRANCH  94  96
ENDBRANCH  92  94
ENDBRANCH  90  92
ENDBRANCH  89  90
ENDBRANCH  84  88
ENDBRANCH  77  80
ENDBRANCH  75  76
ENDBRANCH   1  75
TORSDOF 19
ENDMDL
