MODEL 1
REMARK VINA RESULT:     -13.1      0.000      0.000
REMARK SMILES CCc1sc(NC(=O)[C@H]2CC(C)=C(C)C[C@H]2C(=O)NCCCCCCNC(=O)c2ccc(-c3c4nc(c(-c5c(F)c(F)c(F)c(F)c5F)c5ccc([nH]5)c(-c5c(F)c(F)c(F)c(F)c5F)c5nc(c(-c6c(F)c(F)c(F)c(F)c6F)c6ccc3[nH]6)C=C5)C=C4)cc2)nc1-c1ccccc1
REMARK SMILES IDX 22 1 21 2 20 3 19 4 17 5 18 6 16 8 9 9 10 10 11 11 15 12
REMARK SMILES IDX 12 13 13 14 14 15 7 16 6 17 8 19 5 20 3 21 4 22 93 23 92 24
REMARK SMILES IDX 2 25 1 26 94 27 95 28 99 29 96 30 98 31 97 32 23 33 24 34
REMARK SMILES IDX 25 35 26 36 27 37 28 39 29 40 30 41 91 42 31 43 90 44 32 45
REMARK SMILES IDX 33 46 34 47 84 48 35 49 89 50 83 51 85 52 36 53 88 54 82 55
REMARK SMILES IDX 81 56 37 58 69 59 49 60 68 61 50 62 53 63 67 64 86 65 51 66
REMARK SMILES IDX 52 67 66 69 87 70 54 71 38 72 39 73 47 74 40 75 41 76 45 77
REMARK SMILES IDX 48 78 42 79 43 80 46 81 44 82 70 83 71 84 79 85 72 86 73 87
REMARK SMILES IDX 77 88 80 89 74 90 75 91 78 92 76 93 55 94 56 95 64 96 57 97
REMARK SMILES IDX 58 98 62 99 65 100 59 101 60 102 63 103 61 104
REMARK H PARENT 19 7 6 18 26 38 85 57 53 68
REMARK Flexibility Score: inf
ROOT
ATOM      1  C   UNL A   1      36.377  21.002  25.003  1.00  0.00     0.002 C 
ENDROOT
BRANCH   1   2
ATOM      2  C   UNL A   1      34.927  20.850  25.465  1.00  0.00     0.021 C 
BRANCH   2   3
ATOM      3  C   UNL A   1      34.114  19.868  24.630  1.00  0.00     0.116 C 
BRANCH   3   4
ATOM      4  N   UNL A   1      33.142  20.550  23.810  1.00  0.00    -0.356 N 
ATOM      5  C   UNL A   1      32.480  21.719  23.991  1.00  0.00     0.224 C 
ATOM      6  O   UNL A   1      31.786  22.110  23.045  1.00  0.00    -0.275 OA
ATOM      7  H   UNL A   1      32.921  20.085  22.971  1.00  0.00     0.163 HD
BRANCH   5   8
ATOM      8  C   UNL A   1      32.656  22.602  25.231  1.00  0.00     0.095 C 
ATOM      9  C   UNL A   1      33.006  24.110  25.050  1.00  0.00     0.095 C 
ATOM     10  C   UNL A   1      31.851  25.043  25.413  1.00  0.00     0.045 C 
ATOM     11  C   UNL A   1      30.659  24.570  26.184  1.00  0.00    -0.074 C 
ATOM     12  C   UNL A   1      31.556  22.250  26.256  1.00  0.00     0.045 C 
ATOM     13  C   UNL A   1      29.664  25.674  26.451  1.00  0.00     0.039 C 
ATOM     14  C   UNL A   1      30.503  23.287  26.545  1.00  0.00    -0.074 C 
ATOM     15  C   UNL A   1      29.262  22.796  27.238  1.00  0.00     0.039 C 
BRANCH   9  16
ATOM     16  C   UNL A   1      33.762  24.370  23.713  1.00  0.00     0.230 C 
ATOM     17  N   UNL A   1      33.627  25.427  22.867  1.00  0.00    -0.302 N 
ATOM     18  H   UNL A   1      34.058  25.280  21.994  1.00  0.00     0.172 HD
ATOM     19  O   UNL A   1      34.574  23.514  23.329  1.00  0.00    -0.274 OA
BRANCH  17  20
ATOM     20  C   UNL A   1      33.024  26.645  22.969  1.00  0.00     0.190 A 
ATOM     21  C   UNL A   1      32.234  28.700  23.882  1.00  0.00     0.034 A 
ATOM     22  S   UNL A   1      33.782  27.960  23.751  1.00  0.00    -0.101 S 
ATOM     23  C   UNL A   1      31.434  28.145  22.893  1.00  0.00     0.087 A 
ATOM     24  N   UNL A   1      31.896  26.947  22.370  1.00  0.00    -0.220 NA
BRANCH  21  25
ATOM     25  C   UNL A   1      31.863  29.671  24.966  1.00  0.00     0.046 C 
ATOM     26  C   UNL A   1      31.710  29.087  26.353  1.00  0.00     0.010 C 
ENDBRANCH  21  25
BRANCH  23  27
ATOM     27  C   UNL A   1      30.119  28.680  22.596  1.00  0.00     0.001 A 
ATOM     28  C   UNL A   1      29.999  29.880  21.879  1.00  0.00     0.010 A 
ATOM     29  C   UNL A   1      28.989  28.096  23.165  1.00  0.00     0.010 A 
ATOM     30  C   UNL A   1      28.761  30.512  21.767  1.00  0.00     0.001 A 
ATOM     31  C   UNL A   1      27.761  28.748  23.073  1.00  0.00     0.001 A 
ATOM     32  C   UNL A   1      27.641  29.950  22.374  1.00  0.00     0.000 A 
ENDBRANCH  23  27
ENDBRANCH  17  20
ENDBRANCH   9  16
ENDBRANCH   5   8
ENDBRANCH   3   4
ENDBRANCH   2   3
ENDBRANCH   1   2
BRANCH   1  33
ATOM     33  C   UNL A   1      37.184  19.700  24.977  1.00  0.00     0.002 C 
BRANCH  33  34
ATOM     34  C   UNL A   1      38.695  19.872  24.789  1.00  0.00     0.021 C 
BRANCH  34  35
ATOM     35  C   UNL A   1      39.498  19.927  26.088  1.00  0.00     0.116 C 
BRANCH  35  36
ATOM     36  N   UNL A   1      40.548  18.921  26.118  1.00  0.00    -0.352 N 
ATOM     37  C   UNL A   1      41.912  19.074  26.136  1.00  0.00     0.251 C 
ATOM     38  H   UNL A   1      40.233  17.988  26.126  1.00  0.00     0.163 HD
ATOM     39  O   UNL A   1      42.649  18.118  25.926  1.00  0.00    -0.269 OA
BRANCH  37  40
ATOM     40  C   UNL A   1      42.498  20.404  26.407  1.00  0.00     0.039 A 
ATOM     41  C   UNL A   1      43.071  21.132  25.362  1.00  0.00     0.014 A 
ATOM     42  C   UNL A   1      42.512  20.917  27.702  1.00  0.00     0.014 A 
ATOM     43  C   UNL A   1      43.585  22.412  25.604  1.00  0.00     0.010 A 
ATOM     44  C   UNL A   1      42.970  22.214  27.924  1.00  0.00     0.010 A 
ATOM     45  C   UNL A   1      43.494  22.991  26.881  1.00  0.00    -0.014 A 
BRANCH  45  46
ATOM     46  C   UNL A   1      43.896  24.405  27.144  1.00  0.00     0.031 A 
ATOM     47  C   UNL A   1      42.893  25.423  27.631  1.00  0.00     0.074 A 
ATOM     48  C   UNL A   1      45.143  24.814  26.832  1.00  0.00     0.049 A 
ATOM     49  N   UNL A   1      43.042  26.713  27.816  1.00  0.00    -0.248 NA
ATOM     50  C   UNL A   1      41.527  24.943  27.889  1.00  0.00     0.031 C 
ATOM     51  C   UNL A   1      46.188  23.976  26.240  1.00  0.00     0.029 A 
ATOM     52  N   UNL A   1      45.742  26.047  26.954  1.00  0.00    -0.354 N 
ATOM     53  C   UNL A   1      41.789  27.196  28.172  1.00  0.00     0.074 A 
ATOM     54  C   UNL A   1      40.876  26.076  28.108  1.00  0.00     0.031 C 
ATOM     55  C   UNL A   1      47.308  24.702  26.095  1.00  0.00     0.029 A 
ATOM     56  C   UNL A   1      47.055  26.067  26.548  1.00  0.00     0.049 A 
ATOM     57  H   UNL A   1      45.273  26.840  27.300  1.00  0.00     0.167 HD
ATOM     58  C   UNL A   1      41.435  28.447  28.556  1.00  0.00     0.037 A 
ATOM     59  C   UNL A   1      47.959  27.065  26.546  1.00  0.00     0.037 A 
ATOM     60  C   UNL A   1      42.355  29.546  28.696  1.00  0.00     0.049 A 
ATOM     61  C   UNL A   1      47.565  28.423  27.060  1.00  0.00     0.074 A 
ATOM     62  C   UNL A   1      42.112  30.816  29.192  1.00  0.00     0.029 A 
ATOM     63  N   UNL A   1      43.696  29.502  28.351  1.00  0.00    -0.354 N 
ATOM     64  N   UNL A   1      46.401  28.837  27.494  1.00  0.00    -0.248 NA
ATOM     65  C   UNL A   1      48.618  29.450  27.094  1.00  0.00     0.031 C 
ATOM     66  C   UNL A   1      43.299  31.552  29.114  1.00  0.00     0.029 A 
ATOM     67  C   UNL A   1      44.291  30.727  28.612  1.00  0.00     0.049 A 
ATOM     68  H   UNL A   1      44.158  28.718  27.976  1.00  0.00     0.167 HD
ATOM     69  C   UNL A   1      46.587  30.158  27.882  1.00  0.00     0.074 A 
ATOM     70  C   UNL A   1      47.979  30.473  27.643  1.00  0.00     0.031 C 
ATOM     71  C   UNL A   1      45.681  31.029  28.388  1.00  0.00     0.037 A 
BRANCH  58  72
ATOM     72  C   UNL A   1      39.990  28.693  28.892  1.00  0.00     0.064 A 
ATOM     73  C   UNL A   1      39.486  28.473  30.183  1.00  0.00     0.173 A 
ATOM     74  C   UNL A   1      39.108  29.201  27.926  1.00  0.00     0.173 A 
ATOM     75  F   UNL A   1      40.284  27.983  31.145  1.00  0.00    -0.203 F 
ATOM     76  C   UNL A   1      38.148  28.715  30.484  1.00  0.00     0.198 A 
ATOM     77  C   UNL A   1      37.780  29.477  28.239  1.00  0.00     0.198 A 
ATOM     78  F   UNL A   1      39.538  29.442  26.677  1.00  0.00    -0.203 F 
ATOM     79  F   UNL A   1      37.680  28.442  31.709  1.00  0.00    -0.200 F 
ATOM     80  C   UNL A   1      37.298  29.225  29.515  1.00  0.00     0.200 A 
ATOM     81  F   UNL A   1      36.963  29.986  27.306  1.00  0.00    -0.200 F 
ATOM     82  F   UNL A   1      36.014  29.466  29.809  1.00  0.00    -0.200 F 
ENDBRANCH  58  72
BRANCH  59  83
ATOM     83  C   UNL A   1      49.352  26.802  26.101  1.00  0.00     0.064 A 
ATOM     84  C   UNL A   1      49.730  27.024  24.768  1.00  0.00     0.173 A 
ATOM     85  C   UNL A   1      50.330  26.324  26.985  1.00  0.00     0.173 A 
ATOM     86  F   UNL A   1      48.824  27.463  23.882  1.00  0.00    -0.203 F 
ATOM     87  C   UNL A   1      51.025  26.757  24.332  1.00  0.00     0.198 A 
ATOM     88  C   UNL A   1      51.632  26.082  26.553  1.00  0.00     0.198 A 
ATOM     89  F   UNL A   1      50.021  26.103  28.271  1.00  0.00    -0.203 F 
ATOM     90  F   UNL A   1      51.345  26.934  23.044  1.00  0.00    -0.200 F 
ATOM     91  C   UNL A   1      51.977  26.291  25.226  1.00  0.00     0.200 A 
ATOM     92  F   UNL A   1      52.553  25.647  27.423  1.00  0.00    -0.200 F 
ATOM     93  F   UNL A   1      53.224  26.036  24.807  1.00  0.00    -0.200 F 
ENDBRANCH  59  83
BRANCH  71  94
ATOM     94  C   UNL A   1      46.171  32.397  28.764  1.00  0.00     0.064 A 
ATOM     95  C   UNL A   1      46.674  32.674  30.044  1.00  0.00     0.173 A 
ATOM     96  C   UNL A   1      46.177  33.433  27.817  1.00  0.00     0.173 A 
ATOM     97  F   UNL A   1      46.676  31.723  30.988  1.00  0.00    -0.203 F 
ATOM     98  C   UNL A   1      47.144  33.945  30.368  1.00  0.00     0.198 A 
ATOM     99  C   UNL A   1      46.673  34.694  28.136  1.00  0.00     0.198 A 
ATOM    100  F   UNL A   1      45.713  33.218  26.577  1.00  0.00    -0.203 F 
ATOM    101  F   UNL A   1      47.578  34.199  31.610  1.00  0.00    -0.200 F 
ATOM    102  C   UNL A   1      47.150  34.951  29.413  1.00  0.00     0.200 A 
ATOM    103  F   UNL A   1      46.691  35.660  27.208  1.00  0.00    -0.200 F 
ATOM    104  F   UNL A   1      47.610  36.170  29.725  1.00  0.00    -0.200 F 
ENDBRANCH  71  94
ENDBRANCH  45  46
ENDBRANCH  37  40
ENDBRANCH  35  36
ENDBRANCH  34  35
ENDBRANCH  33  34
ENDBRANCH   1  33
TORSDOF 17
ENDMDL
MODEL 2
REMARK VINA RESULT:     -13.0      0.715      7.011
REMARK SMILES CCc1sc(NC(=O)[C@H]2CC(C)=C(C)C[C@H]2C(=O)NCCCCCCNC(=O)c2ccc(-c3c4nc(c(-c5c(F)c(F)c(F)c(F)c5F)c5ccc([nH]5)c(-c5c(F)c(F)c(F)c(F)c5F)c5nc(c(-c6c(F)c(F)c(F)c(F)c6F)c6ccc3[nH]6)C=C5)C=C4)cc2)nc1-c1ccccc1
REMARK SMILES IDX 22 1 21 2 20 3 19 4 17 5 18 6 16 8 9 9 10 10 11 11 15 12
REMARK SMILES IDX 12 13 13 14 14 15 7 16 6 17 8 19 5 20 3 21 4 22 93 23 92 24
REMARK SMILES IDX 2 25 1 26 94 27 95 28 99 29 96 30 98 31 97 32 23 33 24 34
REMARK SMILES IDX 25 35 26 36 27 37 28 39 29 40 30 41 91 42 31 43 90 44 32 45
REMARK SMILES IDX 33 46 34 47 84 48 35 49 89 50 83 51 85 52 36 53 88 54 82 55
REMARK SMILES IDX 81 56 37 58 69 59 49 60 68 61 50 62 53 63 67 64 86 65 51 66
REMARK SMILES IDX 52 67 66 69 87 70 54 71 38 72 39 73 47 74 40 75 41 76 45 77
REMARK SMILES IDX 48 78 42 79 43 80 46 81 44 82 70 83 71 84 79 85 72 86 73 87
REMARK SMILES IDX 77 88 80 89 74 90 75 91 78 92 76 93 55 94 56 95 64 96 57 97
REMARK SMILES IDX 58 98 62 99 65 100 59 101 60 102 63 103 61 104
REMARK H PARENT 19 7 6 18 26 38 85 57 53 68
REMARK Flexibility Score: inf
ROOT
ATOM      1  C   UNL A   1      36.567  21.090  25.075  1.00  0.00     0.002 C 
ENDROOT
BRANCH   1   2
ATOM      2  C   UNL A   1      35.084  21.037  25.447  1.00  0.00     0.021 C 
BRANCH   2   3
ATOM      3  C   UNL A   1      34.291  19.998  24.665  1.00  0.00     0.116 C 
BRANCH   3   4
ATOM      4  N   UNL A   1      33.275  20.614  23.846  1.00  0.00    -0.356 N 
ATOM      5  C   UNL A   1      32.551  21.747  24.019  1.00  0.00     0.224 C 
ATOM      6  O   UNL A   1      31.828  22.086  23.075  1.00  0.00    -0.275 OA
ATOM      7  H   UNL A   1      33.072  20.126  23.016  1.00  0.00     0.163 HD
BRANCH   5   8
ATOM      8  C   UNL A   1      32.689  22.655  25.247  1.00  0.00     0.095 C 
ATOM      9  C   UNL A   1      33.002  24.169  25.044  1.00  0.00     0.095 C 
ATOM     10  C   UNL A   1      31.819  25.076  25.379  1.00  0.00     0.045 C 
ATOM     11  C   UNL A   1      30.631  24.585  26.144  1.00  0.00    -0.074 C 
ATOM     12  C   UNL A   1      31.588  22.291  26.265  1.00  0.00     0.045 C 
ATOM     13  C   UNL A   1      29.604  25.667  26.381  1.00  0.00     0.039 C 
ATOM     14  C   UNL A   1      30.505  23.304  26.524  1.00  0.00    -0.074 C 
ATOM     15  C   UNL A   1      29.268  22.793  27.212  1.00  0.00     0.039 C 
BRANCH   9  16
ATOM     16  C   UNL A   1      33.766  24.426  23.712  1.00  0.00     0.230 C 
ATOM     17  N   UNL A   1      33.636  25.480  22.861  1.00  0.00    -0.302 N 
ATOM     18  H   UNL A   1      34.072  25.332  21.992  1.00  0.00     0.172 HD
ATOM     19  O   UNL A   1      34.582  23.571  23.336  1.00  0.00    -0.274 OA
BRANCH  17  20
ATOM     20  C   UNL A   1      33.030  26.697  22.956  1.00  0.00     0.190 A 
ATOM     21  C   UNL A   1      32.227  28.752  23.859  1.00  0.00     0.034 A 
ATOM     22  S   UNL A   1      33.777  28.014  23.745  1.00  0.00    -0.101 S 
ATOM     23  C   UNL A   1      31.438  28.195  22.862  1.00  0.00     0.087 A 
ATOM     24  N   UNL A   1      31.907  26.997  22.345  1.00  0.00    -0.220 NA
BRANCH  21  25
ATOM     25  C   UNL A   1      31.843  29.724  24.938  1.00  0.00     0.046 C 
ATOM     26  C   UNL A   1      31.714  29.148  26.331  1.00  0.00     0.010 C 
ENDBRANCH  21  25
BRANCH  23  27
ATOM     27  C   UNL A   1      30.125  28.727  22.552  1.00  0.00     0.001 A 
ATOM     28  C   UNL A   1      30.010  29.917  21.816  1.00  0.00     0.010 A 
ATOM     29  C   UNL A   1      28.992  28.154  23.124  1.00  0.00     0.010 A 
ATOM     30  C   UNL A   1      28.774  30.549  21.688  1.00  0.00     0.001 A 
ATOM     31  C   UNL A   1      27.765  28.806  23.016  1.00  0.00     0.001 A 
ATOM     32  C   UNL A   1      27.650  29.998  22.299  1.00  0.00     0.000 A 
ENDBRANCH  23  27
ENDBRANCH  17  20
ENDBRANCH   9  16
ENDBRANCH   5   8
ENDBRANCH   3   4
ENDBRANCH   2   3
ENDBRANCH   1   2
BRANCH   1  33
ATOM     33  C   UNL A   1      37.259  19.725  24.989  1.00  0.00     0.002 C 
BRANCH  33  34
ATOM     34  C   UNL A   1      38.774  19.773  24.771  1.00  0.00     0.021 C 
BRANCH  34  35
ATOM     35  C   UNL A   1      39.603  19.838  26.053  1.00  0.00     0.116 C 
BRANCH  35  36
ATOM     36  N   UNL A   1      40.705  18.890  26.033  1.00  0.00    -0.352 N 
ATOM     37  C   UNL A   1      42.060  19.116  26.063  1.00  0.00     0.251 C 
ATOM     38  H   UNL A   1      40.441  17.942  25.990  1.00  0.00     0.163 HD
ATOM     39  O   UNL A   1      42.847  18.213  25.805  1.00  0.00    -0.269 OA
BRANCH  37  40
ATOM     40  C   UNL A   1      42.573  20.458  26.407  1.00  0.00     0.039 A 
ATOM     41  C   UNL A   1      43.093  21.277  25.402  1.00  0.00     0.014 A 
ATOM     42  C   UNL A   1      42.570  20.897  27.730  1.00  0.00     0.014 A 
ATOM     43  C   UNL A   1      43.537  22.568  25.715  1.00  0.00     0.010 A 
ATOM     44  C   UNL A   1      42.957  22.203  28.023  1.00  0.00     0.010 A 
ATOM     45  C   UNL A   1      43.426  23.067  27.023  1.00  0.00    -0.014 A 
BRANCH  45  46
ATOM     46  C   UNL A   1      43.750  24.484  27.365  1.00  0.00     0.031 A 
ATOM     47  C   UNL A   1      45.179  24.974  27.382  1.00  0.00     0.074 A 
ATOM     48  C   UNL A   1      42.770  25.313  27.782  1.00  0.00     0.049 A 
ATOM     49  N   UNL A   1      45.651  26.140  27.750  1.00  0.00    -0.248 NA
ATOM     50  C   UNL A   1      46.219  24.011  26.989  1.00  0.00     0.031 C 
ATOM     51  C   UNL A   1      41.360  24.949  27.935  1.00  0.00     0.029 A 
ATOM     52  N   UNL A   1      42.813  26.631  28.169  1.00  0.00    -0.354 N 
ATOM     53  C   UNL A   1      47.034  26.036  27.668  1.00  0.00     0.074 A 
ATOM     54  C   UNL A   1      47.328  24.672  27.285  1.00  0.00     0.031 C 
ATOM     55  C   UNL A   1      40.667  26.027  28.336  1.00  0.00     0.029 A 
ATOM     56  C   UNL A   1      41.585  27.149  28.505  1.00  0.00     0.049 A 
ATOM     57  H   UNL A   1      43.645  27.156  28.202  1.00  0.00     0.167 HD
ATOM     58  C   UNL A   1      47.975  26.994  27.855  1.00  0.00     0.037 A 
ATOM     59  C   UNL A   1      41.230  28.388  28.897  1.00  0.00     0.037 A 
ATOM     60  C   UNL A   1      47.684  28.371  28.161  1.00  0.00     0.049 A 
ATOM     61  C   UNL A   1      42.282  29.458  29.013  1.00  0.00     0.074 A 
ATOM     62  C   UNL A   1      48.561  29.438  28.251  1.00  0.00     0.029 A 
ATOM     63  N   UNL A   1      46.417  28.873  28.414  1.00  0.00    -0.354 N 
ATOM     64  N   UNL A   1      43.575  29.370  28.829  1.00  0.00    -0.248 NA
ATOM     65  C   UNL A   1      41.820  30.805  29.380  1.00  0.00     0.031 C 
ATOM     66  C   UNL A   1      47.830  30.580  28.594  1.00  0.00     0.029 A 
ATOM     67  C   UNL A   1      46.492  30.234  28.672  1.00  0.00     0.049 A 
ATOM     68  H   UNL A   1      45.588  28.343  28.411  1.00  0.00     0.167 HD
ATOM     69  C   UNL A   1      44.077  30.650  29.025  1.00  0.00     0.074 A 
ATOM     70  C   UNL A   1      42.947  31.500  29.330  1.00  0.00     0.031 C 
ATOM     71  C   UNL A   1      45.361  31.077  28.959  1.00  0.00     0.037 A 
BRANCH  58  72
ATOM     72  C   UNL A   1      49.418  26.599  27.699  1.00  0.00     0.064 A 
ATOM     73  C   UNL A   1      50.011  26.464  26.434  1.00  0.00     0.173 A 
ATOM     74  C   UNL A   1      50.230  26.400  28.825  1.00  0.00     0.173 A 
ATOM     75  F   UNL A   1      49.279  26.639  25.323  1.00  0.00    -0.203 F 
ATOM     76  C   UNL A   1      51.351  26.109  26.302  1.00  0.00     0.198 A 
ATOM     77  C   UNL A   1      51.579  26.080  28.691  1.00  0.00     0.198 A 
ATOM     78  F   UNL A   1      49.719  26.527  30.060  1.00  0.00    -0.203 F 
ATOM     79  F   UNL A   1      51.877  25.931  25.084  1.00  0.00    -0.200 F 
ATOM     80  C   UNL A   1      52.136  25.925  27.430  1.00  0.00     0.200 A 
ATOM     81  F   UNL A   1      52.341  25.920  29.782  1.00  0.00    -0.200 F 
ATOM     82  F   UNL A   1      53.427  25.592  27.302  1.00  0.00    -0.200 F 
ENDBRANCH  58  72
BRANCH  59  83
ATOM     83  C   UNL A   1      39.801  28.706  29.148  1.00  0.00     0.064 A 
ATOM     84  C   UNL A   1      39.244  28.532  30.423  1.00  0.00     0.173 A 
ATOM     85  C   UNL A   1      38.963  29.183  28.130  1.00  0.00     0.173 A 
ATOM     86  F   UNL A   1      40.002  28.060  31.425  1.00  0.00    -0.203 F 
ATOM     87  C   UNL A   1      37.899  28.800  30.665  1.00  0.00     0.198 A 
ATOM     88  C   UNL A   1      37.625  29.476  28.379  1.00  0.00     0.198 A 
ATOM     89  F   UNL A   1      39.450  29.373  26.894  1.00  0.00    -0.203 F 
ATOM     90  F   UNL A   1      37.383  28.581  31.882  1.00  0.00    -0.200 F 
ATOM     91  C   UNL A   1      37.091  29.278  29.645  1.00  0.00     0.200 A 
ATOM     92  F   UNL A   1      36.851  29.952  27.395  1.00  0.00    -0.200 F 
ATOM     93  F   UNL A   1      35.798  29.539  29.877  1.00  0.00    -0.200 F 
ENDBRANCH  59  83
BRANCH  71  94
ATOM     94  C   UNL A   1      45.615  32.541  29.177  1.00  0.00     0.064 A 
ATOM     95  C   UNL A   1      45.912  33.056  30.447  1.00  0.00     0.173 A 
ATOM     96  C   UNL A   1      45.604  33.432  28.092  1.00  0.00     0.173 A 
ATOM     97  F   UNL A   1      45.920  32.249  31.517  1.00  0.00    -0.203 F 
ATOM     98  C   UNL A   1      46.165  34.414  30.626  1.00  0.00     0.198 A 
ATOM     99  C   UNL A   1      45.886  34.783  28.271  1.00  0.00     0.198 A 
ATOM    100  F   UNL A   1      45.332  32.988  26.856  1.00  0.00    -0.203 F 
ATOM    101  F   UNL A   1      46.402  34.892  31.856  1.00  0.00    -0.200 F 
ATOM    102  C   UNL A   1      46.159  35.274  29.538  1.00  0.00     0.200 A 
ATOM    103  F   UNL A   1      45.893  35.610  27.216  1.00  0.00    -0.200 F 
ATOM    104  F   UNL A   1      46.411  36.579  29.712  1.00  0.00    -0.200 F 
ENDBRANCH  71  94
ENDBRANCH  45  46
ENDBRANCH  37  40
ENDBRANCH  35  36
ENDBRANCH  34  35
ENDBRANCH  33  34
ENDBRANCH   1  33
TORSDOF 17
ENDMDL
MODEL 3
REMARK VINA RESULT:     -13.0      6.264     12.200
REMARK SMILES CCc1sc(NC(=O)[C@H]2CC(C)=C(C)C[C@H]2C(=O)NCCCCCCNC(=O)c2ccc(-c3c4nc(c(-c5c(F)c(F)c(F)c(F)c5F)c5ccc([nH]5)c(-c5c(F)c(F)c(F)c(F)c5F)c5nc(c(-c6c(F)c(F)c(F)c(F)c6F)c6ccc3[nH]6)C=C5)C=C4)cc2)nc1-c1ccccc1
REMARK SMILES IDX 22 1 21 2 20 3 19 4 17 5 18 6 16 8 9 9 10 10 11 11 15 12
REMARK SMILES IDX 12 13 13 14 14 15 7 16 6 17 8 19 5 20 3 21 4 22 93 23 92 24
REMARK SMILES IDX 2 25 1 26 94 27 95 28 99 29 96 30 98 31 97 32 23 33 24 34
REMARK SMILES IDX 25 35 26 36 27 37 28 39 29 40 30 41 91 42 31 43 90 44 32 45
REMARK SMILES IDX 33 46 34 47 84 48 35 49 89 50 83 51 85 52 36 53 88 54 82 55
REMARK SMILES IDX 81 56 37 58 69 59 49 60 68 61 50 62 53 63 67 64 86 65 51 66
REMARK SMILES IDX 52 67 66 69 87 70 54 71 38 72 39 73 47 74 40 75 41 76 45 77
REMARK SMILES IDX 48 78 42 79 43 80 46 81 44 82 70 83 71 84 79 85 72 86 73 87
REMARK SMILES IDX 77 88 80 89 74 90 75 91 78 92 76 93 55 94 56 95 64 96 57 97
REMARK SMILES IDX 58 98 62 99 65 100 59 101 60 102 63 103 61 104
REMARK H PARENT 19 7 6 18 26 38 85 57 53 68
REMARK Flexibility Score: inf
ROOT
ATOM      1  C   UNL A   1      38.930  33.005  38.351  1.00  0.00     0.002 C 
ENDROOT
BRANCH   1   2
ATOM      2  C   UNL A   1      37.710  32.658  37.495  1.00  0.00     0.021 C 
BRANCH   2   3
ATOM      3  C   UNL A   1      37.238  33.801  36.606  1.00  0.00     0.116 C 
BRANCH   3   4
ATOM      4  N   UNL A   1      36.666  33.312  35.374  1.00  0.00    -0.356 N 
ATOM      5  C   UNL A   1      37.245  32.858  34.237  1.00  0.00     0.224 C 
ATOM      6  O   UNL A   1      36.485  32.389  33.382  1.00  0.00    -0.275 OA
ATOM      7  H   UNL A   1      35.682  33.308  35.358  1.00  0.00     0.163 HD
BRANCH   5   8
ATOM      8  C   UNL A   1      38.764  32.791  34.034  1.00  0.00     0.095 C 
ATOM      9  C   UNL A   1      39.435  31.414  33.747  1.00  0.00     0.095 C 
ATOM     10  C   UNL A   1      39.943  31.280  32.313  1.00  0.00     0.045 C 
ATOM     11  C   UNL A   1      40.091  32.463  31.408  1.00  0.00    -0.074 C 
ATOM     12  C   UNL A   1      39.205  33.987  33.164  1.00  0.00     0.045 C 
ATOM     13  C   UNL A   1      40.639  32.091  30.050  1.00  0.00     0.039 C 
ATOM     14  C   UNL A   1      39.725  33.699  31.781  1.00  0.00    -0.074 C 
ATOM     15  C   UNL A   1      39.788  34.870  30.838  1.00  0.00     0.039 C 
BRANCH   9  16
ATOM     16  C   UNL A   1      38.609  30.235  34.342  1.00  0.00     0.230 C 
ATOM     17  N   UNL A   1      37.800  29.362  33.683  1.00  0.00    -0.302 N 
ATOM     18  H   UNL A   1      37.231  28.832  34.285  1.00  0.00     0.172 HD
ATOM     19  O   UNL A   1      38.649  30.059  35.570  1.00  0.00    -0.274 OA
BRANCH  17  20
ATOM     20  C   UNL A   1      37.610  29.065  32.366  1.00  0.00     0.190 A 
ATOM     21  C   UNL A   1      38.059  28.489  30.097  1.00  0.00     0.034 A 
ATOM     22  S   UNL A   1      38.413  27.760  31.615  1.00  0.00    -0.101 S 
ATOM     23  C   UNL A   1      36.963  29.319  30.291  1.00  0.00     0.087 A 
ATOM     24  N   UNL A   1      36.711  29.655  31.613  1.00  0.00    -0.220 NA
BRANCH  21  25
ATOM     25  C   UNL A   1      38.898  28.302  28.865  1.00  0.00     0.046 C 
ATOM     26  C   UNL A   1      40.388  28.178  29.094  1.00  0.00     0.010 C 
ENDBRANCH  21  25
BRANCH  23  27
ATOM     27  C   UNL A   1      36.281  29.944  29.175  1.00  0.00     0.001 A 
ATOM     28  C   UNL A   1      36.416  31.324  28.959  1.00  0.00     0.010 A 
ATOM     29  C   UNL A   1      35.364  29.211  28.425  1.00  0.00     0.010 A 
ATOM     30  C   UNL A   1      35.609  31.972  28.025  1.00  0.00     0.001 A 
ATOM     31  C   UNL A   1      34.541  29.870  27.514  1.00  0.00     0.001 A 
ATOM     32  C   UNL A   1      34.662  31.246  27.308  1.00  0.00     0.000 A 
ENDBRANCH  23  27
ENDBRANCH  17  20
ENDBRANCH   9  16
ENDBRANCH   5   8
ENDBRANCH   3   4
ENDBRANCH   2   3
ENDBRANCH   1   2
BRANCH   1  33
ATOM     33  C   UNL A   1      38.725  34.175  39.318  1.00  0.00     0.002 C 
BRANCH  33  34
ATOM     34  C   UNL A   1      39.640  34.175  40.547  1.00  0.00     0.021 C 
BRANCH  34  35
ATOM     35  C   UNL A   1      41.068  34.649  40.281  1.00  0.00     0.116 C 
BRANCH  35  36
ATOM     36  N   UNL A   1      41.130  36.087  40.075  1.00  0.00    -0.352 N 
ATOM     37  C   UNL A   1      41.652  36.802  39.025  1.00  0.00     0.251 C 
ATOM     38  H   UNL A   1      40.740  36.631  40.797  1.00  0.00     0.163 HD
ATOM     39  O   UNL A   1      41.828  38.011  39.122  1.00  0.00    -0.269 OA
BRANCH  37  40
ATOM     40  C   UNL A   1      42.007  36.110  37.769  1.00  0.00     0.039 A 
ATOM     41  C   UNL A   1      43.341  35.787  37.512  1.00  0.00     0.014 A 
ATOM     42  C   UNL A   1      41.025  35.809  36.828  1.00  0.00     0.014 A 
ATOM     43  C   UNL A   1      43.678  35.088  36.345  1.00  0.00     0.010 A 
ATOM     44  C   UNL A   1      41.358  35.062  35.699  1.00  0.00     0.010 A 
ATOM     45  C   UNL A   1      42.681  34.671  35.448  1.00  0.00    -0.014 A 
BRANCH  45  46
ATOM     46  C   UNL A   1      42.982  33.801  34.272  1.00  0.00     0.031 A 
ATOM     47  C   UNL A   1      43.202  34.392  32.900  1.00  0.00     0.074 A 
ATOM     48  C   UNL A   1      42.941  32.458  34.406  1.00  0.00     0.049 A 
ATOM     49  N   UNL A   1      43.375  33.783  31.752  1.00  0.00    -0.248 NA
ATOM     50  C   UNL A   1      43.166  35.858  32.792  1.00  0.00     0.031 C 
ATOM     51  C   UNL A   1      42.622  31.738  35.640  1.00  0.00     0.029 A 
ATOM     52  N   UNL A   1      43.154  31.457  33.488  1.00  0.00    -0.354 N 
ATOM     53  C   UNL A   1      43.430  34.785  30.792  1.00  0.00     0.074 A 
ATOM     54  C   UNL A   1      43.200  36.037  31.480  1.00  0.00     0.031 C 
ATOM     55  C   UNL A   1      42.706  30.417  35.416  1.00  0.00     0.029 A 
ATOM     56  C   UNL A   1      43.049  30.192  34.015  1.00  0.00     0.049 A 
ATOM     57  H   UNL A   1      43.363  31.630  32.542  1.00  0.00     0.167 HD
ATOM     58  C   UNL A   1      43.687  34.682  29.465  1.00  0.00     0.037 A 
ATOM     59  C   UNL A   1      43.217  28.984  33.443  1.00  0.00     0.037 A 
ATOM     60  C   UNL A   1      43.993  33.448  28.789  1.00  0.00     0.049 A 
ATOM     61  C   UNL A   1      43.588  28.899  31.987  1.00  0.00     0.074 A 
ATOM     62  C   UNL A   1      44.383  33.258  27.474  1.00  0.00     0.029 A 
ATOM     63  N   UNL A   1      43.955  32.194  29.378  1.00  0.00    -0.354 N 
ATOM     64  N   UNL A   1      43.740  29.863  31.115  1.00  0.00    -0.248 NA
ATOM     65  C   UNL A   1      43.822  27.554  31.441  1.00  0.00     0.031 C 
ATOM     66  C   UNL A   1      44.547  31.886  27.258  1.00  0.00     0.029 A 
ATOM     67  C   UNL A   1      44.304  31.225  28.449  1.00  0.00     0.049 A 
ATOM     68  H   UNL A   1      43.716  32.018  30.317  1.00  0.00     0.167 HD
ATOM     69  C   UNL A   1      44.118  29.249  29.928  1.00  0.00     0.074 A 
ATOM     70  C   UNL A   1      44.184  27.828  30.196  1.00  0.00     0.031 C 
ATOM     71  C   UNL A   1      44.384  29.815  28.726  1.00  0.00     0.037 A 
BRANCH  58  72
ATOM     72  C   UNL A   1      43.687  35.947  28.651  1.00  0.00     0.064 A 
ATOM     73  C   UNL A   1      44.847  36.719  28.490  1.00  0.00     0.173 A 
ATOM     74  C   UNL A   1      42.525  36.367  27.984  1.00  0.00     0.173 A 
ATOM     75  F   UNL A   1      45.984  36.366  29.109  1.00  0.00    -0.203 F 
ATOM     76  C   UNL A   1      44.836  37.883  27.725  1.00  0.00     0.198 A 
ATOM     77  C   UNL A   1      42.527  37.511  27.190  1.00  0.00     0.198 A 
ATOM     78  F   UNL A   1      41.389  35.661  28.092  1.00  0.00    -0.203 F 
ATOM     79  F   UNL A   1      45.943  38.633  27.635  1.00  0.00    -0.200 F 
ATOM     80  C   UNL A   1      43.680  38.274  27.069  1.00  0.00     0.200 A 
ATOM     81  F   UNL A   1      41.413  37.878  26.542  1.00  0.00    -0.200 F 
ATOM     82  F   UNL A   1      43.673  39.388  26.326  1.00  0.00    -0.200 F 
ENDBRANCH  58  72
BRANCH  59  83
ATOM     83  C   UNL A   1      43.099  27.752  34.264  1.00  0.00     0.064 A 
ATOM     84  C   UNL A   1      41.852  27.142  34.464  1.00  0.00     0.173 A 
ATOM     85  C   UNL A   1      44.218  27.160  34.867  1.00  0.00     0.173 A 
ATOM     86  F   UNL A   1      40.750  27.684  33.922  1.00  0.00    -0.203 F 
ATOM     87  C   UNL A   1      41.724  26.003  35.253  1.00  0.00     0.198 A 
ATOM     88  C   UNL A   1      44.093  26.004  35.635  1.00  0.00     0.198 A 
ATOM     89  F   UNL A   1      45.435  27.700  34.700  1.00  0.00    -0.203 F 
ATOM     90  F   UNL A   1      40.514  25.469  35.465  1.00  0.00    -0.200 F 
ATOM     91  C   UNL A   1      42.846  25.430  35.834  1.00  0.00     0.200 A 
ATOM     92  F   UNL A   1      45.181  25.445  36.182  1.00  0.00    -0.200 F 
ATOM     93  F   UNL A   1      42.724  24.332  36.592  1.00  0.00    -0.200 F 
ENDBRANCH  59  83
BRANCH  71  94
ATOM     94  C   UNL A   1      44.816  28.905  27.613  1.00  0.00     0.064 A 
ATOM     95  C   UNL A   1      46.143  28.466  27.493  1.00  0.00     0.173 A 
ATOM     96  C   UNL A   1      43.881  28.432  26.679  1.00  0.00     0.173 A 
ATOM     97  F   UNL A   1      47.077  28.900  28.351  1.00  0.00    -0.203 F 
ATOM     98  C   UNL A   1      46.521  27.605  26.465  1.00  0.00     0.198 A 
ATOM     99  C   UNL A   1      44.256  27.550  25.671  1.00  0.00     0.198 A 
ATOM    100  F   UNL A   1      42.598  28.817  26.754  1.00  0.00    -0.203 F 
ATOM    101  F   UNL A   1      47.803  27.234  26.343  1.00  0.00    -0.200 F 
ATOM    102  C   UNL A   1      45.577  27.143  25.560  1.00  0.00     0.200 A 
ATOM    103  F   UNL A   1      43.340  27.094  24.806  1.00  0.00    -0.200 F 
ATOM    104  F   UNL A   1      45.942  26.308  24.577  1.00  0.00    -0.200 F 
ENDBRANCH  71  94
ENDBRANCH  45  46
ENDBRANCH  37  40
ENDBRANCH  35  36
ENDBRANCH  34  35
ENDBRANCH  33  34
ENDBRANCH   1  33
TORSDOF 17
ENDMDL
