MODEL 1
REMARK VINA RESULT:     -12.6      0.000      0.000
REMARK SMILES O=C(NCCCCCCNC(=O)[C@H]1CC=CC[C@H]1c1nc2ccccc2s1)c1ccc(-c2c3nc(c(-c4c(F)c(F)c(F)c(F)c4F)c4ccc([nH]4)c(-c4c(F)c(F)c(F)c(F)c4F)c4nc(c(-c5c(F)c(F)c(F)c(F)c5F)c5ccc2[nH]5)C=C4)C=C3)cc1
REMARK SMILES IDX 6 1 5 2 4 3 3 4 1 5 2 6 28 8 29 9 90 10 30 11 89 12 31 13
REMARK SMILES IDX 32 14 33 15 83 16 34 17 88 18 82 19 84 20 35 21 87 22 81 23
REMARK SMILES IDX 80 24 36 26 68 27 48 28 67 29 49 30 52 31 66 32 85 33 50 34
REMARK SMILES IDX 51 35 65 37 86 38 53 39 37 40 38 41 46 42 39 43 40 44 44 45
REMARK SMILES IDX 47 46 41 47 42 48 45 49 43 50 69 51 70 52 78 53 71 54 72 55
REMARK SMILES IDX 76 56 79 57 73 58 74 59 77 60 75 61 54 62 55 63 63 64 56 65
REMARK SMILES IDX 57 66 61 67 64 68 58 69 59 70 62 71 60 72 7 73 8 74 9 75
REMARK SMILES IDX 10 76 11 77 12 79 13 80 14 81 18 82 15 83 17 84 16 85 19 86
REMARK SMILES IDX 20 87 27 88 21 89 26 90 22 91 25 92 23 93 24 94
REMARK H PARENT 3 7 84 25 52 36 10 78
REMARK Flexibility Score: inf
ROOT
ATOM      1  C   UNL A   1      31.434  30.806  25.890  1.00  0.00     0.002 C 
ENDROOT
BRANCH   1   2
ATOM      2  C   UNL A   1      31.284  32.168  26.574  1.00  0.00     0.021 C 
BRANCH   2   3
ATOM      3  C   UNL A   1      32.543  32.697  27.254  1.00  0.00     0.116 C 
BRANCH   3   4
ATOM      4  N   UNL A   1      32.423  34.102  27.602  1.00  0.00    -0.352 N 
ATOM      5  O   UNL A   1      32.631  35.950  28.864  1.00  0.00    -0.269 OA
ATOM      6  C   UNL A   1      33.044  34.831  28.582  1.00  0.00     0.251 C 
ATOM      7  H   UNL A   1      31.794  34.614  27.044  1.00  0.00     0.163 HD
BRANCH   6   8
ATOM      8  C   UNL A   1      34.213  34.283  29.303  1.00  0.00     0.039 A 
ATOM      9  C   UNL A   1      34.056  33.392  30.369  1.00  0.00     0.014 A 
ATOM     10  C   UNL A   1      35.492  34.601  28.839  1.00  0.00     0.014 A 
ATOM     11  C   UNL A   1      35.177  32.885  31.024  1.00  0.00     0.010 A 
ATOM     12  C   UNL A   1      36.614  34.045  29.455  1.00  0.00     0.010 A 
ATOM     13  C   UNL A   1      36.465  33.191  30.560  1.00  0.00    -0.014 A 
BRANCH  13  14
ATOM     14  C   UNL A   1      37.655  32.557  31.174  1.00  0.00     0.031 A 
ATOM     15  C   UNL A   1      38.361  31.428  30.486  1.00  0.00     0.074 A 
ATOM     16  C   UNL A   1      38.061  32.974  32.388  1.00  0.00     0.049 A 
ATOM     17  N   UNL A   1      39.351  30.688  30.916  1.00  0.00    -0.248 NA
ATOM     18  C   UNL A   1      37.883  31.075  29.142  1.00  0.00     0.031 C 
ATOM     19  C   UNL A   1      37.439  34.052  33.157  1.00  0.00     0.029 A 
ATOM     20  N   UNL A   1      39.077  32.530  33.196  1.00  0.00    -0.354 N 
ATOM     21  C   UNL A   1      39.599  29.766  29.909  1.00  0.00     0.074 A 
ATOM     22  C   UNL A   1      38.643  30.028  28.852  1.00  0.00     0.031 C 
ATOM     23  C   UNL A   1      38.083  34.187  34.324  1.00  0.00     0.029 A 
ATOM     24  C   UNL A   1      39.127  33.172  34.408  1.00  0.00     0.049 A 
ATOM     25  H   UNL A   1      39.708  31.822  32.932  1.00  0.00     0.167 HD
ATOM     26  C   UNL A   1      40.542  28.794  29.872  1.00  0.00     0.037 A 
ATOM     27  C   UNL A   1      39.903  32.944  35.484  1.00  0.00     0.037 A 
ATOM     28  C   UNL A   1      41.496  28.552  30.924  1.00  0.00     0.049 A 
ATOM     29  C   UNL A   1      40.927  31.849  35.430  1.00  0.00     0.074 A 
ATOM     30  C   UNL A   1      42.527  27.630  30.960  1.00  0.00     0.029 A 
ATOM     31  N   UNL A   1      41.525  29.231  32.134  1.00  0.00    -0.354 N 
ATOM     32  N   UNL A   1      41.188  31.013  34.454  1.00  0.00    -0.248 NA
ATOM     33  C   UNL A   1      41.767  31.664  36.621  1.00  0.00     0.031 C 
ATOM     34  C   UNL A   1      43.151  27.720  32.209  1.00  0.00     0.029 A 
ATOM     35  C   UNL A   1      42.539  28.730  32.934  1.00  0.00     0.049 A 
ATOM     36  H   UNL A   1      40.915  29.962  32.387  1.00  0.00     0.167 HD
ATOM     37  C   UNL A   1      42.228  30.215  34.903  1.00  0.00     0.074 A 
ATOM     38  C   UNL A   1      42.558  30.671  36.238  1.00  0.00     0.031 C 
ATOM     39  C   UNL A   1      42.855  29.198  34.262  1.00  0.00     0.037 A 
BRANCH  26  40
ATOM     40  C   UNL A   1      40.569  27.901  28.666  1.00  0.00     0.064 A 
ATOM     41  C   UNL A   1      41.317  28.220  27.524  1.00  0.00     0.173 A 
ATOM     42  C   UNL A   1      39.847  26.697  28.661  1.00  0.00     0.173 A 
ATOM     43  F   UNL A   1      42.016  29.364  27.473  1.00  0.00    -0.203 F 
ATOM     44  C   UNL A   1      41.316  27.385  26.409  1.00  0.00     0.198 A 
ATOM     45  C   UNL A   1      39.870  25.851  27.555  1.00  0.00     0.198 A 
ATOM     46  F   UNL A   1      39.120  26.339  29.730  1.00  0.00    -0.203 F 
ATOM     47  F   UNL A   1      41.996  27.738  25.309  1.00  0.00    -0.200 F 
ATOM     48  C   UNL A   1      40.595  26.200  26.427  1.00  0.00     0.200 A 
ATOM     49  F   UNL A   1      39.182  24.701  27.579  1.00  0.00    -0.200 F 
ATOM     50  F   UNL A   1      40.593  25.400  25.353  1.00  0.00    -0.200 F 
ENDBRANCH  26  40
BRANCH  27  51
ATOM     51  C   UNL A   1      39.713  33.777  36.698  1.00  0.00     0.064 A 
ATOM     52  C   UNL A   1      40.312  35.038  36.808  1.00  0.00     0.173 A 
ATOM     53  C   UNL A   1      38.871  33.356  37.738  1.00  0.00     0.173 A 
ATOM     54  F   UNL A   1      41.137  35.475  35.846  1.00  0.00    -0.203 F 
ATOM     55  C   UNL A   1      40.074  35.849  37.916  1.00  0.00     0.198 A 
ATOM     56  C   UNL A   1      38.615  34.178  38.833  1.00  0.00     0.198 A 
ATOM     57  F   UNL A   1      38.269  32.160  37.672  1.00  0.00    -0.203 F 
ATOM     58  F   UNL A   1      40.672  37.045  38.008  1.00  0.00    -0.200 F 
ATOM     59  C   UNL A   1      39.218  35.424  38.921  1.00  0.00     0.200 A 
ATOM     60  F   UNL A   1      37.773  33.771  39.792  1.00  0.00    -0.200 F 
ATOM     61  F   UNL A   1      38.972  36.215  39.974  1.00  0.00    -0.200 F 
ENDBRANCH  27  51
BRANCH  39  62
ATOM     62  C   UNL A   1      43.983  28.522  34.982  1.00  0.00     0.064 A 
ATOM     63  C   UNL A   1      43.776  27.371  35.753  1.00  0.00     0.173 A 
ATOM     64  C   UNL A   1      45.296  28.996  34.840  1.00  0.00     0.173 A 
ATOM     65  F   UNL A   1      42.536  26.891  35.930  1.00  0.00    -0.203 F 
ATOM     66  C   UNL A   1      44.844  26.720  36.364  1.00  0.00     0.198 A 
ATOM     67  C   UNL A   1      46.364  28.330  35.433  1.00  0.00     0.198 A 
ATOM     68  F   UNL A   1      45.545  30.093  34.108  1.00  0.00    -0.203 F 
ATOM     69  F   UNL A   1      44.622  25.636  37.121  1.00  0.00    -0.200 F 
ATOM     70  C   UNL A   1      46.137  27.194  36.196  1.00  0.00     0.200 A 
ATOM     71  F   UNL A   1      47.613  28.783  35.261  1.00  0.00    -0.200 F 
ATOM     72  F   UNL A   1      47.165  26.558  36.773  1.00  0.00    -0.200 F 
ENDBRANCH  39  62
ENDBRANCH  13  14
ENDBRANCH   6   8
ENDBRANCH   3   4
ENDBRANCH   2   3
ENDBRANCH   1   2
BRANCH   1  73
ATOM     73  C   UNL A   1      32.505  29.872  26.473  1.00  0.00     0.002 C 
BRANCH  73  74
ATOM     74  C   UNL A   1      31.988  28.661  27.251  1.00  0.00     0.021 C 
BRANCH  74  75
ATOM     75  C   UNL A   1      32.296  27.316  26.613  1.00  0.00     0.116 C 
BRANCH  75  76
ATOM     76  N   UNL A   1      31.279  26.318  26.816  1.00  0.00    -0.356 N 
ATOM     77  C   UNL A   1      30.724  25.414  25.981  1.00  0.00     0.224 C 
ATOM     78  H   UNL A   1      30.923  26.289  27.733  1.00  0.00     0.163 HD
ATOM     79  O   UNL A   1      30.129  24.487  26.556  1.00  0.00    -0.275 OA
BRANCH  77  80
ATOM     80  C   UNL A   1      30.646  25.462  24.443  1.00  0.00     0.092 C 
ATOM     81  C   UNL A   1      29.475  26.391  24.061  1.00  0.00     0.041 C 
ATOM     82  C   UNL A   1      31.832  25.648  23.467  1.00  0.00     0.065 C 
ATOM     83  C   UNL A   1      29.895  27.801  23.797  1.00  0.00    -0.030 C 
ATOM     84  C   UNL A   1      32.232  27.126  23.207  1.00  0.00     0.038 C 
ATOM     85  C   UNL A   1      31.137  28.129  23.424  1.00  0.00    -0.031 C 
BRANCH  82  86
ATOM     86  C   UNL A   1      33.014  24.742  23.761  1.00  0.00     0.098 A 
ATOM     87  N   UNL A   1      34.139  25.132  24.325  1.00  0.00    -0.241 NA
ATOM     88  S   UNL A   1      32.946  23.063  23.384  1.00  0.00    -0.118 S 
ATOM     89  C   UNL A   1      34.901  24.034  24.682  1.00  0.00     0.082 A 
ATOM     90  C   UNL A   1      34.399  22.802  24.266  1.00  0.00     0.055 A 
ATOM     91  C   UNL A   1      36.086  24.063  25.445  1.00  0.00     0.030 A 
ATOM     92  C   UNL A   1      35.040  21.593  24.584  1.00  0.00     0.021 A 
ATOM     93  C   UNL A   1      36.715  22.865  25.797  1.00  0.00     0.002 A 
ATOM     94  C   UNL A   1      36.196  21.647  25.370  1.00  0.00     0.002 A 
ENDBRANCH  82  86
ENDBRANCH  77  80
ENDBRANCH  75  76
ENDBRANCH  74  75
ENDBRANCH  73  74
ENDBRANCH   1  73
TORSDOF 14
ENDMDL
MODEL 2
REMARK VINA RESULT:     -12.6      0.204      1.596
REMARK SMILES O=C(NCCCCCCNC(=O)[C@H]1CC=CC[C@H]1c1nc2ccccc2s1)c1ccc(-c2c3nc(c(-c4c(F)c(F)c(F)c(F)c4F)c4ccc([nH]4)c(-c4c(F)c(F)c(F)c(F)c4F)c4nc(c(-c5c(F)c(F)c(F)c(F)c5F)c5ccc2[nH]5)C=C4)C=C3)cc1
REMARK SMILES IDX 6 1 5 2 4 3 3 4 1 5 2 6 28 8 29 9 90 10 30 11 89 12 31 13
REMARK SMILES IDX 32 14 33 15 83 16 34 17 88 18 82 19 84 20 35 21 87 22 81 23
REMARK SMILES IDX 80 24 36 26 68 27 48 28 67 29 49 30 52 31 66 32 85 33 50 34
REMARK SMILES IDX 51 35 65 37 86 38 53 39 37 40 38 41 46 42 39 43 40 44 44 45
REMARK SMILES IDX 47 46 41 47 42 48 45 49 43 50 69 51 70 52 78 53 71 54 72 55
REMARK SMILES IDX 76 56 79 57 73 58 74 59 77 60 75 61 54 62 55 63 63 64 56 65
REMARK SMILES IDX 57 66 61 67 64 68 58 69 59 70 62 71 60 72 7 73 8 74 9 75
REMARK SMILES IDX 10 76 11 77 12 79 13 80 14 81 18 82 15 83 17 84 16 85 19 86
REMARK SMILES IDX 20 87 27 88 21 89 26 90 22 91 25 92 23 93 24 94
REMARK H PARENT 3 7 84 25 52 36 10 78
REMARK Flexibility Score: inf
ROOT
ATOM      1  C   UNL A   1      31.405  30.843  26.050  1.00  0.00     0.002 C 
ENDROOT
BRANCH   1   2
ATOM      2  C   UNL A   1      31.344  32.305  26.502  1.00  0.00     0.021 C 
BRANCH   2   3
ATOM      3  C   UNL A   1      32.578  32.809  27.244  1.00  0.00     0.116 C 
BRANCH   3   4
ATOM      4  N   UNL A   1      32.441  34.198  27.645  1.00  0.00    -0.352 N 
ATOM      5  O   UNL A   1      32.611  35.995  28.984  1.00  0.00    -0.269 OA
ATOM      6  C   UNL A   1      33.038  34.891  28.665  1.00  0.00     0.251 C 
ATOM      7  H   UNL A   1      31.818  34.727  27.096  1.00  0.00     0.163 HD
BRANCH   6   8
ATOM      8  C   UNL A   1      34.197  34.323  29.386  1.00  0.00     0.039 A 
ATOM      9  C   UNL A   1      34.025  33.472  30.482  1.00  0.00     0.014 A 
ATOM     10  C   UNL A   1      35.479  34.579  28.893  1.00  0.00     0.014 A 
ATOM     11  C   UNL A   1      35.137  32.944  31.136  1.00  0.00     0.010 A 
ATOM     12  C   UNL A   1      36.591  34.001  29.510  1.00  0.00     0.010 A 
ATOM     13  C   UNL A   1      36.427  33.188  30.643  1.00  0.00    -0.014 A 
BRANCH  13  14
ATOM     14  C   UNL A   1      37.603  32.529  31.259  1.00  0.00     0.031 A 
ATOM     15  C   UNL A   1      38.276  31.374  30.581  1.00  0.00     0.074 A 
ATOM     16  C   UNL A   1      38.026  32.949  32.466  1.00  0.00     0.049 A 
ATOM     17  N   UNL A   1      39.248  30.613  31.014  1.00  0.00    -0.248 NA
ATOM     18  C   UNL A   1      37.782  31.019  29.243  1.00  0.00     0.031 C 
ATOM     19  C   UNL A   1      37.436  34.052  33.225  1.00  0.00     0.029 A 
ATOM     20  N   UNL A   1      39.034  32.488  33.275  1.00  0.00    -0.354 N 
ATOM     21  C   UNL A   1      39.467  29.673  30.017  1.00  0.00     0.074 A 
ATOM     22  C   UNL A   1      38.513  29.949  28.962  1.00  0.00     0.031 C 
ATOM     23  C   UNL A   1      38.089  34.183  34.389  1.00  0.00     0.029 A 
ATOM     24  C   UNL A   1      39.106  33.141  34.479  1.00  0.00     0.049 A 
ATOM     25  H   UNL A   1      39.644  31.760  33.016  1.00  0.00     0.167 HD
ATOM     26  C   UNL A   1      40.384  28.676  29.988  1.00  0.00     0.037 A 
ATOM     27  C   UNL A   1      39.881  32.905  35.554  1.00  0.00     0.037 A 
ATOM     28  C   UNL A   1      41.335  28.421  31.038  1.00  0.00     0.049 A 
ATOM     29  C   UNL A   1      40.876  31.783  35.508  1.00  0.00     0.074 A 
ATOM     30  C   UNL A   1      42.342  27.472  31.079  1.00  0.00     0.029 A 
ATOM     31  N   UNL A   1      41.388  29.113  32.240  1.00  0.00    -0.354 N 
ATOM     32  N   UNL A   1      41.109  30.929  34.541  1.00  0.00    -0.248 NA
ATOM     33  C   UNL A   1      41.715  31.589  36.698  1.00  0.00     0.031 C 
ATOM     34  C   UNL A   1      42.974  27.560  32.325  1.00  0.00     0.029 A 
ATOM     35  C   UNL A   1      42.392  28.594  33.041  1.00  0.00     0.049 A 
ATOM     36  H   UNL A   1      40.799  29.862  32.487  1.00  0.00     0.167 HD
ATOM     37  C   UNL A   1      42.130  30.109  34.994  1.00  0.00     0.074 A 
ATOM     38  C   UNL A   1      42.478  30.571  36.322  1.00  0.00     0.031 C 
ATOM     39  C   UNL A   1      42.726  29.068  34.362  1.00  0.00     0.037 A 
BRANCH  26  40
ATOM     40  C   UNL A   1      40.381  27.769  28.792  1.00  0.00     0.064 A 
ATOM     41  C   UNL A   1      39.633  26.583  28.762  1.00  0.00     0.173 A 
ATOM     42  C   UNL A   1      41.128  28.101  27.650  1.00  0.00     0.173 A 
ATOM     43  F   UNL A   1      38.911  26.214  29.831  1.00  0.00    -0.203 F 
ATOM     44  C   UNL A   1      39.657  25.748  27.647  1.00  0.00     0.198 A 
ATOM     45  C   UNL A   1      41.128  27.277  26.528  1.00  0.00     0.198 A 
ATOM     46  F   UNL A   1      41.857  29.228  27.623  1.00  0.00    -0.203 F 
ATOM     47  F   UNL A   1      38.976  24.594  27.663  1.00  0.00    -0.200 F 
ATOM     48  C   UNL A   1      40.402  26.097  26.531  1.00  0.00     0.200 A 
ATOM     49  F   UNL A   1      41.840  27.622  25.446  1.00  0.00    -0.200 F 
ATOM     50  F   UNL A   1      40.426  25.291  25.461  1.00  0.00    -0.200 F 
ENDBRANCH  26  40
BRANCH  27  51
ATOM     51  C   UNL A   1      39.719  33.756  36.759  1.00  0.00     0.064 A 
ATOM     52  C   UNL A   1      40.341  35.007  36.848  1.00  0.00     0.173 A 
ATOM     53  C   UNL A   1      38.880  33.364  37.814  1.00  0.00     0.173 A 
ATOM     54  F   UNL A   1      41.164  35.418  35.871  1.00  0.00    -0.203 F 
ATOM     55  C   UNL A   1      40.130  35.837  37.948  1.00  0.00     0.198 A 
ATOM     56  C   UNL A   1      38.651  34.204  38.900  1.00  0.00     0.198 A 
ATOM     57  F   UNL A   1      38.256  32.178  37.769  1.00  0.00    -0.203 F 
ATOM     58  F   UNL A   1      40.750  37.023  38.018  1.00  0.00    -0.200 F 
ATOM     59  C   UNL A   1      39.277  35.440  38.967  1.00  0.00     0.200 A 
ATOM     60  F   UNL A   1      37.812  33.825  39.874  1.00  0.00    -0.200 F 
ATOM     61  F   UNL A   1      39.057  36.248  40.013  1.00  0.00    -0.200 F 
ENDBRANCH  27  51
BRANCH  39  62
ATOM     62  C   UNL A   1      43.840  28.371  35.084  1.00  0.00     0.064 A 
ATOM     63  C   UNL A   1      45.172  28.783  34.950  1.00  0.00     0.173 A 
ATOM     64  C   UNL A   1      43.558  27.322  35.973  1.00  0.00     0.173 A 
ATOM     65  F   UNL A   1      45.491  29.770  34.100  1.00  0.00    -0.203 F 
ATOM     66  C   UNL A   1      46.187  28.163  35.676  1.00  0.00     0.198 A 
ATOM     67  C   UNL A   1      44.571  26.722  36.714  1.00  0.00     0.198 A 
ATOM     68  F   UNL A   1      42.296  26.895  36.138  1.00  0.00    -0.203 F 
ATOM     69  F   UNL A   1      47.459  28.553  35.513  1.00  0.00    -0.200 F 
ATOM     70  C   UNL A   1      45.884  27.141  36.563  1.00  0.00     0.200 A 
ATOM     71  F   UNL A   1      44.276  25.741  37.578  1.00  0.00    -0.200 F 
ATOM     72  F   UNL A   1      46.860  26.557  37.271  1.00  0.00    -0.200 F 
ENDBRANCH  39  62
ENDBRANCH  13  14
ENDBRANCH   6   8
ENDBRANCH   3   4
ENDBRANCH   2   3
ENDBRANCH   1   2
BRANCH   1  73
ATOM     73  C   UNL A   1      32.366  29.934  26.832  1.00  0.00     0.002 C 
BRANCH  73  74
ATOM     74  C   UNL A   1      31.756  28.660  27.418  1.00  0.00     0.021 C 
BRANCH  74  75
ATOM     75  C   UNL A   1      32.140  27.379  26.693  1.00  0.00     0.116 C 
BRANCH  75  76
ATOM     76  N   UNL A   1      31.210  26.296  26.872  1.00  0.00    -0.356 N 
ATOM     77  C   UNL A   1      30.734  25.366  26.018  1.00  0.00     0.224 C 
ATOM     78  H   UNL A   1      30.856  26.218  27.788  1.00  0.00     0.163 HD
ATOM     79  O   UNL A   1      30.218  24.381  26.571  1.00  0.00    -0.275 OA
BRANCH  77  80
ATOM     80  C   UNL A   1      30.655  25.438  24.480  1.00  0.00     0.092 C 
ATOM     81  C   UNL A   1      29.482  26.372  24.115  1.00  0.00     0.041 C 
ATOM     82  C   UNL A   1      31.840  25.642  23.507  1.00  0.00     0.065 C 
ATOM     83  C   UNL A   1      29.900  27.787  23.873  1.00  0.00    -0.030 C 
ATOM     84  C   UNL A   1      32.237  27.125  23.270  1.00  0.00     0.038 C 
ATOM     85  C   UNL A   1      31.141  28.122  23.504  1.00  0.00    -0.031 C 
BRANCH  82  86
ATOM     86  C   UNL A   1      33.023  24.734  23.785  1.00  0.00     0.098 A 
ATOM     87  N   UNL A   1      34.171  25.129  24.296  1.00  0.00    -0.241 NA
ATOM     88  S   UNL A   1      32.926  23.044  23.460  1.00  0.00    -0.118 S 
ATOM     89  C   UNL A   1      34.936  24.034  24.658  1.00  0.00     0.082 A 
ATOM     90  C   UNL A   1      34.408  22.795  24.298  1.00  0.00     0.055 A 
ATOM     91  C   UNL A   1      36.148  24.073  25.376  1.00  0.00     0.030 A 
ATOM     92  C   UNL A   1      35.049  21.590  24.628  1.00  0.00     0.021 A 
ATOM     93  C   UNL A   1      36.779  22.880  25.741  1.00  0.00     0.002 A 
ATOM     94  C   UNL A   1      36.233  21.655  25.369  1.00  0.00     0.002 A 
ENDBRANCH  82  86
ENDBRANCH  77  80
ENDBRANCH  75  76
ENDBRANCH  74  75
ENDBRANCH  73  74
ENDBRANCH   1  73
TORSDOF 14
ENDMDL
MODEL 3
REMARK VINA RESULT:     -12.6      1.172      2.929
REMARK SMILES O=C(NCCCCCCNC(=O)[C@H]1CC=CC[C@H]1c1nc2ccccc2s1)c1ccc(-c2c3nc(c(-c4c(F)c(F)c(F)c(F)c4F)c4ccc([nH]4)c(-c4c(F)c(F)c(F)c(F)c4F)c4nc(c(-c5c(F)c(F)c(F)c(F)c5F)c5ccc2[nH]5)C=C4)C=C3)cc1
REMARK SMILES IDX 6 1 5 2 4 3 3 4 1 5 2 6 28 8 29 9 90 10 30 11 89 12 31 13
REMARK SMILES IDX 32 14 33 15 83 16 34 17 88 18 82 19 84 20 35 21 87 22 81 23
REMARK SMILES IDX 80 24 36 26 68 27 48 28 67 29 49 30 52 31 66 32 85 33 50 34
REMARK SMILES IDX 51 35 65 37 86 38 53 39 37 40 38 41 46 42 39 43 40 44 44 45
REMARK SMILES IDX 47 46 41 47 42 48 45 49 43 50 69 51 70 52 78 53 71 54 72 55
REMARK SMILES IDX 76 56 79 57 73 58 74 59 77 60 75 61 54 62 55 63 63 64 56 65
REMARK SMILES IDX 57 66 61 67 64 68 58 69 59 70 62 71 60 72 7 73 8 74 9 75
REMARK SMILES IDX 10 76 11 77 12 79 13 80 14 81 18 82 15 83 17 84 16 85 19 86
REMARK SMILES IDX 20 87 27 88 21 89 26 90 22 91 25 92 23 93 24 94
REMARK H PARENT 3 7 84 25 52 36 10 78
REMARK Flexibility Score: inf
ROOT
ATOM      1  C   UNL A   1      31.465  30.843  26.032  1.00  0.00     0.002 C 
ENDROOT
BRANCH   1   2
ATOM      2  C   UNL A   1      31.376  32.298  26.502  1.00  0.00     0.021 C 
BRANCH   2   3
ATOM      3  C   UNL A   1      32.606  32.820  27.238  1.00  0.00     0.116 C 
BRANCH   3   4
ATOM      4  N   UNL A   1      32.445  34.203  27.652  1.00  0.00    -0.352 N 
ATOM      5  O   UNL A   1      32.579  35.989  29.009  1.00  0.00    -0.269 OA
ATOM      6  C   UNL A   1      33.025  34.895  28.681  1.00  0.00     0.251 C 
ATOM      7  H   UNL A   1      31.816  34.727  27.105  1.00  0.00     0.163 HD
BRANCH   6   8
ATOM      8  C   UNL A   1      34.190  34.338  29.403  1.00  0.00     0.039 A 
ATOM      9  C   UNL A   1      34.028  33.565  30.557  1.00  0.00     0.014 A 
ATOM     10  C   UNL A   1      35.463  34.520  28.856  1.00  0.00     0.014 A 
ATOM     11  C   UNL A   1      35.144  33.046  31.210  1.00  0.00     0.010 A 
ATOM     12  C   UNL A   1      36.576  33.949  29.476  1.00  0.00     0.010 A 
ATOM     13  C   UNL A   1      36.424  33.217  30.664  1.00  0.00    -0.014 A 
BRANCH  13  14
ATOM     14  C   UNL A   1      37.600  32.562  31.287  1.00  0.00     0.031 A 
ATOM     15  C   UNL A   1      38.284  31.414  30.609  1.00  0.00     0.074 A 
ATOM     16  C   UNL A   1      38.011  32.980  32.498  1.00  0.00     0.049 A 
ATOM     17  N   UNL A   1      39.257  30.656  31.047  1.00  0.00    -0.248 NA
ATOM     18  C   UNL A   1      37.802  31.061  29.266  1.00  0.00     0.031 C 
ATOM     19  C   UNL A   1      37.409  34.076  33.257  1.00  0.00     0.029 A 
ATOM     20  N   UNL A   1      39.015  32.521  33.313  1.00  0.00    -0.354 N 
ATOM     21  C   UNL A   1      39.489  29.721  30.047  1.00  0.00     0.074 A 
ATOM     22  C   UNL A   1      38.541  29.996  28.986  1.00  0.00     0.031 C 
ATOM     23  C   UNL A   1      38.053  34.206  34.426  1.00  0.00     0.029 A 
ATOM     24  C   UNL A   1      39.075  33.170  34.520  1.00  0.00     0.049 A 
ATOM     25  H   UNL A   1      39.632  31.797  33.056  1.00  0.00     0.167 HD
ATOM     26  C   UNL A   1      40.411  28.729  30.021  1.00  0.00     0.037 A 
ATOM     27  C   UNL A   1      39.843  32.934  35.600  1.00  0.00     0.037 A 
ATOM     28  C   UNL A   1      41.356  28.475  31.077  1.00  0.00     0.049 A 
ATOM     29  C   UNL A   1      40.844  31.818  35.557  1.00  0.00     0.074 A 
ATOM     30  C   UNL A   1      42.368  27.532  31.123  1.00  0.00     0.029 A 
ATOM     31  N   UNL A   1      41.396  29.163  32.283  1.00  0.00    -0.354 N 
ATOM     32  N   UNL A   1      41.090  30.969  34.589  1.00  0.00    -0.248 NA
ATOM     33  C   UNL A   1      41.676  31.624  36.752  1.00  0.00     0.031 C 
ATOM     34  C   UNL A   1      42.990  27.619  32.374  1.00  0.00     0.029 A 
ATOM     35  C   UNL A   1      42.397  28.647  33.089  1.00  0.00     0.049 A 
ATOM     36  H   UNL A   1      40.801  29.908  32.528  1.00  0.00     0.167 HD
ATOM     37  C   UNL A   1      42.112  30.152  35.046  1.00  0.00     0.074 A 
ATOM     38  C   UNL A   1      42.448  30.611  36.378  1.00  0.00     0.031 C 
ATOM     39  C   UNL A   1      42.719  29.118  34.414  1.00  0.00     0.037 A 
BRANCH  26  40
ATOM     40  C   UNL A   1      40.423  27.827  28.822  1.00  0.00     0.064 A 
ATOM     41  C   UNL A   1      41.198  28.111  27.688  1.00  0.00     0.173 A 
ATOM     42  C   UNL A   1      39.658  26.650  28.814  1.00  0.00     0.173 A 
ATOM     43  F   UNL A   1      41.938  29.229  27.639  1.00  0.00    -0.203 F 
ATOM     44  C   UNL A   1      41.182  27.268  26.579  1.00  0.00     0.198 A 
ATOM     45  C   UNL A   1      39.666  25.796  27.715  1.00  0.00     0.198 A 
ATOM     46  F   UNL A   1      38.903  26.327  29.876  1.00  0.00    -0.203 F 
ATOM     47  F   UNL A   1      41.890  27.588  25.487  1.00  0.00    -0.200 F 
ATOM     48  C   UNL A   1      40.419  26.110  26.595  1.00  0.00     0.200 A 
ATOM     49  F   UNL A   1      38.936  24.672  27.736  1.00  0.00    -0.200 F 
ATOM     50  F   UNL A   1      40.403  25.302  25.526  1.00  0.00    -0.200 F 
ENDBRANCH  26  40
BRANCH  27  51
ATOM     51  C   UNL A   1      39.667  33.779  36.807  1.00  0.00     0.064 A 
ATOM     52  C   UNL A   1      40.279  35.035  36.903  1.00  0.00     0.173 A 
ATOM     53  C   UNL A   1      38.826  33.376  37.855  1.00  0.00     0.173 A 
ATOM     54  F   UNL A   1      41.103  35.456  35.933  1.00  0.00    -0.203 F 
ATOM     55  C   UNL A   1      40.055  35.859  38.005  1.00  0.00     0.198 A 
ATOM     56  C   UNL A   1      38.583  34.211  38.943  1.00  0.00     0.198 A 
ATOM     57  F   UNL A   1      38.212  32.186  37.803  1.00  0.00    -0.203 F 
ATOM     58  F   UNL A   1      40.664  37.050  38.083  1.00  0.00    -0.200 F 
ATOM     59  C   UNL A   1      39.199  35.452  39.018  1.00  0.00     0.200 A 
ATOM     60  F   UNL A   1      37.742  33.821  39.911  1.00  0.00    -0.200 F 
ATOM     61  F   UNL A   1      38.966  36.254  40.065  1.00  0.00    -0.200 F 
ENDBRANCH  27  51
BRANCH  39  62
ATOM     62  C   UNL A   1      43.831  28.424  35.142  1.00  0.00     0.064 A 
ATOM     63  C   UNL A   1      43.596  27.286  35.925  1.00  0.00     0.173 A 
ATOM     64  C   UNL A   1      45.155  28.866  34.998  1.00  0.00     0.173 A 
ATOM     65  F   UNL A   1      42.346  26.836  36.105  1.00  0.00    -0.203 F 
ATOM     66  C   UNL A   1      44.650  26.617  36.544  1.00  0.00     0.198 A 
ATOM     67  C   UNL A   1      46.206  28.182  35.599  1.00  0.00     0.198 A 
ATOM     68  F   UNL A   1      45.429  29.950  34.256  1.00  0.00    -0.203 F 
ATOM     69  F   UNL A   1      44.402  25.546  37.311  1.00  0.00    -0.200 F 
ATOM     70  C   UNL A   1      45.953  27.060  36.373  1.00  0.00     0.200 A 
ATOM     71  F   UNL A   1      47.466  28.605  35.425  1.00  0.00    -0.200 F 
ATOM     72  F   UNL A   1      46.966  26.406  36.958  1.00  0.00    -0.200 F 
ENDBRANCH  39  62
ENDBRANCH  13  14
ENDBRANCH   6   8
ENDBRANCH   3   4
ENDBRANCH   2   3
ENDBRANCH   1   2
BRANCH   1  73
ATOM     73  C   UNL A   1      32.345  29.912  26.879  1.00  0.00     0.002 C 
BRANCH  73  74
ATOM     74  C   UNL A   1      33.600  29.369  26.194  1.00  0.00     0.021 C 
BRANCH  74  75
ATOM     75  C   UNL A   1      33.912  27.912  26.501  1.00  0.00     0.116 C 
BRANCH  75  76
ATOM     76  N   UNL A   1      32.751  27.098  26.750  1.00  0.00    -0.356 N 
ATOM     77  C   UNL A   1      32.270  26.001  26.129  1.00  0.00     0.224 C 
ATOM     78  H   UNL A   1      32.208  27.397  27.515  1.00  0.00     0.163 HD
ATOM     79  O   UNL A   1      31.449  25.354  26.799  1.00  0.00    -0.275 OA
BRANCH  77  80
ATOM     80  C   UNL A   1      32.526  25.539  24.682  1.00  0.00     0.092 C 
ATOM     81  C   UNL A   1      33.367  24.246  24.744  1.00  0.00     0.041 C 
ATOM     82  C   UNL A   1      31.482  25.456  23.543  1.00  0.00     0.065 C 
ATOM     83  C   UNL A   1      32.546  22.998  24.693  1.00  0.00    -0.030 C 
ATOM     84  C   UNL A   1      30.657  24.141  23.514  1.00  0.00     0.038 C 
ATOM     85  C   UNL A   1      31.325  22.957  24.149  1.00  0.00    -0.031 C 
BRANCH  82  86
ATOM     86  C   UNL A   1      30.635  26.707  23.399  1.00  0.00     0.098 A 
ATOM     87  N   UNL A   1      31.060  27.849  22.899  1.00  0.00    -0.241 NA
ATOM     88  S   UNL A   1      28.979  26.705  23.875  1.00  0.00    -0.118 S 
ATOM     89  C   UNL A   1      29.992  28.699  22.671  1.00  0.00     0.082 A 
ATOM     90  C   UNL A   1      28.757  28.236  23.124  1.00  0.00     0.055 A 
ATOM     91  C   UNL A   1      30.049  29.938  22.001  1.00  0.00     0.030 A 
ATOM     92  C   UNL A   1      27.574  28.969  22.933  1.00  0.00     0.021 A 
ATOM     93  C   UNL A   1      28.874  30.660  21.775  1.00  0.00     0.002 A 
ATOM     94  C   UNL A   1      27.653  30.179  22.237  1.00  0.00     0.002 A 
ENDBRANCH  82  86
ENDBRANCH  77  80
ENDBRANCH  75  76
ENDBRANCH  74  75
ENDBRANCH  73  74
ENDBRANCH   1  73
TORSDOF 14
ENDMDL
