MODEL 1
REMARK VINA RESULT:     -12.8      0.000      0.000
REMARK SMILES O=C(NCCCCCCNC(=O)C1(Cc2ccncc2)Cc2ccccc2C1)c1ccc(-c2c3nc(c(-c4c(F)c(F)c(F)c(F)c4F)c4ccc([nH]4)c(-c4c(F)c(F)c(F)c(F)c4F)c4nc(c(-c5c(F)c(F)c(F)c(F)c5F)c5ccc2[nH]5)C=C4)C=C3)cc1
REMARK SMILES IDX 6 1 5 2 4 3 3 4 1 5 2 6 29 8 30 9 91 10 31 11 90 12 32 13
REMARK SMILES IDX 33 14 34 15 84 16 35 17 89 18 83 19 85 20 36 21 88 22 82 23
REMARK SMILES IDX 81 24 37 26 69 27 49 28 68 29 50 30 53 31 67 32 86 33 51 34
REMARK SMILES IDX 52 35 66 37 87 38 54 39 38 40 39 41 47 42 40 43 41 44 45 45
REMARK SMILES IDX 48 46 42 47 43 48 46 49 44 50 70 51 71 52 79 53 72 54 73 55
REMARK SMILES IDX 77 56 80 57 74 58 75 59 78 60 76 61 55 62 56 63 64 64 57 65
REMARK SMILES IDX 58 66 62 67 65 68 59 69 60 70 63 71 61 72 7 73 8 74 9 75
REMARK SMILES IDX 10 76 11 77 12 79 13 80 21 81 28 82 22 83 27 84 23 85 26 86
REMARK SMILES IDX 24 87 25 88 14 89 15 90 16 91 20 92 17 93 19 94 18 95
REMARK H PARENT 3 7 85 25 53 36 10 78
REMARK Flexibility Score: inf
ROOT
ATOM      1  C   UNL A   1      31.515  30.491  26.090  1.00  0.00     0.002 C 
ENDROOT
BRANCH   1   2
ATOM      2  C   UNL A   1      31.380  31.956  26.501  1.00  0.00     0.021 C 
BRANCH   2   3
ATOM      3  C   UNL A   1      32.605  32.523  27.206  1.00  0.00     0.116 C 
BRANCH   3   4
ATOM      4  N   UNL A   1      32.433  33.918  27.574  1.00  0.00    -0.352 N 
ATOM      5  O   UNL A   1      32.707  35.757  28.863  1.00  0.00    -0.269 OA
ATOM      6  C   UNL A   1      33.088  34.635  28.545  1.00  0.00     0.251 C 
ATOM      7  H   UNL A   1      31.757  34.416  27.060  1.00  0.00     0.163 HD
BRANCH   6   8
ATOM      8  C   UNL A   1      34.251  34.029  29.227  1.00  0.00     0.039 A 
ATOM      9  C   UNL A   1      35.549  34.392  28.862  1.00  0.00     0.014 A 
ATOM     10  C   UNL A   1      34.039  33.078  30.228  1.00  0.00     0.014 A 
ATOM     11  C   UNL A   1      36.632  33.705  29.395  1.00  0.00     0.010 A 
ATOM     12  C   UNL A   1      35.134  32.452  30.830  1.00  0.00     0.010 A 
ATOM     13  C   UNL A   1      36.438  32.740  30.397  1.00  0.00    -0.014 A 
BRANCH  13  14
ATOM     14  C   UNL A   1      37.623  32.097  31.017  1.00  0.00     0.031 A 
ATOM     15  C   UNL A   1      38.061  32.442  32.412  1.00  0.00     0.074 A 
ATOM     16  C   UNL A   1      38.287  31.162  30.310  1.00  0.00     0.049 A 
ATOM     17  N   UNL A   1      39.051  31.946  33.112  1.00  0.00    -0.248 NA
ATOM     18  C   UNL A   1      37.295  33.483  33.114  1.00  0.00     0.031 C 
ATOM     19  C   UNL A   1      37.958  30.755  28.942  1.00  0.00     0.029 A 
ATOM     20  N   UNL A   1      39.354  30.369  30.644  1.00  0.00    -0.354 N 
ATOM     21  C   UNL A   1      39.042  32.626  34.322  1.00  0.00     0.074 A 
ATOM     22  C   UNL A   1      37.962  33.588  34.255  1.00  0.00     0.031 C 
ATOM     23  C   UNL A   1      38.767  29.752  28.574  1.00  0.00     0.029 A 
ATOM     24  C   UNL A   1      39.712  29.489  29.653  1.00  0.00     0.049 A 
ATOM     25  H   UNL A   1      39.819  30.426  31.510  1.00  0.00     0.167 HD
ATOM     26  C   UNL A   1      39.857  32.455  35.391  1.00  0.00     0.037 A 
ATOM     27  C   UNL A   1      40.699  28.577  29.612  1.00  0.00     0.037 A 
ATOM     28  C   UNL A   1      40.920  31.483  35.454  1.00  0.00     0.049 A 
ATOM     29  C   UNL A   1      41.600  28.428  30.804  1.00  0.00     0.074 A 
ATOM     30  C   UNL A   1      41.775  31.205  36.508  1.00  0.00     0.029 A 
ATOM     31  N   UNL A   1      41.279  30.635  34.417  1.00  0.00    -0.354 N 
ATOM     32  N   UNL A   1      41.556  29.048  31.956  1.00  0.00    -0.248 NA
ATOM     33  C   UNL A   1      42.690  27.453  30.685  1.00  0.00     0.031 C 
ATOM     34  C   UNL A   1      42.680  30.222  36.091  1.00  0.00     0.029 A 
ATOM     35  C   UNL A   1      42.357  29.850  34.796  1.00  0.00     0.049 A 
ATOM     36  H   UNL A   1      40.832  30.595  33.540  1.00  0.00     0.167 HD
ATOM     37  C   UNL A   1      42.598  28.527  32.709  1.00  0.00     0.074 A 
ATOM     38  C   UNL A   1      43.243  27.524  31.887  1.00  0.00     0.031 C 
ATOM     39  C   UNL A   1      42.987  28.855  33.966  1.00  0.00     0.037 A 
BRANCH  26  40
ATOM     40  C   UNL A   1      39.649  33.353  36.578  1.00  0.00     0.064 A 
ATOM     41  C   UNL A   1      40.291  34.595  36.687  1.00  0.00     0.173 A 
ATOM     42  C   UNL A   1      38.762  32.983  37.601  1.00  0.00     0.173 A 
ATOM     43  F   UNL A   1      41.157  34.994  35.743  1.00  0.00    -0.203 F 
ATOM     44  C   UNL A   1      40.075  35.421  37.790  1.00  0.00     0.198 A 
ATOM     45  C   UNL A   1      38.526  33.823  38.687  1.00  0.00     0.198 A 
ATOM     46  F   UNL A   1      38.115  31.810  37.543  1.00  0.00    -0.203 F 
ATOM     47  F   UNL A   1      40.734  36.583  37.894  1.00  0.00    -0.200 F 
ATOM     48  C   UNL A   1      39.188  35.037  38.784  1.00  0.00     0.200 A 
ATOM     49  F   UNL A   1      37.658  33.456  39.641  1.00  0.00    -0.200 F 
ATOM     50  F   UNL A   1      38.975  35.835  39.840  1.00  0.00    -0.200 F 
ENDBRANCH  26  40
BRANCH  27  51
ATOM     51  C   UNL A   1      40.876  27.735  28.402  1.00  0.00     0.064 A 
ATOM     52  C   UNL A   1      40.235  26.494  28.291  1.00  0.00     0.173 A 
ATOM     53  C   UNL A   1      41.671  28.160  27.327  1.00  0.00     0.173 A 
ATOM     54  F   UNL A   1      39.479  26.038  29.299  1.00  0.00    -0.203 F 
ATOM     55  C   UNL A   1      40.395  25.703  27.155  1.00  0.00     0.198 A 
ATOM     56  C   UNL A   1      41.805  27.382  26.179  1.00  0.00     0.198 A 
ATOM     57  F   UNL A   1      42.300  29.344  27.383  1.00  0.00    -0.203 F 
ATOM     58  F   UNL A   1      39.802  24.503  27.089  1.00  0.00    -0.200 F 
ATOM     59  C   UNL A   1      41.173  26.151  26.098  1.00  0.00     0.200 A 
ATOM     60  F   UNL A   1      42.542  27.827  25.153  1.00  0.00    -0.200 F 
ATOM     61  F   UNL A   1      41.317  25.394  25.001  1.00  0.00    -0.200 F 
ENDBRANCH  27  51
BRANCH  39  62
ATOM     62  C   UNL A   1      44.147  28.091  34.535  1.00  0.00     0.064 A 
ATOM     63  C   UNL A   1      43.966  26.875  35.211  1.00  0.00     0.173 A 
ATOM     64  C   UNL A   1      45.455  28.576  34.391  1.00  0.00     0.173 A 
ATOM     65  F   UNL A   1      42.732  26.379  35.391  1.00  0.00    -0.203 F 
ATOM     66  C   UNL A   1      45.051  26.188  35.749  1.00  0.00     0.198 A 
ATOM     67  C   UNL A   1      46.541  27.872  34.904  1.00  0.00     0.198 A 
ATOM     68  F   UNL A   1      45.682  29.732  33.749  1.00  0.00    -0.203 F 
ATOM     69  F   UNL A   1      44.850  25.057  36.439  1.00  0.00    -0.200 F 
ATOM     70  C   UNL A   1      46.337  26.683  35.590  1.00  0.00     0.200 A 
ATOM     71  F   UNL A   1      47.782  28.346  34.740  1.00  0.00    -0.200 F 
ATOM     72  F   UNL A   1      47.380  26.021  36.108  1.00  0.00    -0.200 F 
ENDBRANCH  39  62
ENDBRANCH  13  14
ENDBRANCH   6   8
ENDBRANCH   3   4
ENDBRANCH   2   3
ENDBRANCH   1   2
BRANCH   1  73
ATOM     73  C   UNL A   1      32.310  29.623  27.069  1.00  0.00     0.002 C 
BRANCH  73  74
ATOM     74  C   UNL A   1      31.718  28.229  27.334  1.00  0.00     0.021 C 
BRANCH  74  75
ATOM     75  C   UNL A   1      32.320  27.117  26.469  1.00  0.00     0.116 C 
BRANCH  75  76
ATOM     76  N   UNL A   1      31.454  25.955  26.501  1.00  0.00    -0.356 N 
ATOM     77  C   UNL A   1      30.283  25.750  25.839  1.00  0.00     0.227 C 
ATOM     78  H   UNL A   1      31.752  25.216  27.078  1.00  0.00     0.163 HD
ATOM     79  O   UNL A   1      29.396  25.205  26.501  1.00  0.00    -0.274 OA
BRANCH  77  80
ATOM     80  C   UNL A   1      30.064  26.201  24.387  1.00  0.00     0.061 C 
ATOM     81  C   UNL A   1      28.587  26.681  24.213  1.00  0.00     0.053 C 
ATOM     82  C   UNL A   1      30.973  27.403  23.987  1.00  0.00     0.053 C 
ATOM     83  C   UNL A   1      28.718  27.901  23.356  1.00  0.00    -0.044 A 
ATOM     84  C   UNL A   1      30.048  28.295  23.219  1.00  0.00    -0.044 A 
ATOM     85  C   UNL A   1      27.697  28.627  22.762  1.00  0.00     0.004 A 
ATOM     86  C   UNL A   1      30.389  29.414  22.474  1.00  0.00     0.004 A 
ATOM     87  C   UNL A   1      28.029  29.752  22.006  1.00  0.00     0.000 A 
ATOM     88  C   UNL A   1      29.369  30.143  21.859  1.00  0.00     0.000 A 
BRANCH  80  89
ATOM     89  C   UNL A   1      30.283  24.986  23.419  1.00  0.00     0.053 C 
BRANCH  89  90
ATOM     90  C   UNL A   1      31.581  24.207  23.526  1.00  0.00    -0.044 A 
ATOM     91  C   UNL A   1      31.640  22.916  24.058  1.00  0.00     0.024 A 
ATOM     92  C   UNL A   1      32.771  24.762  23.041  1.00  0.00     0.024 A 
ATOM     93  C   UNL A   1      32.860  22.259  24.108  1.00  0.00     0.111 A 
ATOM     94  C   UNL A   1      33.942  24.022  23.125  1.00  0.00     0.111 A 
ATOM     95  N   UNL A   1      34.016  22.785  23.657  1.00  0.00    -0.265 NA
ENDBRANCH  89  90
ENDBRANCH  80  89
ENDBRANCH  77  80
ENDBRANCH  75  76
ENDBRANCH  74  75
ENDBRANCH  73  74
ENDBRANCH   1  73
TORSDOF 15
ENDMDL
MODEL 2
REMARK VINA RESULT:     -12.8      1.305      3.057
REMARK SMILES O=C(NCCCCCCNC(=O)C1(Cc2ccncc2)Cc2ccccc2C1)c1ccc(-c2c3nc(c(-c4c(F)c(F)c(F)c(F)c4F)c4ccc([nH]4)c(-c4c(F)c(F)c(F)c(F)c4F)c4nc(c(-c5c(F)c(F)c(F)c(F)c5F)c5ccc2[nH]5)C=C4)C=C3)cc1
REMARK SMILES IDX 6 1 5 2 4 3 3 4 1 5 2 6 29 8 30 9 91 10 31 11 90 12 32 13
REMARK SMILES IDX 33 14 34 15 84 16 35 17 89 18 83 19 85 20 36 21 88 22 82 23
REMARK SMILES IDX 81 24 37 26 69 27 49 28 68 29 50 30 53 31 67 32 86 33 51 34
REMARK SMILES IDX 52 35 66 37 87 38 54 39 38 40 39 41 47 42 40 43 41 44 45 45
REMARK SMILES IDX 48 46 42 47 43 48 46 49 44 50 70 51 71 52 79 53 72 54 73 55
REMARK SMILES IDX 77 56 80 57 74 58 75 59 78 60 76 61 55 62 56 63 64 64 57 65
REMARK SMILES IDX 58 66 62 67 65 68 59 69 60 70 63 71 61 72 7 73 8 74 9 75
REMARK SMILES IDX 10 76 11 77 12 79 13 80 21 81 28 82 22 83 27 84 23 85 26 86
REMARK SMILES IDX 24 87 25 88 14 89 15 90 16 91 20 92 17 93 19 94 18 95
REMARK H PARENT 3 7 85 25 53 36 10 78
REMARK Flexibility Score: inf
ROOT
ATOM      1  C   UNL A   1      31.599  30.894  26.245  1.00  0.00     0.002 C 
ENDROOT
BRANCH   1   2
ATOM      2  C   UNL A   1      31.388  32.281  26.849  1.00  0.00     0.021 C 
BRANCH   2   3
ATOM      3  C   UNL A   1      32.676  33.014  27.196  1.00  0.00     0.116 C 
BRANCH   3   4
ATOM      4  N   UNL A   1      32.431  34.364  27.674  1.00  0.00    -0.352 N 
ATOM      5  O   UNL A   1      32.584  36.097  29.121  1.00  0.00    -0.269 OA
ATOM      6  C   UNL A   1      33.025  35.022  28.723  1.00  0.00     0.251 C 
ATOM      7  H   UNL A   1      31.749  34.875  27.182  1.00  0.00     0.163 HD
BRANCH   6   8
ATOM      8  C   UNL A   1      34.193  34.410  29.390  1.00  0.00     0.039 A 
ATOM      9  C   UNL A   1      35.482  34.644  28.907  1.00  0.00     0.014 A 
ATOM     10  C   UNL A   1      33.993  33.582  30.498  1.00  0.00     0.014 A 
ATOM     11  C   UNL A   1      36.554  33.942  29.441  1.00  0.00     0.010 A 
ATOM     12  C   UNL A   1      35.086  32.947  31.092  1.00  0.00     0.010 A 
ATOM     13  C   UNL A   1      36.372  33.099  30.549  1.00  0.00    -0.014 A 
BRANCH  13  14
ATOM     14  C   UNL A   1      37.555  32.442  31.158  1.00  0.00     0.031 A 
ATOM     15  C   UNL A   1      38.022  32.795  32.541  1.00  0.00     0.074 A 
ATOM     16  C   UNL A   1      38.191  31.488  30.451  1.00  0.00     0.049 A 
ATOM     17  N   UNL A   1      39.015  32.289  33.231  1.00  0.00    -0.248 NA
ATOM     18  C   UNL A   1      37.285  33.856  33.243  1.00  0.00     0.031 C 
ATOM     19  C   UNL A   1      37.834  31.072  29.092  1.00  0.00     0.029 A 
ATOM     20  N   UNL A   1      39.250  30.680  30.776  1.00  0.00    -0.354 N 
ATOM     21  C   UNL A   1      39.037  32.983  34.433  1.00  0.00     0.074 A 
ATOM     22  C   UNL A   1      37.973  33.962  34.373  1.00  0.00     0.031 C 
ATOM     23  C   UNL A   1      38.619  30.050  28.724  1.00  0.00     0.029 A 
ATOM     24  C   UNL A   1      39.577  29.783  29.790  1.00  0.00     0.049 A 
ATOM     25  H   UNL A   1      39.729  30.738  31.634  1.00  0.00     0.167 HD
ATOM     26  C   UNL A   1      39.866  32.809  35.491  1.00  0.00     0.037 A 
ATOM     27  C   UNL A   1      40.547  28.854  29.743  1.00  0.00     0.037 A 
ATOM     28  C   UNL A   1      40.913  31.820  35.549  1.00  0.00     0.049 A 
ATOM     29  C   UNL A   1      41.464  28.701  30.922  1.00  0.00     0.074 A 
ATOM     30  C   UNL A   1      41.780  31.538  36.592  1.00  0.00     0.029 A 
ATOM     31  N   UNL A   1      41.240  30.953  34.515  1.00  0.00    -0.354 N 
ATOM     32  N   UNL A   1      41.449  29.335  32.069  1.00  0.00    -0.248 NA
ATOM     33  C   UNL A   1      42.535  27.706  30.797  1.00  0.00     0.031 C 
ATOM     34  C   UNL A   1      42.660  30.534  36.171  1.00  0.00     0.029 A 
ATOM     35  C   UNL A   1      42.310  30.154  34.886  1.00  0.00     0.049 A 
ATOM     36  H   UNL A   1      40.779  30.912  33.646  1.00  0.00     0.167 HD
ATOM     37  C   UNL A   1      42.494  28.804  32.810  1.00  0.00     0.074 A 
ATOM     38  C   UNL A   1      43.109  27.781  31.989  1.00  0.00     0.031 C 
ATOM     39  C   UNL A   1      42.909  29.139  34.057  1.00  0.00     0.037 A 
BRANCH  26  40
ATOM     40  C   UNL A   1      39.693  33.724  36.670  1.00  0.00     0.064 A 
ATOM     41  C   UNL A   1      40.321  34.977  36.734  1.00  0.00     0.173 A 
ATOM     42  C   UNL A   1      38.853  33.358  37.735  1.00  0.00     0.173 A 
ATOM     43  F   UNL A   1      41.141  35.371  35.749  1.00  0.00    -0.203 F 
ATOM     44  C   UNL A   1      40.136  35.817  37.831  1.00  0.00     0.198 A 
ATOM     45  C   UNL A   1      38.649  34.213  38.816  1.00  0.00     0.198 A 
ATOM     46  F   UNL A   1      38.221  32.175  37.723  1.00  0.00    -0.203 F 
ATOM     47  F   UNL A   1      40.782  36.990  37.890  1.00  0.00    -0.200 F 
ATOM     48  C   UNL A   1      39.296  35.438  38.867  1.00  0.00     0.200 A 
ATOM     49  F   UNL A   1      37.826  33.850  39.810  1.00  0.00    -0.200 F 
ATOM     50  F   UNL A   1      39.115  36.249  39.917  1.00  0.00    -0.200 F 
ENDBRANCH  26  40
BRANCH  27  51
ATOM     51  C   UNL A   1      40.689  27.995  28.541  1.00  0.00     0.064 A 
ATOM     52  C   UNL A   1      40.044  26.753  28.463  1.00  0.00     0.173 A 
ATOM     53  C   UNL A   1      41.456  28.404  27.439  1.00  0.00     0.173 A 
ATOM     54  F   UNL A   1      39.315  26.312  29.497  1.00  0.00    -0.203 F 
ATOM     55  C   UNL A   1      40.171  25.947  27.334  1.00  0.00     0.198 A 
ATOM     56  C   UNL A   1      41.557  27.611  26.298  1.00  0.00     0.198 A 
ATOM     57  F   UNL A   1      42.087  29.587  27.462  1.00  0.00    -0.203 F 
ATOM     58  F   UNL A   1      39.575  24.748  27.301  1.00  0.00    -0.200 F 
ATOM     59  C   UNL A   1      40.921  26.380  26.250  1.00  0.00     0.200 A 
ATOM     60  F   UNL A   1      42.266  28.041  25.247  1.00  0.00    -0.200 F 
ATOM     61  F   UNL A   1      41.034  25.608  25.160  1.00  0.00    -0.200 F 
ENDBRANCH  27  51
BRANCH  39  62
ATOM     62  C   UNL A   1      44.064  28.361  34.617  1.00  0.00     0.064 A 
ATOM     63  C   UNL A   1      45.388  28.806  34.475  1.00  0.00     0.173 A 
ATOM     64  C   UNL A   1      43.843  27.165  35.315  1.00  0.00     0.173 A 
ATOM     65  F   UNL A   1      45.653  29.935  33.800  1.00  0.00    -0.203 F 
ATOM     66  C   UNL A   1      46.450  28.063  34.985  1.00  0.00     0.198 A 
ATOM     67  C   UNL A   1      44.904  26.441  35.850  1.00  0.00     0.198 A 
ATOM     68  F   UNL A   1      42.596  26.700  35.482  1.00  0.00    -0.203 F 
ATOM     69  F   UNL A   1      47.709  28.478  34.790  1.00  0.00    -0.200 F 
ATOM     70  C   UNL A   1      46.207  26.885  35.677  1.00  0.00     0.200 A 
ATOM     71  F   UNL A   1      44.668  25.310  36.527  1.00  0.00    -0.200 F 
ATOM     72  F   UNL A   1      47.230  26.173  36.168  1.00  0.00    -0.200 F 
ENDBRANCH  39  62
ENDBRANCH  13  14
ENDBRANCH   6   8
ENDBRANCH   3   4
ENDBRANCH   2   3
ENDBRANCH   1   2
BRANCH   1  73
ATOM     73  C   UNL A   1      32.257  29.880  27.184  1.00  0.00     0.002 C 
BRANCH  73  74
ATOM     74  C   UNL A   1      33.709  29.515  26.836  1.00  0.00     0.021 C 
BRANCH  74  75
ATOM     75  C   UNL A   1      33.845  28.512  25.684  1.00  0.00     0.116 C 
BRANCH  75  76
ATOM     76  N   UNL A   1      33.460  29.148  24.440  1.00  0.00    -0.356 N 
ATOM     77  C   UNL A   1      32.855  28.595  23.354  1.00  0.00     0.227 C 
ATOM     78  H   UNL A   1      33.663  30.109  24.371  1.00  0.00     0.163 HD
ATOM     79  O   UNL A   1      33.297  28.965  22.264  1.00  0.00    -0.274 OA
BRANCH  77  80
ATOM     80  C   UNL A   1      31.733  27.552  23.475  1.00  0.00     0.061 C 
ATOM     81  C   UNL A   1      32.315  26.131  23.186  1.00  0.00     0.053 C 
ATOM     82  C   UNL A   1      31.113  27.499  24.905  1.00  0.00     0.053 C 
ATOM     83  C   UNL A   1      31.652  25.270  24.215  1.00  0.00    -0.044 A 
ATOM     84  C   UNL A   1      30.971  26.031  25.164  1.00  0.00    -0.044 A 
ATOM     85  C   UNL A   1      31.687  23.887  24.305  1.00  0.00     0.004 A 
ATOM     86  C   UNL A   1      30.297  25.427  26.215  1.00  0.00     0.004 A 
ATOM     87  C   UNL A   1      31.008  23.268  25.356  1.00  0.00     0.000 A 
ATOM     88  C   UNL A   1      30.313  24.034  26.305  1.00  0.00     0.000 A 
BRANCH  80  89
ATOM     89  C   UNL A   1      30.630  27.839  22.396  1.00  0.00     0.053 C 
BRANCH  89  90
ATOM     90  C   UNL A   1      29.459  28.723  22.783  1.00  0.00    -0.044 A 
ATOM     91  C   UNL A   1      29.594  30.098  22.992  1.00  0.00     0.024 A 
ATOM     92  C   UNL A   1      28.177  28.174  22.898  1.00  0.00     0.024 A 
ATOM     93  C   UNL A   1      28.475  30.846  23.326  1.00  0.00     0.111 A 
ATOM     94  C   UNL A   1      27.116  29.006  23.227  1.00  0.00     0.111 A 
ATOM     95  N   UNL A   1      27.237  30.329  23.454  1.00  0.00    -0.265 NA
ENDBRANCH  89  90
ENDBRANCH  80  89
ENDBRANCH  77  80
ENDBRANCH  75  76
ENDBRANCH  74  75
ENDBRANCH  73  74
ENDBRANCH   1  73
TORSDOF 15
ENDMDL
MODEL 3
REMARK VINA RESULT:     -12.7      1.235      2.810
REMARK SMILES O=C(NCCCCCCNC(=O)C1(Cc2ccncc2)Cc2ccccc2C1)c1ccc(-c2c3nc(c(-c4c(F)c(F)c(F)c(F)c4F)c4ccc([nH]4)c(-c4c(F)c(F)c(F)c(F)c4F)c4nc(c(-c5c(F)c(F)c(F)c(F)c5F)c5ccc2[nH]5)C=C4)C=C3)cc1
REMARK SMILES IDX 6 1 5 2 4 3 3 4 1 5 2 6 29 8 30 9 91 10 31 11 90 12 32 13
REMARK SMILES IDX 33 14 34 15 84 16 35 17 89 18 83 19 85 20 36 21 88 22 82 23
REMARK SMILES IDX 81 24 37 26 69 27 49 28 68 29 50 30 53 31 67 32 86 33 51 34
REMARK SMILES IDX 52 35 66 37 87 38 54 39 38 40 39 41 47 42 40 43 41 44 45 45
REMARK SMILES IDX 48 46 42 47 43 48 46 49 44 50 70 51 71 52 79 53 72 54 73 55
REMARK SMILES IDX 77 56 80 57 74 58 75 59 78 60 76 61 55 62 56 63 64 64 57 65
REMARK SMILES IDX 58 66 62 67 65 68 59 69 60 70 63 71 61 72 7 73 8 74 9 75
REMARK SMILES IDX 10 76 11 77 12 79 13 80 21 81 28 82 22 83 27 84 23 85 26 86
REMARK SMILES IDX 24 87 25 88 14 89 15 90 16 91 20 92 17 93 19 94 18 95
REMARK H PARENT 3 7 85 25 53 36 10 78
REMARK Flexibility Score: inf
ROOT
ATOM      1  C   UNL A   1      31.189  30.685  25.440  1.00  0.00     0.002 C 
ENDROOT
BRANCH   1   2
ATOM      2  C   UNL A   1      31.018  31.927  26.312  1.00  0.00     0.021 C 
BRANCH   2   3
ATOM      3  C   UNL A   1      32.316  32.452  26.912  1.00  0.00     0.116 C 
BRANCH   3   4
ATOM      4  N   UNL A   1      32.205  33.838  27.336  1.00  0.00    -0.352 N 
ATOM      5  O   UNL A   1      32.623  35.627  28.655  1.00  0.00    -0.269 OA
ATOM      6  C   UNL A   1      32.953  34.508  28.273  1.00  0.00     0.251 C 
ATOM      7  H   UNL A   1      31.502  34.365  26.894  1.00  0.00     0.163 HD
BRANCH   6   8
ATOM      8  C   UNL A   1      34.152  33.856  28.840  1.00  0.00     0.039 A 
ATOM      9  C   UNL A   1      34.033  32.662  29.554  1.00  0.00     0.014 A 
ATOM     10  C   UNL A   1      35.402  34.455  28.668  1.00  0.00     0.014 A 
ATOM     11  C   UNL A   1      35.138  32.142  30.214  1.00  0.00     0.010 A 
ATOM     12  C   UNL A   1      36.531  33.879  29.257  1.00  0.00     0.010 A 
ATOM     13  C   UNL A   1      36.402  32.734  30.059  1.00  0.00    -0.014 A 
BRANCH  13  14
ATOM     14  C   UNL A   1      37.580  32.095  30.697  1.00  0.00     0.031 A 
ATOM     15  C   UNL A   1      38.004  32.452  32.094  1.00  0.00     0.074 A 
ATOM     16  C   UNL A   1      38.251  31.154  30.005  1.00  0.00     0.049 A 
ATOM     17  N   UNL A   1      38.987  31.962  32.808  1.00  0.00    -0.248 NA
ATOM     18  C   UNL A   1      37.231  33.499  32.778  1.00  0.00     0.031 C 
ATOM     19  C   UNL A   1      37.937  30.736  28.637  1.00  0.00     0.029 A 
ATOM     20  N   UNL A   1      39.313  30.363  30.357  1.00  0.00    -0.354 N 
ATOM     21  C   UNL A   1      38.966  32.652  34.012  1.00  0.00     0.074 A 
ATOM     22  C   UNL A   1      37.887  33.613  33.926  1.00  0.00     0.031 C 
ATOM     23  C   UNL A   1      38.748  29.729  28.286  1.00  0.00     0.029 A 
ATOM     24  C   UNL A   1      39.682  29.474  29.377  1.00  0.00     0.049 A 
ATOM     25  H   UNL A   1      39.769  30.427  31.227  1.00  0.00     0.167 HD
ATOM     26  C   UNL A   1      39.769  32.489  35.091  1.00  0.00     0.037 A 
ATOM     27  C   UNL A   1      40.668  28.562  29.354  1.00  0.00     0.037 A 
ATOM     28  C   UNL A   1      40.831  31.517  35.174  1.00  0.00     0.049 A 
ATOM     29  C   UNL A   1      41.557  28.422  30.556  1.00  0.00     0.074 A 
ATOM     30  C   UNL A   1      41.674  31.247  36.239  1.00  0.00     0.029 A 
ATOM     31  N   UNL A   1      41.199  30.660  34.147  1.00  0.00    -0.354 N 
ATOM     32  N   UNL A   1      41.501  29.052  31.703  1.00  0.00    -0.248 NA
ATOM     33  C   UNL A   1      42.647  27.445  30.457  1.00  0.00     0.031 C 
ATOM     34  C   UNL A   1      42.582  30.260  35.839  1.00  0.00     0.029 A 
ATOM     35  C   UNL A   1      42.273  29.877  34.544  1.00  0.00     0.049 A 
ATOM     36  H   UNL A   1      40.762  30.612  33.266  1.00  0.00     0.167 HD
ATOM     37  C   UNL A   1      42.534  28.537  32.471  1.00  0.00     0.074 A 
ATOM     38  C   UNL A   1      43.188  27.526  31.664  1.00  0.00     0.031 C 
ATOM     39  C   UNL A   1      42.911  28.874  33.729  1.00  0.00     0.037 A 
BRANCH  26  40
ATOM     40  C   UNL A   1      39.549  33.398  36.268  1.00  0.00     0.064 A 
ATOM     41  C   UNL A   1      40.158  34.658  36.353  1.00  0.00     0.173 A 
ATOM     42  C   UNL A   1      38.684  33.016  37.306  1.00  0.00     0.173 A 
ATOM     43  F   UNL A   1      41.001  35.067  35.394  1.00  0.00    -0.203 F 
ATOM     44  C   UNL A   1      39.931  35.493  37.447  1.00  0.00     0.198 A 
ATOM     45  C   UNL A   1      38.437  33.865  38.383  1.00  0.00     0.198 A 
ATOM     46  F   UNL A   1      38.069  31.826  37.272  1.00  0.00    -0.203 F 
ATOM     47  F   UNL A   1      40.559  36.674  37.528  1.00  0.00    -0.200 F 
ATOM     48  C   UNL A   1      39.066  35.098  38.456  1.00  0.00     0.200 A 
ATOM     49  F   UNL A   1      37.591  33.488  39.352  1.00  0.00    -0.200 F 
ATOM     50  F   UNL A   1      38.844  35.904  39.503  1.00  0.00    -0.200 F 
ENDBRANCH  26  40
BRANCH  27  51
ATOM     51  C   UNL A   1      40.857  27.709  28.153  1.00  0.00     0.064 A 
ATOM     52  C   UNL A   1      41.680  28.125  27.098  1.00  0.00     0.173 A 
ATOM     53  C   UNL A   1      40.235  26.457  28.043  1.00  0.00     0.173 A 
ATOM     54  F   UNL A   1      42.283  29.321  27.150  1.00  0.00    -0.203 F 
ATOM     55  C   UNL A   1      41.863  27.325  25.972  1.00  0.00     0.198 A 
ATOM     56  C   UNL A   1      40.443  25.644  26.931  1.00  0.00     0.198 A 
ATOM     57  F   UNL A   1      39.443  26.011  29.030  1.00  0.00    -0.203 F 
ATOM     58  F   UNL A   1      42.625  27.762  24.961  1.00  0.00    -0.200 F 
ATOM     59  C   UNL A   1      41.251  26.083  25.893  1.00  0.00     0.200 A 
ATOM     60  F   UNL A   1      39.865  24.438  26.867  1.00  0.00    -0.200 F 
ATOM     61  F   UNL A   1      41.436  25.310  24.814  1.00  0.00    -0.200 F 
ENDBRANCH  27  51
BRANCH  39  62
ATOM     62  C   UNL A   1      44.064  28.115  34.317  1.00  0.00     0.064 A 
ATOM     63  C   UNL A   1      45.378  28.599  34.242  1.00  0.00     0.173 A 
ATOM     64  C   UNL A   1      43.848  26.896  34.977  1.00  0.00     0.173 A 
ATOM     65  F   UNL A   1      45.639  29.751  33.605  1.00  0.00    -0.203 F 
ATOM     66  C   UNL A   1      46.440  27.873  34.777  1.00  0.00     0.198 A 
ATOM     67  C   UNL A   1      44.907  26.188  35.538  1.00  0.00     0.198 A 
ATOM     68  F   UNL A   1      42.609  26.392  35.080  1.00  0.00    -0.203 F 
ATOM     69  F   UNL A   1      47.693  28.327  34.644  1.00  0.00    -0.200 F 
ATOM     70  C   UNL A   1      46.202  26.672  35.430  1.00  0.00     0.200 A 
ATOM     71  F   UNL A   1      44.675  25.034  36.177  1.00  0.00    -0.200 F 
ATOM     72  F   UNL A   1      47.224  25.975  35.945  1.00  0.00    -0.200 F 
ENDBRANCH  39  62
ENDBRANCH  13  14
ENDBRANCH   6   8
ENDBRANCH   3   4
ENDBRANCH   2   3
ENDBRANCH   1   2
BRANCH   1  73
ATOM     73  C   UNL A   1      30.256  30.622  24.227  1.00  0.00     0.002 C 
BRANCH  73  74
ATOM     74  C   UNL A   1      30.127  29.236  23.575  1.00  0.00     0.021 C 
BRANCH  74  75
ATOM     75  C   UNL A   1      31.103  28.994  22.418  1.00  0.00     0.116 C 
BRANCH  75  76
ATOM     76  N   UNL A   1      31.044  27.602  22.017  1.00  0.00    -0.356 N 
ATOM     77  C   UNL A   1      31.952  26.614  22.242  1.00  0.00     0.227 C 
ATOM     78  H   UNL A   1      30.241  27.336  21.516  1.00  0.00     0.163 HD
ATOM     79  O   UNL A   1      32.151  25.858  21.288  1.00  0.00    -0.274 OA
BRANCH  77  80
ATOM     80  C   UNL A   1      32.707  26.473  23.573  1.00  0.00     0.061 C 
ATOM     81  C   UNL A   1      33.689  27.677  23.740  1.00  0.00     0.053 C 
ATOM     82  C   UNL A   1      31.757  26.497  24.809  1.00  0.00     0.053 C 
ATOM     83  C   UNL A   1      33.549  28.040  25.185  1.00  0.00    -0.044 A 
ATOM     84  C   UNL A   1      32.482  27.372  25.784  1.00  0.00    -0.044 A 
ATOM     85  C   UNL A   1      34.320  28.940  25.906  1.00  0.00     0.004 A 
ATOM     86  C   UNL A   1      32.170  27.576  27.120  1.00  0.00     0.004 A 
ATOM     87  C   UNL A   1      34.017  29.149  27.252  1.00  0.00     0.000 A 
ATOM     88  C   UNL A   1      32.950  28.469  27.858  1.00  0.00     0.000 A 
BRANCH  80  89
ATOM     89  C   UNL A   1      33.568  25.161  23.553  1.00  0.00     0.053 C 
BRANCH  89  90
ATOM     90  C   UNL A   1      33.317  24.121  24.628  1.00  0.00    -0.044 A 
ATOM     91  C   UNL A   1      34.028  24.098  25.832  1.00  0.00     0.024 A 
ATOM     92  C   UNL A   1      32.312  23.163  24.453  1.00  0.00     0.024 A 
ATOM     93  C   UNL A   1      33.732  23.126  26.775  1.00  0.00     0.111 A 
ATOM     94  C   UNL A   1      32.082  22.236  25.461  1.00  0.00     0.111 A 
ATOM     95  N   UNL A   1      32.776  22.189  26.615  1.00  0.00    -0.265 NA
ENDBRANCH  89  90
ENDBRANCH  80  89
ENDBRANCH  77  80
ENDBRANCH  75  76
ENDBRANCH  74  75
ENDBRANCH  73  74
ENDBRANCH   1  73
TORSDOF 15
ENDMDL
