MODEL 1
REMARK VINA RESULT:     -12.0      0.000      0.000
REMARK SMILES C[C@@H](Oc1ccccc1Cl)C(=O)N1CC[C@H](C(=O)NCCCCCCNC(=O)c2ccc(-c3c4nc(c(-c5c(F)c(F)c(F)c(F)c5F)c5ccc([nH]5)c(-c5c(F)c(F)c(F)c(F)c5F)c5nc(c(-c6c(F)c(F)c(F)c(F)c6F)c6ccc3[nH]6)C=C5)C=C4)cc2)[C@@H]1C
REMARK SMILES IDX 21 1 20 2 19 3 17 4 18 5 16 7 13 8 14 9 92 10 15 11 93 12
REMARK SMILES IDX 11 13 12 14 2 15 1 16 3 17 4 18 5 19 9 20 6 21 8 22 10 23
REMARK SMILES IDX 7 24 22 25 23 26 24 27 25 28 26 29 27 30 28 32 29 33 30 34
REMARK SMILES IDX 91 35 31 36 90 37 32 38 33 39 34 40 84 41 35 42 89 43 83 44
REMARK SMILES IDX 85 45 36 46 88 47 82 48 81 49 37 51 69 52 49 53 68 54 50 55
REMARK SMILES IDX 53 56 67 57 86 58 51 59 52 60 66 62 87 63 54 64 38 65 39 66
REMARK SMILES IDX 47 67 40 68 41 69 45 70 48 71 42 72 43 73 46 74 44 75 70 76
REMARK SMILES IDX 71 77 79 78 72 79 73 80 77 81 80 82 74 83 75 84 78 85 76 86
REMARK SMILES IDX 55 87 56 88 64 89 57 90 58 91 62 92 65 93 59 94 60 95 63 96
REMARK SMILES IDX 61 97
REMARK H PARENT 19 6 26 31 85 50 53 61
REMARK Flexibility Score: inf
ROOT
ATOM      1  C   UNL A   1      32.673  28.618  26.750  1.00  0.00     0.021 C 
ENDROOT
BRANCH   1   2
ATOM      2  C   UNL A   1      34.025  28.928  26.125  1.00  0.00     0.116 C 
BRANCH   2   3
ATOM      3  N   UNL A   1      34.037  28.858  24.684  1.00  0.00    -0.356 N 
ATOM      4  C   UNL A   1      33.355  28.144  23.767  1.00  0.00     0.225 C 
ATOM      5  O   UNL A   1      33.438  28.607  22.616  1.00  0.00    -0.275 OA
ATOM      6  H   UNL A   1      34.692  29.471  24.279  1.00  0.00     0.163 HD
BRANCH   4   7
ATOM      7  C   UNL A   1      32.652  26.790  23.918  1.00  0.00     0.102 C 
ATOM      8  N   UNL A   1      33.405  24.679  23.062  1.00  0.00    -0.336 N 
ATOM      9  C   UNL A   1      32.905  25.466  21.944  1.00  0.00     0.121 C 
ATOM     10  C   UNL A   1      33.201  25.409  24.324  1.00  0.00     0.094 C 
ATOM     11  C   UNL A   1      31.968  26.475  22.581  1.00  0.00     0.037 C 
ATOM     12  C   UNL A   1      34.351  25.385  25.311  1.00  0.00     0.032 C 
BRANCH   8  13
ATOM     13  C   UNL A   1      33.684  23.346  22.826  1.00  0.00     0.263 C 
ATOM     14  O   UNL A   1      34.793  23.017  22.380  1.00  0.00    -0.271 OA
BRANCH  13  15
ATOM     15  C   UNL A   1      32.655  22.228  23.108  1.00  0.00     0.259 C 
ATOM     16  C   UNL A   1      32.151  21.608  21.808  1.00  0.00     0.064 C 
BRANCH  15  17
ATOM     17  O   UNL A   1      33.130  21.235  24.018  1.00  0.00    -0.479 OA
BRANCH  17  18
ATOM     18  C   UNL A   1      33.166  21.656  25.323  1.00  0.00     0.139 A 
ATOM     19  C   UNL A   1      32.049  22.270  25.901  1.00  0.00     0.048 A 
ATOM     20  C   UNL A   1      34.356  21.556  26.055  1.00  0.00     0.083 A 
ATOM     21  C   UNL A   1      32.104  22.721  27.222  1.00  0.00     0.004 A 
ATOM     22  C   UNL A   1      34.406  22.002  27.377  1.00  0.00     0.024 A 
ATOM     23  Cl  UNL A   1      35.789  20.883  25.370  1.00  0.00    -0.080 Cl
ATOM     24  C   UNL A   1      33.278  22.578  27.962  1.00  0.00     0.002 A 
ENDBRANCH  17  18
ENDBRANCH  15  17
ENDBRANCH  13  15
ENDBRANCH   8  13
ENDBRANCH   4   7
ENDBRANCH   2   3
ENDBRANCH   1   2
BRANCH   1  25
ATOM     25  C   UNL A   1      31.896  29.850  27.223  1.00  0.00     0.002 C 
BRANCH  25  26
ATOM     26  C   UNL A   1      31.401  30.793  26.117  1.00  0.00     0.002 C 
BRANCH  26  27
ATOM     27  C   UNL A   1      31.321  32.275  26.497  1.00  0.00     0.021 C 
BRANCH  27  28
ATOM     28  C   UNL A   1      32.530  32.801  27.265  1.00  0.00     0.116 C 
BRANCH  28  29
ATOM     29  N   UNL A   1      32.374  34.203  27.626  1.00  0.00    -0.352 N 
ATOM     30  C   UNL A   1      32.967  34.918  28.633  1.00  0.00     0.251 C 
ATOM     31  H   UNL A   1      31.749  34.713  27.062  1.00  0.00     0.163 HD
ATOM     32  O   UNL A   1      32.531  36.028  28.944  1.00  0.00    -0.269 OA
BRANCH  30  33
ATOM     33  C   UNL A   1      34.128  34.362  29.353  1.00  0.00     0.039 A 
ATOM     34  C   UNL A   1      33.938  33.788  30.613  1.00  0.00     0.014 A 
ATOM     35  C   UNL A   1      35.409  34.435  28.798  1.00  0.00     0.014 A 
ATOM     36  C   UNL A   1      35.025  33.235  31.292  1.00  0.00     0.010 A 
ATOM     37  C   UNL A   1      36.479  33.824  29.445  1.00  0.00     0.010 A 
ATOM     38  C   UNL A   1      36.298  33.221  30.699  1.00  0.00    -0.014 A 
BRANCH  38  39
ATOM     39  C   UNL A   1      37.456  32.584  31.371  1.00  0.00     0.031 A 
ATOM     40  C   UNL A   1      38.166  31.431  30.719  1.00  0.00     0.074 A 
ATOM     41  C   UNL A   1      37.819  32.997  32.601  1.00  0.00     0.049 A 
ATOM     42  N   UNL A   1      39.138  30.687  31.183  1.00  0.00    -0.248 NA
ATOM     43  C   UNL A   1      37.700  31.043  29.378  1.00  0.00     0.031 C 
ATOM     44  C   UNL A   1      37.174  34.074  33.353  1.00  0.00     0.029 A 
ATOM     45  N   UNL A   1      38.805  32.547  33.441  1.00  0.00    -0.354 N 
ATOM     46  C   UNL A   1      39.387  29.737  30.202  1.00  0.00     0.074 A 
ATOM     47  C   UNL A   1      38.433  29.966  29.138  1.00  0.00     0.031 C 
ATOM     48  C   UNL A   1      37.791  34.213  34.538  1.00  0.00     0.029 A 
ATOM     49  C   UNL A   1      38.847  33.211  34.644  1.00  0.00     0.049 A 
ATOM     50  H   UNL A   1      39.424  31.819  33.206  1.00  0.00     0.167 HD
ATOM     51  C   UNL A   1      40.341  28.775  30.182  1.00  0.00     0.037 A 
ATOM     52  C   UNL A   1      39.642  33.023  35.714  1.00  0.00     0.037 A 
ATOM     53  C   UNL A   1      41.303  28.569  31.232  1.00  0.00     0.049 A 
ATOM     54  C   UNL A   1      40.692  31.947  35.666  1.00  0.00     0.074 A 
ATOM     55  C   UNL A   1      42.351  27.669  31.279  1.00  0.00     0.029 A 
ATOM     56  N   UNL A   1      41.330  29.278  32.426  1.00  0.00    -0.354 N 
ATOM     57  N   UNL A   1      40.967  31.101  34.703  1.00  0.00    -0.248 NA
ATOM     58  C   UNL A   1      41.547  31.804  36.853  1.00  0.00     0.031 C 
ATOM     59  C   UNL A   1      42.984  27.797  32.520  1.00  0.00     0.029 A 
ATOM     60  C   UNL A   1      42.363  28.815  33.226  1.00  0.00     0.049 A 
ATOM     61  H   UNL A   1      40.708  30.001  32.668  1.00  0.00     0.167 HD
ATOM     62  C   UNL A   1      42.039  30.345  35.154  1.00  0.00     0.074 A 
ATOM     63  C   UNL A   1      42.376  30.843  36.471  1.00  0.00     0.031 C 
ATOM     64  C   UNL A   1      42.686  29.327  34.534  1.00  0.00     0.037 A 
BRANCH  51  65
ATOM     65  C   UNL A   1      40.392  27.871  28.985  1.00  0.00     0.064 A 
ATOM     66  C   UNL A   1      41.184  28.172  27.866  1.00  0.00     0.173 A 
ATOM     67  C   UNL A   1      39.670  26.667  28.970  1.00  0.00     0.173 A 
ATOM     68  F   UNL A   1      41.885  29.315  27.825  1.00  0.00    -0.203 F 
ATOM     69  C   UNL A   1      41.229  27.319  26.767  1.00  0.00     0.198 A 
ATOM     70  C   UNL A   1      39.741  25.802  27.881  1.00  0.00     0.198 A 
ATOM     71  F   UNL A   1      38.901  26.327  30.014  1.00  0.00    -0.203 F 
ATOM     72  F   UNL A   1      41.956  27.653  25.691  1.00  0.00    -0.200 F 
ATOM     73  C   UNL A   1      40.514  26.131  26.778  1.00  0.00     0.200 A 
ATOM     74  F   UNL A   1      39.060  24.647  27.899  1.00  0.00    -0.200 F 
ATOM     75  F   UNL A   1      40.565  25.307  25.723  1.00  0.00    -0.200 F 
ENDBRANCH  51  65
BRANCH  52  76
ATOM     76  C   UNL A   1      39.488  33.887  36.913  1.00  0.00     0.064 A 
ATOM     77  C   UNL A   1      38.688  33.485  37.992  1.00  0.00     0.173 A 
ATOM     78  C   UNL A   1      40.132  35.130  37.005  1.00  0.00     0.173 A 
ATOM     79  F   UNL A   1      38.037  32.313  37.941  1.00  0.00    -0.203 F 
ATOM     80  C   UNL A   1      38.522  34.302  39.109  1.00  0.00     0.198 A 
ATOM     81  C   UNL A   1      39.987  35.933  38.135  1.00  0.00     0.198 A 
ATOM     82  F   UNL A   1      40.912  35.559  36.003  1.00  0.00    -0.203 F 
ATOM     83  F   UNL A   1      37.716  33.912  40.105  1.00  0.00    -0.200 F 
ATOM     84  C   UNL A   1      39.176  35.522  39.182  1.00  0.00     0.200 A 
ATOM     85  F   UNL A   1      40.632  37.105  38.209  1.00  0.00    -0.200 F 
ATOM     86  F   UNL A   1      39.018  36.306  40.257  1.00  0.00    -0.200 F 
ENDBRANCH  52  76
BRANCH  64  87
ATOM     87  C   UNL A   1      43.842  28.704  35.260  1.00  0.00     0.064 A 
ATOM     88  C   UNL A   1      43.675  27.579  36.080  1.00  0.00     0.173 A 
ATOM     89  C   UNL A   1      45.138  29.218  35.103  1.00  0.00     0.173 A 
ATOM     90  F   UNL A   1      42.452  27.060  36.275  1.00  0.00    -0.203 F 
ATOM     91  C   UNL A   1      44.761  27.005  36.736  1.00  0.00     0.198 A 
ATOM     92  C   UNL A   1      46.226  28.623  35.736  1.00  0.00     0.198 A 
ATOM     93  F   UNL A   1      45.352  30.289  34.326  1.00  0.00    -0.203 F 
ATOM     94  F   UNL A   1      44.571  25.959  37.552  1.00  0.00    -0.200 F 
ATOM     95  C   UNL A   1      46.035  27.522  36.557  1.00  0.00     0.200 A 
ATOM     96  F   UNL A   1      47.458  29.115  35.552  1.00  0.00    -0.200 F 
ATOM     97  F   UNL A   1      47.080  26.963  37.183  1.00  0.00    -0.200 F 
ENDBRANCH  64  87
ENDBRANCH  38  39
ENDBRANCH  30  33
ENDBRANCH  28  29
ENDBRANCH  27  28
ENDBRANCH  26  27
ENDBRANCH  25  26
ENDBRANCH   1  25
TORSDOF 17
ENDMDL
MODEL 2
REMARK VINA RESULT:     -11.8      5.524     11.060
REMARK SMILES C[C@@H](Oc1ccccc1Cl)C(=O)N1CC[C@H](C(=O)NCCCCCCNC(=O)c2ccc(-c3c4nc(c(-c5c(F)c(F)c(F)c(F)c5F)c5ccc([nH]5)c(-c5c(F)c(F)c(F)c(F)c5F)c5nc(c(-c6c(F)c(F)c(F)c(F)c6F)c6ccc3[nH]6)C=C5)C=C4)cc2)[C@@H]1C
REMARK SMILES IDX 21 1 20 2 19 3 17 4 18 5 16 7 13 8 14 9 92 10 15 11 93 12
REMARK SMILES IDX 11 13 12 14 2 15 1 16 3 17 4 18 5 19 9 20 6 21 8 22 10 23
REMARK SMILES IDX 7 24 22 25 23 26 24 27 25 28 26 29 27 30 28 32 29 33 30 34
REMARK SMILES IDX 91 35 31 36 90 37 32 38 33 39 34 40 84 41 35 42 89 43 83 44
REMARK SMILES IDX 85 45 36 46 88 47 82 48 81 49 37 51 69 52 49 53 68 54 50 55
REMARK SMILES IDX 53 56 67 57 86 58 51 59 52 60 66 62 87 63 54 64 38 65 39 66
REMARK SMILES IDX 47 67 40 68 41 69 45 70 48 71 42 72 43 73 46 74 44 75 70 76
REMARK SMILES IDX 71 77 79 78 72 79 73 80 77 81 80 82 74 83 75 84 78 85 76 86
REMARK SMILES IDX 55 87 56 88 64 89 57 90 58 91 62 92 65 93 59 94 60 95 63 96
REMARK SMILES IDX 61 97
REMARK H PARENT 19 6 26 31 85 50 53 61
REMARK Flexibility Score: inf
ROOT
ATOM      1  C   UNL A   1      36.585  23.084  24.533  1.00  0.00     0.021 C 
ENDROOT
BRANCH   1   2
ATOM      2  C   UNL A   1      35.766  23.748  25.630  1.00  0.00     0.116 C 
BRANCH   2   3
ATOM      3  N   UNL A   1      35.306  22.840  26.653  1.00  0.00    -0.356 N 
ATOM      4  C   UNL A   1      34.205  22.080  26.816  1.00  0.00     0.225 C 
ATOM      5  O   UNL A   1      34.335  21.199  27.683  1.00  0.00    -0.275 OA
ATOM      6  H   UNL A   1      35.940  22.757  27.401  1.00  0.00     0.163 HD
BRANCH   4   7
ATOM      7  C   UNL A   1      32.806  22.257  26.215  1.00  0.00     0.102 C 
ATOM      8  N   UNL A   1      32.072  24.039  24.785  1.00  0.00    -0.336 N 
ATOM      9  C   UNL A   1      32.189  24.564  26.138  1.00  0.00     0.121 C 
ATOM     10  C   UNL A   1      32.361  22.595  24.779  1.00  0.00     0.094 C 
ATOM     11  C   UNL A   1      32.089  23.341  27.029  1.00  0.00     0.037 C 
ATOM     12  C   UNL A   1      33.230  22.085  23.647  1.00  0.00     0.032 C 
BRANCH   8  13
ATOM     13  C   UNL A   1      31.453  24.839  23.844  1.00  0.00     0.263 C 
ATOM     14  O   UNL A   1      30.331  24.534  23.416  1.00  0.00    -0.271 OA
BRANCH  13  15
ATOM     15  C   UNL A   1      32.112  26.127  23.300  1.00  0.00     0.259 C 
ATOM     16  C   UNL A   1      32.283  26.056  21.785  1.00  0.00     0.064 C 
BRANCH  15  17
ATOM     17  O   UNL A   1      31.439  27.322  23.700  1.00  0.00    -0.479 OA
BRANCH  17  18
ATOM     18  C   UNL A   1      31.953  27.889  24.838  1.00  0.00     0.139 A 
ATOM     19  C   UNL A   1      31.273  27.774  26.056  1.00  0.00     0.048 A 
ATOM     20  C   UNL A   1      33.115  28.666  24.767  1.00  0.00     0.083 A 
ATOM     21  C   UNL A   1      31.789  28.378  27.205  1.00  0.00     0.004 A 
ATOM     22  C   UNL A   1      33.632  29.264  25.917  1.00  0.00     0.024 A 
ATOM     23  Cl  UNL A   1      33.953  28.913  23.278  1.00  0.00    -0.080 Cl
ATOM     24  C   UNL A   1      32.973  29.114  27.138  1.00  0.00     0.002 A 
ENDBRANCH  17  18
ENDBRANCH  15  17
ENDBRANCH  13  15
ENDBRANCH   8  13
ENDBRANCH   4   7
ENDBRANCH   2   3
ENDBRANCH   1   2
BRANCH   1  25
ATOM     25  C   UNL A   1      37.556  22.009  25.030  1.00  0.00     0.002 C 
BRANCH  25  26
ATOM     26  C   UNL A   1      37.153  20.557  24.738  1.00  0.00     0.002 C 
BRANCH  26  27
ATOM     27  C   UNL A   1      38.246  19.508  24.957  1.00  0.00     0.021 C 
BRANCH  27  28
ATOM     28  C   UNL A   1      39.331  19.918  25.949  1.00  0.00     0.116 C 
BRANCH  28  29
ATOM     29  N   UNL A   1      40.414  18.947  26.000  1.00  0.00    -0.352 N 
ATOM     30  C   UNL A   1      41.769  19.147  26.051  1.00  0.00     0.251 C 
ATOM     31  H   UNL A   1      40.131  18.004  25.997  1.00  0.00     0.163 HD
ATOM     32  O   UNL A   1      42.542  18.212  25.840  1.00  0.00    -0.269 OA
BRANCH  30  33
ATOM     33  C   UNL A   1      42.308  20.486  26.358  1.00  0.00     0.039 A 
ATOM     34  C   UNL A   1      42.827  21.266  25.321  1.00  0.00     0.014 A 
ATOM     35  C   UNL A   1      42.330  20.958  27.674  1.00  0.00     0.014 A 
ATOM     36  C   UNL A   1      43.316  22.544  25.595  1.00  0.00     0.010 A 
ATOM     37  C   UNL A   1      42.755  22.257  27.935  1.00  0.00     0.010 A 
ATOM     38  C   UNL A   1      43.255  23.061  26.900  1.00  0.00    -0.014 A 
BRANCH  38  39
ATOM     39  C   UNL A   1      43.709  24.439  27.206  1.00  0.00     0.031 A 
ATOM     40  C   UNL A   1      42.733  25.457  27.726  1.00  0.00     0.074 A 
ATOM     41  C   UNL A   1      44.982  24.792  26.943  1.00  0.00     0.049 A 
ATOM     42  N   UNL A   1      42.915  26.730  27.970  1.00  0.00    -0.248 NA
ATOM     43  C   UNL A   1      41.362  24.986  27.980  1.00  0.00     0.031 C 
ATOM     44  C   UNL A   1      46.007  23.903  26.392  1.00  0.00     0.029 A 
ATOM     45  N   UNL A   1      45.626  25.994  27.088  1.00  0.00    -0.354 N 
ATOM     46  C   UNL A   1      41.682  27.214  28.386  1.00  0.00     0.074 A 
ATOM     47  C   UNL A   1      40.748  26.111  28.316  1.00  0.00     0.031 C 
ATOM     48  C   UNL A   1      47.155  24.587  26.259  1.00  0.00     0.029 A 
ATOM     49  C   UNL A   1      46.937  25.967  26.678  1.00  0.00     0.049 A 
ATOM     50  H   UNL A   1      45.191  26.799  27.451  1.00  0.00     0.167 HD
ATOM     51  C   UNL A   1      41.365  28.461  28.809  1.00  0.00     0.037 A 
ATOM     52  C   UNL A   1      47.855  26.952  26.636  1.00  0.00     0.037 A 
ATOM     53  C   UNL A   1      42.304  29.547  28.900  1.00  0.00     0.049 A 
ATOM     54  C   UNL A   1      47.476  28.328  27.110  1.00  0.00     0.074 A 
ATOM     55  C   UNL A   1      42.100  30.828  29.379  1.00  0.00     0.029 A 
ATOM     56  N   UNL A   1      43.631  29.476  28.499  1.00  0.00    -0.354 N 
ATOM     57  N   UNL A   1      46.326  28.757  27.572  1.00  0.00    -0.248 NA
ATOM     58  C   UNL A   1      48.525  29.356  27.065  1.00  0.00     0.031 C 
ATOM     59  C   UNL A   1      43.289  31.549  29.224  1.00  0.00     0.029 A 
ATOM     60  C   UNL A   1      44.250  30.701  28.697  1.00  0.00     0.049 A 
ATOM     61  H   UNL A   1      44.067  28.676  28.128  1.00  0.00     0.167 HD
ATOM     62  C   UNL A   1      46.518  30.092  27.894  1.00  0.00     0.074 A 
ATOM     63  C   UNL A   1      47.901  30.400  27.592  1.00  0.00     0.031 C 
ATOM     64  C   UNL A   1      45.630  30.986  28.394  1.00  0.00     0.037 A 
BRANCH  51  65
ATOM     65  C   UNL A   1      39.940  28.719  29.208  1.00  0.00     0.064 A 
ATOM     66  C   UNL A   1      38.985  29.165  28.282  1.00  0.00     0.173 A 
ATOM     67  C   UNL A   1      39.514  28.479  30.523  1.00  0.00     0.173 A 
ATOM     68  F   UNL A   1      39.342  29.419  27.014  1.00  0.00    -0.203 F 
ATOM     69  C   UNL A   1      37.665  29.389  28.664  1.00  0.00     0.198 A 
ATOM     70  C   UNL A   1      38.187  28.677  30.895  1.00  0.00     0.198 A 
ATOM     71  F   UNL A   1      40.384  28.047  31.448  1.00  0.00    -0.203 F 
ATOM     72  F   UNL A   1      36.782  29.862  27.772  1.00  0.00    -0.200 F 
ATOM     73  C   UNL A   1      37.265  29.138  29.967  1.00  0.00     0.200 A 
ATOM     74  F   UNL A   1      37.798  28.420  32.152  1.00  0.00    -0.200 F 
ATOM     75  F   UNL A   1      35.992  29.347  30.331  1.00  0.00    -0.200 F 
ENDBRANCH  51  65
BRANCH  52  76
ATOM     76  C   UNL A   1      49.228  26.665  26.144  1.00  0.00     0.064 A 
ATOM     77  C   UNL A   1      50.200  26.125  26.997  1.00  0.00     0.173 A 
ATOM     78  C   UNL A   1      49.597  26.924  24.815  1.00  0.00     0.173 A 
ATOM     79  F   UNL A   1      49.900  25.879  28.282  1.00  0.00    -0.203 F 
ATOM     80  C   UNL A   1      51.495  25.875  26.547  1.00  0.00     0.198 A 
ATOM     81  C   UNL A   1      50.884  26.647  24.359  1.00  0.00     0.198 A 
ATOM     82  F   UNL A   1      48.702  27.435  23.956  1.00  0.00    -0.203 F 
ATOM     83  F   UNL A   1      52.416  25.403  27.397  1.00  0.00    -0.200 F 
ATOM     84  C   UNL A   1      51.834  26.131  25.227  1.00  0.00     0.200 A 
ATOM     85  F   UNL A   1      51.204  26.881  23.079  1.00  0.00    -0.200 F 
ATOM     86  F   UNL A   1      53.079  25.887  24.794  1.00  0.00    -0.200 F 
ENDBRANCH  52  76
BRANCH  64  87
ATOM     87  C   UNL A   1      46.133  32.372  28.673  1.00  0.00     0.064 A 
ATOM     88  C   UNL A   1      46.077  33.384  27.705  1.00  0.00     0.173 A 
ATOM     89  C   UNL A   1      46.641  32.700  29.939  1.00  0.00     0.173 A 
ATOM     90  F   UNL A   1      45.614  33.116  26.473  1.00  0.00    -0.203 F 
ATOM     91  C   UNL A   1      46.536  34.668  27.985  1.00  0.00     0.198 A 
ATOM     92  C   UNL A   1      47.070  33.993  30.226  1.00  0.00     0.198 A 
ATOM     93  F   UNL A   1      46.710  31.770  30.903  1.00  0.00    -0.203 F 
ATOM     94  F   UNL A   1      46.517  35.608  27.029  1.00  0.00    -0.200 F 
ATOM     95  C   UNL A   1      47.023  34.974  29.246  1.00  0.00     0.200 A 
ATOM     96  F   UNL A   1      47.528  34.290  31.449  1.00  0.00    -0.200 F 
ATOM     97  F   UNL A   1      47.456  36.213  29.516  1.00  0.00    -0.200 F 
ENDBRANCH  64  87
ENDBRANCH  38  39
ENDBRANCH  30  33
ENDBRANCH  28  29
ENDBRANCH  27  28
ENDBRANCH  26  27
ENDBRANCH  25  26
ENDBRANCH   1  25
TORSDOF 17
ENDMDL
MODEL 3
REMARK VINA RESULT:     -11.6      2.794      8.249
REMARK SMILES C[C@@H](Oc1ccccc1Cl)C(=O)N1CC[C@H](C(=O)NCCCCCCNC(=O)c2ccc(-c3c4nc(c(-c5c(F)c(F)c(F)c(F)c5F)c5ccc([nH]5)c(-c5c(F)c(F)c(F)c(F)c5F)c5nc(c(-c6c(F)c(F)c(F)c(F)c6F)c6ccc3[nH]6)C=C5)C=C4)cc2)[C@@H]1C
REMARK SMILES IDX 21 1 20 2 19 3 17 4 18 5 16 7 13 8 14 9 92 10 15 11 93 12
REMARK SMILES IDX 11 13 12 14 2 15 1 16 3 17 4 18 5 19 9 20 6 21 8 22 10 23
REMARK SMILES IDX 7 24 22 25 23 26 24 27 25 28 26 29 27 30 28 32 29 33 30 34
REMARK SMILES IDX 91 35 31 36 90 37 32 38 33 39 34 40 84 41 35 42 89 43 83 44
REMARK SMILES IDX 85 45 36 46 88 47 82 48 81 49 37 51 69 52 49 53 68 54 50 55
REMARK SMILES IDX 53 56 67 57 86 58 51 59 52 60 66 62 87 63 54 64 38 65 39 66
REMARK SMILES IDX 47 67 40 68 41 69 45 70 48 71 42 72 43 73 46 74 44 75 70 76
REMARK SMILES IDX 71 77 79 78 72 79 73 80 77 81 80 82 74 83 75 84 78 85 76 86
REMARK SMILES IDX 55 87 56 88 64 89 57 90 58 91 62 92 65 93 59 94 60 95 63 96
REMARK SMILES IDX 61 97
REMARK H PARENT 19 6 26 31 85 50 53 61
REMARK Flexibility Score: inf
ROOT
ATOM      1  C   UNL A   1      30.237  28.280  23.294  1.00  0.00     0.021 C 
ENDROOT
BRANCH   1   2
ATOM      2  C   UNL A   1      29.550  27.071  23.911  1.00  0.00     0.116 C 
BRANCH   2   3
ATOM      3  N   UNL A   1      30.027  25.804  23.410  1.00  0.00    -0.356 N 
ATOM      4  C   UNL A   1      30.614  24.728  23.970  1.00  0.00     0.225 C 
ATOM      5  O   UNL A   1      30.581  23.715  23.250  1.00  0.00    -0.275 OA
ATOM      6  H   UNL A   1      29.895  25.704  22.440  1.00  0.00     0.163 HD
BRANCH   4   7
ATOM      7  C   UNL A   1      31.436  24.631  25.260  1.00  0.00     0.102 C 
ATOM      8  N   UNL A   1      32.898  22.840  25.901  1.00  0.00    -0.336 N 
ATOM      9  C   UNL A   1      31.526  22.379  26.056  1.00  0.00     0.121 C 
ATOM     10  C   UNL A   1      32.912  24.253  25.490  1.00  0.00     0.094 C 
ATOM     11  C   UNL A   1      30.713  23.652  26.195  1.00  0.00     0.037 C 
ATOM     12  C   UNL A   1      33.899  24.631  24.403  1.00  0.00     0.032 C 
BRANCH   8  13
ATOM     13  C   UNL A   1      33.899  22.042  26.423  1.00  0.00     0.263 C 
ATOM     14  O   UNL A   1      34.083  22.005  27.648  1.00  0.00    -0.271 OA
BRANCH  13  15
ATOM     15  C   UNL A   1      34.808  21.172  25.525  1.00  0.00     0.259 C 
ATOM     16  C   UNL A   1      33.984  20.182  24.708  1.00  0.00     0.064 C 
BRANCH  15  17
ATOM     17  O   UNL A   1      35.688  21.936  24.699  1.00  0.00    -0.479 OA
BRANCH  17  18
ATOM     18  C   UNL A   1      36.836  22.334  25.337  1.00  0.00     0.139 A 
ATOM     19  C   UNL A   1      36.969  23.647  25.801  1.00  0.00     0.048 A 
ATOM     20  C   UNL A   1      37.917  21.451  25.442  1.00  0.00     0.083 A 
ATOM     21  C   UNL A   1      38.152  24.052  26.424  1.00  0.00     0.004 A 
ATOM     22  C   UNL A   1      39.095  21.856  26.071  1.00  0.00     0.024 A 
ATOM     23  Cl  UNL A   1      37.842  19.844  24.816  1.00  0.00    -0.080 Cl
ATOM     24  C   UNL A   1      39.210  23.155  26.568  1.00  0.00     0.002 A 
ENDBRANCH  17  18
ENDBRANCH  15  17
ENDBRANCH  13  15
ENDBRANCH   8  13
ENDBRANCH   4   7
ENDBRANCH   2   3
ENDBRANCH   1   2
BRANCH   1  25
ATOM     25  C   UNL A   1      31.058  29.114  24.281  1.00  0.00     0.002 C 
BRANCH  25  26
ATOM     26  C   UNL A   1      32.540  28.730  24.410  1.00  0.00     0.002 C 
BRANCH  26  27
ATOM     27  C   UNL A   1      32.916  27.956  25.676  1.00  0.00     0.021 C 
BRANCH  27  28
ATOM     28  C   UNL A   1      34.056  28.570  26.483  1.00  0.00     0.116 C 
BRANCH  28  29
ATOM     29  N   UNL A   1      33.896  30.009  26.639  1.00  0.00    -0.352 N 
ATOM     30  C   UNL A   1      34.564  30.880  27.459  1.00  0.00     0.251 C 
ATOM     31  H   UNL A   1      33.203  30.417  26.070  1.00  0.00     0.163 HD
ATOM     32  O   UNL A   1      34.129  32.018  27.638  1.00  0.00    -0.269 OA
BRANCH  30  33
ATOM     33  C   UNL A   1      35.807  30.459  28.132  1.00  0.00     0.039 A 
ATOM     34  C   UNL A   1      35.725  29.760  29.340  1.00  0.00     0.014 A 
ATOM     35  C   UNL A   1      37.054  30.780  27.588  1.00  0.00     0.014 A 
ATOM     36  C   UNL A   1      36.893  29.333  29.973  1.00  0.00     0.010 A 
ATOM     37  C   UNL A   1      38.214  30.296  28.183  1.00  0.00     0.010 A 
ATOM     38  C   UNL A   1      38.145  29.571  29.383  1.00  0.00    -0.014 A 
BRANCH  38  39
ATOM     39  C   UNL A   1      39.398  29.073  30.003  1.00  0.00     0.031 A 
ATOM     40  C   UNL A   1      39.969  29.766  31.208  1.00  0.00     0.074 A 
ATOM     41  C   UNL A   1      40.057  28.046  29.433  1.00  0.00     0.049 A 
ATOM     42  N   UNL A   1      41.094  29.539  31.838  1.00  0.00    -0.248 NA
ATOM     43  C   UNL A   1      39.186  30.883  31.761  1.00  0.00     0.031 C 
ATOM     44  C   UNL A   1      39.624  27.327  28.235  1.00  0.00     0.029 A 
ATOM     45  N   UNL A   1      41.239  27.441  29.777  1.00  0.00    -0.354 N 
ATOM     46  C   UNL A   1      41.161  30.490  32.846  1.00  0.00     0.074 A 
ATOM     47  C   UNL A   1      39.989  31.330  32.715  1.00  0.00     0.031 C 
ATOM     48  C   UNL A   1      40.519  26.368  27.950  1.00  0.00     0.029 A 
ATOM     49  C   UNL A   1      41.606  26.429  28.922  1.00  0.00     0.049 A 
ATOM     50  H   UNL A   1      41.772  27.705  30.561  1.00  0.00     0.167 HD
ATOM     51  C   UNL A   1      42.104  30.637  33.807  1.00  0.00     0.037 A 
ATOM     52  C   UNL A   1      42.703  25.649  28.920  1.00  0.00     0.037 A 
ATOM     53  C   UNL A   1      43.253  29.783  33.948  1.00  0.00     0.049 A 
ATOM     54  C   UNL A   1      43.736  25.833  29.998  1.00  0.00     0.074 A 
ATOM     55  C   UNL A   1      44.230  29.804  34.926  1.00  0.00     0.029 A 
ATOM     56  N   UNL A   1      43.580  28.752  33.077  1.00  0.00    -0.354 N 
ATOM     57  N   UNL A   1      43.752  26.689  30.991  1.00  0.00    -0.248 NA
ATOM     58  C   UNL A   1      44.900  24.936  29.960  1.00  0.00     0.031 C 
ATOM     59  C   UNL A   1      45.176  28.818  34.622  1.00  0.00     0.029 A 
ATOM     60  C   UNL A   1      44.759  28.147  33.483  1.00  0.00     0.049 A 
ATOM     61  H   UNL A   1      43.053  28.491  32.288  1.00  0.00     0.167 HD
ATOM     62  C   UNL A   1      44.909  26.420  31.707  1.00  0.00     0.074 A 
ATOM     63  C   UNL A   1      45.561  25.309  31.046  1.00  0.00     0.031 C 
ATOM     64  C   UNL A   1      45.391  27.039  32.814  1.00  0.00     0.037 A 
BRANCH  51  65
ATOM     65  C   UNL A   1      41.931  31.762  34.786  1.00  0.00     0.064 A 
ATOM     66  C   UNL A   1      42.566  33.001  34.604  1.00  0.00     0.173 A 
ATOM     67  C   UNL A   1      41.089  31.616  35.899  1.00  0.00     0.173 A 
ATOM     68  F   UNL A   1      43.389  33.190  33.562  1.00  0.00    -0.203 F 
ATOM     69  C   UNL A   1      42.388  34.039  35.514  1.00  0.00     0.198 A 
ATOM     70  C   UNL A   1      40.890  32.666  36.791  1.00  0.00     0.198 A 
ATOM     71  F   UNL A   1      40.453  30.456  36.118  1.00  0.00    -0.203 F 
ATOM     72  F   UNL A   1      43.044  35.196  35.345  1.00  0.00    -0.200 F 
ATOM     73  C   UNL A   1      41.545  33.874  36.602  1.00  0.00     0.200 A 
ATOM     74  F   UNL A   1      40.064  32.510  37.835  1.00  0.00    -0.200 F 
ATOM     75  F   UNL A   1      41.369  34.877  37.473  1.00  0.00    -0.200 F 
ENDBRANCH  51  65
BRANCH  52  76
ATOM     76  C   UNL A   1      42.870  24.608  27.871  1.00  0.00     0.064 A 
ATOM     77  C   UNL A   1      42.501  23.278  28.112  1.00  0.00     0.173 A 
ATOM     78  C   UNL A   1      43.403  24.921  26.611  1.00  0.00     0.173 A 
ATOM     79  F   UNL A   1      42.006  22.928  29.309  1.00  0.00    -0.203 F 
ATOM     80  C   UNL A   1      42.677  22.294  27.141  1.00  0.00     0.198 A 
ATOM     81  C   UNL A   1      43.551  23.941  25.631  1.00  0.00     0.198 A 
ATOM     82  F   UNL A   1      43.767  26.180  26.328  1.00  0.00    -0.203 F 
ATOM     83  F   UNL A   1      42.358  21.023  27.414  1.00  0.00    -0.200 F 
ATOM     84  C   UNL A   1      43.197  22.628  25.899  1.00  0.00     0.200 A 
ATOM     85  F   UNL A   1      44.040  24.270  24.427  1.00  0.00    -0.200 F 
ATOM     86  F   UNL A   1      43.362  21.683  24.964  1.00  0.00    -0.200 F 
ENDBRANCH  52  76
BRANCH  64  87
ATOM     87  C   UNL A   1      46.668  26.509  33.395  1.00  0.00     0.064 A 
ATOM     88  C   UNL A   1      47.918  27.011  33.006  1.00  0.00     0.173 A 
ATOM     89  C   UNL A   1      46.639  25.512  34.382  1.00  0.00     0.173 A 
ATOM     90  F   UNL A   1      48.000  27.954  32.054  1.00  0.00    -0.203 F 
ATOM     91  C   UNL A   1      49.094  26.518  33.566  1.00  0.00     0.198 A 
ATOM     92  C   UNL A   1      47.814  25.042  34.963  1.00  0.00     0.198 A 
ATOM     93  F   UNL A   1      45.469  25.001  34.794  1.00  0.00    -0.203 F 
ATOM     94  F   UNL A   1      50.279  26.980  33.145  1.00  0.00    -0.200 F 
ATOM     95  C   UNL A   1      49.040  25.541  34.549  1.00  0.00     0.200 A 
ATOM     96  F   UNL A   1      47.760  24.108  35.921  1.00  0.00    -0.200 F 
ATOM     97  F   UNL A   1      50.172  25.074  35.092  1.00  0.00    -0.200 F 
ENDBRANCH  64  87
ENDBRANCH  38  39
ENDBRANCH  30  33
ENDBRANCH  28  29
ENDBRANCH  27  28
ENDBRANCH  26  27
ENDBRANCH  25  26
ENDBRANCH   1  25
TORSDOF 17
ENDMDL
