MODEL 1
REMARK VINA RESULT:     -12.4      0.000      0.000
REMARK SMILES Cc1cc(Cl)cc2c1O[C@H](C(F)(F)F)C(C(=O)NCCCCCCNC(=O)c1ccc(-c3c4nc(c(-c5c(F)c(F)c(F)c(F)c5F)c5ccc([nH]5)c(-c5c(F)c(F)c(F)c(F)c5F)c5nc(c(-c6c(F)c(F)c(F)c(F)c6F)c6ccc3[nH]6)C=C5)C=C4)cc1)=C2
REMARK SMILES IDX 22 1 21 2 20 3 19 4 18 5 16 6 17 7 15 9 1 10 2 11 3 12 8 13
REMARK SMILES IDX 4 14 7 15 9 16 5 17 6 18 91 19 10 20 11 21 12 22 13 23 14 24
REMARK SMILES IDX 23 25 24 26 25 27 26 28 27 30 28 31 29 32 90 33 30 34 89 35
REMARK SMILES IDX 31 36 32 37 33 38 83 39 34 40 88 41 82 42 84 43 35 44 87 45
REMARK SMILES IDX 81 46 80 47 36 49 68 50 48 51 67 52 49 53 52 54 66 55 85 56
REMARK SMILES IDX 50 57 51 58 65 60 86 61 53 62 37 63 38 64 46 65 39 66 40 67
REMARK SMILES IDX 44 68 47 69 41 70 42 71 45 72 43 73 69 74 70 75 78 76 71 77
REMARK SMILES IDX 72 78 76 79 79 80 73 81 74 82 77 83 75 84 54 85 55 86 63 87
REMARK SMILES IDX 56 88 57 89 61 90 64 91 58 92 59 93 62 94 60 95
REMARK H PARENT 18 8 25 29 84 48 52 59
REMARK Flexibility Score: inf
ROOT
ATOM      1  C   UNL A   1      31.308  27.396  26.343  1.00  0.00     0.002 C 
ENDROOT
BRANCH   1   2
ATOM      2  C   UNL A   1      31.545  28.044  24.972  1.00  0.00     0.002 C 
BRANCH   2   3
ATOM      3  C   UNL A   1      30.573  27.609  23.871  1.00  0.00     0.021 C 
BRANCH   3   4
ATOM      4  C   UNL A   1      30.752  26.158  23.438  1.00  0.00     0.116 C 
BRANCH   4   5
ATOM      5  N   UNL A   1      31.611  26.042  22.275  1.00  0.00    -0.352 N 
ATOM      6  C   UNL A   1      32.645  25.263  21.877  1.00  0.00     0.251 C 
ATOM      7  O   UNL A   1      33.074  25.501  20.743  1.00  0.00    -0.270 OA
ATOM      8  H   UNL A   1      31.381  26.710  21.590  1.00  0.00     0.163 HD
BRANCH   6   9
ATOM      9  C   UNL A   1      33.276  24.184  22.693  1.00  0.00     0.067 C 
ATOM     10  C   UNL A   1      36.434  21.104  25.315  1.00  0.00     0.048 C 
ATOM     11  C   UNL A   1      35.063  20.955  24.720  1.00  0.00    -0.007 A 
ATOM     12  C   UNL A   1      34.344  19.764  24.872  1.00  0.00     0.027 A 
ATOM     13  C   UNL A   1      34.469  22.016  24.021  1.00  0.00     0.131 A 
ATOM     14  C   UNL A   1      33.069  19.640  24.317  1.00  0.00     0.042 A 
ATOM     15  C   UNL A   1      33.196  21.891  23.455  1.00  0.00     0.019 A 
ATOM     16  O   UNL A   1      35.216  23.150  23.883  1.00  0.00    -0.475 OA
ATOM     17  Cl  UNL A   1      32.203  18.165  24.504  1.00  0.00    -0.084 Cl
ATOM     18  C   UNL A   1      32.495  20.694  23.606  1.00  0.00     0.032 A 
ATOM     19  C   UNL A   1      32.645  22.995  22.679  1.00  0.00     0.025 C 
ATOM     20  C   UNL A   1      34.516  24.365  23.518  1.00  0.00     0.314 C 
BRANCH  20  21
ATOM     21  C   UNL A   1      34.271  25.204  24.786  1.00  0.00     0.429 C 
ATOM     22  F   UNL A   1      35.255  24.984  25.696  1.00  0.00    -0.167 F 
ATOM     23  F   UNL A   1      34.274  26.536  24.541  1.00  0.00    -0.167 F 
ATOM     24  F   UNL A   1      33.094  24.915  25.383  1.00  0.00    -0.167 F 
ENDBRANCH  20  21
ENDBRANCH   6   9
ENDBRANCH   4   5
ENDBRANCH   3   4
ENDBRANCH   2   3
ENDBRANCH   1   2
BRANCH   1  25
ATOM     25  C   UNL A   1      32.286  27.814  27.445  1.00  0.00     0.021 C 
BRANCH  25  26
ATOM     26  C   UNL A   1      33.566  28.471  26.938  1.00  0.00     0.116 C 
BRANCH  26  27
ATOM     27  N   UNL A   1      33.519  29.915  27.078  1.00  0.00    -0.352 N 
ATOM     28  C   UNL A   1      34.383  30.753  27.730  1.00  0.00     0.251 C 
ATOM     29  H   UNL A   1      32.756  30.357  26.641  1.00  0.00     0.163 HD
ATOM     30  O   UNL A   1      34.067  31.922  27.946  1.00  0.00    -0.269 OA
BRANCH  28  31
ATOM     31  C   UNL A   1      35.699  30.257  28.175  1.00  0.00     0.039 A 
ATOM     32  C   UNL A   1      35.827  29.743  29.467  1.00  0.00     0.014 A 
ATOM     33  C   UNL A   1      36.815  30.343  27.335  1.00  0.00     0.014 A 
ATOM     34  C   UNL A   1      37.070  29.287  29.911  1.00  0.00     0.010 A 
ATOM     35  C   UNL A   1      38.037  29.829  27.755  1.00  0.00     0.010 A 
ATOM     36  C   UNL A   1      38.178  29.314  29.052  1.00  0.00    -0.014 A 
BRANCH  36  37
ATOM     37  C   UNL A   1      39.517  28.870  29.508  1.00  0.00     0.031 A 
ATOM     38  C   UNL A   1      40.283  29.716  30.484  1.00  0.00     0.074 A 
ATOM     39  C   UNL A   1      40.054  27.738  29.017  1.00  0.00     0.049 A 
ATOM     40  N   UNL A   1      41.503  29.565  30.934  1.00  0.00    -0.248 NA
ATOM     41  C   UNL A   1      39.593  30.906  31.009  1.00  0.00     0.031 C 
ATOM     42  C   UNL A   1      39.407  26.843  28.059  1.00  0.00     0.029 A 
ATOM     43  N   UNL A   1      41.273  27.153  29.251  1.00  0.00    -0.354 N 
ATOM     44  C   UNL A   1      41.727  30.641  31.782  1.00  0.00     0.074 A 
ATOM     45  C   UNL A   1      40.541  31.467  31.744  1.00  0.00     0.031 C 
ATOM     46  C   UNL A   1      40.226  25.810  27.804  1.00  0.00     0.029 A 
ATOM     47  C   UNL A   1      41.470  25.993  28.545  1.00  0.00     0.049 A 
ATOM     48  H   UNL A   1      41.942  27.530  29.867  1.00  0.00     0.167 HD
ATOM     49  C   UNL A   1      42.816  30.899  32.545  1.00  0.00     0.037 A 
ATOM     50  C   UNL A   1      42.540  25.177  28.498  1.00  0.00     0.037 A 
ATOM     51  C   UNL A   1      43.984  30.061  32.594  1.00  0.00     0.049 A 
ATOM     52  C   UNL A   1      43.754  25.511  29.321  1.00  0.00     0.074 A 
ATOM     53  C   UNL A   1      45.126  30.219  33.358  1.00  0.00     0.029 A 
ATOM     54  N   UNL A   1      44.155  28.902  31.850  1.00  0.00    -0.354 N 
ATOM     55  N   UNL A   1      43.948  26.517  30.141  1.00  0.00    -0.248 NA
ATOM     56  C   UNL A   1      44.900  24.598  29.213  1.00  0.00     0.031 C 
ATOM     57  C   UNL A   1      46.007  29.179  33.045  1.00  0.00     0.029 A 
ATOM     58  C   UNL A   1      45.394  28.347  32.122  1.00  0.00     0.049 A 
ATOM     59  H   UNL A   1      43.493  28.531  31.222  1.00  0.00     0.167 HD
ATOM     60  C   UNL A   1      45.225  26.349  30.657  1.00  0.00     0.074 A 
ATOM     61  C   UNL A   1      45.753  25.133  30.074  1.00  0.00     0.031 C 
ATOM     62  C   UNL A   1      45.904  27.136  31.529  1.00  0.00     0.037 A 
BRANCH  49  63
ATOM     63  C   UNL A   1      42.791  32.135  33.396  1.00  0.00     0.064 A 
ATOM     64  C   UNL A   1      43.241  33.370  32.905  1.00  0.00     0.173 A 
ATOM     65  C   UNL A   1      42.267  32.098  34.696  1.00  0.00     0.173 A 
ATOM     66  F   UNL A   1      43.765  33.457  31.673  1.00  0.00    -0.203 F 
ATOM     67  C   UNL A   1      43.185  34.517  33.692  1.00  0.00     0.198 A 
ATOM     68  C   UNL A   1      42.185  33.252  35.470  1.00  0.00     0.198 A 
ATOM     69  F   UNL A   1      41.821  30.942  35.212  1.00  0.00    -0.203 F 
ATOM     70  F   UNL A   1      43.659  35.677  33.216  1.00  0.00    -0.200 F 
ATOM     71  C   UNL A   1      42.650  34.459  34.969  1.00  0.00     0.200 A 
ATOM     72  F   UNL A   1      41.656  33.197  36.699  1.00  0.00    -0.200 F 
ATOM     73  F   UNL A   1      42.585  35.568  35.721  1.00  0.00    -0.200 F 
ENDBRANCH  49  63
BRANCH  50  74
ATOM     74  C   UNL A   1      42.500  23.953  27.656  1.00  0.00     0.064 A 
ATOM     75  C   UNL A   1      42.892  23.997  26.311  1.00  0.00     0.173 A 
ATOM     76  C   UNL A   1      42.086  22.718  28.175  1.00  0.00     0.173 A 
ATOM     77  F   UNL A   1      43.275  25.160  25.764  1.00  0.00    -0.203 F 
ATOM     78  C   UNL A   1      42.861  22.854  25.514  1.00  0.00     0.198 A 
ATOM     79  C   UNL A   1      42.080  21.571  27.385  1.00  0.00     0.198 A 
ATOM     80  F   UNL A   1      41.702  22.623  29.457  1.00  0.00    -0.203 F 
ATOM     81  F   UNL A   1      43.207  22.932  24.223  1.00  0.00    -0.200 F 
ATOM     82  C   UNL A   1      42.463  21.640  26.054  1.00  0.00     0.200 A 
ATOM     83  F   UNL A   1      41.707  20.397  27.914  1.00  0.00    -0.200 F 
ATOM     84  F   UNL A   1      42.442  20.539  25.291  1.00  0.00    -0.200 F 
ENDBRANCH  50  74
BRANCH  62  85
ATOM     85  C   UNL A   1      47.288  26.703  31.914  1.00  0.00     0.064 A 
ATOM     86  C   UNL A   1      48.420  27.205  31.254  1.00  0.00     0.173 A 
ATOM     87  C   UNL A   1      47.489  25.825  32.989  1.00  0.00     0.173 A 
ATOM     88  F   UNL A   1      48.281  28.037  30.212  1.00  0.00    -0.203 F 
ATOM     89  C   UNL A   1      49.702  26.825  31.644  1.00  0.00     0.198 A 
ATOM     90  C   UNL A   1      48.772  25.472  33.396  1.00  0.00     0.198 A 
ATOM     91  F   UNL A   1      46.440  25.324  33.658  1.00  0.00    -0.203 F 
ATOM     92  F   UNL A   1      50.767  27.284  30.973  1.00  0.00    -0.200 F 
ATOM     93  C   UNL A   1      49.876  25.967  32.720  1.00  0.00     0.200 A 
ATOM     94  F   UNL A   1      48.940  24.656  34.446  1.00  0.00    -0.200 F 
ATOM     95  F   UNL A   1      51.112  25.613  33.102  1.00  0.00    -0.200 F 
ENDBRANCH  62  85
ENDBRANCH  36  37
ENDBRANCH  28  31
ENDBRANCH  26  27
ENDBRANCH  25  26
ENDBRANCH   1  25
TORSDOF 14
ENDMDL
MODEL 2
REMARK VINA RESULT:     -12.3      3.876      8.192
REMARK SMILES Cc1cc(Cl)cc2c1O[C@H](C(F)(F)F)C(C(=O)NCCCCCCNC(=O)c1ccc(-c3c4nc(c(-c5c(F)c(F)c(F)c(F)c5F)c5ccc([nH]5)c(-c5c(F)c(F)c(F)c(F)c5F)c5nc(c(-c6c(F)c(F)c(F)c(F)c6F)c6ccc3[nH]6)C=C5)C=C4)cc1)=C2
REMARK SMILES IDX 22 1 21 2 20 3 19 4 18 5 16 6 17 7 15 9 1 10 2 11 3 12 8 13
REMARK SMILES IDX 4 14 7 15 9 16 5 17 6 18 91 19 10 20 11 21 12 22 13 23 14 24
REMARK SMILES IDX 23 25 24 26 25 27 26 28 27 30 28 31 29 32 90 33 30 34 89 35
REMARK SMILES IDX 31 36 32 37 33 38 83 39 34 40 88 41 82 42 84 43 35 44 87 45
REMARK SMILES IDX 81 46 80 47 36 49 68 50 48 51 67 52 49 53 52 54 66 55 85 56
REMARK SMILES IDX 50 57 51 58 65 60 86 61 53 62 37 63 38 64 46 65 39 66 40 67
REMARK SMILES IDX 44 68 47 69 41 70 42 71 45 72 43 73 69 74 70 75 78 76 71 77
REMARK SMILES IDX 72 78 76 79 79 80 73 81 74 82 77 83 75 84 54 85 55 86 63 87
REMARK SMILES IDX 56 88 57 89 61 90 64 91 58 92 59 93 62 94 60 95
REMARK H PARENT 18 8 25 29 84 48 52 59
REMARK Flexibility Score: inf
ROOT
ATOM      1  C   UNL A   1      36.867  20.489  24.940  1.00  0.00     0.002 C 
ENDROOT
BRANCH   1   2
ATOM      2  C   UNL A   1      37.187  21.978  24.759  1.00  0.00     0.002 C 
BRANCH   2   3
ATOM      3  C   UNL A   1      36.607  22.619  23.495  1.00  0.00     0.021 C 
BRANCH   3   4
ATOM      4  C   UNL A   1      35.468  23.595  23.773  1.00  0.00     0.116 C 
BRANCH   4   5
ATOM      5  N   UNL A   1      34.756  23.262  24.992  1.00  0.00    -0.352 N 
ATOM      6  C   UNL A   1      33.796  23.822  25.766  1.00  0.00     0.251 C 
ATOM      7  O   UNL A   1      33.446  23.145  26.738  1.00  0.00    -0.270 OA
ATOM      8  H   UNL A   1      35.050  22.396  25.355  1.00  0.00     0.163 HD
BRANCH   6   9
ATOM      9  C   UNL A   1      33.165  25.154  25.529  1.00  0.00     0.067 C 
ATOM     10  C   UNL A   1      30.630  29.227  23.703  1.00  0.00     0.048 C 
ATOM     11  C   UNL A   1      31.680  29.018  24.759  1.00  0.00    -0.007 A 
ATOM     12  C   UNL A   1      32.140  30.091  25.530  1.00  0.00     0.027 A 
ATOM     13  C   UNL A   1      32.199  27.739  25.006  1.00  0.00     0.131 A 
ATOM     14  C   UNL A   1      33.112  29.883  26.509  1.00  0.00     0.042 A 
ATOM     15  C   UNL A   1      33.181  27.529  25.979  1.00  0.00     0.019 A 
ATOM     16  O   UNL A   1      31.733  26.727  24.216  1.00  0.00    -0.475 OA
ATOM     17  Cl  UNL A   1      33.676  31.216  27.441  1.00  0.00    -0.084 Cl
ATOM     18  C   UNL A   1      33.638  28.611  26.734  1.00  0.00     0.032 A 
ATOM     19  C   UNL A   1      33.742  26.195  26.156  1.00  0.00     0.025 C 
ATOM     20  C   UNL A   1      31.946  25.372  24.680  1.00  0.00     0.314 C 
BRANCH  20  21
ATOM     21  C   UNL A   1      30.656  24.860  25.347  1.00  0.00     0.429 C 
ATOM     22  F   UNL A   1      30.398  23.585  24.960  1.00  0.00    -0.167 F 
ATOM     23  F   UNL A   1      30.741  24.834  26.698  1.00  0.00    -0.167 F 
ATOM     24  F   UNL A   1      29.575  25.607  25.033  1.00  0.00    -0.167 F 
ENDBRANCH  20  21
ENDBRANCH   6   9
ENDBRANCH   4   5
ENDBRANCH   3   4
ENDBRANCH   2   3
ENDBRANCH   1   2
BRANCH   1  25
ATOM     25  C   UNL A   1      38.080  19.558  25.001  1.00  0.00     0.021 C 
BRANCH  25  26
ATOM     26  C   UNL A   1      39.264  20.114  25.787  1.00  0.00     0.116 C 
BRANCH  26  27
ATOM     27  N   UNL A   1      40.339  19.143  25.894  1.00  0.00    -0.352 N 
ATOM     28  C   UNL A   1      41.680  19.349  26.075  1.00  0.00     0.251 C 
ATOM     29  H   UNL A   1      40.064  18.201  25.827  1.00  0.00     0.163 HD
ATOM     30  O   UNL A   1      42.476  18.425  25.911  1.00  0.00    -0.269 OA
BRANCH  28  31
ATOM     31  C   UNL A   1      42.176  20.681  26.471  1.00  0.00     0.039 A 
ATOM     32  C   UNL A   1      42.209  21.016  27.826  1.00  0.00     0.014 A 
ATOM     33  C   UNL A   1      42.562  21.614  25.503  1.00  0.00     0.014 A 
ATOM     34  C   UNL A   1      42.658  22.279  28.216  1.00  0.00     0.010 A 
ATOM     35  C   UNL A   1      43.070  22.848  25.895  1.00  0.00     0.010 A 
ATOM     36  C   UNL A   1      43.104  23.197  27.253  1.00  0.00    -0.014 A 
BRANCH  36  37
ATOM     37  C   UNL A   1      43.551  24.557  27.636  1.00  0.00     0.031 A 
ATOM     38  C   UNL A   1      42.529  25.601  27.984  1.00  0.00     0.074 A 
ATOM     39  C   UNL A   1      44.862  24.861  27.629  1.00  0.00     0.049 A 
ATOM     40  N   UNL A   1      42.697  26.872  28.248  1.00  0.00    -0.248 NA
ATOM     41  C   UNL A   1      41.124  25.161  28.018  1.00  0.00     0.031 C 
ATOM     42  C   UNL A   1      45.942  23.933  27.300  1.00  0.00     0.029 A 
ATOM     43  N   UNL A   1      45.505  26.042  27.900  1.00  0.00    -0.354 N 
ATOM     44  C   UNL A   1      41.424  27.382  28.468  1.00  0.00     0.074 A 
ATOM     45  C   UNL A   1      40.489  26.299  28.255  1.00  0.00     0.031 C 
ATOM     46  C   UNL A   1      47.118  24.573  27.409  1.00  0.00     0.029 A 
ATOM     47  C   UNL A   1      46.870  25.966  27.774  1.00  0.00     0.049 A 
ATOM     48  H   UNL A   1      45.034  26.866  28.161  1.00  0.00     0.167 HD
ATOM     49  C   UNL A   1      41.072  28.634  28.843  1.00  0.00     0.037 A 
ATOM     50  C   UNL A   1      47.811  26.917  27.926  1.00  0.00     0.037 A 
ATOM     51  C   UNL A   1      42.010  29.701  29.074  1.00  0.00     0.049 A 
ATOM     52  C   UNL A   1      47.389  28.312  28.299  1.00  0.00     0.074 A 
ATOM     53  C   UNL A   1      41.757  30.997  29.487  1.00  0.00     0.029 A 
ATOM     54  N   UNL A   1      43.385  29.589  28.918  1.00  0.00    -0.354 N 
ATOM     55  N   UNL A   1      46.186  28.779  28.532  1.00  0.00    -0.248 NA
ATOM     56  C   UNL A   1      48.456  29.313  28.430  1.00  0.00     0.031 C 
ATOM     57  C   UNL A   1      42.974  31.683  29.539  1.00  0.00     0.029 A 
ATOM     58  C   UNL A   1      43.990  30.802  29.205  1.00  0.00     0.049 A 
ATOM     59  H   UNL A   1      43.858  28.771  28.643  1.00  0.00     0.167 HD
ATOM     60  C   UNL A   1      46.351  30.120  28.851  1.00  0.00     0.074 A 
ATOM     61  C   UNL A   1      47.774  30.386  28.804  1.00  0.00     0.031 C 
ATOM     62  C   UNL A   1      45.409  31.049  29.149  1.00  0.00     0.037 A 
BRANCH  49  63
ATOM     63  C   UNL A   1      39.611  28.918  29.034  1.00  0.00     0.064 A 
ATOM     64  C   UNL A   1      39.005  28.815  30.295  1.00  0.00     0.173 A 
ATOM     65  C   UNL A   1      38.819  29.346  27.958  1.00  0.00     0.173 A 
ATOM     66  F   UNL A   1      39.715  28.396  31.354  1.00  0.00    -0.203 F 
ATOM     67  C   UNL A   1      37.656  29.110  30.467  1.00  0.00     0.198 A 
ATOM     68  C   UNL A   1      37.477  29.668  28.140  1.00  0.00     0.198 A 
ATOM     69  F   UNL A   1      39.350  29.463  26.732  1.00  0.00    -0.203 F 
ATOM     70  F   UNL A   1      37.089  28.964  31.674  1.00  0.00    -0.200 F 
ATOM     71  C   UNL A   1      36.895  29.544  29.393  1.00  0.00     0.200 A 
ATOM     72  F   UNL A   1      36.746  30.100  27.103  1.00  0.00    -0.200 F 
ATOM     73  F   UNL A   1      35.599  29.841  29.564  1.00  0.00    -0.200 F 
ENDBRANCH  49  63
BRANCH  50  74
ATOM     74  C   UNL A   1      49.246  26.573  27.748  1.00  0.00     0.064 A 
ATOM     75  C   UNL A   1      50.075  26.368  28.859  1.00  0.00     0.173 A 
ATOM     76  C   UNL A   1      49.813  26.428  26.474  1.00  0.00     0.173 A 
ATOM     77  F   UNL A   1      49.583  26.517  30.098  1.00  0.00    -0.203 F 
ATOM     78  C   UNL A   1      51.421  26.041  28.703  1.00  0.00     0.198 A 
ATOM     79  C   UNL A   1      51.152  26.076  26.319  1.00  0.00     0.198 A 
ATOM     80  F   UNL A   1      49.061  26.613  25.378  1.00  0.00    -0.203 F 
ATOM     81  F   UNL A   1      52.199  25.886  29.781  1.00  0.00    -0.200 F 
ATOM     82  C   UNL A   1      51.956  25.888  27.433  1.00  0.00     0.200 A 
ATOM     83  F   UNL A   1      51.663  25.915  25.090  1.00  0.00    -0.200 F 
ATOM     84  F   UNL A   1      53.248  25.564  27.282  1.00  0.00    -0.200 F 
ENDBRANCH  50  74
BRANCH  62  85
ATOM     85  C   UNL A   1      45.885  32.438  29.457  1.00  0.00     0.064 A 
ATOM     86  C   UNL A   1      46.259  32.811  30.756  1.00  0.00     0.173 A 
ATOM     87  C   UNL A   1      46.023  33.389  28.435  1.00  0.00     0.173 A 
ATOM     88  F   UNL A   1      46.133  31.942  31.771  1.00  0.00    -0.203 F 
ATOM     89  C   UNL A   1      46.734  34.092  31.024  1.00  0.00     0.198 A 
ATOM     90  C   UNL A   1      46.528  34.658  28.700  1.00  0.00     0.198 A 
ATOM     91  F   UNL A   1      45.687  33.080  27.173  1.00  0.00    -0.203 F 
ATOM     92  F   UNL A   1      47.047  34.439  32.280  1.00  0.00    -0.200 F 
ATOM     93  C   UNL A   1      46.877  35.011  29.995  1.00  0.00     0.200 A 
ATOM     94  F   UNL A   1      46.680  35.540  27.702  1.00  0.00    -0.200 F 
ATOM     95  F   UNL A   1      47.347  36.239  30.253  1.00  0.00    -0.200 F 
ENDBRANCH  62  85
ENDBRANCH  36  37
ENDBRANCH  28  31
ENDBRANCH  26  27
ENDBRANCH  25  26
ENDBRANCH   1  25
TORSDOF 14
ENDMDL
MODEL 3
REMARK VINA RESULT:     -12.2      3.356      8.642
REMARK SMILES Cc1cc(Cl)cc2c1O[C@H](C(F)(F)F)C(C(=O)NCCCCCCNC(=O)c1ccc(-c3c4nc(c(-c5c(F)c(F)c(F)c(F)c5F)c5ccc([nH]5)c(-c5c(F)c(F)c(F)c(F)c5F)c5nc(c(-c6c(F)c(F)c(F)c(F)c6F)c6ccc3[nH]6)C=C5)C=C4)cc1)=C2
REMARK SMILES IDX 22 1 21 2 20 3 19 4 18 5 16 6 17 7 15 9 1 10 2 11 3 12 8 13
REMARK SMILES IDX 4 14 7 15 9 16 5 17 6 18 91 19 10 20 11 21 12 22 13 23 14 24
REMARK SMILES IDX 23 25 24 26 25 27 26 28 27 30 28 31 29 32 90 33 30 34 89 35
REMARK SMILES IDX 31 36 32 37 33 38 83 39 34 40 88 41 82 42 84 43 35 44 87 45
REMARK SMILES IDX 81 46 80 47 36 49 68 50 48 51 67 52 49 53 52 54 66 55 85 56
REMARK SMILES IDX 50 57 51 58 65 60 86 61 53 62 37 63 38 64 46 65 39 66 40 67
REMARK SMILES IDX 44 68 47 69 41 70 42 71 45 72 43 73 69 74 70 75 78 76 71 77
REMARK SMILES IDX 72 78 76 79 79 80 73 81 74 82 77 83 75 84 54 85 55 86 63 87
REMARK SMILES IDX 56 88 57 89 61 90 64 91 58 92 59 93 62 94 60 95
REMARK H PARENT 18 8 25 29 84 48 52 59
REMARK Flexibility Score: inf
ROOT
ATOM      1  C   UNL A   1      35.515  21.641  24.791  1.00  0.00     0.002 C 
ENDROOT
BRANCH   1   2
ATOM      2  C   UNL A   1      34.108  21.433  25.369  1.00  0.00     0.002 C 
BRANCH   2   3
ATOM      3  C   UNL A   1      33.001  21.237  24.329  1.00  0.00     0.021 C 
BRANCH   3   4
ATOM      4  C   UNL A   1      32.029  22.408  24.244  1.00  0.00     0.116 C 
BRANCH   4   5
ATOM      5  N   UNL A   1      31.310  22.606  25.489  1.00  0.00    -0.352 N 
ATOM      6  C   UNL A   1      30.846  23.652  26.213  1.00  0.00     0.251 C 
ATOM      7  O   UNL A   1      30.233  23.348  27.241  1.00  0.00    -0.270 OA
ATOM      8  H   UNL A   1      31.105  21.748  25.926  1.00  0.00     0.163 HD
BRANCH   6   9
ATOM      9  C   UNL A   1      31.027  25.092  25.861  1.00  0.00     0.067 C 
ATOM     10  C   UNL A   1      32.143  30.100  25.732  1.00  0.00     0.048 C 
ATOM     11  C   UNL A   1      31.222  29.199  24.958  1.00  0.00    -0.007 A 
ATOM     12  C   UNL A   1      30.456  29.701  23.900  1.00  0.00     0.027 A 
ATOM     13  C   UNL A   1      31.130  27.835  25.267  1.00  0.00     0.131 A 
ATOM     14  C   UNL A   1      29.607  28.854  23.187  1.00  0.00     0.042 A 
ATOM     15  C   UNL A   1      30.273  26.986  24.561  1.00  0.00     0.019 A 
ATOM     16  O   UNL A   1      31.882  27.396  26.319  1.00  0.00    -0.475 OA
ATOM     17  Cl  UNL A   1      28.663  29.490  21.895  1.00  0.00    -0.084 Cl
ATOM     18  C   UNL A   1      29.507  27.502  23.515  1.00  0.00     0.032 A 
ATOM     19  C   UNL A   1      30.159  25.588  24.961  1.00  0.00     0.025 C 
ATOM     20  C   UNL A   1      32.108  25.969  26.423  1.00  0.00     0.314 C 
BRANCH  20  21
ATOM     21  C   UNL A   1      33.500  25.638  25.854  1.00  0.00     0.429 C 
ATOM     22  F   UNL A   1      34.022  24.553  26.482  1.00  0.00    -0.167 F 
ATOM     23  F   UNL A   1      33.466  25.330  24.535  1.00  0.00    -0.167 F 
ATOM     24  F   UNL A   1      34.378  26.654  26.000  1.00  0.00    -0.167 F 
ENDBRANCH  20  21
ENDBRANCH   6   9
ENDBRANCH   4   5
ENDBRANCH   3   4
ENDBRANCH   2   3
ENDBRANCH   1   2
BRANCH   1  25
ATOM     25  C   UNL A   1      35.852  23.079  24.386  1.00  0.00     0.021 C 
BRANCH  25  26
ATOM     26  C   UNL A   1      37.019  23.693  25.152  1.00  0.00     0.116 C 
BRANCH  26  27
ATOM     27  N   UNL A   1      37.968  22.682  25.585  1.00  0.00    -0.352 N 
ATOM     28  C   UNL A   1      39.170  22.834  26.220  1.00  0.00     0.251 C 
ATOM     29  H   UNL A   1      37.708  21.752  25.395  1.00  0.00     0.163 HD
ATOM     30  O   UNL A   1      39.950  21.886  26.304  1.00  0.00    -0.269 OA
BRANCH  28  31
ATOM     31  C   UNL A   1      39.536  24.137  26.809  1.00  0.00     0.039 A 
ATOM     32  C   UNL A   1      40.196  25.077  26.015  1.00  0.00     0.014 A 
ATOM     33  C   UNL A   1      39.270  24.410  28.155  1.00  0.00     0.014 A 
ATOM     34  C   UNL A   1      40.565  26.307  26.562  1.00  0.00     0.010 A 
ATOM     35  C   UNL A   1      39.580  25.659  28.681  1.00  0.00     0.010 A 
ATOM     36  C   UNL A   1      40.247  26.610  27.895  1.00  0.00    -0.014 A 
BRANCH  36  37
ATOM     37  C   UNL A   1      40.659  27.893  28.511  1.00  0.00     0.031 A 
ATOM     38  C   UNL A   1      42.094  28.097  28.906  1.00  0.00     0.074 A 
ATOM     39  C   UNL A   1      39.743  28.849  28.752  1.00  0.00     0.049 A 
ATOM     40  N   UNL A   1      42.645  29.097  29.546  1.00  0.00    -0.248 NA
ATOM     41  C   UNL A   1      43.034  27.019  28.553  1.00  0.00     0.031 C 
ATOM     42  C   UNL A   1      38.322  28.759  28.421  1.00  0.00     0.029 A 
ATOM     43  N   UNL A   1      39.873  30.082  29.340  1.00  0.00    -0.354 N 
ATOM     44  C   UNL A   1      43.987  28.764  29.679  1.00  0.00     0.074 A 
ATOM     45  C   UNL A   1      44.159  27.449  29.104  1.00  0.00     0.031 C 
ATOM     46  C   UNL A   1      37.713  29.897  28.791  1.00  0.00     0.029 A 
ATOM     47  C   UNL A   1      38.693  30.777  29.423  1.00  0.00     0.049 A 
ATOM     48  H   UNL A   1      40.730  30.433  29.672  1.00  0.00     0.167 HD
ATOM     49  C   UNL A   1      44.988  29.504  30.210  1.00  0.00     0.037 A 
ATOM     50  C   UNL A   1      38.432  31.985  29.959  1.00  0.00     0.037 A 
ATOM     51  C   UNL A   1      44.813  30.822  30.761  1.00  0.00     0.049 A 
ATOM     52  C   UNL A   1      39.556  32.768  30.582  1.00  0.00     0.074 A 
ATOM     53  C   UNL A   1      45.770  31.667  31.294  1.00  0.00     0.029 A 
ATOM     54  N   UNL A   1      43.598  31.487  30.844  1.00  0.00    -0.354 N 
ATOM     55  N   UNL A   1      40.827  32.458  30.680  1.00  0.00    -0.248 NA
ATOM     56  C   UNL A   1      39.210  34.069  31.170  1.00  0.00     0.031 C 
ATOM     57  C   UNL A   1      45.128  32.827  31.738  1.00  0.00     0.029 A 
ATOM     58  C   UNL A   1      43.779  32.724  31.440  1.00  0.00     0.049 A 
ATOM     59  H   UNL A   1      42.737  31.131  30.527  1.00  0.00     0.167 HD
ATOM     60  C   UNL A   1      41.433  33.528  31.324  1.00  0.00     0.074 A 
ATOM     61  C   UNL A   1      40.394  34.506  31.573  1.00  0.00     0.031 C 
ATOM     62  C   UNL A   1      42.731  33.684  31.683  1.00  0.00     0.037 A 
BRANCH  49  63
ATOM     63  C   UNL A   1      46.366  28.910  30.212  1.00  0.00     0.064 A 
ATOM     64  C   UNL A   1      47.246  29.100  29.135  1.00  0.00     0.173 A 
ATOM     65  C   UNL A   1      46.831  28.185  31.319  1.00  0.00     0.173 A 
ATOM     66  F   UNL A   1      46.846  29.773  28.046  1.00  0.00    -0.203 F 
ATOM     67  C   UNL A   1      48.533  28.569  29.160  1.00  0.00     0.198 A 
ATOM     68  C   UNL A   1      48.128  27.682  31.353  1.00  0.00     0.198 A 
ATOM     69  F   UNL A   1      46.030  27.977  32.375  1.00  0.00    -0.203 F 
ATOM     70  F   UNL A   1      49.342  28.729  28.103  1.00  0.00    -0.200 F 
ATOM     71  C   UNL A   1      48.976  27.869  30.271  1.00  0.00     0.200 A 
ATOM     72  F   UNL A   1      48.559  27.015  32.433  1.00  0.00    -0.200 F 
ATOM     73  F   UNL A   1      50.220  27.371  30.299  1.00  0.00    -0.200 F 
ENDBRANCH  49  63
BRANCH  50  74
ATOM     74  C   UNL A   1      37.053  32.535  29.907  1.00  0.00     0.064 A 
ATOM     75  C   UNL A   1      36.174  32.367  30.986  1.00  0.00     0.173 A 
ATOM     76  C   UNL A   1      36.589  33.249  28.792  1.00  0.00     0.173 A 
ATOM     77  F   UNL A   1      36.566  31.673  32.064  1.00  0.00    -0.203 F 
ATOM     78  C   UNL A   1      34.880  32.883  30.948  1.00  0.00     0.198 A 
ATOM     79  C   UNL A   1      35.304  33.786  28.766  1.00  0.00     0.198 A 
ATOM     80  F   UNL A   1      37.391  33.439  27.734  1.00  0.00    -0.203 F 
ATOM     81  F   UNL A   1      34.050  32.676  31.978  1.00  0.00    -0.200 F 
ATOM     82  C   UNL A   1      34.448  33.598  29.842  1.00  0.00     0.200 A 
ATOM     83  F   UNL A   1      34.895  34.489  27.700  1.00  0.00    -0.200 F 
ATOM     84  F   UNL A   1      33.207  34.102  29.809  1.00  0.00    -0.200 F 
ENDBRANCH  50  74
BRANCH  62  85
ATOM     85  C   UNL A   1      43.106  34.961  32.376  1.00  0.00     0.064 A 
ATOM     86  C   UNL A   1      43.495  36.098  31.652  1.00  0.00     0.173 A 
ATOM     87  C   UNL A   1      43.020  35.068  33.772  1.00  0.00     0.173 A 
ATOM     88  F   UNL A   1      43.605  36.043  30.316  1.00  0.00    -0.203 F 
ATOM     89  C   UNL A   1      43.805  37.289  32.304  1.00  0.00     0.198 A 
ATOM     90  C   UNL A   1      43.300  36.268  34.417  1.00  0.00     0.198 A 
ATOM     91  F   UNL A   1      42.645  34.012  34.510  1.00  0.00    -0.203 F 
ATOM     92  F   UNL A   1      44.215  38.350  31.595  1.00  0.00    -0.200 F 
ATOM     93  C   UNL A   1      43.699  37.375  33.684  1.00  0.00     0.200 A 
ATOM     94  F   UNL A   1      43.182  36.356  35.750  1.00  0.00    -0.200 F 
ATOM     95  F   UNL A   1      43.985  38.527  34.307  1.00  0.00    -0.200 F 
ENDBRANCH  62  85
ENDBRANCH  36  37
ENDBRANCH  28  31
ENDBRANCH  26  27
ENDBRANCH  25  26
ENDBRANCH   1  25
TORSDOF 14
ENDMDL
