MODEL 1
REMARK VINA RESULT:     -11.8      0.000      0.000
REMARK SMILES CC(C)(C[NH+]1CCC(C(N)=S)CC1)C(=O)NCCCCCCNC(=O)c1ccc(-c2c3nc(c(-c4c(F)c(F)c(F)c(F)c4F)c4ccc([nH]4)c(-c4c(F)c(F)c(F)c(F)c4F)c4nc(c(-c5c(F)c(F)c(F)c(F)c5F)c5ccc2[nH]5)C=C4)C=C3)cc1
REMARK SMILES IDX 18 1 17 2 16 3 14 4 15 5 2 7 1 8 3 9 4 10 5 11 6 12 13 13
REMARK SMILES IDX 7 15 12 16 8 17 9 18 11 19 10 20 19 23 20 24 21 25 22 26
REMARK SMILES IDX 23 27 24 28 25 30 26 31 27 32 88 33 28 34 87 35 29 36 30 37
REMARK SMILES IDX 31 38 81 39 32 40 86 41 80 42 82 43 33 44 85 45 79 46 78 47
REMARK SMILES IDX 34 49 66 50 46 51 65 52 47 53 50 54 64 55 83 56 48 57 49 58
REMARK SMILES IDX 63 60 84 61 51 62 35 63 36 64 44 65 37 66 38 67 42 68 45 69
REMARK SMILES IDX 39 70 40 71 43 72 41 73 67 74 68 75 76 76 69 77 70 78 74 79
REMARK SMILES IDX 77 80 71 81 72 82 75 83 73 84 52 85 53 86 61 87 54 88 55 89
REMARK SMILES IDX 59 90 62 91 56 92 57 93 60 94 58 95
REMARK H PARENT 16 6 5 14 10 21 10 22 23 29 82 48 50 59
REMARK Flexibility Score: inf
ROOT
ATOM      1  C   UNL A   1      31.857  28.704  27.419  1.00  0.00     0.021 C 
ENDROOT
BRANCH   1   2
ATOM      2  C   UNL A   1      32.542  27.422  26.947  1.00  0.00     0.116 C 
BRANCH   2   3
ATOM      3  N   UNL A   1      31.730  26.241  27.158  1.00  0.00    -0.355 N 
ATOM      4  C   UNL A   1      31.672  25.030  26.547  1.00  0.00     0.231 C 
ATOM      5  O   UNL A   1      30.881  24.223  27.053  1.00  0.00    -0.274 OA
ATOM      6  H   UNL A   1      31.087  26.337  27.897  1.00  0.00     0.163 HD
BRANCH   4   7
ATOM      7  C   UNL A   1      32.522  24.651  25.318  1.00  0.00     0.092 C 
ATOM      8  C   UNL A   1      32.184  23.196  24.918  1.00  0.00     0.027 C 
ATOM      9  C   UNL A   1      34.010  24.619  25.741  1.00  0.00     0.027 C 
BRANCH   7  10
ATOM     10  C   UNL A   1      32.327  25.609  24.098  1.00  0.00     0.278 C 
BRANCH  10  11
ATOM     11  N   UNL A   1      31.199  26.555  23.987  1.00  0.00    -0.334 N 
ATOM     12  C   UNL A   1      31.503  27.772  23.231  1.00  0.00     0.262 C 
ATOM     13  C   UNL A   1      29.920  25.945  23.625  1.00  0.00     0.262 C 
ATOM     14  H   UNL A   1      31.064  26.871  24.947  1.00  0.00     0.348 HD
ATOM     15  C   UNL A   1      30.362  28.795  23.302  1.00  0.00     0.072 C 
ATOM     16  C   UNL A   1      28.763  26.935  23.741  1.00  0.00     0.072 C 
ATOM     17  C   UNL A   1      29.044  28.153  22.861  1.00  0.00     0.058 C 
BRANCH  17  18
ATOM     18  C   UNL A   1      27.866  29.117  22.819  1.00  0.00     0.076 C 
ATOM     19  S   UNL A   1      27.962  30.750  22.502  1.00  0.00    -0.066 S 
BRANCH  18  20
ATOM     20  N   UNL A   1      26.649  28.562  23.101  1.00  0.00    -0.393 N 
ATOM     21  H   UNL A   1      26.201  28.766  23.953  1.00  0.00     0.157 HD
ATOM     22  H   UNL A   1      26.222  27.958  22.452  1.00  0.00     0.157 HD
ENDBRANCH  18  20
ENDBRANCH  17  18
ENDBRANCH  10  11
ENDBRANCH   7  10
ENDBRANCH   4   7
ENDBRANCH   2   3
ENDBRANCH   1   2
BRANCH   1  23
ATOM     23  C   UNL A   1      32.471  30.001  26.882  1.00  0.00     0.002 C 
BRANCH  23  24
ATOM     24  C   UNL A   1      31.523  30.878  26.060  1.00  0.00     0.002 C 
BRANCH  24  25
ATOM     25  C   UNL A   1      31.325  32.300  26.591  1.00  0.00     0.021 C 
BRANCH  25  26
ATOM     26  C   UNL A   1      32.530  32.887  27.318  1.00  0.00     0.116 C 
BRANCH  26  27
ATOM     27  N   UNL A   1      32.339  34.287  27.656  1.00  0.00    -0.352 N 
ATOM     28  C   UNL A   1      32.968  35.042  28.613  1.00  0.00     0.251 C 
ATOM     29  H   UNL A   1      31.661  34.761  27.122  1.00  0.00     0.163 HD
ATOM     30  O   UNL A   1      32.551  36.161  28.892  1.00  0.00    -0.269 OA
BRANCH  28  31
ATOM     31  C   UNL A   1      34.141  34.495  29.330  1.00  0.00     0.039 A 
ATOM     32  C   UNL A   1      33.947  33.907  30.583  1.00  0.00     0.014 A 
ATOM     33  C   UNL A   1      35.423  34.568  28.779  1.00  0.00     0.014 A 
ATOM     34  C   UNL A   1      35.031  33.339  31.256  1.00  0.00     0.010 A 
ATOM     35  C   UNL A   1      36.489  33.941  29.418  1.00  0.00     0.010 A 
ATOM     36  C   UNL A   1      36.305  33.322  30.663  1.00  0.00    -0.014 A 
BRANCH  36  37
ATOM     37  C   UNL A   1      37.448  32.650  31.333  1.00  0.00     0.031 A 
ATOM     38  C   UNL A   1      38.154  31.502  30.666  1.00  0.00     0.074 A 
ATOM     39  C   UNL A   1      37.815  33.042  32.568  1.00  0.00     0.049 A 
ATOM     40  N   UNL A   1      39.142  30.768  31.111  1.00  0.00    -0.248 NA
ATOM     41  C   UNL A   1      37.670  31.114  29.332  1.00  0.00     0.031 C 
ATOM     42  C   UNL A   1      37.177  34.109  33.340  1.00  0.00     0.029 A 
ATOM     43  N   UNL A   1      38.809  32.583  33.396  1.00  0.00    -0.354 N 
ATOM     44  C   UNL A   1      39.390  29.828  30.119  1.00  0.00     0.074 A 
ATOM     45  C   UNL A   1      38.414  30.048  29.074  1.00  0.00     0.031 C 
ATOM     46  C   UNL A   1      37.810  34.240  34.516  1.00  0.00     0.029 A 
ATOM     47  C   UNL A   1      38.874  33.244  34.598  1.00  0.00     0.049 A 
ATOM     48  H   UNL A   1      39.419  31.850  33.150  1.00  0.00     0.167 HD
ATOM     49  C   UNL A   1      40.360  28.882  30.074  1.00  0.00     0.037 A 
ATOM     50  C   UNL A   1      39.694  33.063  35.650  1.00  0.00     0.037 A 
ATOM     51  C   UNL A   1      41.340  28.677  31.109  1.00  0.00     0.049 A 
ATOM     52  C   UNL A   1      40.755  31.999  35.578  1.00  0.00     0.074 A 
ATOM     53  C   UNL A   1      42.399  27.786  31.130  1.00  0.00     0.029 A 
ATOM     54  N   UNL A   1      41.379  29.372  32.309  1.00  0.00    -0.354 N 
ATOM     55  N   UNL A   1      41.027  31.164  34.604  1.00  0.00    -0.248 NA
ATOM     56  C   UNL A   1      41.628  31.856  36.751  1.00  0.00     0.031 C 
ATOM     57  C   UNL A   1      43.048  27.907  32.363  1.00  0.00     0.029 A 
ATOM     58  C   UNL A   1      42.428  28.910  33.089  1.00  0.00     0.049 A 
ATOM     59  H   UNL A   1      40.754  30.087  32.569  1.00  0.00     0.167 HD
ATOM     60  C   UNL A   1      42.115  30.418  35.034  1.00  0.00     0.074 A 
ATOM     61  C   UNL A   1      42.466  30.911  36.350  1.00  0.00     0.031 C 
ATOM     62  C   UNL A   1      42.765  29.413  34.397  1.00  0.00     0.037 A 
BRANCH  49  63
ATOM     63  C   UNL A   1      40.409  27.995  28.864  1.00  0.00     0.064 A 
ATOM     64  C   UNL A   1      41.159  28.341  27.728  1.00  0.00     0.173 A 
ATOM     65  C   UNL A   1      39.732  26.765  28.851  1.00  0.00     0.173 A 
ATOM     66  F   UNL A   1      41.816  29.509  27.684  1.00  0.00    -0.203 F 
ATOM     67  C   UNL A   1      41.205  27.503  26.616  1.00  0.00     0.198 A 
ATOM     68  C   UNL A   1      39.806  25.916  27.750  1.00  0.00     0.198 A 
ATOM     69  F   UNL A   1      39.006  26.382  29.913  1.00  0.00    -0.203 F 
ATOM     70  F   UNL A   1      41.887  27.877  25.526  1.00  0.00    -0.200 F 
ATOM     71  C   UNL A   1      40.534  26.289  26.631  1.00  0.00     0.200 A 
ATOM     72  F   UNL A   1      39.169  24.737  27.772  1.00  0.00    -0.200 F 
ATOM     73  F   UNL A   1      40.586  25.480  25.564  1.00  0.00    -0.200 F 
ENDBRANCH  49  63
BRANCH  50  74
ATOM     74  C   UNL A   1      39.560  33.925  36.853  1.00  0.00     0.064 A 
ATOM     75  C   UNL A   1      38.803  33.507  37.957  1.00  0.00     0.173 A 
ATOM     76  C   UNL A   1      40.179  35.182  36.924  1.00  0.00     0.173 A 
ATOM     77  F   UNL A   1      38.177  32.322  37.928  1.00  0.00    -0.203 F 
ATOM     78  C   UNL A   1      38.652  34.323  39.076  1.00  0.00     0.198 A 
ATOM     79  C   UNL A   1      40.051  35.984  38.056  1.00  0.00     0.198 A 
ATOM     80  F   UNL A   1      40.919  35.626  35.898  1.00  0.00    -0.203 F 
ATOM     81  F   UNL A   1      37.883  33.919  40.097  1.00  0.00    -0.200 F 
ATOM     82  C   UNL A   1      39.280  35.558  39.128  1.00  0.00     0.200 A 
ATOM     83  F   UNL A   1      40.673  37.169  38.109  1.00  0.00    -0.200 F 
ATOM     84  F   UNL A   1      39.138  36.341  40.206  1.00  0.00    -0.200 F 
ENDBRANCH  50  74
BRANCH  62  85
ATOM     85  C   UNL A   1      43.939  28.798  35.103  1.00  0.00     0.064 A 
ATOM     86  C   UNL A   1      43.782  27.744  36.015  1.00  0.00     0.173 A 
ATOM     87  C   UNL A   1      45.242  29.252  34.843  1.00  0.00     0.173 A 
ATOM     88  F   UNL A   1      42.556  27.286  36.312  1.00  0.00    -0.203 F 
ATOM     89  C   UNL A   1      44.881  27.187  36.662  1.00  0.00     0.198 A 
ATOM     90  C   UNL A   1      46.342  28.670  35.467  1.00  0.00     0.198 A 
ATOM     91  F   UNL A   1      45.449  30.254  33.975  1.00  0.00    -0.203 F 
ATOM     92  F   UNL A   1      44.701  26.216  37.569  1.00  0.00    -0.200 F 
ATOM     93  C   UNL A   1      46.160  27.645  36.382  1.00  0.00     0.200 A 
ATOM     94  F   UNL A   1      47.578  29.105  35.185  1.00  0.00    -0.200 F 
ATOM     95  F   UNL A   1      47.218  27.103  37.003  1.00  0.00    -0.200 F 
ENDBRANCH  62  85
ENDBRANCH  36  37
ENDBRANCH  28  31
ENDBRANCH  26  27
ENDBRANCH  25  26
ENDBRANCH  24  25
ENDBRANCH  23  24
ENDBRANCH   1  23
TORSDOF 17
ENDMDL
MODEL 2
REMARK VINA RESULT:     -11.7      0.171      1.610
REMARK SMILES CC(C)(C[NH+]1CCC(C(N)=S)CC1)C(=O)NCCCCCCNC(=O)c1ccc(-c2c3nc(c(-c4c(F)c(F)c(F)c(F)c4F)c4ccc([nH]4)c(-c4c(F)c(F)c(F)c(F)c4F)c4nc(c(-c5c(F)c(F)c(F)c(F)c5F)c5ccc2[nH]5)C=C4)C=C3)cc1
REMARK SMILES IDX 18 1 17 2 16 3 14 4 15 5 2 7 1 8 3 9 4 10 5 11 6 12 13 13
REMARK SMILES IDX 7 15 12 16 8 17 9 18 11 19 10 20 19 23 20 24 21 25 22 26
REMARK SMILES IDX 23 27 24 28 25 30 26 31 27 32 88 33 28 34 87 35 29 36 30 37
REMARK SMILES IDX 31 38 81 39 32 40 86 41 80 42 82 43 33 44 85 45 79 46 78 47
REMARK SMILES IDX 34 49 66 50 46 51 65 52 47 53 50 54 64 55 83 56 48 57 49 58
REMARK SMILES IDX 63 60 84 61 51 62 35 63 36 64 44 65 37 66 38 67 42 68 45 69
REMARK SMILES IDX 39 70 40 71 43 72 41 73 67 74 68 75 76 76 69 77 70 78 74 79
REMARK SMILES IDX 77 80 71 81 72 82 75 83 73 84 52 85 53 86 61 87 54 88 55 89
REMARK SMILES IDX 59 90 62 91 56 92 57 93 60 94 58 95
REMARK H PARENT 16 6 5 14 10 21 10 22 23 29 82 48 50 59
REMARK Flexibility Score: inf
ROOT
ATOM      1  C   UNL A   1      32.239  28.711  27.512  1.00  0.00     0.021 C 
ENDROOT
BRANCH   1   2
ATOM      2  C   UNL A   1      32.625  27.499  26.666  1.00  0.00     0.116 C 
BRANCH   2   3
ATOM      3  N   UNL A   1      31.894  26.303  27.035  1.00  0.00    -0.355 N 
ATOM      4  C   UNL A   1      31.852  25.044  26.526  1.00  0.00     0.231 C 
ATOM      5  O   UNL A   1      31.146  24.246  27.156  1.00  0.00    -0.274 OA
ATOM      6  H   UNL A   1      31.306  26.428  27.814  1.00  0.00     0.163 HD
BRANCH   4   7
ATOM      7  C   UNL A   1      32.624  24.605  25.266  1.00  0.00     0.092 C 
ATOM      8  C   UNL A   1      32.503  23.070  25.127  1.00  0.00     0.027 C 
ATOM      9  C   UNL A   1      34.130  24.874  25.492  1.00  0.00     0.027 C 
BRANCH   7  10
ATOM     10  C   UNL A   1      32.140  25.308  23.955  1.00  0.00     0.278 C 
BRANCH  10  11
ATOM     11  N   UNL A   1      31.043  26.296  23.927  1.00  0.00    -0.334 N 
ATOM     12  C   UNL A   1      31.344  27.513  23.169  1.00  0.00     0.262 C 
ATOM     13  C   UNL A   1      29.722  25.737  23.637  1.00  0.00     0.262 C 
ATOM     14  H   UNL A   1      30.979  26.602  24.897  1.00  0.00     0.348 HD
ATOM     15  C   UNL A   1      30.248  28.574  23.324  1.00  0.00     0.072 C 
ATOM     16  C   UNL A   1      28.612  26.767  23.838  1.00  0.00     0.072 C 
ATOM     17  C   UNL A   1      28.882  27.987  22.958  1.00  0.00     0.058 C 
BRANCH  17  18
ATOM     18  C   UNL A   1      27.741  28.993  23.002  1.00  0.00     0.076 C 
ATOM     19  S   UNL A   1      27.909  30.651  22.988  1.00  0.00    -0.066 S 
BRANCH  18  20
ATOM     20  N   UNL A   1      26.489  28.450  23.089  1.00  0.00    -0.393 N 
ATOM     21  H   UNL A   1      26.238  27.917  23.878  1.00  0.00     0.157 HD
ATOM     22  H   UNL A   1      25.840  28.591  22.363  1.00  0.00     0.157 HD
ENDBRANCH  18  20
ENDBRANCH  17  18
ENDBRANCH  10  11
ENDBRANCH   7  10
ENDBRANCH   4   7
ENDBRANCH   2   3
ENDBRANCH   1   2
BRANCH   1  23
ATOM     23  C   UNL A   1      32.621  30.068  26.910  1.00  0.00     0.002 C 
BRANCH  23  24
ATOM     24  C   UNL A   1      31.485  30.806  26.198  1.00  0.00     0.002 C 
BRANCH  24  25
ATOM     25  C   UNL A   1      31.367  32.296  26.530  1.00  0.00     0.021 C 
BRANCH  25  26
ATOM     26  C   UNL A   1      32.545  32.875  27.305  1.00  0.00     0.116 C 
BRANCH  26  27
ATOM     27  N   UNL A   1      32.348  34.275  27.639  1.00  0.00    -0.352 N 
ATOM     28  C   UNL A   1      32.970  35.035  28.598  1.00  0.00     0.251 C 
ATOM     29  H   UNL A   1      31.671  34.746  27.100  1.00  0.00     0.163 HD
ATOM     30  O   UNL A   1      32.547  36.153  28.872  1.00  0.00    -0.269 OA
BRANCH  28  31
ATOM     31  C   UNL A   1      34.140  34.494  29.322  1.00  0.00     0.039 A 
ATOM     32  C   UNL A   1      33.951  33.958  30.599  1.00  0.00     0.014 A 
ATOM     33  C   UNL A   1      35.418  34.521  28.754  1.00  0.00     0.014 A 
ATOM     34  C   UNL A   1      35.032  33.397  31.281  1.00  0.00     0.010 A 
ATOM     35  C   UNL A   1      36.479  33.899  29.404  1.00  0.00     0.010 A 
ATOM     36  C   UNL A   1      36.298  33.332  30.674  1.00  0.00    -0.014 A 
BRANCH  36  37
ATOM     37  C   UNL A   1      37.437  32.665  31.356  1.00  0.00     0.031 A 
ATOM     38  C   UNL A   1      38.158  31.524  30.694  1.00  0.00     0.074 A 
ATOM     39  C   UNL A   1      37.785  33.054  32.598  1.00  0.00     0.049 A 
ATOM     40  N   UNL A   1      39.145  30.794  31.150  1.00  0.00    -0.248 NA
ATOM     41  C   UNL A   1      37.694  31.137  29.354  1.00  0.00     0.031 C 
ATOM     42  C   UNL A   1      37.131  34.114  33.365  1.00  0.00     0.029 A 
ATOM     43  N   UNL A   1      38.772  32.599  33.437  1.00  0.00    -0.354 N 
ATOM     44  C   UNL A   1      39.412  29.859  30.158  1.00  0.00     0.074 A 
ATOM     45  C   UNL A   1      38.448  30.077  29.101  1.00  0.00     0.031 C 
ATOM     46  C   UNL A   1      37.748  34.245  34.549  1.00  0.00     0.029 A 
ATOM     47  C   UNL A   1      38.816  33.256  34.642  1.00  0.00     0.049 A 
ATOM     48  H   UNL A   1      39.389  31.870  33.196  1.00  0.00     0.167 HD
ATOM     49  C   UNL A   1      40.388  28.919  30.122  1.00  0.00     0.037 A 
ATOM     50  C   UNL A   1      39.624  33.076  35.704  1.00  0.00     0.037 A 
ATOM     51  C   UNL A   1      41.356  28.716  31.169  1.00  0.00     0.049 A 
ATOM     52  C   UNL A   1      40.692  32.018  35.642  1.00  0.00     0.074 A 
ATOM     53  C   UNL A   1      42.420  27.832  31.201  1.00  0.00     0.029 A 
ATOM     54  N   UNL A   1      41.375  29.408  32.372  1.00  0.00    -0.354 N 
ATOM     55  N   UNL A   1      40.982  31.189  34.669  1.00  0.00    -0.248 NA
ATOM     56  C   UNL A   1      41.551  31.876  36.826  1.00  0.00     0.031 C 
ATOM     57  C   UNL A   1      43.052  27.952  32.443  1.00  0.00     0.029 A 
ATOM     58  C   UNL A   1      42.417  28.949  33.164  1.00  0.00     0.049 A 
ATOM     59  H   UNL A   1      40.742  30.118  32.626  1.00  0.00     0.167 HD
ATOM     60  C   UNL A   1      42.070  30.448  35.110  1.00  0.00     0.074 A 
ATOM     61  C   UNL A   1      42.400  30.938  36.433  1.00  0.00     0.031 C 
ATOM     62  C   UNL A   1      42.734  29.450  34.478  1.00  0.00     0.037 A 
BRANCH  49  63
ATOM     63  C   UNL A   1      40.459  28.037  28.909  1.00  0.00     0.064 A 
ATOM     64  C   UNL A   1      39.755  26.824  28.840  1.00  0.00     0.173 A 
ATOM     65  C   UNL A   1      41.207  28.424  27.787  1.00  0.00     0.173 A 
ATOM     66  F   UNL A   1      39.034  26.401  29.889  1.00  0.00    -0.203 F 
ATOM     67  C   UNL A   1      39.821  26.020  27.704  1.00  0.00     0.198 A 
ATOM     68  C   UNL A   1      41.245  27.633  26.642  1.00  0.00     0.198 A 
ATOM     69  F   UNL A   1      41.893  29.577  27.797  1.00  0.00    -0.203 F 
ATOM     70  F   UNL A   1      39.180  24.844  27.680  1.00  0.00    -0.200 F 
ATOM     71  C   UNL A   1      40.560  26.429  26.604  1.00  0.00     0.200 A 
ATOM     72  F   UNL A   1      41.948  28.037  25.574  1.00  0.00    -0.200 F 
ATOM     73  F   UNL A   1      40.616  25.658  25.509  1.00  0.00    -0.200 F 
ENDBRANCH  49  63
BRANCH  50  74
ATOM     74  C   UNL A   1      39.469  33.932  36.908  1.00  0.00     0.064 A 
ATOM     75  C   UNL A   1      40.067  35.199  36.972  1.00  0.00     0.173 A 
ATOM     76  C   UNL A   1      38.729  33.504  38.020  1.00  0.00     0.173 A 
ATOM     77  F   UNL A   1      40.801  35.645  35.942  1.00  0.00    -0.203 F 
ATOM     78  C   UNL A   1      39.947  35.995  38.109  1.00  0.00     0.198 A 
ATOM     79  C   UNL A   1      38.586  34.313  39.145  1.00  0.00     0.198 A 
ATOM     80  F   UNL A   1      38.133  32.302  38.007  1.00  0.00    -0.203 F 
ATOM     81  F   UNL A   1      40.569  37.182  38.162  1.00  0.00    -0.200 F 
ATOM     82  C   UNL A   1      39.203  35.555  39.192  1.00  0.00     0.200 A 
ATOM     83  F   UNL A   1      37.852  33.890  40.183  1.00  0.00    -0.200 F 
ATOM     84  F   UNL A   1      39.085  36.321  40.285  1.00  0.00    -0.200 F 
ENDBRANCH  50  74
BRANCH  62  85
ATOM     85  C   UNL A   1      43.902  28.839  35.197  1.00  0.00     0.064 A 
ATOM     86  C   UNL A   1      43.752  27.726  36.038  1.00  0.00     0.173 A 
ATOM     87  C   UNL A   1      45.194  29.358  35.022  1.00  0.00     0.173 A 
ATOM     88  F   UNL A   1      42.535  27.202  36.252  1.00  0.00    -0.203 F 
ATOM     89  C   UNL A   1      44.846  27.174  36.698  1.00  0.00     0.198 A 
ATOM     90  C   UNL A   1      46.291  28.784  35.657  1.00  0.00     0.198 A 
ATOM     91  F   UNL A   1      45.395  30.419  34.224  1.00  0.00    -0.203 F 
ATOM     92  F   UNL A   1      44.669  26.143  37.537  1.00  0.00    -0.200 F 
ATOM     93  C   UNL A   1      46.114  27.698  36.502  1.00  0.00     0.200 A 
ATOM     94  F   UNL A   1      47.518  29.283  35.456  1.00  0.00    -0.200 F 
ATOM     95  F   UNL A   1      47.168  27.161  37.134  1.00  0.00    -0.200 F 
ENDBRANCH  62  85
ENDBRANCH  36  37
ENDBRANCH  28  31
ENDBRANCH  26  27
ENDBRANCH  25  26
ENDBRANCH  24  25
ENDBRANCH  23  24
ENDBRANCH   1  23
TORSDOF 17
ENDMDL
MODEL 3
REMARK VINA RESULT:     -11.5      2.018      3.308
REMARK SMILES CC(C)(C[NH+]1CCC(C(N)=S)CC1)C(=O)NCCCCCCNC(=O)c1ccc(-c2c3nc(c(-c4c(F)c(F)c(F)c(F)c4F)c4ccc([nH]4)c(-c4c(F)c(F)c(F)c(F)c4F)c4nc(c(-c5c(F)c(F)c(F)c(F)c5F)c5ccc2[nH]5)C=C4)C=C3)cc1
REMARK SMILES IDX 18 1 17 2 16 3 14 4 15 5 2 7 1 8 3 9 4 10 5 11 6 12 13 13
REMARK SMILES IDX 7 15 12 16 8 17 9 18 11 19 10 20 19 23 20 24 21 25 22 26
REMARK SMILES IDX 23 27 24 28 25 30 26 31 27 32 88 33 28 34 87 35 29 36 30 37
REMARK SMILES IDX 31 38 81 39 32 40 86 41 80 42 82 43 33 44 85 45 79 46 78 47
REMARK SMILES IDX 34 49 66 50 46 51 65 52 47 53 50 54 64 55 83 56 48 57 49 58
REMARK SMILES IDX 63 60 84 61 51 62 35 63 36 64 44 65 37 66 38 67 42 68 45 69
REMARK SMILES IDX 39 70 40 71 43 72 41 73 67 74 68 75 76 76 69 77 70 78 74 79
REMARK SMILES IDX 77 80 71 81 72 82 75 83 73 84 52 85 53 86 61 87 54 88 55 89
REMARK SMILES IDX 59 90 62 91 56 92 57 93 60 94 58 95
REMARK H PARENT 16 6 5 14 10 21 10 22 23 29 82 48 50 59
REMARK Flexibility Score: inf
ROOT
ATOM      1  C   UNL A   1      31.754  28.701  27.376  1.00  0.00     0.021 C 
ENDROOT
BRANCH   1   2
ATOM      2  C   UNL A   1      32.287  27.375  26.835  1.00  0.00     0.116 C 
BRANCH   2   3
ATOM      3  N   UNL A   1      31.305  26.311  26.890  1.00  0.00    -0.355 N 
ATOM      4  C   UNL A   1      30.900  25.371  25.998  1.00  0.00     0.231 C 
ATOM      5  O   UNL A   1      30.065  24.564  26.426  1.00  0.00    -0.274 OA
ATOM      6  H   UNL A   1      30.834  26.259  27.753  1.00  0.00     0.163 HD
BRANCH   4   7
ATOM      7  C   UNL A   1      31.429  25.280  24.552  1.00  0.00     0.092 C 
ATOM      8  C   UNL A   1      31.778  26.708  24.069  1.00  0.00     0.027 C 
ATOM      9  C   UNL A   1      30.275  24.813  23.634  1.00  0.00     0.027 C 
BRANCH   7  10
ATOM     10  C   UNL A   1      32.665  24.336  24.392  1.00  0.00     0.278 C 
BRANCH  10  11
ATOM     11  N   UNL A   1      32.601  22.879  24.620  1.00  0.00    -0.334 N 
ATOM     12  C   UNL A   1      32.682  22.071  23.401  1.00  0.00     0.262 C 
ATOM     13  C   UNL A   1      33.455  22.390  25.703  1.00  0.00     0.262 C 
ATOM     14  H   UNL A   1      31.652  22.737  24.965  1.00  0.00     0.348 HD
ATOM     15  C   UNL A   1      32.428  20.584  23.676  1.00  0.00     0.072 C 
ATOM     16  C   UNL A   1      33.180  20.923  26.028  1.00  0.00     0.072 C 
ATOM     17  C   UNL A   1      33.373  20.077  24.769  1.00  0.00     0.058 C 
BRANCH  17  18
ATOM     18  C   UNL A   1      33.253  18.586  25.053  1.00  0.00     0.076 C 
ATOM     19  S   UNL A   1      33.577  17.364  23.967  1.00  0.00    -0.066 S 
BRANCH  18  20
ATOM     20  N   UNL A   1      32.809  18.266  26.306  1.00  0.00    -0.393 N 
ATOM     21  H   UNL A   1      33.421  17.843  26.951  1.00  0.00     0.157 HD
ATOM     22  H   UNL A   1      31.879  18.458  26.562  1.00  0.00     0.157 HD
ENDBRANCH  18  20
ENDBRANCH  17  18
ENDBRANCH  10  11
ENDBRANCH   7  10
ENDBRANCH   4   7
ENDBRANCH   2   3
ENDBRANCH   1   2
BRANCH   1  23
ATOM     23  C   UNL A   1      32.441  29.951  26.816  1.00  0.00     0.002 C 
BRANCH  23  24
ATOM     24  C   UNL A   1      31.536  30.881  26.003  1.00  0.00     0.002 C 
BRANCH  24  25
ATOM     25  C   UNL A   1      31.313  32.268  26.610  1.00  0.00     0.021 C 
BRANCH  25  26
ATOM     26  C   UNL A   1      32.529  32.864  27.310  1.00  0.00     0.116 C 
BRANCH  26  27
ATOM     27  N   UNL A   1      32.340  34.266  27.641  1.00  0.00    -0.352 N 
ATOM     28  C   UNL A   1      32.969  35.025  28.596  1.00  0.00     0.251 C 
ATOM     29  H   UNL A   1      31.664  34.739  27.104  1.00  0.00     0.163 HD
ATOM     30  O   UNL A   1      32.553  36.146  28.869  1.00  0.00    -0.269 OA
BRANCH  28  31
ATOM     31  C   UNL A   1      34.139  34.480  29.318  1.00  0.00     0.039 A 
ATOM     32  C   UNL A   1      33.936  33.854  30.551  1.00  0.00     0.014 A 
ATOM     33  C   UNL A   1      35.429  34.591  28.790  1.00  0.00     0.014 A 
ATOM     34  C   UNL A   1      35.020  33.288  31.226  1.00  0.00     0.010 A 
ATOM     35  C   UNL A   1      36.496  33.966  29.429  1.00  0.00     0.010 A 
ATOM     36  C   UNL A   1      36.303  33.309  30.654  1.00  0.00    -0.014 A 
BRANCH  36  37
ATOM     37  C   UNL A   1      37.447  32.640  31.324  1.00  0.00     0.031 A 
ATOM     38  C   UNL A   1      38.157  31.495  30.657  1.00  0.00     0.074 A 
ATOM     39  C   UNL A   1      37.812  33.033  32.560  1.00  0.00     0.049 A 
ATOM     40  N   UNL A   1      39.147  30.763  31.103  1.00  0.00    -0.248 NA
ATOM     41  C   UNL A   1      37.675  31.106  29.323  1.00  0.00     0.031 C 
ATOM     42  C   UNL A   1      37.171  34.097  33.332  1.00  0.00     0.029 A 
ATOM     43  N   UNL A   1      38.807  32.576  33.388  1.00  0.00    -0.354 N 
ATOM     44  C   UNL A   1      39.398  29.824  30.110  1.00  0.00     0.074 A 
ATOM     45  C   UNL A   1      38.422  30.043  29.065  1.00  0.00     0.031 C 
ATOM     46  C   UNL A   1      37.803  34.230  34.508  1.00  0.00     0.029 A 
ATOM     47  C   UNL A   1      38.869  33.237  34.591  1.00  0.00     0.049 A 
ATOM     48  H   UNL A   1      39.419  31.845  33.142  1.00  0.00     0.167 HD
ATOM     49  C   UNL A   1      40.370  28.881  30.066  1.00  0.00     0.037 A 
ATOM     50  C   UNL A   1      39.689  33.057  35.643  1.00  0.00     0.037 A 
ATOM     51  C   UNL A   1      41.350  28.678  31.101  1.00  0.00     0.049 A 
ATOM     52  C   UNL A   1      40.753  31.996  35.572  1.00  0.00     0.074 A 
ATOM     53  C   UNL A   1      42.412  27.790  31.123  1.00  0.00     0.029 A 
ATOM     54  N   UNL A   1      41.386  29.373  32.302  1.00  0.00    -0.354 N 
ATOM     55  N   UNL A   1      41.028  31.162  34.598  1.00  0.00    -0.248 NA
ATOM     56  C   UNL A   1      41.625  31.854  36.746  1.00  0.00     0.031 C 
ATOM     57  C   UNL A   1      43.059  27.911  32.357  1.00  0.00     0.029 A 
ATOM     58  C   UNL A   1      42.436  28.913  33.083  1.00  0.00     0.049 A 
ATOM     59  H   UNL A   1      40.759  30.086  32.561  1.00  0.00     0.167 HD
ATOM     60  C   UNL A   1      42.118  30.419  35.028  1.00  0.00     0.074 A 
ATOM     61  C   UNL A   1      42.466  30.912  36.345  1.00  0.00     0.031 C 
ATOM     62  C   UNL A   1      42.771  29.416  34.391  1.00  0.00     0.037 A 
BRANCH  49  63
ATOM     63  C   UNL A   1      40.423  27.994  28.855  1.00  0.00     0.064 A 
ATOM     64  C   UNL A   1      41.182  28.338  27.725  1.00  0.00     0.173 A 
ATOM     65  C   UNL A   1      39.739  26.769  28.837  1.00  0.00     0.173 A 
ATOM     66  F   UNL A   1      41.846  29.502  27.686  1.00  0.00    -0.203 F 
ATOM     67  C   UNL A   1      41.231  27.501  26.612  1.00  0.00     0.198 A 
ATOM     68  C   UNL A   1      39.816  25.920  27.735  1.00  0.00     0.198 A 
ATOM     69  F   UNL A   1      39.004  26.388  29.893  1.00  0.00    -0.203 F 
ATOM     70  F   UNL A   1      41.922  27.872  25.527  1.00  0.00    -0.200 F 
ATOM     71  C   UNL A   1      40.554  26.291  26.621  1.00  0.00     0.200 A 
ATOM     72  F   UNL A   1      39.173  24.745  27.751  1.00  0.00    -0.200 F 
ATOM     73  F   UNL A   1      40.609  25.482  25.554  1.00  0.00    -0.200 F 
ENDBRANCH  49  63
BRANCH  50  74
ATOM     74  C   UNL A   1      39.552  33.918  36.847  1.00  0.00     0.064 A 
ATOM     75  C   UNL A   1      40.191  35.164  36.917  1.00  0.00     0.173 A 
ATOM     76  C   UNL A   1      38.787  33.514  37.951  1.00  0.00     0.173 A 
ATOM     77  F   UNL A   1      40.950  35.585  35.895  1.00  0.00    -0.203 F 
ATOM     78  C   UNL A   1      40.088  35.963  38.054  1.00  0.00     0.198 A 
ATOM     79  C   UNL A   1      38.660  34.327  39.075  1.00  0.00     0.198 A 
ATOM     80  F   UNL A   1      38.151  32.333  37.932  1.00  0.00    -0.203 F 
ATOM     81  F   UNL A   1      40.748  37.128  38.113  1.00  0.00    -0.200 F 
ATOM     82  C   UNL A   1      39.319  35.547  39.130  1.00  0.00     0.200 A 
ATOM     83  F   UNL A   1      37.903  33.929  40.106  1.00  0.00    -0.200 F 
ATOM     84  F   UNL A   1      39.217  36.317  40.222  1.00  0.00    -0.200 F 
ENDBRANCH  50  74
BRANCH  62  85
ATOM     85  C   UNL A   1      43.946  28.804  35.098  1.00  0.00     0.064 A 
ATOM     86  C   UNL A   1      43.808  27.670  35.912  1.00  0.00     0.173 A 
ATOM     87  C   UNL A   1      45.232  29.343  34.936  1.00  0.00     0.173 A 
ATOM     88  F   UNL A   1      42.597  27.127  36.113  1.00  0.00    -0.203 F 
ATOM     89  C   UNL A   1      44.907  27.116  36.561  1.00  0.00     0.198 A 
ATOM     90  C   UNL A   1      46.334  28.767  35.560  1.00  0.00     0.198 A 
ATOM     91  F   UNL A   1      45.420  30.423  34.163  1.00  0.00    -0.203 F 
ATOM     92  F   UNL A   1      44.743  26.065  37.377  1.00  0.00    -0.200 F 
ATOM     93  C   UNL A   1      46.170  27.660  36.379  1.00  0.00     0.200 A 
ATOM     94  F   UNL A   1      47.556  29.285  35.371  1.00  0.00    -0.200 F 
ATOM     95  F   UNL A   1      47.229  27.122  37.001  1.00  0.00    -0.200 F 
ENDBRANCH  62  85
ENDBRANCH  36  37
ENDBRANCH  28  31
ENDBRANCH  26  27
ENDBRANCH  25  26
ENDBRANCH  24  25
ENDBRANCH  23  24
ENDBRANCH   1  23
TORSDOF 17
ENDMDL
