MODEL 1
REMARK VINA RESULT:     -15.0      0.000      0.000
REMARK SMILES CC[C@@H]1CCC[C@@](CC[NH+]2CCOCC2)(C(=O)NCCCCCCNC(=O)c2ccc(-c3c4nc(c(-c5c(F)c(F)c(F)c(F)c5F)c5ccc([nH]5)c(-c5c(F)c(F)c(F)c(F)c5F)c5nc(c(-c6c(F)c(F)c(F)c(F)c6F)c6ccc3[nH]6)C=C5)C=C4)cc2)C1
REMARK SMILES IDX 21 1 20 2 19 3 18 4 16 5 17 6 7 8 3 9 4 10 91 11 5 12 6 13
REMARK SMILES IDX 2 14 1 15 8 16 9 17 10 18 11 19 15 20 12 22 14 23 13 24
REMARK SMILES IDX 22 25 23 26 24 27 25 28 26 29 27 31 28 32 29 33 90 34 30 35
REMARK SMILES IDX 89 36 31 37 32 38 33 39 83 40 34 41 88 42 82 43 84 44 35 45
REMARK SMILES IDX 87 46 81 47 80 48 36 50 68 51 48 52 67 53 49 54 52 55 66 56
REMARK SMILES IDX 85 57 50 58 51 59 65 61 86 62 53 63 37 64 38 65 46 66 39 67
REMARK SMILES IDX 40 68 44 69 47 70 41 71 42 72 45 73 43 74 69 75 70 76 78 77
REMARK SMILES IDX 71 78 72 79 76 80 79 81 73 82 74 83 77 84 75 85 54 86 55 87
REMARK SMILES IDX 63 88 56 89 57 90 61 91 64 92 58 93 59 94 62 95 60 96
REMARK H PARENT 18 7 10 21 25 30 84 49 52 60
REMARK Flexibility Score: inf
ROOT
ATOM      1  C   UNL A   1      33.192  30.065  27.071  1.00  0.00     0.002 C 
ENDROOT
BRANCH   1   2
ATOM      2  C   UNL A   1      33.247  28.527  27.210  1.00  0.00     0.021 C 
BRANCH   2   3
ATOM      3  C   UNL A   1      31.739  27.657  27.348  1.00  0.00     0.116 C 
BRANCH   3   4
ATOM      4  N   UNL A   1      31.188  25.843  26.516  1.00  0.00    -0.356 N 
ATOM      5  C   UNL A   1      31.566  25.123  25.019  1.00  0.00     0.226 C 
ATOM      6  O   UNL A   1      31.047  24.024  24.832  1.00  0.00    -0.274 OA
ATOM      7  H   UNL A   1      30.602  25.298  27.089  1.00  0.00     0.163 HD
BRANCH   5   8
ATOM      8  C   UNL A   1      32.976  25.893  23.965  1.00  0.00     0.055 C 
ATOM      9  C   UNL A   1      34.432  24.008  24.988  1.00  0.00    -0.010 C 
ATOM     10  C   UNL A   1      34.722  23.385  23.615  1.00  0.00     0.003 C 
ATOM     11  C   UNL A   1      34.199  25.563  24.912  1.00  0.00     0.020 C 
ATOM     12  C   UNL A   1      33.725  23.807  22.555  1.00  0.00     0.001 C 
ATOM     13  C   UNL A   1      33.475  25.296  22.597  1.00  0.00     0.017 C 
BRANCH   9  14
ATOM     14  C   UNL A   1      35.510  23.549  25.981  1.00  0.00     0.000 C 
ATOM     15  C   UNL A   1      36.930  23.805  25.505  1.00  0.00     0.004 C 
ENDBRANCH   9  14
BRANCH   8  16
ATOM     16  C   UNL A   1      32.902  27.688  23.418  1.00  0.00     0.078 C 
BRANCH  16  17
ATOM     17  C   UNL A   1      31.304  28.470  22.848  1.00  0.00     0.263 C 
BRANCH  17  18
ATOM     18  N   UNL A   1      30.806  29.755  23.594  1.00  0.00    -0.331 N 
ATOM     19  C   UNL A   1      29.967  28.704  24.119  1.00  0.00     0.291 C 
ATOM     20  C   UNL A   1      29.576  31.077  23.853  1.00  0.00     0.291 C 
ATOM     21  H   UNL A   1      31.573  30.428  23.569  1.00  0.00     0.348 HD
ATOM     22  C   UNL A   1      28.249  27.964  23.167  1.00  0.00     0.221 C 
ATOM     23  C   UNL A   1      27.634  31.049  23.542  1.00  0.00     0.221 C 
ATOM     24  O   UNL A   1      26.916  29.357  23.107  1.00  0.00    -0.370 OA
ENDBRANCH  17  18
ENDBRANCH  16  17
ENDBRANCH   8  16
ENDBRANCH   5   8
ENDBRANCH   3   4
ENDBRANCH   2   3
ENDBRANCH   1   2
BRANCH   1  25
ATOM     25  C   UNL A   1      31.786  30.669  26.885  1.00  0.00     0.002 C 
BRANCH  25  26
ATOM     26  C   UNL A   1      31.789  32.174  26.653  1.00  0.00     0.021 C 
BRANCH  26  27
ATOM     27  C   UNL A   1      32.869  32.886  27.448  1.00  0.00     0.116 C 
BRANCH  27  28
ATOM     28  N   UNL A   1      32.532  34.286  27.714  1.00  0.00    -0.352 N 
ATOM     29  C   UNL A   1      33.044  35.100  28.688  1.00  0.00     0.251 C 
ATOM     30  H   UNL A   1      31.857  34.690  27.122  1.00  0.00     0.163 HD
ATOM     31  O   UNL A   1      32.600  36.214  28.922  1.00  0.00    -0.269 OA
BRANCH  29  32
ATOM     32  C   UNL A   1      34.164  34.543  29.447  1.00  0.00     0.039 A 
ATOM     33  C   UNL A   1      33.905  33.648  30.482  1.00  0.00     0.014 A 
ATOM     34  C   UNL A   1      35.450  34.746  28.937  1.00  0.00     0.014 A 
ATOM     35  C   UNL A   1      34.964  32.912  30.996  1.00  0.00     0.010 A 
ATOM     36  C   UNL A   1      36.470  33.925  29.368  1.00  0.00     0.010 A 
ATOM     37  C   UNL A   1      36.242  33.026  30.423  1.00  0.00    -0.014 A 
BRANCH  37  38
ATOM     38  C   UNL A   1      37.395  32.283  30.966  1.00  0.00     0.031 A 
ATOM     39  C   UNL A   1      37.884  32.641  32.341  1.00  0.00     0.074 A 
ATOM     40  C   UNL A   1      38.012  31.352  30.217  1.00  0.00     0.049 A 
ATOM     41  N   UNL A   1      38.930  32.201  32.987  1.00  0.00    -0.248 NA
ATOM     42  C   UNL A   1      37.120  33.672  33.069  1.00  0.00     0.031 C 
ATOM     43  C   UNL A   1      37.646  30.977  28.849  1.00  0.00     0.029 A 
ATOM     44  N   UNL A   1      39.086  30.551  30.504  1.00  0.00    -0.354 N 
ATOM     45  C   UNL A   1      38.951  32.911  34.179  1.00  0.00     0.074 A 
ATOM     46  C   UNL A   1      37.880  33.875  34.133  1.00  0.00     0.031 C 
ATOM     47  C   UNL A   1      38.458  29.993  28.429  1.00  0.00     0.029 A 
ATOM     48  C   UNL A   1      39.422  29.695  29.483  1.00  0.00     0.049 A 
ATOM     49  H   UNL A   1      39.569  30.584  31.360  1.00  0.00     0.167 HD
ATOM     50  C   UNL A   1      39.766  32.736  35.245  1.00  0.00     0.037 A 
ATOM     51  C   UNL A   1      40.403  28.775  29.422  1.00  0.00     0.037 A 
ATOM     52  C   UNL A   1      40.793  31.737  35.295  1.00  0.00     0.049 A 
ATOM     53  C   UNL A   1      41.291  28.599  30.628  1.00  0.00     0.074 A 
ATOM     54  C   UNL A   1      41.657  31.437  36.331  1.00  0.00     0.029 A 
ATOM     55  N   UNL A   1      41.081  30.859  34.259  1.00  0.00    -0.354 N 
ATOM     56  N   UNL A   1      41.268  29.234  31.776  1.00  0.00    -0.248 NA
ATOM     57  C   UNL A   1      42.335  27.570  30.535  1.00  0.00     0.031 C 
ATOM     58  C   UNL A   1      42.490  30.396  35.910  1.00  0.00     0.029 A 
ATOM     59  C   UNL A   1      42.114  30.019  34.630  1.00  0.00     0.049 A 
ATOM     60  H   UNL A   1      40.619  30.839  33.389  1.00  0.00     0.167 HD
ATOM     61  C   UNL A   1      42.263  28.658  32.553  1.00  0.00     0.074 A 
ATOM     62  C   UNL A   1      42.860  27.610  31.751  1.00  0.00     0.031 C 
ATOM     63  C   UNL A   1      42.659  28.966  33.812  1.00  0.00     0.037 A 
BRANCH  50  64
ATOM     64  C   UNL A   1      39.543  33.612  36.440  1.00  0.00     0.064 A 
ATOM     65  C   UNL A   1      40.106  34.896  36.520  1.00  0.00     0.173 A 
ATOM     66  C   UNL A   1      38.740  33.180  37.505  1.00  0.00     0.173 A 
ATOM     67  F   UNL A   1      40.901  35.347  35.539  1.00  0.00    -0.203 F 
ATOM     68  C   UNL A   1      39.887  35.707  37.629  1.00  0.00     0.198 A 
ATOM     69  C   UNL A   1      38.498  34.006  38.599  1.00  0.00     0.198 A 
ATOM     70  F   UNL A   1      38.184  31.960  37.481  1.00  0.00    -0.203 F 
ATOM     71  F   UNL A   1      40.475  36.909  37.705  1.00  0.00    -0.200 F 
ATOM     72  C   UNL A   1      39.075  35.266  38.663  1.00  0.00     0.200 A 
ATOM     73  F   UNL A   1      37.706  33.583  39.593  1.00  0.00    -0.200 F 
ATOM     74  F   UNL A   1      38.855  36.052  39.725  1.00  0.00    -0.200 F 
ENDBRANCH  50  64
BRANCH  51  75
ATOM     75  C   UNL A   1      40.587  27.936  28.208  1.00  0.00     0.064 A 
ATOM     76  C   UNL A   1      40.045  26.644  28.135  1.00  0.00     0.173 A 
ATOM     77  C   UNL A   1      41.340  28.386  27.114  1.00  0.00     0.173 A 
ATOM     78  F   UNL A   1      39.327  26.162  29.160  1.00  0.00    -0.203 F 
ATOM     79  C   UNL A   1      40.287  25.820  27.038  1.00  0.00     0.198 A 
ATOM     80  C   UNL A   1      41.554  27.572  26.002  1.00  0.00     0.198 A 
ATOM     81  F   UNL A   1      41.873  29.617  27.124  1.00  0.00    -0.203 F 
ATOM     82  F   UNL A   1      39.814  24.566  27.029  1.00  0.00    -0.200 F 
ATOM     83  C   UNL A   1      41.040  26.284  25.972  1.00  0.00     0.200 A 
ATOM     84  F   UNL A   1      42.270  28.031  24.967  1.00  0.00    -0.200 F 
ATOM     85  F   UNL A   1      41.282  25.489  24.922  1.00  0.00    -0.200 F 
ENDBRANCH  51  75
BRANCH  63  86
ATOM     86  C   UNL A   1      43.746  28.126  34.413  1.00  0.00     0.064 A 
ATOM     87  C   UNL A   1      43.465  26.920  35.067  1.00  0.00     0.173 A 
ATOM     88  C   UNL A   1      45.088  28.512  34.282  1.00  0.00     0.173 A 
ATOM     89  F   UNL A   1      42.195  26.517  35.226  1.00  0.00    -0.203 F 
ATOM     90  C   UNL A   1      44.489  26.142  35.597  1.00  0.00     0.198 A 
ATOM     91  C   UNL A   1      46.111  27.716  34.782  1.00  0.00     0.198 A 
ATOM     92  F   UNL A   1      45.407  29.654  33.653  1.00  0.00    -0.203 F 
ATOM     93  F   UNL A   1      44.196  25.018  36.264  1.00  0.00    -0.200 F 
ATOM     94  C   UNL A   1      45.810  26.536  35.448  1.00  0.00     0.200 A 
ATOM     95  F   UNL A   1      47.388  28.088  34.622  1.00  0.00    -0.200 F 
ATOM     96  F   UNL A   1      46.796  25.779  35.949  1.00  0.00    -0.200 F 
ENDBRANCH  63  86
ENDBRANCH  37  38
ENDBRANCH  29  32
ENDBRANCH  27  28
ENDBRANCH  26  27
ENDBRANCH  25  26
ENDBRANCH   1  25
TORSDOF 17
ENDMDL
MODEL 2
REMARK VINA RESULT:     -14.8      0.473      1.734
REMARK SMILES CC[C@@H]1CCC[C@@](CC[NH+]2CCOCC2)(C(=O)NCCCCCCNC(=O)c2ccc(-c3c4nc(c(-c5c(F)c(F)c(F)c(F)c5F)c5ccc([nH]5)c(-c5c(F)c(F)c(F)c(F)c5F)c5nc(c(-c6c(F)c(F)c(F)c(F)c6F)c6ccc3[nH]6)C=C5)C=C4)cc2)C1
REMARK SMILES IDX 21 1 20 2 19 3 18 4 16 5 17 6 7 8 3 9 4 10 91 11 5 12 6 13
REMARK SMILES IDX 2 14 1 15 8 16 9 17 10 18 11 19 15 20 12 22 14 23 13 24
REMARK SMILES IDX 22 25 23 26 24 27 25 28 26 29 27 31 28 32 29 33 90 34 30 35
REMARK SMILES IDX 89 36 31 37 32 38 33 39 83 40 34 41 88 42 82 43 84 44 35 45
REMARK SMILES IDX 87 46 81 47 80 48 36 50 68 51 48 52 67 53 49 54 52 55 66 56
REMARK SMILES IDX 85 57 50 58 51 59 65 61 86 62 53 63 37 64 38 65 46 66 39 67
REMARK SMILES IDX 40 68 44 69 47 70 41 71 42 72 45 73 43 74 69 75 70 76 78 77
REMARK SMILES IDX 71 78 72 79 76 80 79 81 73 82 74 83 77 84 75 85 54 86 55 87
REMARK SMILES IDX 63 88 56 89 57 90 61 91 64 92 58 93 59 94 62 95 60 96
REMARK H PARENT 18 7 10 21 25 30 84 49 52 60
REMARK Flexibility Score: inf
ROOT
ATOM      1  C   UNL A   1      33.149  30.058  26.919  1.00  0.00     0.002 C 
ENDROOT
BRANCH   1   2
ATOM      2  C   UNL A   1      33.164  28.639  27.532  1.00  0.00     0.021 C 
BRANCH   2   3
ATOM      3  C   UNL A   1      31.697  27.695  27.459  1.00  0.00     0.116 C 
BRANCH   3   4
ATOM      4  N   UNL A   1      31.421  25.742  26.829  1.00  0.00    -0.356 N 
ATOM      5  C   UNL A   1      31.913  24.929  25.414  1.00  0.00     0.226 C 
ATOM      6  O   UNL A   1      31.560  23.753  25.349  1.00  0.00    -0.274 OA
ATOM      7  H   UNL A   1      30.916  25.182  27.461  1.00  0.00     0.163 HD
BRANCH   5   8
ATOM      8  C   UNL A   1      33.207  25.778  24.276  1.00  0.00     0.055 C 
ATOM      9  C   UNL A   1      34.810  23.932  25.135  1.00  0.00    -0.010 C 
ATOM     10  C   UNL A   1      35.015  23.352  23.730  1.00  0.00     0.003 C 
ATOM     11  C   UNL A   1      34.511  25.478  25.117  1.00  0.00     0.020 C 
ATOM     12  C   UNL A   1      33.924  23.757  22.760  1.00  0.00     0.001 C 
ATOM     13  C   UNL A   1      33.620  25.233  22.858  1.00  0.00     0.017 C 
BRANCH   9  14
ATOM     14  C   UNL A   1      35.978  23.496  26.032  1.00  0.00     0.000 C 
ATOM     15  C   UNL A   1      36.568  22.148  25.654  1.00  0.00     0.004 C 
ENDBRANCH   9  14
BRANCH   8  16
ATOM     16  C   UNL A   1      33.020  27.581  23.781  1.00  0.00     0.078 C 
BRANCH  16  17
ATOM     17  C   UNL A   1      31.343  28.398  23.679  1.00  0.00     0.263 C 
BRANCH  17  18
ATOM     18  N   UNL A   1      30.093  27.484  23.439  1.00  0.00    -0.331 N 
ATOM     19  C   UNL A   1      29.951  28.530  22.454  1.00  0.00     0.291 C 
ATOM     20  C   UNL A   1      28.304  27.157  23.573  1.00  0.00     0.291 C 
ATOM     21  H   UNL A   1      30.323  26.563  23.811  1.00  0.00     0.348 HD
ATOM     22  C   UNL A   1      29.137  30.426  22.838  1.00  0.00     0.221 C 
ATOM     23  C   UNL A   1      26.805  28.431  23.623  1.00  0.00     0.221 C 
ATOM     24  O   UNL A   1      27.270  30.229  23.280  1.00  0.00    -0.370 OA
ENDBRANCH  17  18
ENDBRANCH  16  17
ENDBRANCH   8  16
ENDBRANCH   5   8
ENDBRANCH   3   4
ENDBRANCH   2   3
ENDBRANCH   1   2
BRANCH   1  25
ATOM     25  C   UNL A   1      31.755  30.678  26.702  1.00  0.00     0.002 C 
BRANCH  25  26
ATOM     26  C   UNL A   1      31.771  32.195  26.564  1.00  0.00     0.021 C 
BRANCH  26  27
ATOM     27  C   UNL A   1      32.745  32.858  27.521  1.00  0.00     0.116 C 
BRANCH  27  28
ATOM     28  N   UNL A   1      32.436  34.274  27.736  1.00  0.00    -0.352 N 
ATOM     29  C   UNL A   1      32.988  35.120  28.659  1.00  0.00     0.251 C 
ATOM     30  H   UNL A   1      31.750  34.663  27.146  1.00  0.00     0.163 HD
ATOM     31  O   UNL A   1      32.568  36.250  28.857  1.00  0.00    -0.269 OA
BRANCH  29  32
ATOM     32  C   UNL A   1      34.121  34.579  29.410  1.00  0.00     0.039 A 
ATOM     33  C   UNL A   1      33.879  33.753  30.504  1.00  0.00     0.014 A 
ATOM     34  C   UNL A   1      35.392  34.717  28.844  1.00  0.00     0.014 A 
ATOM     35  C   UNL A   1      34.936  33.020  31.024  1.00  0.00     0.010 A 
ATOM     36  C   UNL A   1      36.407  33.894  29.286  1.00  0.00     0.010 A 
ATOM     37  C   UNL A   1      36.195  33.066  30.400  1.00  0.00    -0.014 A 
BRANCH  37  38
ATOM     38  C   UNL A   1      37.348  32.324  30.946  1.00  0.00     0.031 A 
ATOM     39  C   UNL A   1      37.838  32.688  32.318  1.00  0.00     0.074 A 
ATOM     40  C   UNL A   1      37.965  31.390  30.200  1.00  0.00     0.049 A 
ATOM     41  N   UNL A   1      38.885  32.250  32.966  1.00  0.00    -0.248 NA
ATOM     42  C   UNL A   1      37.075  33.722  33.043  1.00  0.00     0.031 C 
ATOM     43  C   UNL A   1      37.597  31.010  28.834  1.00  0.00     0.029 A 
ATOM     44  N   UNL A   1      39.039  30.590  30.489  1.00  0.00    -0.354 N 
ATOM     45  C   UNL A   1      38.907  32.965  34.155  1.00  0.00     0.074 A 
ATOM     46  C   UNL A   1      37.835  33.929  34.105  1.00  0.00     0.031 C 
ATOM     47  C   UNL A   1      38.410  30.024  28.417  1.00  0.00     0.029 A 
ATOM     48  C   UNL A   1      39.374  29.730  29.472  1.00  0.00     0.049 A 
ATOM     49  H   UNL A   1      39.523  30.627  31.345  1.00  0.00     0.167 HD
ATOM     50  C   UNL A   1      39.722  32.794  35.221  1.00  0.00     0.037 A 
ATOM     51  C   UNL A   1      40.355  28.810  29.414  1.00  0.00     0.037 A 
ATOM     52  C   UNL A   1      40.749  31.795  35.274  1.00  0.00     0.049 A 
ATOM     53  C   UNL A   1      41.243  28.638  30.619  1.00  0.00     0.074 A 
ATOM     54  C   UNL A   1      41.614  31.500  36.311  1.00  0.00     0.029 A 
ATOM     55  N   UNL A   1      41.037  30.913  34.241  1.00  0.00    -0.354 N 
ATOM     56  N   UNL A   1      41.222  29.278  31.765  1.00  0.00    -0.248 NA
ATOM     57  C   UNL A   1      42.288  27.609  30.530  1.00  0.00     0.031 C 
ATOM     58  C   UNL A   1      42.447  30.457  35.893  1.00  0.00     0.029 A 
ATOM     59  C   UNL A   1      42.069  30.074  34.615  1.00  0.00     0.049 A 
ATOM     60  H   UNL A   1      40.574  30.889  33.372  1.00  0.00     0.167 HD
ATOM     61  C   UNL A   1      42.218  28.705  32.543  1.00  0.00     0.074 A 
ATOM     62  C   UNL A   1      42.814  27.654  31.745  1.00  0.00     0.031 C 
ATOM     63  C   UNL A   1      42.614  29.019  33.801  1.00  0.00     0.037 A 
BRANCH  50  64
ATOM     64  C   UNL A   1      39.500  33.675  36.413  1.00  0.00     0.064 A 
ATOM     65  C   UNL A   1      38.720  33.251  37.500  1.00  0.00     0.173 A 
ATOM     66  C   UNL A   1      40.093  34.944  36.484  1.00  0.00     0.173 A 
ATOM     67  F   UNL A   1      38.112  32.057  37.471  1.00  0.00    -0.203 F 
ATOM     68  C   UNL A   1      38.527  34.073  38.607  1.00  0.00     0.198 A 
ATOM     69  C   UNL A   1      39.923  35.749  37.607  1.00  0.00     0.198 A 
ATOM     70  F   UNL A   1      40.842  35.399  35.470  1.00  0.00    -0.203 F 
ATOM     71  F   UNL A   1      37.738  33.666  39.611  1.00  0.00    -0.200 F 
ATOM     72  C   UNL A   1      39.137  35.317  38.664  1.00  0.00     0.200 A 
ATOM     73  F   UNL A   1      40.520  36.948  37.666  1.00  0.00    -0.200 F 
ATOM     74  F   UNL A   1      38.961  36.101  39.736  1.00  0.00    -0.200 F 
ENDBRANCH  50  64
BRANCH  51  75
ATOM     75  C   UNL A   1      40.538  27.966  28.203  1.00  0.00     0.064 A 
ATOM     76  C   UNL A   1      39.953  26.694  28.115  1.00  0.00     0.173 A 
ATOM     77  C   UNL A   1      41.333  28.390  27.128  1.00  0.00     0.173 A 
ATOM     78  F   UNL A   1      39.194  26.237  29.122  1.00  0.00    -0.203 F 
ATOM     79  C   UNL A   1      40.192  25.863  27.023  1.00  0.00     0.198 A 
ATOM     80  C   UNL A   1      41.544  27.570  26.020  1.00  0.00     0.198 A 
ATOM     81  F   UNL A   1      41.908  29.601  27.153  1.00  0.00    -0.203 F 
ATOM     82  F   UNL A   1      39.675  24.627  27.000  1.00  0.00    -0.200 F 
ATOM     83  C   UNL A   1      40.985  26.301  25.975  1.00  0.00     0.200 A 
ATOM     84  F   UNL A   1      42.300  28.005  25.002  1.00  0.00    -0.200 F 
ATOM     85  F   UNL A   1      41.225  25.499  24.930  1.00  0.00    -0.200 F 
ENDBRANCH  51  75
BRANCH  63  86
ATOM     86  C   UNL A   1      43.701  28.181  34.405  1.00  0.00     0.064 A 
ATOM     87  C   UNL A   1      45.048  28.557  34.325  1.00  0.00     0.173 A 
ATOM     88  C   UNL A   1      43.380  27.016  35.116  1.00  0.00     0.173 A 
ATOM     89  F   UNL A   1      45.403  29.658  33.644  1.00  0.00    -0.203 F 
ATOM     90  C   UNL A   1      46.041  27.780  34.912  1.00  0.00     0.198 A 
ATOM     91  C   UNL A   1      44.371  26.260  35.731  1.00  0.00     0.198 A 
ATOM     92  F   UNL A   1      42.102  26.622  35.230  1.00  0.00    -0.203 F 
ATOM     93  F   UNL A   1      47.327  28.130  34.781  1.00  0.00    -0.200 F 
ATOM     94  C   UNL A   1      45.701  26.637  35.621  1.00  0.00     0.200 A 
ATOM     95  F   UNL A   1      44.040  25.166  36.431  1.00  0.00    -0.200 F 
ATOM     96  F   UNL A   1      46.658  25.895  36.195  1.00  0.00    -0.200 F 
ENDBRANCH  63  86
ENDBRANCH  37  38
ENDBRANCH  29  32
ENDBRANCH  27  28
ENDBRANCH  26  27
ENDBRANCH  25  26
ENDBRANCH   1  25
TORSDOF 17
ENDMDL
MODEL 3
REMARK VINA RESULT:     -14.8      1.254      2.030
REMARK SMILES CC[C@@H]1CCC[C@@](CC[NH+]2CCOCC2)(C(=O)NCCCCCCNC(=O)c2ccc(-c3c4nc(c(-c5c(F)c(F)c(F)c(F)c5F)c5ccc([nH]5)c(-c5c(F)c(F)c(F)c(F)c5F)c5nc(c(-c6c(F)c(F)c(F)c(F)c6F)c6ccc3[nH]6)C=C5)C=C4)cc2)C1
REMARK SMILES IDX 21 1 20 2 19 3 18 4 16 5 17 6 7 8 3 9 4 10 91 11 5 12 6 13
REMARK SMILES IDX 2 14 1 15 8 16 9 17 10 18 11 19 15 20 12 22 14 23 13 24
REMARK SMILES IDX 22 25 23 26 24 27 25 28 26 29 27 31 28 32 29 33 90 34 30 35
REMARK SMILES IDX 89 36 31 37 32 38 33 39 83 40 34 41 88 42 82 43 84 44 35 45
REMARK SMILES IDX 87 46 81 47 80 48 36 50 68 51 48 52 67 53 49 54 52 55 66 56
REMARK SMILES IDX 85 57 50 58 51 59 65 61 86 62 53 63 37 64 38 65 46 66 39 67
REMARK SMILES IDX 40 68 44 69 47 70 41 71 42 72 45 73 43 74 69 75 70 76 78 77
REMARK SMILES IDX 71 78 72 79 76 80 79 81 73 82 74 83 77 84 75 85 54 86 55 87
REMARK SMILES IDX 63 88 56 89 57 90 61 91 64 92 58 93 59 94 62 95 60 96
REMARK H PARENT 18 7 10 21 25 30 84 49 52 60
REMARK Flexibility Score: inf
ROOT
ATOM      1  C   UNL A   1      31.978  29.684  25.546  1.00  0.00     0.002 C 
ENDROOT
BRANCH   1   2
ATOM      2  C   UNL A   1      33.331  29.200  24.976  1.00  0.00     0.021 C 
BRANCH   2   3
ATOM      3  C   UNL A   1      33.520  29.137  23.241  1.00  0.00     0.116 C 
BRANCH   3   4
ATOM      4  N   UNL A   1      33.286  27.535  21.951  1.00  0.00    -0.356 N 
ATOM      5  C   UNL A   1      32.399  26.088  22.094  1.00  0.00     0.226 C 
ATOM      6  O   UNL A   1      32.494  25.330  21.130  1.00  0.00    -0.274 OA
ATOM      7  H   UNL A   1      33.776  27.626  21.102  1.00  0.00     0.163 HD
BRANCH   5   8
ATOM      8  C   UNL A   1      31.116  25.939  23.517  1.00  0.00     0.055 C 
ATOM      9  C   UNL A   1      32.229  23.638  23.946  1.00  0.00    -0.010 C 
ATOM     10  C   UNL A   1      32.678  24.035  25.358  1.00  0.00     0.003 C 
ATOM     11  C   UNL A   1      30.909  24.371  23.499  1.00  0.00     0.020 C 
ATOM     12  C   UNL A   1      32.707  25.536  25.567  1.00  0.00     0.001 C 
ATOM     13  C   UNL A   1      31.455  26.190  25.033  1.00  0.00     0.017 C 
BRANCH   9  14
ATOM     14  C   UNL A   1      32.200  22.106  23.843  1.00  0.00     0.000 C 
ATOM     15  C   UNL A   1      32.070  21.590  22.419  1.00  0.00     0.004 C 
ENDBRANCH   9  14
BRANCH   8  16
ATOM     16  C   UNL A   1      29.513  26.917  23.477  1.00  0.00     0.078 C 
BRANCH  16  17
ATOM     17  C   UNL A   1      29.428  28.622  22.718  1.00  0.00     0.263 C 
BRANCH  17  18
ATOM     18  N   UNL A   1      29.169  29.840  23.669  1.00  0.00    -0.331 N 
ATOM     19  C   UNL A   1      28.022  29.837  22.793  1.00  0.00     0.291 C 
ATOM     20  C   UNL A   1      29.112  31.634  23.989  1.00  0.00     0.291 C 
ATOM     21  H   UNL A   1      29.708  29.672  24.519  1.00  0.00     0.348 HD
ATOM     22  C   UNL A   1      27.992  30.673  20.868  1.00  0.00     0.221 C 
ATOM     23  C   UNL A   1      28.762  33.112  22.738  1.00  0.00     0.221 C 
ATOM     24  O   UNL A   1      28.207  32.584  21.011  1.00  0.00    -0.370 OA
ENDBRANCH  17  18
ENDBRANCH  16  17
ENDBRANCH   8  16
ENDBRANCH   5   8
ENDBRANCH   3   4
ENDBRANCH   2   3
ENDBRANCH   1   2
BRANCH   1  25
ATOM     25  C   UNL A   1      32.045  30.395  26.912  1.00  0.00     0.002 C 
BRANCH  25  26
ATOM     26  C   UNL A   1      31.779  31.893  26.839  1.00  0.00     0.021 C 
BRANCH  26  27
ATOM     27  C   UNL A   1      32.941  32.719  27.360  1.00  0.00     0.116 C 
BRANCH  27  28
ATOM     28  N   UNL A   1      32.556  34.104  27.641  1.00  0.00    -0.352 N 
ATOM     29  C   UNL A   1      33.038  34.923  28.627  1.00  0.00     0.251 C 
ATOM     30  H   UNL A   1      31.870  34.492  27.051  1.00  0.00     0.163 HD
ATOM     31  O   UNL A   1      32.556  36.019  28.872  1.00  0.00    -0.269 OA
BRANCH  29  32
ATOM     32  C   UNL A   1      34.173  34.395  29.383  1.00  0.00     0.039 A 
ATOM     33  C   UNL A   1      33.939  33.498  30.421  1.00  0.00     0.014 A 
ATOM     34  C   UNL A   1      35.452  34.627  28.868  1.00  0.00     0.014 A 
ATOM     35  C   UNL A   1      35.016  32.788  30.934  1.00  0.00     0.010 A 
ATOM     36  C   UNL A   1      36.493  33.831  29.298  1.00  0.00     0.010 A 
ATOM     37  C   UNL A   1      36.290  32.931  30.356  1.00  0.00    -0.014 A 
BRANCH  37  38
ATOM     38  C   UNL A   1      37.461  32.216  30.898  1.00  0.00     0.031 A 
ATOM     39  C   UNL A   1      37.955  32.600  32.264  1.00  0.00     0.074 A 
ATOM     40  C   UNL A   1      38.091  31.290  30.154  1.00  0.00     0.049 A 
ATOM     41  N   UNL A   1      39.015  32.187  32.906  1.00  0.00    -0.248 NA
ATOM     42  C   UNL A   1      37.177  33.623  32.988  1.00  0.00     0.031 C 
ATOM     43  C   UNL A   1      37.721  30.893  28.793  1.00  0.00     0.029 A 
ATOM     44  N   UNL A   1      39.183  30.513  30.439  1.00  0.00    -0.354 N 
ATOM     45  C   UNL A   1      39.032  32.911  34.090  1.00  0.00     0.074 A 
ATOM     46  C   UNL A   1      37.941  33.853  34.042  1.00  0.00     0.031 C 
ATOM     47  C   UNL A   1      38.550  29.921  28.377  1.00  0.00     0.029 A 
ATOM     48  C   UNL A   1      39.528  29.653  29.426  1.00  0.00     0.049 A 
ATOM     49  H   UNL A   1      39.673  30.566  31.291  1.00  0.00     0.167 HD
ATOM     50  C   UNL A   1      39.858  32.763  35.150  1.00  0.00     0.037 A 
ATOM     51  C   UNL A   1      40.527  28.753  29.366  1.00  0.00     0.037 A 
ATOM     52  C   UNL A   1      40.906  31.786  35.203  1.00  0.00     0.049 A 
ATOM     53  C   UNL A   1      41.427  28.607  30.566  1.00  0.00     0.074 A 
ATOM     54  C   UNL A   1      41.785  31.515  36.234  1.00  0.00     0.029 A 
ATOM     55  N   UNL A   1      41.203  30.903  34.173  1.00  0.00    -0.354 N 
ATOM     56  N   UNL A   1      41.402  29.254  31.707  1.00  0.00    -0.248 NA
ATOM     57  C   UNL A   1      42.491  27.598  30.475  1.00  0.00     0.031 C 
ATOM     58  C   UNL A   1      42.635  30.486  35.818  1.00  0.00     0.029 A 
ATOM     59  C   UNL A   1      42.255  30.087  34.545  1.00  0.00     0.049 A 
ATOM     60  H   UNL A   1      40.734  30.864  33.308  1.00  0.00     0.167 HD
ATOM     61  C   UNL A   1      42.415  28.707  32.481  1.00  0.00     0.074 A 
ATOM     62  C   UNL A   1      43.026  27.662  31.686  1.00  0.00     0.031 C 
ATOM     63  C   UNL A   1      42.814  29.037  33.734  1.00  0.00     0.037 A 
BRANCH  50  64
ATOM     64  C   UNL A   1      39.629  33.648  36.338  1.00  0.00     0.064 A 
ATOM     65  C   UNL A   1      40.204  34.927  36.419  1.00  0.00     0.173 A 
ATOM     66  C   UNL A   1      38.805  33.230  37.393  1.00  0.00     0.173 A 
ATOM     67  F   UNL A   1      41.019  35.364  35.448  1.00  0.00    -0.203 F 
ATOM     68  C   UNL A   1      39.979  35.745  37.522  1.00  0.00     0.198 A 
ATOM     69  C   UNL A   1      38.556  34.065  38.479  1.00  0.00     0.198 A 
ATOM     70  F   UNL A   1      38.237  32.017  37.368  1.00  0.00    -0.203 F 
ATOM     71  F   UNL A   1      40.578  36.942  37.600  1.00  0.00    -0.200 F 
ATOM     72  C   UNL A   1      39.147  35.318  38.546  1.00  0.00     0.200 A 
ATOM     73  F   UNL A   1      37.745  33.656  39.465  1.00  0.00    -0.200 F 
ATOM     74  F   UNL A   1      38.920  36.113  39.601  1.00  0.00    -0.200 F 
ENDBRANCH  50  64
BRANCH  51  75
ATOM     75  C   UNL A   1      40.717  27.904  28.160  1.00  0.00     0.064 A 
ATOM     76  C   UNL A   1      40.159  26.620  28.086  1.00  0.00     0.173 A 
ATOM     77  C   UNL A   1      41.493  28.337  27.074  1.00  0.00     0.173 A 
ATOM     78  F   UNL A   1      39.418  26.153  29.102  1.00  0.00    -0.203 F 
ATOM     79  C   UNL A   1      40.406  25.786  26.997  1.00  0.00     0.198 A 
ATOM     80  C   UNL A   1      41.712  27.515  25.970  1.00  0.00     0.198 A 
ATOM     81  F   UNL A   1      42.042  29.561  27.086  1.00  0.00    -0.203 F 
ATOM     82  F   UNL A   1      39.915  24.539  26.988  1.00  0.00    -0.200 F 
ATOM     83  C   UNL A   1      41.180  26.234  25.940  1.00  0.00     0.200 A 
ATOM     84  F   UNL A   1      42.450  27.958  24.943  1.00  0.00    -0.200 F 
ATOM     85  F   UNL A   1      41.428  25.429  24.897  1.00  0.00    -0.200 F 
ENDBRANCH  51  75
BRANCH  63  86
ATOM     86  C   UNL A   1      43.923  28.225  34.334  1.00  0.00     0.064 A 
ATOM     87  C   UNL A   1      45.261  28.631  34.246  1.00  0.00     0.173 A 
ATOM     88  C   UNL A   1      43.631  27.056  35.052  1.00  0.00     0.173 A 
ATOM     89  F   UNL A   1      45.588  29.736  33.559  1.00  0.00    -0.203 F 
ATOM     90  C   UNL A   1      46.274  27.878  34.830  1.00  0.00     0.198 A 
ATOM     91  C   UNL A   1      44.641  26.324  35.664  1.00  0.00     0.198 A 
ATOM     92  F   UNL A   1      42.363  26.635  35.174  1.00  0.00    -0.203 F 
ATOM     93  F   UNL A   1      47.551  28.254  34.691  1.00  0.00    -0.200 F 
ATOM     94  C   UNL A   1      45.963  26.730  35.545  1.00  0.00     0.200 A 
ATOM     95  F   UNL A   1      44.338  25.226  36.370  1.00  0.00    -0.200 F 
ATOM     96  F   UNL A   1      46.938  26.011  36.117  1.00  0.00    -0.200 F 
ENDBRANCH  63  86
ENDBRANCH  37  38
ENDBRANCH  29  32
ENDBRANCH  27  28
ENDBRANCH  26  27
ENDBRANCH  25  26
ENDBRANCH   1  25
TORSDOF 17
ENDMDL
