MODEL 1
REMARK VINA RESULT:     -11.4      0.000      0.000
REMARK SMILES CS(=O)(=O)c1ccc(N2N=C(C(=O)NCCCCCCNC(=O)c3ccc(-c4c5nc(c(-c6c(F)c(F)c(F)c(F)c6F)c6ccc([nH]6)c(-c6c(F)c(F)c(F)c(F)c6F)c6nc(c(-c7c(F)c(F)c(F)c(F)c7F)c7ccc4[nH]7)C=C6)C=C5)cc3)C[C@H]2c2ccco2)cc1
REMARK SMILES IDX 17 1 16 2 15 3 14 4 12 5 13 6 11 8 9 9 10 10 88 11 87 12
REMARK SMILES IDX 8 13 5 14 6 15 95 16 7 17 94 18 2 19 1 20 3 21 4 22 89 23
REMARK SMILES IDX 90 24 93 25 91 26 92 27 18 28 19 29 20 30 21 31 22 32 23 34
REMARK SMILES IDX 24 35 25 36 86 37 26 38 85 39 27 40 28 41 29 42 79 43 30 44
REMARK SMILES IDX 84 45 78 46 80 47 31 48 83 49 77 50 76 51 32 53 64 54 44 55
REMARK SMILES IDX 63 56 45 57 48 58 62 59 81 60 46 61 47 62 61 64 82 65 49 66
REMARK SMILES IDX 33 67 34 68 42 69 35 70 36 71 40 72 43 73 37 74 38 75 41 76
REMARK SMILES IDX 39 77 65 78 66 79 74 80 67 81 68 82 72 83 75 84 69 85 70 86
REMARK SMILES IDX 73 87 71 88 50 89 51 90 59 91 52 92 53 93 57 94 60 95 54 96
REMARK SMILES IDX 55 97 58 98 56 99
REMARK H PARENT 14 7 21 33 80 52 48 63
REMARK Flexibility Score: inf
ROOT
ATOM      1  C   UNL A   1      41.454  21.108  27.686  1.00  0.00     0.002 C 
ENDROOT
BRANCH   1   2
ATOM      2  C   UNL A   1      40.251  21.083  26.742  1.00  0.00     0.021 C 
BRANCH   2   3
ATOM      3  C   UNL A   1      40.221  22.236  25.744  1.00  0.00     0.116 C 
BRANCH   3   4
ATOM      4  N   UNL A   1      39.775  23.460  26.375  1.00  0.00    -0.351 N 
ATOM      5  C   UNL A   1      38.556  24.072  26.517  1.00  0.00     0.267 C 
ATOM      6  O   UNL A   1      38.540  25.189  27.029  1.00  0.00    -0.268 OA
ATOM      7  H   UNL A   1      40.508  23.964  26.795  1.00  0.00     0.163 HD
BRANCH   5   8
ATOM      8  C   UNL A   1      37.235  23.430  26.125  1.00  0.00     0.128 C 
ATOM      9  N   UNL A   1      35.918  21.980  25.282  1.00  0.00    -0.254 N 
ATOM     10  N   UNL A   1      37.183  22.192  25.735  1.00  0.00    -0.171 NA
ATOM     11  C   UNL A   1      35.000  23.093  25.536  1.00  0.00     0.180 C 
ATOM     12  C   UNL A   1      35.931  24.151  26.130  1.00  0.00     0.099 C 
BRANCH   9  13
ATOM     13  C   UNL A   1      35.476  20.694  25.008  1.00  0.00     0.060 A 
ATOM     14  C   UNL A   1      34.537  18.090  24.525  1.00  0.00     0.067 A 
ATOM     15  C   UNL A   1      35.910  18.320  24.628  1.00  0.00     0.022 A 
ATOM     16  C   UNL A   1      33.634  19.146  24.632  1.00  0.00     0.022 A 
ATOM     17  C   UNL A   1      36.369  19.624  24.858  1.00  0.00     0.029 A 
ATOM     18  C   UNL A   1      34.108  20.437  24.860  1.00  0.00     0.029 A 
BRANCH  14  19
ATOM     19  S   UNL A   1      33.850  16.474  24.279  1.00  0.00     0.175 S 
ATOM     20  C   UNL A   1      32.509  16.291  25.416  1.00  0.00     0.163 C 
ATOM     21  O   UNL A   1      34.882  15.524  24.653  1.00  0.00    -0.224 OA
ATOM     22  O   UNL A   1      33.277  16.473  22.947  1.00  0.00    -0.224 OA
ENDBRANCH  14  19
ENDBRANCH   9  13
BRANCH  11  23
ATOM     23  C   UNL A   1      34.185  23.620  24.390  1.00  0.00     0.128 A 
ATOM     24  C   UNL A   1      34.426  23.699  23.031  1.00  0.00     0.048 A 
ATOM     25  O   UNL A   1      32.943  24.124  24.659  1.00  0.00    -0.467 OA
ATOM     26  C   UNL A   1      33.289  24.310  22.452  1.00  0.00     0.042 A 
ATOM     27  C   UNL A   1      32.406  24.531  23.482  1.00  0.00     0.195 A 
ENDBRANCH  11  23
ENDBRANCH   5   8
ENDBRANCH   3   4
ENDBRANCH   2   3
ENDBRANCH   1   2
BRANCH   1  28
ATOM     28  C   UNL A   1      42.283  19.818  27.709  1.00  0.00     0.002 C 
BRANCH  28  29
ATOM     29  C   UNL A   1      42.509  19.165  26.342  1.00  0.00     0.021 C 
BRANCH  29  30
ATOM     30  C   UNL A   1      43.915  18.621  26.127  1.00  0.00     0.116 C 
BRANCH  30  31
ATOM     31  N   UNL A   1      44.241  18.500  24.716  1.00  0.00    -0.352 N 
ATOM     32  C   UNL A   1      44.571  19.476  23.812  1.00  0.00     0.251 C 
ATOM     33  H   UNL A   1      44.223  17.582  24.358  1.00  0.00     0.163 HD
ATOM     34  O   UNL A   1      44.608  19.220  22.612  1.00  0.00    -0.269 OA
BRANCH  32  35
ATOM     35  C   UNL A   1      44.866  20.845  24.283  1.00  0.00     0.039 A 
ATOM     36  C   UNL A   1      44.515  21.925  23.470  1.00  0.00     0.014 A 
ATOM     37  C   UNL A   1      45.495  21.063  25.511  1.00  0.00     0.014 A 
ATOM     38  C   UNL A   1      44.747  23.228  23.915  1.00  0.00     0.010 A 
ATOM     39  C   UNL A   1      45.652  22.361  25.988  1.00  0.00     0.010 A 
ATOM     40  C   UNL A   1      45.286  23.457  25.192  1.00  0.00    -0.014 A 
BRANCH  40  41
ATOM     41  C   UNL A   1      45.470  24.837  25.708  1.00  0.00     0.031 A 
ATOM     42  C   UNL A   1      46.828  25.481  25.684  1.00  0.00     0.074 A 
ATOM     43  C   UNL A   1      44.422  25.489  26.246  1.00  0.00     0.049 A 
ATOM     44  N   UNL A   1      47.196  26.656  26.132  1.00  0.00    -0.248 NA
ATOM     45  C   UNL A   1      47.926  24.690  25.106  1.00  0.00     0.031 C 
ATOM     46  C   UNL A   1      43.066  24.953  26.368  1.00  0.00     0.029 A 
ATOM     47  N   UNL A   1      44.333  26.742  26.799  1.00  0.00    -0.354 N 
ATOM     48  C   UNL A   1      48.562  26.739  25.897  1.00  0.00     0.074 A 
ATOM     49  C   UNL A   1      48.971  25.475  25.325  1.00  0.00     0.031 C 
ATOM     50  C   UNL A   1      42.275  25.880  26.930  1.00  0.00     0.029 A 
ATOM     51  C   UNL A   1      43.075  27.057  27.249  1.00  0.00     0.049 A 
ATOM     52  H   UNL A   1      45.099  27.358  26.865  1.00  0.00     0.167 HD
ATOM     53  C   UNL A   1      49.395  27.786  26.115  1.00  0.00     0.037 A 
ATOM     54  C   UNL A   1      42.620  28.168  27.860  1.00  0.00     0.037 A 
ATOM     55  C   UNL A   1      48.979  29.047  26.671  1.00  0.00     0.049 A 
ATOM     56  C   UNL A   1      43.571  29.307  28.111  1.00  0.00     0.074 A 
ATOM     57  C   UNL A   1      49.733  30.188  26.881  1.00  0.00     0.029 A 
ATOM     58  N   UNL A   1      47.695  29.331  27.114  1.00  0.00    -0.354 N 
ATOM     59  N   UNL A   1      44.846  29.403  27.820  1.00  0.00    -0.248 NA
ATOM     60  C   UNL A   1      43.017  30.497  28.773  1.00  0.00     0.031 C 
ATOM     61  C   UNL A   1      48.921  31.140  27.507  1.00  0.00     0.029 A 
ATOM     62  C   UNL A   1      47.644  30.618  27.625  1.00  0.00     0.049 A 
ATOM     63  H   UNL A   1      46.932  28.710  27.071  1.00  0.00     0.167 HD
ATOM     64  C   UNL A   1      45.239  30.669  28.231  1.00  0.00     0.074 A 
ATOM     65  C   UNL A   1      44.062  31.313  28.778  1.00  0.00     0.031 C 
ATOM     66  C   UNL A   1      46.464  31.248  28.162  1.00  0.00     0.037 A 
BRANCH  53  67
ATOM     67  C   UNL A   1      50.844  27.608  25.755  1.00  0.00     0.064 A 
ATOM     68  C   UNL A   1      51.796  27.198  26.701  1.00  0.00     0.173 A 
ATOM     69  C   UNL A   1      51.279  27.816  24.437  1.00  0.00     0.173 A 
ATOM     70  F   UNL A   1      51.436  26.996  27.978  1.00  0.00    -0.203 F 
ATOM     71  C   UNL A   1      53.134  27.038  26.350  1.00  0.00     0.198 A 
ATOM     72  C   UNL A   1      52.613  27.620  24.082  1.00  0.00     0.198 A 
ATOM     73  F   UNL A   1      50.412  28.202  23.489  1.00  0.00    -0.203 F 
ATOM     74  F   UNL A   1      54.033  26.702  27.286  1.00  0.00    -0.200 F 
ATOM     75  C   UNL A   1      53.540  27.241  25.040  1.00  0.00     0.200 A 
ATOM     76  F   UNL A   1      52.999  27.802  22.812  1.00  0.00    -0.200 F 
ATOM     77  F   UNL A   1      54.826  27.079  24.703  1.00  0.00    -0.200 F 
ENDBRANCH  53  67
BRANCH  54  78
ATOM     78  C   UNL A   1      41.191  28.265  28.257  1.00  0.00     0.064 A 
ATOM     79  C   UNL A   1      40.241  28.842  27.401  1.00  0.00     0.173 A 
ATOM     80  C   UNL A   1      40.744  27.790  29.500  1.00  0.00     0.173 A 
ATOM     81  F   UNL A   1      40.622  29.327  26.211  1.00  0.00    -0.203 F 
ATOM     82  C   UNL A   1      38.907  28.962  27.783  1.00  0.00     0.198 A 
ATOM     83  C   UNL A   1      39.403  27.881  29.866  1.00  0.00     0.198 A 
ATOM     84  F   UNL A   1      41.610  27.224  30.354  1.00  0.00    -0.203 F 
ATOM     85  F   UNL A   1      38.031  29.563  26.966  1.00  0.00    -0.200 F 
ATOM     86  C   UNL A   1      38.487  28.475  29.011  1.00  0.00     0.200 A 
ATOM     87  F   UNL A   1      38.999  27.394  31.047  1.00  0.00    -0.200 F 
ATOM     88  F   UNL A   1      37.202  28.586  29.375  1.00  0.00    -0.200 F 
ENDBRANCH  54  78
BRANCH  66  89
ATOM     89  C   UNL A   1      46.587  32.662  28.656  1.00  0.00     0.064 A 
ATOM     90  C   UNL A   1      46.935  32.955  29.984  1.00  0.00     0.173 A 
ATOM     91  C   UNL A   1      46.387  33.739  27.779  1.00  0.00     0.173 A 
ATOM     92  F   UNL A   1      47.123  31.963  30.867  1.00  0.00    -0.203 F 
ATOM     93  C   UNL A   1      47.047  34.272  30.421  1.00  0.00     0.198 A 
ATOM     94  C   UNL A   1      46.536  35.054  28.210  1.00  0.00     0.198 A 
ATOM     95  F   UNL A   1      46.060  33.515  26.497  1.00  0.00    -0.203 F 
ATOM     96  F   UNL A   1      47.324  34.528  31.707  1.00  0.00    -0.200 F 
ATOM     97  C   UNL A   1      46.856  35.319  29.532  1.00  0.00     0.200 A 
ATOM     98  F   UNL A   1      46.368  36.064  27.345  1.00  0.00    -0.200 F 
ATOM     99  F   UNL A   1      46.972  36.587  29.952  1.00  0.00    -0.200 F 
ENDBRANCH  66  89
ENDBRANCH  40  41
ENDBRANCH  32  35
ENDBRANCH  30  31
ENDBRANCH  29  30
ENDBRANCH  28  29
ENDBRANCH   1  28
TORSDOF 16
ENDMDL
MODEL 2
REMARK VINA RESULT:     -11.3      1.707      3.577
REMARK SMILES CS(=O)(=O)c1ccc(N2N=C(C(=O)NCCCCCCNC(=O)c3ccc(-c4c5nc(c(-c6c(F)c(F)c(F)c(F)c6F)c6ccc([nH]6)c(-c6c(F)c(F)c(F)c(F)c6F)c6nc(c(-c7c(F)c(F)c(F)c(F)c7F)c7ccc4[nH]7)C=C6)C=C5)cc3)C[C@H]2c2ccco2)cc1
REMARK SMILES IDX 17 1 16 2 15 3 14 4 12 5 13 6 11 8 9 9 10 10 88 11 87 12
REMARK SMILES IDX 8 13 5 14 6 15 95 16 7 17 94 18 2 19 1 20 3 21 4 22 89 23
REMARK SMILES IDX 90 24 93 25 91 26 92 27 18 28 19 29 20 30 21 31 22 32 23 34
REMARK SMILES IDX 24 35 25 36 86 37 26 38 85 39 27 40 28 41 29 42 79 43 30 44
REMARK SMILES IDX 84 45 78 46 80 47 31 48 83 49 77 50 76 51 32 53 64 54 44 55
REMARK SMILES IDX 63 56 45 57 48 58 62 59 81 60 46 61 47 62 61 64 82 65 49 66
REMARK SMILES IDX 33 67 34 68 42 69 35 70 36 71 40 72 43 73 37 74 38 75 41 76
REMARK SMILES IDX 39 77 65 78 66 79 74 80 67 81 68 82 72 83 75 84 69 85 70 86
REMARK SMILES IDX 73 87 71 88 50 89 51 90 59 91 52 92 53 93 57 94 60 95 54 96
REMARK SMILES IDX 55 97 58 98 56 99
REMARK H PARENT 14 7 21 33 80 52 48 63
REMARK Flexibility Score: inf
ROOT
ATOM      1  C   UNL A   1      41.244  20.581  27.017  1.00  0.00     0.002 C 
ENDROOT
BRANCH   1   2
ATOM      2  C   UNL A   1      40.071  19.944  26.269  1.00  0.00     0.021 C 
BRANCH   2   3
ATOM      3  C   UNL A   1      39.250  20.932  25.448  1.00  0.00     0.116 C 
BRANCH   3   4
ATOM      4  N   UNL A   1      39.151  22.211  26.119  1.00  0.00    -0.351 N 
ATOM      5  C   UNL A   1      38.269  23.260  26.051  1.00  0.00     0.267 C 
ATOM      6  O   UNL A   1      38.541  24.270  26.693  1.00  0.00    -0.268 OA
ATOM      7  H   UNL A   1      39.876  22.362  26.765  1.00  0.00     0.163 HD
BRANCH   5   8
ATOM      8  C   UNL A   1      36.964  23.220  25.271  1.00  0.00     0.128 C 
ATOM      9  N   UNL A   1      34.995  23.792  24.687  1.00  0.00    -0.254 N 
ATOM     10  N   UNL A   1      36.122  24.207  25.325  1.00  0.00    -0.171 NA
ATOM     11  C   UNL A   1      35.137  22.504  24.003  1.00  0.00     0.180 C 
ATOM     12  C   UNL A   1      36.543  22.069  24.423  1.00  0.00     0.099 C 
BRANCH   9  13
ATOM     13  C   UNL A   1      33.991  24.697  24.374  1.00  0.00     0.060 A 
ATOM     14  C   UNL A   1      31.900  26.469  23.753  1.00  0.00     0.067 A 
ATOM     15  C   UNL A   1      32.885  26.203  22.801  1.00  0.00     0.022 A 
ATOM     16  C   UNL A   1      31.964  25.884  25.017  1.00  0.00     0.022 A 
ATOM     17  C   UNL A   1      33.930  25.326  23.123  1.00  0.00     0.029 A 
ATOM     18  C   UNL A   1      33.010  25.015  25.321  1.00  0.00     0.029 A 
BRANCH  14  19
ATOM     19  S   UNL A   1      30.514  27.527  23.432  1.00  0.00     0.175 S 
ATOM     20  C   UNL A   1      29.054  26.631  23.866  1.00  0.00     0.163 C 
ATOM     21  O   UNL A   1      30.488  27.752  21.999  1.00  0.00    -0.224 OA
ATOM     22  O   UNL A   1      30.622  28.634  24.363  1.00  0.00    -0.224 OA
ENDBRANCH  14  19
ENDBRANCH   9  13
BRANCH  11  23
ATOM     23  C   UNL A   1      34.105  21.444  24.261  1.00  0.00     0.128 A 
ATOM     24  C   UNL A   1      32.740  21.397  24.050  1.00  0.00     0.048 A 
ATOM     25  O   UNL A   1      34.520  20.256  24.796  1.00  0.00    -0.467 OA
ATOM     26  C   UNL A   1      32.301  20.133  24.507  1.00  0.00     0.042 A 
ATOM     27  C   UNL A   1      33.425  19.468  24.934  1.00  0.00     0.195 A 
ENDBRANCH  11  23
ENDBRANCH   5   8
ENDBRANCH   3   4
ENDBRANCH   2   3
ENDBRANCH   1   2
BRANCH   1  28
ATOM     28  C   UNL A   1      42.279  19.588  27.559  1.00  0.00     0.002 C 
BRANCH  28  29
ATOM     29  C   UNL A   1      42.766  18.542  26.552  1.00  0.00     0.021 C 
BRANCH  29  30
ATOM     30  C   UNL A   1      44.231  18.681  26.154  1.00  0.00     0.116 C 
BRANCH  30  31
ATOM     31  N   UNL A   1      44.409  18.638  24.713  1.00  0.00    -0.352 N 
ATOM     32  C   UNL A   1      44.611  19.666  23.830  1.00  0.00     0.251 C 
ATOM     33  H   UNL A   1      44.381  17.739  24.313  1.00  0.00     0.163 HD
ATOM     34  O   UNL A   1      44.528  19.468  22.621  1.00  0.00    -0.269 OA
BRANCH  32  35
ATOM     35  C   UNL A   1      44.912  21.022  24.335  1.00  0.00     0.039 A 
ATOM     36  C   UNL A   1      44.627  22.121  23.522  1.00  0.00     0.014 A 
ATOM     37  C   UNL A   1      45.482  21.208  25.597  1.00  0.00     0.014 A 
ATOM     38  C   UNL A   1      44.866  23.412  23.998  1.00  0.00     0.010 A 
ATOM     39  C   UNL A   1      45.644  22.495  26.101  1.00  0.00     0.010 A 
ATOM     40  C   UNL A   1      45.344  23.611  25.303  1.00  0.00    -0.014 A 
BRANCH  40  41
ATOM     41  C   UNL A   1      45.533  24.978  25.849  1.00  0.00     0.031 A 
ATOM     42  C   UNL A   1      46.893  25.618  25.840  1.00  0.00     0.074 A 
ATOM     43  C   UNL A   1      44.486  25.622  26.400  1.00  0.00     0.049 A 
ATOM     44  N   UNL A   1      47.264  26.782  26.313  1.00  0.00    -0.248 NA
ATOM     45  C   UNL A   1      47.988  24.836  25.246  1.00  0.00     0.031 C 
ATOM     46  C   UNL A   1      43.128  25.089  26.509  1.00  0.00     0.029 A 
ATOM     47  N   UNL A   1      44.401  26.864  26.979  1.00  0.00    -0.354 N 
ATOM     48  C   UNL A   1      48.631  26.865  26.081  1.00  0.00     0.074 A 
ATOM     49  C   UNL A   1      49.036  25.612  25.483  1.00  0.00     0.031 C 
ATOM     50  C   UNL A   1      42.340  26.006  27.089  1.00  0.00     0.029 A 
ATOM     51  C   UNL A   1      43.144  27.174  27.435  1.00  0.00     0.049 A 
ATOM     52  H   UNL A   1      45.169  27.475  27.059  1.00  0.00     0.167 HD
ATOM     53  C   UNL A   1      49.467  27.904  26.322  1.00  0.00     0.037 A 
ATOM     54  C   UNL A   1      42.692  28.274  28.068  1.00  0.00     0.037 A 
ATOM     55  C   UNL A   1      49.055  29.155  26.904  1.00  0.00     0.049 A 
ATOM     56  C   UNL A   1      43.646  29.404  28.345  1.00  0.00     0.074 A 
ATOM     57  C   UNL A   1      49.812  30.288  27.139  1.00  0.00     0.029 A 
ATOM     58  N   UNL A   1      47.771  29.434  27.352  1.00  0.00    -0.354 N 
ATOM     59  N   UNL A   1      44.922  29.500  28.057  1.00  0.00    -0.248 NA
ATOM     60  C   UNL A   1      43.096  30.581  29.031  1.00  0.00     0.031 C 
ATOM     61  C   UNL A   1      49.004  31.230  27.784  1.00  0.00     0.029 A 
ATOM     62  C   UNL A   1      47.724  30.710  27.890  1.00  0.00     0.049 A 
ATOM     63  H   UNL A   1      47.007  28.816  27.295  1.00  0.00     0.167 HD
ATOM     64  C   UNL A   1      45.319  30.756  28.495  1.00  0.00     0.074 A 
ATOM     65  C   UNL A   1      44.144  31.393  29.054  1.00  0.00     0.031 C 
ATOM     66  C   UNL A   1      46.546  31.332  28.440  1.00  0.00     0.037 A 
BRANCH  53  67
ATOM     67  C   UNL A   1      50.916  27.729  25.959  1.00  0.00     0.064 A 
ATOM     68  C   UNL A   1      51.384  27.952  24.655  1.00  0.00     0.173 A 
ATOM     69  C   UNL A   1      51.855  27.367  26.938  1.00  0.00     0.173 A 
ATOM     70  F   UNL A   1      50.527  28.290  23.678  1.00  0.00    -0.203 F 
ATOM     71  C   UNL A   1      52.729  27.786  24.337  1.00  0.00     0.198 A 
ATOM     72  C   UNL A   1      53.205  27.236  26.622  1.00  0.00     0.198 A 
ATOM     73  F   UNL A   1      51.465  27.147  28.202  1.00  0.00    -0.203 F 
ATOM     74  F   UNL A   1      53.140  27.949  23.071  1.00  0.00    -0.200 F 
ATOM     75  C   UNL A   1      53.640  27.435  25.322  1.00  0.00     0.200 A 
ATOM     76  F   UNL A   1      54.086  26.913  27.580  1.00  0.00    -0.200 F 
ATOM     77  F   UNL A   1      54.935  27.283  25.015  1.00  0.00    -0.200 F 
ENDBRANCH  53  67
BRANCH  54  78
ATOM     78  C   UNL A   1      41.262  28.367  28.466  1.00  0.00     0.064 A 
ATOM     79  C   UNL A   1      40.830  27.909  29.719  1.00  0.00     0.173 A 
ATOM     80  C   UNL A   1      40.298  28.906  27.602  1.00  0.00     0.173 A 
ATOM     81  F   UNL A   1      41.712  27.367  30.573  1.00  0.00    -0.203 F 
ATOM     82  C   UNL A   1      39.487  27.967  30.083  1.00  0.00     0.198 A 
ATOM     83  C   UNL A   1      38.959  28.994  27.981  1.00  0.00     0.198 A 
ATOM     84  F   UNL A   1      40.658  29.364  26.394  1.00  0.00    -0.203 F 
ATOM     85  F   UNL A   1      39.095  27.476  31.267  1.00  0.00    -0.200 F 
ATOM     86  C   UNL A   1      38.554  28.515  29.217  1.00  0.00     0.200 A 
ATOM     87  F   UNL A   1      38.064  29.540  27.147  1.00  0.00    -0.200 F 
ATOM     88  F   UNL A   1      37.263  28.575  29.570  1.00  0.00    -0.200 F 
ENDBRANCH  54  78
BRANCH  66  89
ATOM     89  C   UNL A   1      46.674  32.735  28.964  1.00  0.00     0.064 A 
ATOM     90  C   UNL A   1      47.039  32.999  30.293  1.00  0.00     0.173 A 
ATOM     91  C   UNL A   1      46.461  33.831  28.113  1.00  0.00     0.173 A 
ATOM     92  F   UNL A   1      47.240  31.987  31.151  1.00  0.00    -0.203 F 
ATOM     93  C   UNL A   1      47.155  34.306  30.758  1.00  0.00     0.198 A 
ATOM     94  C   UNL A   1      46.614  35.136  28.572  1.00  0.00     0.198 A 
ATOM     95  F   UNL A   1      46.118  33.635  26.831  1.00  0.00    -0.203 F 
ATOM     96  F   UNL A   1      47.449  34.533  32.046  1.00  0.00    -0.200 F 
ATOM     97  C   UNL A   1      46.951  35.373  29.895  1.00  0.00     0.200 A 
ATOM     98  F   UNL A   1      46.433  36.165  27.732  1.00  0.00    -0.200 F 
ATOM     99  F   UNL A   1      47.071  36.631  30.342  1.00  0.00    -0.200 F 
ENDBRANCH  66  89
ENDBRANCH  40  41
ENDBRANCH  32  35
ENDBRANCH  30  31
ENDBRANCH  29  30
ENDBRANCH  28  29
ENDBRANCH   1  28
TORSDOF 16
ENDMDL
MODEL 3
REMARK VINA RESULT:     -11.2      7.319     13.375
REMARK SMILES CS(=O)(=O)c1ccc(N2N=C(C(=O)NCCCCCCNC(=O)c3ccc(-c4c5nc(c(-c6c(F)c(F)c(F)c(F)c6F)c6ccc([nH]6)c(-c6c(F)c(F)c(F)c(F)c6F)c6nc(c(-c7c(F)c(F)c(F)c(F)c7F)c7ccc4[nH]7)C=C6)C=C5)cc3)C[C@H]2c2ccco2)cc1
REMARK SMILES IDX 17 1 16 2 15 3 14 4 12 5 13 6 11 8 9 9 10 10 88 11 87 12
REMARK SMILES IDX 8 13 5 14 6 15 95 16 7 17 94 18 2 19 1 20 3 21 4 22 89 23
REMARK SMILES IDX 90 24 93 25 91 26 92 27 18 28 19 29 20 30 21 31 22 32 23 34
REMARK SMILES IDX 24 35 25 36 86 37 26 38 85 39 27 40 28 41 29 42 79 43 30 44
REMARK SMILES IDX 84 45 78 46 80 47 31 48 83 49 77 50 76 51 32 53 64 54 44 55
REMARK SMILES IDX 63 56 45 57 48 58 62 59 81 60 46 61 47 62 61 64 82 65 49 66
REMARK SMILES IDX 33 67 34 68 42 69 35 70 36 71 40 72 43 73 37 74 38 75 41 76
REMARK SMILES IDX 39 77 65 78 66 79 74 80 67 81 68 82 72 83 75 84 69 85 70 86
REMARK SMILES IDX 73 87 71 88 50 89 51 90 59 91 52 92 53 93 57 94 60 95 54 96
REMARK SMILES IDX 55 97 58 98 56 99
REMARK H PARENT 14 7 21 33 80 52 48 63
REMARK Flexibility Score: inf
ROOT
ATOM      1  C   UNL A   1      37.713  32.530  40.437  1.00  0.00     0.002 C 
ENDROOT
BRANCH   1   2
ATOM      2  C   UNL A   1      36.745  32.470  39.253  1.00  0.00     0.021 C 
BRANCH   2   3
ATOM      3  C   UNL A   1      37.402  32.726  37.901  1.00  0.00     0.116 C 
BRANCH   3   4
ATOM      4  N   UNL A   1      38.172  31.578  37.470  1.00  0.00    -0.351 N 
ATOM      5  C   UNL A   1      38.412  30.989  36.255  1.00  0.00     0.267 C 
ATOM      6  O   UNL A   1      39.039  29.934  36.251  1.00  0.00    -0.268 OA
ATOM      7  H   UNL A   1      38.623  31.118  38.214  1.00  0.00     0.163 HD
BRANCH   5   8
ATOM      8  C   UNL A   1      37.989  31.592  34.924  1.00  0.00     0.128 C 
ATOM      9  N   UNL A   1      36.718  32.551  33.506  1.00  0.00    -0.254 N 
ATOM     10  N   UNL A   1      36.923  32.330  34.832  1.00  0.00    -0.171 NA
ATOM     11  C   UNL A   1      37.807  32.080  32.647  1.00  0.00     0.180 C 
ATOM     12  C   UNL A   1      38.725  31.375  33.647  1.00  0.00     0.099 C 
BRANCH   9  13
ATOM     13  C   UNL A   1      35.789  33.493  33.087  1.00  0.00     0.060 A 
ATOM     14  C   UNL A   1      33.857  35.375  32.299  1.00  0.00     0.067 A 
ATOM     15  C   UNL A   1      34.279  34.400  31.395  1.00  0.00     0.022 A 
ATOM     16  C   UNL A   1      34.408  35.437  33.578  1.00  0.00     0.022 A 
ATOM     17  C   UNL A   1      35.251  33.472  31.793  1.00  0.00     0.029 A 
ATOM     18  C   UNL A   1      35.374  34.507  33.958  1.00  0.00     0.029 A 
BRANCH  14  19
ATOM     19  S   UNL A   1      32.603  36.567  31.911  1.00  0.00     0.175 S 
ATOM     20  C   UNL A   1      31.129  36.078  32.756  1.00  0.00     0.163 C 
ATOM     21  O   UNL A   1      32.355  36.458  30.486  1.00  0.00    -0.224 OA
ATOM     22  O   UNL A   1      33.033  37.819  32.504  1.00  0.00    -0.224 OA
ENDBRANCH  14  19
ENDBRANCH   9  13
BRANCH  11  23
ATOM     23  C   UNL A   1      37.461  31.213  31.471  1.00  0.00     0.128 A 
ATOM     24  C   UNL A   1      36.682  30.078  31.344  1.00  0.00     0.048 A 
ATOM     25  O   UNL A   1      37.966  31.554  30.247  1.00  0.00    -0.467 OA
ATOM     26  C   UNL A   1      36.743  29.694  29.983  1.00  0.00     0.042 A 
ATOM     27  C   UNL A   1      37.521  30.636  29.354  1.00  0.00     0.195 A 
ENDBRANCH  11  23
ENDBRANCH   5   8
ENDBRANCH   3   4
ENDBRANCH   2   3
ENDBRANCH   1   2
BRANCH   1  28
ATOM     28  C   UNL A   1      38.669  33.729  40.428  1.00  0.00     0.002 C 
BRANCH  28  29
ATOM     29  C   UNL A   1      40.158  33.374  40.398  1.00  0.00     0.021 C 
BRANCH  29  30
ATOM     30  C   UNL A   1      41.093  34.574  40.329  1.00  0.00     0.116 C 
BRANCH  30  31
ATOM     31  N   UNL A   1      40.388  35.793  39.972  1.00  0.00    -0.352 N 
ATOM     32  C   UNL A   1      40.284  36.414  38.755  1.00  0.00     0.251 C 
ATOM     33  H   UNL A   1      39.917  36.238  40.714  1.00  0.00     0.163 HD
ATOM     34  O   UNL A   1      39.826  37.551  38.678  1.00  0.00    -0.269 OA
BRANCH  32  35
ATOM     35  C   UNL A   1      40.740  35.720  37.533  1.00  0.00     0.039 A 
ATOM     36  C   UNL A   1      42.106  35.695  37.244  1.00  0.00     0.014 A 
ATOM     37  C   UNL A   1      39.825  35.107  36.671  1.00  0.00     0.014 A 
ATOM     38  C   UNL A   1      42.560  35.008  36.116  1.00  0.00     0.010 A 
ATOM     39  C   UNL A   1      40.286  34.356  35.594  1.00  0.00     0.010 A 
ATOM     40  C   UNL A   1      41.658  34.305  35.301  1.00  0.00    -0.014 A 
BRANCH  40  41
ATOM     41  C   UNL A   1      42.134  33.510  34.141  1.00  0.00     0.031 A 
ATOM     42  C   UNL A   1      42.350  32.029  34.274  1.00  0.00     0.074 A 
ATOM     43  C   UNL A   1      42.420  34.134  32.983  1.00  0.00     0.049 A 
ATOM     44  N   UNL A   1      42.805  31.175  33.390  1.00  0.00    -0.248 NA
ATOM     45  C   UNL A   1      42.041  31.429  35.582  1.00  0.00     0.031 C 
ATOM     46  C   UNL A   1      42.294  35.573  32.744  1.00  0.00     0.029 A 
ATOM     47  N   UNL A   1      42.883  33.640  31.788  1.00  0.00    -0.354 N 
ATOM     48  C   UNL A   1      42.843  29.947  34.036  1.00  0.00     0.074 A 
ATOM     49  C   UNL A   1      42.426  30.174  35.402  1.00  0.00     0.031 C 
ATOM     50  C   UNL A   1      42.641  35.841  31.476  1.00  0.00     0.029 A 
ATOM     51  C   UNL A   1      43.057  34.603  30.825  1.00  0.00     0.049 A 
ATOM     52  H   UNL A   1      43.071  32.685  31.637  1.00  0.00     0.167 HD
ATOM     53  C   UNL A   1      43.173  28.734  33.528  1.00  0.00     0.037 A 
ATOM     54  C   UNL A   1      43.511  34.500  29.561  1.00  0.00     0.037 A 
ATOM     55  C   UNL A   1      43.573  28.513  32.162  1.00  0.00     0.049 A 
ATOM     56  C   UNL A   1      43.892  33.145  29.028  1.00  0.00     0.074 A 
ATOM     57  C   UNL A   1      43.874  27.317  31.536  1.00  0.00     0.029 A 
ATOM     58  N   UNL A   1      43.737  29.512  31.214  1.00  0.00    -0.354 N 
ATOM     59  N   UNL A   1      43.857  31.979  29.626  1.00  0.00    -0.248 NA
ATOM     60  C   UNL A   1      44.371  33.092  27.640  1.00  0.00     0.031 C 
ATOM     61  C   UNL A   1      44.279  27.599  30.227  1.00  0.00     0.029 A 
ATOM     62  C   UNL A   1      44.165  28.963  30.017  1.00  0.00     0.049 A 
ATOM     63  H   UNL A   1      43.573  30.471  31.369  1.00  0.00     0.167 HD
ATOM     64  C   UNL A   1      44.277  31.052  28.683  1.00  0.00     0.074 A 
ATOM     65  C   UNL A   1      44.546  31.789  27.465  1.00  0.00     0.031 C 
ATOM     66  C   UNL A   1      44.426  29.709  28.811  1.00  0.00     0.037 A 
BRANCH  53  67
ATOM     67  C   UNL A   1      43.118  27.553  34.456  1.00  0.00     0.064 A 
ATOM     68  C   UNL A   1      44.245  27.124  35.174  1.00  0.00     0.173 A 
ATOM     69  C   UNL A   1      41.912  26.863  34.658  1.00  0.00     0.173 A 
ATOM     70  F   UNL A   1      45.425  27.741  35.011  1.00  0.00    -0.203 F 
ATOM     71  C   UNL A   1      44.176  26.028  36.030  1.00  0.00     0.198 A 
ATOM     72  C   UNL A   1      41.840  25.789  35.543  1.00  0.00     0.198 A 
ATOM     73  F   UNL A   1      40.801  27.233  34.003  1.00  0.00    -0.203 F 
ATOM     74  F   UNL A   1      45.281  25.602  36.659  1.00  0.00    -0.200 F 
ATOM     75  C   UNL A   1      42.973  25.366  36.220  1.00  0.00     0.200 A 
ATOM     76  F   UNL A   1      40.671  25.161  35.736  1.00  0.00    -0.200 F 
ATOM     77  F   UNL A   1      42.907  24.316  37.050  1.00  0.00    -0.200 F 
ENDBRANCH  53  67
BRANCH  54  78
ATOM     78  C   UNL A   1      43.610  35.712  28.706  1.00  0.00     0.064 A 
ATOM     79  C   UNL A   1      44.817  36.416  28.588  1.00  0.00     0.173 A 
ATOM     80  C   UNL A   1      42.501  36.198  27.997  1.00  0.00     0.173 A 
ATOM     81  F   UNL A   1      45.900  36.002  29.263  1.00  0.00    -0.203 F 
ATOM     82  C   UNL A   1      44.905  37.570  27.813  1.00  0.00     0.198 A 
ATOM     83  C   UNL A   1      42.600  37.333  27.195  1.00  0.00     0.198 A 
ATOM     84  F   UNL A   1      41.324  35.559  28.069  1.00  0.00    -0.203 F 
ATOM     85  F   UNL A   1      46.059  38.250  27.759  1.00  0.00    -0.200 F 
ATOM     86  C   UNL A   1      43.799  38.023  27.112  1.00  0.00     0.200 A 
ATOM     87  F   UNL A   1      41.532  37.759  26.505  1.00  0.00    -0.200 F 
ATOM     88  F   UNL A   1      43.887  39.131  26.362  1.00  0.00    -0.200 F 
ENDBRANCH  54  78
BRANCH  66  89
ATOM     89  C   UNL A   1      44.865  28.945  27.594  1.00  0.00     0.064 A 
ATOM     90  C   UNL A   1      46.222  28.786  27.270  1.00  0.00     0.173 A 
ATOM     91  C   UNL A   1      43.917  28.334  26.760  1.00  0.00     0.173 A 
ATOM     92  F   UNL A   1      47.169  29.362  28.026  1.00  0.00    -0.203 F 
ATOM     93  C   UNL A   1      46.609  28.071  26.139  1.00  0.00     0.198 A 
ATOM     94  C   UNL A   1      44.309  27.589  25.651  1.00  0.00     0.198 A 
ATOM     95  F   UNL A   1      42.607  28.447  27.029  1.00  0.00    -0.203 F 
ATOM     96  F   UNL A   1      47.907  27.981  25.818  1.00  0.00    -0.200 F 
ATOM     97  C   UNL A   1      45.653  27.466  25.337  1.00  0.00     0.200 A 
ATOM     98  F   UNL A   1      43.384  26.991  24.887  1.00  0.00    -0.200 F 
ATOM     99  F   UNL A   1      46.027  26.771  24.253  1.00  0.00    -0.200 F 
ENDBRANCH  66  89
ENDBRANCH  40  41
ENDBRANCH  32  35
ENDBRANCH  30  31
ENDBRANCH  29  30
ENDBRANCH  28  29
ENDBRANCH   1  28
TORSDOF 16
ENDMDL
