MODEL 1
REMARK VINA RESULT:     -10.6      0.000      0.000
REMARK SMILES COc1cc(F)ccc1NCC(C)(C)C(=O)NCCCCCCNC(=O)c1ccc(-c2c3nc(c(-c4c(F)c(F)c(F)c(F)c4F)c4ccc([nH]4)c(-c4c(F)c(F)c(F)c(F)c4F)c4nc(c(-c5c(F)c(F)c(F)c(F)c5F)c5ccc2[nH]5)C=C4)C=C3)cc1
REMARK SMILES IDX 19 1 18 2 17 3 15 4 16 5 12 7 13 8 14 9 11 10 10 11 9 13
REMARK SMILES IDX 3 14 4 15 5 16 8 17 6 18 7 19 2 20 1 21 20 22 21 23 22 24
REMARK SMILES IDX 23 25 24 26 25 27 26 29 27 30 28 31 89 32 29 33 88 34 30 35
REMARK SMILES IDX 31 36 32 37 82 38 33 39 87 40 81 41 83 42 34 43 86 44 80 45
REMARK SMILES IDX 79 46 35 48 67 49 47 50 66 51 48 52 51 53 65 54 84 55 49 56
REMARK SMILES IDX 50 57 64 59 85 60 52 61 36 62 37 63 45 64 38 65 39 66 43 67
REMARK SMILES IDX 46 68 40 69 41 70 44 71 42 72 68 73 69 74 77 75 70 76 71 77
REMARK SMILES IDX 75 78 78 79 72 80 73 81 76 82 74 83 53 84 54 85 62 86 55 87
REMARK SMILES IDX 56 88 60 89 63 90 57 91 58 92 61 93 59 94
REMARK H PARENT 17 6 10 12 24 28 83 47 51 58
REMARK Flexibility Score: inf
ROOT
ATOM      1  C   UNL A   1      33.046  21.108  25.147  1.00  0.00     0.021 C 
ENDROOT
BRANCH   1   2
ATOM      2  C   UNL A   1      32.205  21.878  24.126  1.00  0.00     0.116 C 
BRANCH   2   3
ATOM      3  N   UNL A   1      33.060  22.501  23.137  1.00  0.00    -0.356 N 
ATOM      4  C   UNL A   1      32.965  23.677  22.460  1.00  0.00     0.227 C 
ATOM      5  O   UNL A   1      33.575  23.707  21.388  1.00  0.00    -0.274 OA
ATOM      6  H   UNL A   1      33.860  21.975  22.912  1.00  0.00     0.163 HD
BRANCH   4   7
ATOM      7  C   UNL A   1      32.103  24.854  22.958  1.00  0.00     0.061 C 
ATOM      8  C   UNL A   1      30.654  24.433  23.267  1.00  0.00     0.023 C 
ATOM      9  C   UNL A   1      32.135  25.980  21.906  1.00  0.00     0.023 C 
BRANCH   7  10
ATOM     10  C   UNL A   1      32.730  25.457  24.250  1.00  0.00     0.129 C 
BRANCH  10  11
ATOM     11  N   UNL A   1      33.272  26.796  24.085  1.00  0.00    -0.381 N 
ATOM     12  H   UNL A   1      33.666  27.011  23.209  1.00  0.00     0.160 HD
BRANCH  11  13
ATOM     13  C   UNL A   1      33.289  27.802  25.043  1.00  0.00     0.077 A 
ATOM     14  C   UNL A   1      32.611  29.016  24.774  1.00  0.00     0.144 A 
ATOM     15  C   UNL A   1      32.583  30.053  25.713  1.00  0.00     0.087 A 
ATOM     16  C   UNL A   1      33.264  29.902  26.911  1.00  0.00     0.127 A 
ATOM     17  C   UNL A   1      33.965  27.695  26.267  1.00  0.00     0.032 A 
ATOM     18  F   UNL A   1      33.244  30.895  27.811  1.00  0.00    -0.207 F 
ATOM     19  C   UNL A   1      33.958  28.738  27.197  1.00  0.00     0.041 A 
BRANCH  14  20
ATOM     20  O   UNL A   1      31.927  29.088  23.578  1.00  0.00    -0.494 OA
ATOM     21  C   UNL A   1      30.530  28.836  23.706  1.00  0.00     0.278 C 
ENDBRANCH  14  20
ENDBRANCH  11  13
ENDBRANCH  10  11
ENDBRANCH   7  10
ENDBRANCH   4   7
ENDBRANCH   2   3
ENDBRANCH   1   2
BRANCH   1  22
ATOM     22  C   UNL A   1      34.561  21.258  24.955  1.00  0.00     0.002 C 
BRANCH  22  23
ATOM     23  C   UNL A   1      35.291  21.988  26.088  1.00  0.00     0.002 C 
BRANCH  23  24
ATOM     24  C   UNL A   1      35.594  23.465  25.820  1.00  0.00     0.021 C 
BRANCH  24  25
ATOM     25  C   UNL A   1      36.915  23.726  25.103  1.00  0.00     0.116 C 
BRANCH  25  26
ATOM     26  N   UNL A   1      37.925  22.735  25.433  1.00  0.00    -0.352 N 
ATOM     27  C   UNL A   1      39.119  22.897  26.087  1.00  0.00     0.251 C 
ATOM     28  H   UNL A   1      37.723  21.815  25.147  1.00  0.00     0.163 HD
ATOM     29  O   UNL A   1      39.937  21.977  26.122  1.00  0.00    -0.269 OA
BRANCH  27  30
ATOM     30  C   UNL A   1      39.440  24.187  26.732  1.00  0.00     0.039 A 
ATOM     31  C   UNL A   1      39.045  24.396  28.055  1.00  0.00     0.014 A 
ATOM     32  C   UNL A   1      40.118  25.192  26.033  1.00  0.00     0.014 A 
ATOM     33  C   UNL A   1      39.381  25.590  28.698  1.00  0.00     0.010 A 
ATOM     34  C   UNL A   1      40.506  26.354  26.694  1.00  0.00     0.010 A 
ATOM     35  C   UNL A   1      40.142  26.565  28.032  1.00  0.00    -0.014 A 
BRANCH  35  36
ATOM     36  C   UNL A   1      40.564  27.810  28.722  1.00  0.00     0.031 A 
ATOM     37  C   UNL A   1      41.979  27.964  29.204  1.00  0.00     0.074 A 
ATOM     38  C   UNL A   1      39.659  28.781  28.957  1.00  0.00     0.049 A 
ATOM     39  N   UNL A   1      42.516  28.941  29.891  1.00  0.00    -0.248 NA
ATOM     40  C   UNL A   1      42.913  26.871  28.889  1.00  0.00     0.031 C 
ATOM     41  C   UNL A   1      38.250  28.737  28.563  1.00  0.00     0.029 A 
ATOM     42  N   UNL A   1      39.788  29.995  29.588  1.00  0.00    -0.354 N 
ATOM     43  C   UNL A   1      43.839  28.576  30.096  1.00  0.00     0.074 A 
ATOM     44  C   UNL A   1      44.017  27.269  29.503  1.00  0.00     0.031 C 
ATOM     45  C   UNL A   1      37.653  29.881  28.934  1.00  0.00     0.029 A 
ATOM     46  C   UNL A   1      38.623  30.722  29.630  1.00  0.00     0.049 A 
ATOM     47  H   UNL A   1      40.636  30.313  29.975  1.00  0.00     0.167 HD
ATOM     48  C   UNL A   1      44.823  29.281  30.703  1.00  0.00     0.037 A 
ATOM     49  C   UNL A   1      38.364  31.926  30.174  1.00  0.00     0.037 A 
ATOM     50  C   UNL A   1      44.653  30.596  31.262  1.00  0.00     0.049 A 
ATOM     51  C   UNL A   1      39.474  32.676  30.862  1.00  0.00     0.074 A 
ATOM     52  C   UNL A   1      45.603  31.406  31.859  1.00  0.00     0.029 A 
ATOM     53  N   UNL A   1      43.457  31.297  31.285  1.00  0.00    -0.354 N 
ATOM     54  N   UNL A   1      40.730  32.336  31.014  1.00  0.00    -0.248 NA
ATOM     55  C   UNL A   1      39.131  33.977  31.454  1.00  0.00     0.031 C 
ATOM     56  C   UNL A   1      44.976  32.580  32.278  1.00  0.00     0.029 A 
ATOM     57  C   UNL A   1      43.644  32.524  31.900  1.00  0.00     0.049 A 
ATOM     58  H   UNL A   1      42.603  30.972  30.918  1.00  0.00     0.167 HD
ATOM     59  C   UNL A   1      41.332  33.390  31.689  1.00  0.00     0.074 A 
ATOM     60  C   UNL A   1      40.306  34.387  31.908  1.00  0.00     0.031 C 
ATOM     61  C   UNL A   1      42.619  33.516  32.091  1.00  0.00     0.037 A 
BRANCH  48  62
ATOM     62  C   UNL A   1      46.189  28.668  30.780  1.00  0.00     0.064 A 
ATOM     63  C   UNL A   1      47.100  28.822  29.725  1.00  0.00     0.173 A 
ATOM     64  C   UNL A   1      46.554  27.838  31.850  1.00  0.00     0.173 A 
ATOM     65  F   UNL A   1      46.795  29.600  28.676  1.00  0.00    -0.203 F 
ATOM     66  C   UNL A   1      48.318  28.148  29.728  1.00  0.00     0.198 A 
ATOM     67  C   UNL A   1      47.784  27.185  31.862  1.00  0.00     0.198 A 
ATOM     68  F   UNL A   1      45.721  27.667  32.887  1.00  0.00    -0.203 F 
ATOM     69  F   UNL A   1      49.156  28.277  28.691  1.00  0.00    -0.200 F 
ATOM     70  C   UNL A   1      48.659  27.331  30.795  1.00  0.00     0.200 A 
ATOM     71  F   UNL A   1      48.119  26.410  32.902  1.00  0.00    -0.200 F 
ATOM     72  F   UNL A   1      49.830  26.680  30.796  1.00  0.00    -0.200 F 
ENDBRANCH  48  62
BRANCH  49  73
ATOM     73  C   UNL A   1      37.004  32.515  30.068  1.00  0.00     0.064 A 
ATOM     74  C   UNL A   1      36.051  32.348  31.084  1.00  0.00     0.173 A 
ATOM     75  C   UNL A   1      36.632  33.264  28.943  1.00  0.00     0.173 A 
ATOM     76  F   UNL A   1      36.353  31.638  32.180  1.00  0.00    -0.203 F 
ATOM     77  C   UNL A   1      34.775  32.899  30.972  1.00  0.00     0.198 A 
ATOM     78  C   UNL A   1      35.367  33.839  28.846  1.00  0.00     0.198 A 
ATOM     79  F   UNL A   1      37.516  33.470  27.955  1.00  0.00    -0.203 F 
ATOM     80  F   UNL A   1      33.876  32.703  31.945  1.00  0.00    -0.200 F 
ATOM     81  C   UNL A   1      34.437  33.651  29.856  1.00  0.00     0.200 A 
ATOM     82  F   UNL A   1      35.055  34.587  27.779  1.00  0.00    -0.200 F 
ATOM     83  F   UNL A   1      33.219  34.200  29.760  1.00  0.00    -0.200 F 
ENDBRANCH  49  73
BRANCH  61  84
ATOM     84  C   UNL A   1      43.014  34.789  32.780  1.00  0.00     0.064 A 
ATOM     85  C   UNL A   1      42.852  34.922  34.168  1.00  0.00     0.173 A 
ATOM     86  C   UNL A   1      43.469  35.901  32.059  1.00  0.00     0.173 A 
ATOM     87  F   UNL A   1      42.411  33.889  34.901  1.00  0.00    -0.203 F 
ATOM     88  C   UNL A   1      43.114  36.131  34.805  1.00  0.00     0.198 A 
ATOM     89  C   UNL A   1      43.756  37.100  32.704  1.00  0.00     0.198 A 
ATOM     90  F   UNL A   1      43.650  35.817  30.732  1.00  0.00    -0.203 F 
ATOM     91  F   UNL A   1      42.917  36.249  36.126  1.00  0.00    -0.200 F 
ATOM     92  C   UNL A   1      43.568  37.218  34.074  1.00  0.00     0.200 A 
ATOM     93  F   UNL A   1      44.216  38.144  32.000  1.00  0.00    -0.200 F 
ATOM     94  F   UNL A   1      43.826  38.381  34.689  1.00  0.00    -0.200 F 
ENDBRANCH  61  84
ENDBRANCH  35  36
ENDBRANCH  27  30
ENDBRANCH  25  26
ENDBRANCH  24  25
ENDBRANCH  23  24
ENDBRANCH  22  23
ENDBRANCH   1  22
TORSDOF 17
ENDMDL
MODEL 2
REMARK VINA RESULT:     -10.5      4.003      7.825
REMARK SMILES COc1cc(F)ccc1NCC(C)(C)C(=O)NCCCCCCNC(=O)c1ccc(-c2c3nc(c(-c4c(F)c(F)c(F)c(F)c4F)c4ccc([nH]4)c(-c4c(F)c(F)c(F)c(F)c4F)c4nc(c(-c5c(F)c(F)c(F)c(F)c5F)c5ccc2[nH]5)C=C4)C=C3)cc1
REMARK SMILES IDX 19 1 18 2 17 3 15 4 16 5 12 7 13 8 14 9 11 10 10 11 9 13
REMARK SMILES IDX 3 14 4 15 5 16 8 17 6 18 7 19 2 20 1 21 20 22 21 23 22 24
REMARK SMILES IDX 23 25 24 26 25 27 26 29 27 30 28 31 89 32 29 33 88 34 30 35
REMARK SMILES IDX 31 36 32 37 82 38 33 39 87 40 81 41 83 42 34 43 86 44 80 45
REMARK SMILES IDX 79 46 35 48 67 49 47 50 66 51 48 52 51 53 65 54 84 55 49 56
REMARK SMILES IDX 50 57 64 59 85 60 52 61 36 62 37 63 45 64 38 65 39 66 43 67
REMARK SMILES IDX 46 68 40 69 41 70 44 71 42 72 68 73 69 74 77 75 70 76 71 77
REMARK SMILES IDX 75 78 78 79 72 80 73 81 76 82 74 83 53 84 54 85 62 86 55 87
REMARK SMILES IDX 56 88 60 89 63 90 57 91 58 92 61 93 59 94
REMARK H PARENT 17 6 10 12 24 28 83 47 51 58
REMARK Flexibility Score: inf
ROOT
ATOM      1  C   UNL A   1      31.468  28.359  27.175  1.00  0.00     0.021 C 
ENDROOT
BRANCH   1   2
ATOM      2  C   UNL A   1      32.155  27.153  26.530  1.00  0.00     0.116 C 
BRANCH   2   3
ATOM      3  N   UNL A   1      31.449  25.934  26.862  1.00  0.00    -0.356 N 
ATOM      4  C   UNL A   1      30.816  25.007  26.092  1.00  0.00     0.227 C 
ATOM      5  O   UNL A   1      29.944  24.360  26.676  1.00  0.00    -0.274 OA
ATOM      6  H   UNL A   1      31.423  25.737  27.826  1.00  0.00     0.163 HD
BRANCH   4   7
ATOM      7  C   UNL A   1      31.116  24.832  24.591  1.00  0.00     0.061 C 
ATOM      8  C   UNL A   1      31.083  23.357  24.151  1.00  0.00     0.023 C 
ATOM      9  C   UNL A   1      32.485  25.468  24.275  1.00  0.00     0.023 C 
BRANCH   7  10
ATOM     10  C   UNL A   1      30.071  25.624  23.748  1.00  0.00     0.129 C 
BRANCH  10  11
ATOM     11  N   UNL A   1      29.919  27.016  24.137  1.00  0.00    -0.381 N 
ATOM     12  H   UNL A   1      30.198  27.256  25.050  1.00  0.00     0.160 HD
BRANCH  11  13
ATOM     13  C   UNL A   1      29.418  28.042  23.346  1.00  0.00     0.077 A 
ATOM     14  C   UNL A   1      30.298  28.728  22.474  1.00  0.00     0.144 A 
ATOM     15  C   UNL A   1      29.840  29.757  21.644  1.00  0.00     0.087 A 
ATOM     16  C   UNL A   1      28.507  30.135  21.704  1.00  0.00     0.127 A 
ATOM     17  C   UNL A   1      28.079  28.460  23.374  1.00  0.00     0.032 A 
ATOM     18  F   UNL A   1      28.064  31.123  20.914  1.00  0.00    -0.207 F 
ATOM     19  C   UNL A   1      27.623  29.502  22.563  1.00  0.00     0.041 A 
BRANCH  14  20
ATOM     20  O   UNL A   1      31.603  28.281  22.439  1.00  0.00    -0.494 OA
ATOM     21  C   UNL A   1      32.493  29.061  23.233  1.00  0.00     0.278 C 
ENDBRANCH  14  20
ENDBRANCH  11  13
ENDBRANCH  10  11
ENDBRANCH   7  10
ENDBRANCH   4   7
ENDBRANCH   2   3
ENDBRANCH   1   2
BRANCH   1  22
ATOM     22  C   UNL A   1      32.256  29.669  27.058  1.00  0.00     0.002 C 
BRANCH  22  23
ATOM     23  C   UNL A   1      31.611  30.741  26.172  1.00  0.00     0.002 C 
BRANCH  23  24
ATOM     24  C   UNL A   1      31.400  32.100  26.844  1.00  0.00     0.021 C 
BRANCH  24  25
ATOM     25  C   UNL A   1      32.684  32.822  27.240  1.00  0.00     0.116 C 
BRANCH  25  26
ATOM     26  N   UNL A   1      32.444  34.203  27.622  1.00  0.00    -0.352 N 
ATOM     27  C   UNL A   1      33.026  34.941  28.618  1.00  0.00     0.251 C 
ATOM     28  H   UNL A   1      31.766  34.677  27.087  1.00  0.00     0.163 HD
ATOM     29  O   UNL A   1      32.573  36.047  28.918  1.00  0.00    -0.269 OA
BRANCH  27  30
ATOM     30  C   UNL A   1      34.188  34.404  29.356  1.00  0.00     0.039 A 
ATOM     31  C   UNL A   1      33.972  33.744  30.567  1.00  0.00     0.014 A 
ATOM     32  C   UNL A   1      35.488  34.560  28.863  1.00  0.00     0.014 A 
ATOM     33  C   UNL A   1      35.052  33.189  31.257  1.00  0.00     0.010 A 
ATOM     34  C   UNL A   1      36.555  33.952  29.518  1.00  0.00     0.010 A 
ATOM     35  C   UNL A   1      36.349  33.260  30.721  1.00  0.00    -0.014 A 
BRANCH  35  36
ATOM     36  C   UNL A   1      37.498  32.617  31.407  1.00  0.00     0.031 A 
ATOM     37  C   UNL A   1      38.237  31.488  30.745  1.00  0.00     0.074 A 
ATOM     38  C   UNL A   1      37.844  33.019  32.646  1.00  0.00     0.049 A 
ATOM     39  N   UNL A   1      39.214  30.752  31.214  1.00  0.00    -0.248 NA
ATOM     40  C   UNL A   1      37.815  31.123  29.383  1.00  0.00     0.031 C 
ATOM     41  C   UNL A   1      37.187  34.084  33.403  1.00  0.00     0.029 A 
ATOM     42  N   UNL A   1      38.833  32.575  33.490  1.00  0.00    -0.354 N 
ATOM     43  C   UNL A   1      39.512  29.838  30.214  1.00  0.00     0.074 A 
ATOM     44  C   UNL A   1      38.587  30.077  29.129  1.00  0.00     0.031 C 
ATOM     45  C   UNL A   1      37.806  34.232  34.585  1.00  0.00     0.029 A 
ATOM     46  C   UNL A   1      38.877  33.244  34.689  1.00  0.00     0.049 A 
ATOM     47  H   UNL A   1      39.452  31.845  33.257  1.00  0.00     0.167 HD
ATOM     48  C   UNL A   1      40.489  28.901  30.194  1.00  0.00     0.037 A 
ATOM     49  C   UNL A   1      39.685  33.076  35.754  1.00  0.00     0.037 A 
ATOM     50  C   UNL A   1      41.432  28.688  31.260  1.00  0.00     0.049 A 
ATOM     51  C   UNL A   1      40.747  32.011  35.710  1.00  0.00     0.074 A 
ATOM     52  C   UNL A   1      42.483  27.790  31.311  1.00  0.00     0.029 A 
ATOM     53  N   UNL A   1      41.442  29.387  32.458  1.00  0.00    -0.354 N 
ATOM     54  N   UNL A   1      41.044  31.180  34.741  1.00  0.00    -0.248 NA
ATOM     55  C   UNL A   1      41.587  31.859  36.907  1.00  0.00     0.031 C 
ATOM     56  C   UNL A   1      43.107  27.917  32.554  1.00  0.00     0.029 A 
ATOM     57  C   UNL A   1      42.474  28.928  33.260  1.00  0.00     0.049 A 
ATOM     58  H   UNL A   1      40.811  30.103  32.701  1.00  0.00     0.167 HD
ATOM     59  C   UNL A   1      42.120  30.431  35.199  1.00  0.00     0.074 A 
ATOM     60  C   UNL A   1      42.432  30.912  36.527  1.00  0.00     0.031 C 
ATOM     61  C   UNL A   1      42.786  29.432  34.571  1.00  0.00     0.037 A 
BRANCH  48  62
ATOM     62  C   UNL A   1      40.619  28.041  28.973  1.00  0.00     0.064 A 
ATOM     63  C   UNL A   1      41.392  28.464  27.881  1.00  0.00     0.173 A 
ATOM     64  C   UNL A   1      39.893  26.848  28.843  1.00  0.00     0.173 A 
ATOM     65  F   UNL A   1      42.100  29.601  27.954  1.00  0.00    -0.203 F 
ATOM     66  C   UNL A   1      41.412  27.737  26.695  1.00  0.00     0.198 A 
ATOM     67  C   UNL A   1      39.935  26.110  27.664  1.00  0.00     0.198 A 
ATOM     68  F   UNL A   1      39.148  26.396  29.863  1.00  0.00    -0.203 F 
ATOM     69  F   UNL A   1      42.122  28.181  25.650  1.00  0.00    -0.200 F 
ATOM     70  C   UNL A   1      40.684  26.561  26.586  1.00  0.00     0.200 A 
ATOM     71  F   UNL A   1      39.247  24.965  27.567  1.00  0.00    -0.200 F 
ATOM     72  F   UNL A   1      40.702  25.864  25.443  1.00  0.00    -0.200 F 
ENDBRANCH  48  62
BRANCH  49  73
ATOM     73  C   UNL A   1      39.540  33.955  36.943  1.00  0.00     0.064 A 
ATOM     74  C   UNL A   1      40.145  35.220  37.000  1.00  0.00     0.173 A 
ATOM     75  C   UNL A   1      38.785  33.545  38.051  1.00  0.00     0.173 A 
ATOM     76  F   UNL A   1      40.880  35.660  35.968  1.00  0.00    -0.203 F 
ATOM     77  C   UNL A   1      40.008  36.034  38.122  1.00  0.00     0.198 A 
ATOM     78  C   UNL A   1      38.624  34.372  39.160  1.00  0.00     0.198 A 
ATOM     79  F   UNL A   1      38.169  32.353  38.036  1.00  0.00    -0.203 F 
ATOM     80  F   UNL A   1      40.616  37.227  38.160  1.00  0.00    -0.200 F 
ATOM     81  C   UNL A   1      39.241  35.612  39.198  1.00  0.00     0.200 A 
ATOM     82  F   UNL A   1      37.860  33.972  40.185  1.00  0.00    -0.200 F 
ATOM     83  F   UNL A   1      39.090  36.406  40.268  1.00  0.00    -0.200 F 
ENDBRANCH  49  73
BRANCH  61  84
ATOM     84  C   UNL A   1      43.946  28.808  35.289  1.00  0.00     0.064 A 
ATOM     85  C   UNL A   1      43.736  27.752  36.191  1.00  0.00     0.173 A 
ATOM     86  C   UNL A   1      45.248  29.307  35.151  1.00  0.00     0.173 A 
ATOM     87  F   UNL A   1      42.506  27.246  36.365  1.00  0.00    -0.203 F 
ATOM     88  C   UNL A   1      44.786  27.234  36.943  1.00  0.00     0.198 A 
ATOM     89  C   UNL A   1      46.301  28.768  35.885  1.00  0.00     0.198 A 
ATOM     90  F   UNL A   1      45.500  30.307  34.292  1.00  0.00    -0.203 F 
ATOM     91  F   UNL A   1      44.557  26.253  37.826  1.00  0.00    -0.200 F 
ATOM     92  C   UNL A   1      46.068  27.740  36.787  1.00  0.00     0.200 A 
ATOM     93  F   UNL A   1      47.543  29.242  35.717  1.00  0.00    -0.200 F 
ATOM     94  F   UNL A   1      47.080  27.237  37.507  1.00  0.00    -0.200 F 
ENDBRANCH  61  84
ENDBRANCH  35  36
ENDBRANCH  27  30
ENDBRANCH  25  26
ENDBRANCH  24  25
ENDBRANCH  23  24
ENDBRANCH  22  23
ENDBRANCH   1  22
TORSDOF 17
ENDMDL
MODEL 3
REMARK VINA RESULT:     -10.4      3.484      8.563
REMARK SMILES COc1cc(F)ccc1NCC(C)(C)C(=O)NCCCCCCNC(=O)c1ccc(-c2c3nc(c(-c4c(F)c(F)c(F)c(F)c4F)c4ccc([nH]4)c(-c4c(F)c(F)c(F)c(F)c4F)c4nc(c(-c5c(F)c(F)c(F)c(F)c5F)c5ccc2[nH]5)C=C4)C=C3)cc1
REMARK SMILES IDX 19 1 18 2 17 3 15 4 16 5 12 7 13 8 14 9 11 10 10 11 9 13
REMARK SMILES IDX 3 14 4 15 5 16 8 17 6 18 7 19 2 20 1 21 20 22 21 23 22 24
REMARK SMILES IDX 23 25 24 26 25 27 26 29 27 30 28 31 89 32 29 33 88 34 30 35
REMARK SMILES IDX 31 36 32 37 82 38 33 39 87 40 81 41 83 42 34 43 86 44 80 45
REMARK SMILES IDX 79 46 35 48 67 49 47 50 66 51 48 52 51 53 65 54 84 55 49 56
REMARK SMILES IDX 50 57 64 59 85 60 52 61 36 62 37 63 45 64 38 65 39 66 43 67
REMARK SMILES IDX 46 68 40 69 41 70 44 71 42 72 68 73 69 74 77 75 70 76 71 77
REMARK SMILES IDX 75 78 78 79 72 80 73 81 76 82 74 83 53 84 54 85 62 86 55 87
REMARK SMILES IDX 56 88 60 89 63 90 57 91 58 92 61 93 59 94
REMARK H PARENT 17 6 10 12 24 28 83 47 51 58
REMARK Flexibility Score: inf
ROOT
ATOM      1  C   UNL A   1      36.128  22.953  23.687  1.00  0.00     0.021 C 
ENDROOT
BRANCH   1   2
ATOM      2  C   UNL A   1      35.067  23.363  24.710  1.00  0.00     0.116 C 
BRANCH   2   3
ATOM      3  N   UNL A   1      33.741  23.082  24.201  1.00  0.00    -0.356 N 
ATOM      4  C   UNL A   1      32.549  22.878  24.824  1.00  0.00     0.227 C 
ATOM      5  O   UNL A   1      31.731  22.222  24.173  1.00  0.00    -0.274 OA
ATOM      6  H   UNL A   1      33.693  23.028  23.220  1.00  0.00     0.163 HD
BRANCH   4   7
ATOM      7  C   UNL A   1      32.269  23.365  26.259  1.00  0.00     0.061 C 
ATOM      8  C   UNL A   1      33.044  22.558  27.316  1.00  0.00     0.023 C 
ATOM      9  C   UNL A   1      30.751  23.301  26.523  1.00  0.00     0.023 C 
BRANCH   7  10
ATOM     10  C   UNL A   1      32.664  24.866  26.393  1.00  0.00     0.129 C 
BRANCH  10  11
ATOM     11  N   UNL A   1      31.712  25.792  25.800  1.00  0.00    -0.381 N 
ATOM     12  H   UNL A   1      30.996  25.401  25.250  1.00  0.00     0.160 HD
BRANCH  11  13
ATOM     13  C   UNL A   1      31.715  27.174  25.934  1.00  0.00     0.077 A 
ATOM     14  C   UNL A   1      31.654  27.976  24.768  1.00  0.00     0.144 A 
ATOM     15  C   UNL A   1      31.636  29.372  24.850  1.00  0.00     0.087 A 
ATOM     16  C   UNL A   1      31.716  29.981  26.093  1.00  0.00     0.127 A 
ATOM     17  C   UNL A   1      31.796  27.833  27.169  1.00  0.00     0.032 A 
ATOM     18  F   UNL A   1      31.704  31.319  26.176  1.00  0.00    -0.207 F 
ATOM     19  C   UNL A   1      31.801  29.228  27.253  1.00  0.00     0.041 A 
BRANCH  14  20
ATOM     20  O   UNL A   1      31.543  27.309  23.566  1.00  0.00    -0.494 OA
ATOM     21  C   UNL A   1      30.275  27.476  22.938  1.00  0.00     0.278 C 
ENDBRANCH  14  20
ENDBRANCH  11  13
ENDBRANCH  10  11
ENDBRANCH   7  10
ENDBRANCH   4   7
ENDBRANCH   2   3
ENDBRANCH   1   2
BRANCH   1  22
ATOM     22  C   UNL A   1      37.252  22.081  24.260  1.00  0.00     0.002 C 
BRANCH  22  23
ATOM     23  C   UNL A   1      36.804  20.723  24.815  1.00  0.00     0.002 C 
BRANCH  23  24
ATOM     24  C   UNL A   1      37.924  19.696  25.002  1.00  0.00     0.021 C 
BRANCH  24  25
ATOM     25  C   UNL A   1      39.149  20.215  25.747  1.00  0.00     0.116 C 
BRANCH  25  26
ATOM     26  N   UNL A   1      40.167  19.192  25.913  1.00  0.00    -0.352 N 
ATOM     27  C   UNL A   1      41.513  19.334  26.126  1.00  0.00     0.251 C 
ATOM     28  H   UNL A   1      39.843  18.263  25.867  1.00  0.00     0.163 HD
ATOM     29  O   UNL A   1      42.259  18.355  26.065  1.00  0.00    -0.269 OA
BRANCH  27  30
ATOM     30  C   UNL A   1      42.082  20.669  26.407  1.00  0.00     0.039 A 
ATOM     31  C   UNL A   1      42.459  21.480  25.335  1.00  0.00     0.014 A 
ATOM     32  C   UNL A   1      42.255  21.115  27.722  1.00  0.00     0.014 A 
ATOM     33  C   UNL A   1      42.955  22.763  25.578  1.00  0.00     0.010 A 
ATOM     34  C   UNL A   1      42.690  22.416  27.960  1.00  0.00     0.010 A 
ATOM     35  C   UNL A   1      43.044  23.253  26.891  1.00  0.00    -0.014 A 
BRANCH  35  36
ATOM     36  C   UNL A   1      43.507  24.637  27.164  1.00  0.00     0.031 A 
ATOM     37  C   UNL A   1      42.550  25.659  27.711  1.00  0.00     0.074 A 
ATOM     38  C   UNL A   1      44.775  24.986  26.871  1.00  0.00     0.049 A 
ATOM     39  N   UNL A   1      42.745  26.933  27.942  1.00  0.00    -0.248 NA
ATOM     40  C   UNL A   1      41.189  25.196  28.027  1.00  0.00     0.031 C 
ATOM     41  C   UNL A   1      45.789  24.093  26.310  1.00  0.00     0.029 A 
ATOM     42  N   UNL A   1      45.428  26.188  27.001  1.00  0.00    -0.354 N 
ATOM     43  C   UNL A   1      41.535  27.420  28.417  1.00  0.00     0.074 A 
ATOM     44  C   UNL A   1      40.597  26.320  28.401  1.00  0.00     0.031 C 
ATOM     45  C   UNL A   1      46.942  24.766  26.171  1.00  0.00     0.029 A 
ATOM     46  C   UNL A   1      46.740  26.150  26.591  1.00  0.00     0.049 A 
ATOM     47  H   UNL A   1      44.997  27.000  27.353  1.00  0.00     0.167 HD
ATOM     48  C   UNL A   1      41.243  28.669  28.853  1.00  0.00     0.037 A 
ATOM     49  C   UNL A   1      47.671  27.123  26.554  1.00  0.00     0.037 A 
ATOM     50  C   UNL A   1      42.187  29.753  28.901  1.00  0.00     0.049 A 
ATOM     51  C   UNL A   1      47.309  28.506  27.023  1.00  0.00     0.074 A 
ATOM     52  C   UNL A   1      41.993  31.042  29.367  1.00  0.00     0.029 A 
ATOM     53  N   UNL A   1      43.505  29.675  28.478  1.00  0.00    -0.354 N 
ATOM     54  N   UNL A   1      46.172  28.943  27.508  1.00  0.00    -0.248 NA
ATOM     55  C   UNL A   1      48.358  29.532  26.942  1.00  0.00     0.031 C 
ATOM     56  C   UNL A   1      43.181  31.754  29.190  1.00  0.00     0.029 A 
ATOM     57  C   UNL A   1      44.130  30.897  28.658  1.00  0.00     0.049 A 
ATOM     58  H   UNL A   1      43.933  28.869  28.105  1.00  0.00     0.167 HD
ATOM     59  C   UNL A   1      46.379  30.281  27.816  1.00  0.00     0.074 A 
ATOM     60  C   UNL A   1      47.751  30.583  27.475  1.00  0.00     0.031 C 
ATOM     61  C   UNL A   1      45.504  31.177  28.334  1.00  0.00     0.037 A 
BRANCH  48  62
ATOM     62  C   UNL A   1      39.852  28.940  29.341  1.00  0.00     0.064 A 
ATOM     63  C   UNL A   1      39.494  28.654  30.667  1.00  0.00     0.173 A 
ATOM     64  C   UNL A   1      38.847  29.381  28.468  1.00  0.00     0.173 A 
ATOM     65  F   UNL A   1      40.416  28.224  31.540  1.00  0.00    -0.203 F 
ATOM     66  C   UNL A   1      38.174  28.777  31.094  1.00  0.00     0.198 A 
ATOM     67  C   UNL A   1      37.533  29.527  28.904  1.00  0.00     0.198 A 
ATOM     68  F   UNL A   1      39.143  29.677  27.193  1.00  0.00    -0.203 F 
ATOM     69  F   UNL A   1      37.846  28.459  32.353  1.00  0.00    -0.200 F 
ATOM     70  C   UNL A   1      37.196  29.213  30.212  1.00  0.00     0.200 A 
ATOM     71  F   UNL A   1      36.593  29.965  28.057  1.00  0.00    -0.200 F 
ATOM     72  F   UNL A   1      35.926  29.328  30.623  1.00  0.00    -0.200 F 
ENDBRANCH  48  62
BRANCH  49  73
ATOM     73  C   UNL A   1      49.046  26.819  26.078  1.00  0.00     0.064 A 
ATOM     74  C   UNL A   1      50.032  26.329  26.947  1.00  0.00     0.173 A 
ATOM     75  C   UNL A   1      49.398  27.009  24.735  1.00  0.00     0.173 A 
ATOM     76  F   UNL A   1      49.748  26.131  28.243  1.00  0.00    -0.203 F 
ATOM     77  C   UNL A   1      51.319  26.052  26.492  1.00  0.00     0.198 A 
ATOM     78  C   UNL A   1      50.677  26.704  24.275  1.00  0.00     0.198 A 
ATOM     79  F   UNL A   1      48.484  27.454  23.860  1.00  0.00    -0.203 F 
ATOM     80  F   UNL A   1      52.250  25.609  27.349  1.00  0.00    -0.200 F 
ATOM     81  C   UNL A   1      51.639  26.232  25.154  1.00  0.00     0.200 A 
ATOM     82  F   UNL A   1      50.972  26.853  22.976  1.00  0.00    -0.200 F 
ATOM     83  F   UNL A   1      52.870  25.944  24.713  1.00  0.00    -0.200 F 
ENDBRANCH  49  73
BRANCH  61  84
ATOM     84  C   UNL A   1      46.005  32.566  28.603  1.00  0.00     0.064 A 
ATOM     85  C   UNL A   1      45.932  33.550  27.604  1.00  0.00     0.173 A 
ATOM     86  C   UNL A   1      46.632  32.897  29.811  1.00  0.00     0.173 A 
ATOM     87  F   UNL A   1      45.349  33.278  26.427  1.00  0.00    -0.203 F 
ATOM     88  C   UNL A   1      46.486  34.811  27.801  1.00  0.00     0.198 A 
ATOM     89  C   UNL A   1      47.162  34.168  30.014  1.00  0.00     0.198 A 
ATOM     90  F   UNL A   1      46.715  31.993  30.799  1.00  0.00    -0.203 F 
ATOM     91  F   UNL A   1      46.440  35.724  26.821  1.00  0.00    -0.200 F 
ATOM     92  C   UNL A   1      47.098  35.120  29.007  1.00  0.00     0.200 A 
ATOM     93  F   UNL A   1      47.733  34.473  31.188  1.00  0.00    -0.200 F 
ATOM     94  F   UNL A   1      47.628  36.336  29.198  1.00  0.00    -0.200 F 
ENDBRANCH  61  84
ENDBRANCH  35  36
ENDBRANCH  27  30
ENDBRANCH  25  26
ENDBRANCH  24  25
ENDBRANCH  23  24
ENDBRANCH  22  23
ENDBRANCH   1  22
TORSDOF 17
ENDMDL
