MODEL 1
REMARK VINA RESULT:     -10.5      0.000      0.000
REMARK SMILES Nc1c(Nc2ncc(C(F)(F)F)cc2Cl)ncnc1N1CCC(C(=O)NCCCCCCNC(=O)c2ccc(-c3c4nc(c(-c5c(F)c(F)c(F)c(F)c5F)c5ccc([nH]5)c(-c5c(F)c(F)c(F)c(F)c5F)c5nc(c(-c6c(F)c(F)c(F)c(F)c6F)c6ccc3[nH]6)C=C5)C=C4)cc2)CC1
REMARK SMILES IDX 28 1 27 2 26 3 24 4 25 5 23 7 20 8 21 9 100 10 22 11 99 12
REMARK SMILES IDX 19 13 2 14 3 15 16 16 18 17 17 18 1 19 4 22 5 24 6 25 14 26
REMARK SMILES IDX 7 27 13 28 15 29 8 30 9 31 10 32 11 33 12 34 29 35 30 36
REMARK SMILES IDX 31 37 32 38 33 39 34 40 35 42 36 43 37 44 98 45 38 46 97 47
REMARK SMILES IDX 39 48 40 49 41 50 91 51 42 52 96 53 90 54 92 55 43 56 95 57
REMARK SMILES IDX 89 58 88 59 44 61 76 62 56 63 75 64 57 65 60 66 74 67 93 68
REMARK SMILES IDX 58 69 59 70 73 72 94 73 61 74 45 75 46 76 54 77 47 78 48 79
REMARK SMILES IDX 52 80 55 81 49 82 50 83 53 84 51 85 77 86 78 87 86 88 79 89
REMARK SMILES IDX 80 90 84 91 87 92 81 93 82 94 85 95 83 96 62 97 63 98 71 99
REMARK SMILES IDX 64 100 65 101 69 102 72 103 66 104 67 105 70 106 68 107
REMARK H PARENT 26 6 1 20 1 21 4 23 33 41 92 60 60 71
REMARK Flexibility Score: inf
ROOT
ATOM      1  C   UNL A   1      37.904  32.556  31.648  1.00  0.00     0.021 C 
ENDROOT
BRANCH   1   2
ATOM      2  C   UNL A   1      37.339  32.217  33.025  1.00  0.00     0.116 C 
BRANCH   2   3
ATOM      3  N   UNL A   1      36.939  30.823  33.098  1.00  0.00    -0.356 N 
ATOM      4  C   UNL A   1      37.682  29.695  33.259  1.00  0.00     0.223 C 
ATOM      5  O   UNL A   1      37.095  28.610  33.243  1.00  0.00    -0.275 OA
ATOM      6  H   UNL A   1      35.970  30.668  33.020  1.00  0.00     0.163 HD
BRANCH   4   7
ATOM      7  C   UNL A   1      39.185  29.755  33.476  1.00  0.00     0.082 C 
ATOM      8  N   UNL A   1      41.540  28.598  34.577  1.00  0.00    -0.355 N 
ATOM      9  C   UNL A   1      41.026  29.792  35.222  1.00  0.00     0.119 C 
ATOM     10  C   UNL A   1      41.351  28.444  33.146  1.00  0.00     0.119 C 
ATOM     11  C   UNL A   1      39.539  29.956  34.955  1.00  0.00     0.035 C 
ATOM     12  C   UNL A   1      39.880  28.573  32.781  1.00  0.00     0.035 C 
BRANCH   8  13
ATOM     13  C   UNL A   1      41.936  27.529  35.366  1.00  0.00     0.157 A 
ATOM     14  C   UNL A   1      43.135  26.850  35.088  1.00  0.00     0.118 A 
ATOM     15  C   UNL A   1      43.504  25.851  36.001  1.00  0.00     0.160 A 
ATOM     16  N   UNL A   1      42.723  25.495  37.035  1.00  0.00    -0.217 NA
ATOM     17  N   UNL A   1      41.160  27.201  36.418  1.00  0.00    -0.217 NA
ATOM     18  C   UNL A   1      41.591  26.190  37.185  1.00  0.00     0.226 A 
BRANCH  14  19
ATOM     19  N   UNL A   1      44.028  27.282  34.088  1.00  0.00    -0.393 N 
ATOM     20  H   UNL A   1      44.467  28.160  34.164  1.00  0.00     0.156 HD
ATOM     21  H   UNL A   1      44.215  26.705  33.312  1.00  0.00     0.156 HD
ENDBRANCH  14  19
BRANCH  15  22
ATOM     22  N   UNL A   1      44.786  25.265  35.845  1.00  0.00    -0.322 N 
ATOM     23  H   UNL A   1      45.555  25.880  35.872  1.00  0.00     0.170 HD
BRANCH  22  24
ATOM     24  C   UNL A   1      45.079  23.915  35.659  1.00  0.00     0.150 A 
ATOM     25  N   UNL A   1      45.472  23.269  36.788  1.00  0.00    -0.237 NA
ATOM     26  C   UNL A   1      44.989  23.247  34.431  1.00  0.00     0.084 A 
ATOM     27  C   UNL A   1      45.686  21.934  36.722  1.00  0.00     0.126 A 
ATOM     28  C   UNL A   1      45.229  21.870  34.392  1.00  0.00     0.039 A 
ATOM     29  Cl  UNL A   1      44.703  24.050  32.928  1.00  0.00    -0.080 Cl
ATOM     30  C   UNL A   1      45.565  21.187  35.563  1.00  0.00     0.075 A 
BRANCH  30  31
ATOM     31  C   UNL A   1      45.794  19.709  35.603  1.00  0.00     0.417 C 
ATOM     32  F   UNL A   1      46.912  19.337  34.921  1.00  0.00    -0.166 F 
ATOM     33  F   UNL A   1      45.958  19.244  36.871  1.00  0.00    -0.166 F 
ATOM     34  F   UNL A   1      44.772  18.987  35.066  1.00  0.00    -0.166 F 
ENDBRANCH  30  31
ENDBRANCH  22  24
ENDBRANCH  15  22
ENDBRANCH   8  13
ENDBRANCH   4   7
ENDBRANCH   2   3
ENDBRANCH   1   2
BRANCH   1  35
ATOM     35  C   UNL A   1      37.043  33.544  30.853  1.00  0.00     0.002 C 
BRANCH  35  36
ATOM     36  C   UNL A   1      35.573  33.609  31.281  1.00  0.00     0.002 C 
BRANCH  36  37
ATOM     37  C   UNL A   1      34.637  32.673  30.516  1.00  0.00     0.021 C 
BRANCH  37  38
ATOM     38  C   UNL A   1      35.005  32.477  29.051  1.00  0.00     0.116 C 
BRANCH  38  39
ATOM     39  N   UNL A   1      34.334  31.324  28.471  1.00  0.00    -0.352 N 
ATOM     40  C   UNL A   1      34.872  30.152  28.006  1.00  0.00     0.251 C 
ATOM     41  H   UNL A   1      33.354  31.395  28.404  1.00  0.00     0.163 HD
ATOM     42  O   UNL A   1      34.188  29.365  27.359  1.00  0.00    -0.269 OA
BRANCH  40  43
ATOM     43  C   UNL A   1      36.293  29.849  28.273  1.00  0.00     0.039 A 
ATOM     44  C   UNL A   1      36.649  29.322  29.516  1.00  0.00     0.014 A 
ATOM     45  C   UNL A   1      37.267  30.084  27.298  1.00  0.00     0.014 A 
ATOM     46  C   UNL A   1      37.979  28.982  29.763  1.00  0.00     0.010 A 
ATOM     47  C   UNL A   1      38.578  29.674  27.519  1.00  0.00     0.010 A 
ATOM     48  C   UNL A   1      38.948  29.128  28.757  1.00  0.00    -0.014 A 
BRANCH  48  49
ATOM     49  C   UNL A   1      40.361  28.741  28.996  1.00  0.00     0.031 A 
ATOM     50  C   UNL A   1      41.289  29.694  29.696  1.00  0.00     0.074 A 
ATOM     51  C   UNL A   1      40.811  27.551  28.558  1.00  0.00     0.049 A 
ATOM     52  N   UNL A   1      42.565  29.562  29.961  1.00  0.00    -0.248 NA
ATOM     53  C   UNL A   1      40.717  30.976  30.144  1.00  0.00     0.031 C 
ATOM     54  C   UNL A   1      40.012  26.557  27.840  1.00  0.00     0.029 A 
ATOM     55  N   UNL A   1      42.054  26.973  28.650  1.00  0.00    -0.354 N 
ATOM     56  C   UNL A   1      42.941  30.734  30.602  1.00  0.00     0.074 A 
ATOM     57  C   UNL A   1      41.781  31.596  30.634  1.00  0.00     0.031 C 
ATOM     58  C   UNL A   1      40.774  25.481  27.584  1.00  0.00     0.029 A 
ATOM     59  C   UNL A   1      42.125  25.724  28.081  1.00  0.00     0.049 A 
ATOM     60  H   UNL A   1      42.821  27.411  29.084  1.00  0.00     0.167 HD
ATOM     61  C   UNL A   1      44.141  31.048  31.143  1.00  0.00     0.037 A 
ATOM     62  C   UNL A   1      43.166  24.875  27.968  1.00  0.00     0.037 A 
ATOM     63  C   UNL A   1      45.285  30.177  31.133  1.00  0.00     0.049 A 
ATOM     64  C   UNL A   1      44.499  25.272  28.546  1.00  0.00     0.074 A 
ATOM     65  C   UNL A   1      46.531  30.391  31.692  1.00  0.00     0.029 A 
ATOM     66  N   UNL A   1      45.321  28.926  30.537  1.00  0.00    -0.354 N 
ATOM     67  N   UNL A   1      44.827  26.359  29.201  1.00  0.00    -0.248 NA
ATOM     68  C   UNL A   1      45.608  24.321  28.374  1.00  0.00     0.031 C 
ATOM     69  C   UNL A   1      47.339  29.293  31.392  1.00  0.00     0.029 A 
ATOM     70  C   UNL A   1      46.579  28.367  30.695  1.00  0.00     0.049 A 
ATOM     71  H   UNL A   1      44.566  28.498  30.072  1.00  0.00     0.167 HD
ATOM     72  C   UNL A   1      46.165  26.213  29.540  1.00  0.00     0.074 A 
ATOM     73  C   UNL A   1      46.585  24.922  29.039  1.00  0.00     0.031 C 
ATOM     74  C   UNL A   1      46.976  27.074  30.202  1.00  0.00     0.037 A 
BRANCH  61  75
ATOM     75  C   UNL A   1      44.283  32.378  31.822  1.00  0.00     0.064 A 
ATOM     76  C   UNL A   1      44.021  32.529  33.192  1.00  0.00     0.173 A 
ATOM     77  C   UNL A   1      44.787  33.486  31.123  1.00  0.00     0.173 A 
ATOM     78  F   UNL A   1      43.526  31.503  33.901  1.00  0.00    -0.203 F 
ATOM     79  C   UNL A   1      44.257  33.739  33.837  1.00  0.00     0.198 A 
ATOM     80  C   UNL A   1      45.048  34.686  31.777  1.00  0.00     0.198 A 
ATOM     81  F   UNL A   1      45.058  33.392  29.813  1.00  0.00    -0.203 F 
ATOM     82  F   UNL A   1      43.980  33.867  35.141  1.00  0.00    -0.200 F 
ATOM     83  C   UNL A   1      44.783  34.812  33.132  1.00  0.00     0.200 A 
ATOM     84  F   UNL A   1      45.572  35.717  31.100  1.00  0.00    -0.200 F 
ATOM     85  F   UNL A   1      45.038  35.967  33.762  1.00  0.00    -0.200 F 
ENDBRANCH  61  75
BRANCH  62  86
ATOM     86  C   UNL A   1      42.990  23.559  27.297  1.00  0.00     0.064 A 
ATOM     87  C   UNL A   1      43.427  23.357  25.981  1.00  0.00     0.173 A 
ATOM     88  C   UNL A   1      42.369  22.482  27.948  1.00  0.00     0.173 A 
ATOM     89  F   UNL A   1      44.007  24.362  25.306  1.00  0.00    -0.203 F 
ATOM     90  C   UNL A   1      43.229  22.139  25.333  1.00  0.00     0.198 A 
ATOM     91  C   UNL A   1      42.201  21.254  27.311  1.00  0.00     0.198 A 
ATOM     92  F   UNL A   1      41.932  22.620  29.209  1.00  0.00    -0.203 F 
ATOM     93  F   UNL A   1      43.609  21.992  24.056  1.00  0.00    -0.200 F 
ATOM     94  C   UNL A   1      42.622  21.086  26.000  1.00  0.00     0.200 A 
ATOM     95  F   UNL A   1      41.625  20.236  27.965  1.00  0.00    -0.200 F 
ATOM     96  F   UNL A   1      42.433  19.915  25.378  1.00  0.00    -0.200 F 
ENDBRANCH  62  86
BRANCH  74  97
ATOM     97  C   UNL A   1      48.394  26.649  30.449  1.00  0.00     0.064 A 
ATOM     98  C   UNL A   1      49.431  27.020  29.580  1.00  0.00     0.173 A 
ATOM     99  C   UNL A   1      48.732  25.939  31.610  1.00  0.00     0.173 A 
ATOM    100  F   UNL A   1      49.158  27.691  28.451  1.00  0.00    -0.203 F 
ATOM    101  C   UNL A   1      50.753  26.681  29.857  1.00  0.00     0.198 A 
ATOM    102  C   UNL A   1      50.058  25.631  31.902  1.00  0.00     0.198 A 
ATOM    103  F   UNL A   1      47.780  25.570  32.480  1.00  0.00    -0.203 F 
ATOM    104  F   UNL A   1      51.722  27.014  28.995  1.00  0.00    -0.200 F 
ATOM    105  C   UNL A   1      51.066  25.998  31.023  1.00  0.00     0.200 A 
ATOM    106  F   UNL A   1      50.362  24.988  33.039  1.00  0.00    -0.200 F 
ATOM    107  F   UNL A   1      52.341  25.692  31.299  1.00  0.00    -0.200 F 
ENDBRANCH  74  97
ENDBRANCH  48  49
ENDBRANCH  40  43
ENDBRANCH  38  39
ENDBRANCH  37  38
ENDBRANCH  36  37
ENDBRANCH  35  36
ENDBRANCH   1  35
TORSDOF 18
ENDMDL
MODEL 2
REMARK VINA RESULT:     -10.3      4.389     11.216
REMARK SMILES Nc1c(Nc2ncc(C(F)(F)F)cc2Cl)ncnc1N1CCC(C(=O)NCCCCCCNC(=O)c2ccc(-c3c4nc(c(-c5c(F)c(F)c(F)c(F)c5F)c5ccc([nH]5)c(-c5c(F)c(F)c(F)c(F)c5F)c5nc(c(-c6c(F)c(F)c(F)c(F)c6F)c6ccc3[nH]6)C=C5)C=C4)cc2)CC1
REMARK SMILES IDX 28 1 27 2 26 3 24 4 25 5 23 7 20 8 21 9 100 10 22 11 99 12
REMARK SMILES IDX 19 13 2 14 3 15 16 16 18 17 17 18 1 19 4 22 5 24 6 25 14 26
REMARK SMILES IDX 7 27 13 28 15 29 8 30 9 31 10 32 11 33 12 34 29 35 30 36
REMARK SMILES IDX 31 37 32 38 33 39 34 40 35 42 36 43 37 44 98 45 38 46 97 47
REMARK SMILES IDX 39 48 40 49 41 50 91 51 42 52 96 53 90 54 92 55 43 56 95 57
REMARK SMILES IDX 89 58 88 59 44 61 76 62 56 63 75 64 57 65 60 66 74 67 93 68
REMARK SMILES IDX 58 69 59 70 73 72 94 73 61 74 45 75 46 76 54 77 47 78 48 79
REMARK SMILES IDX 52 80 55 81 49 82 50 83 53 84 51 85 77 86 78 87 86 88 79 89
REMARK SMILES IDX 80 90 84 91 87 92 81 93 82 94 85 95 83 96 62 97 63 98 71 99
REMARK SMILES IDX 64 100 65 101 69 102 72 103 66 104 67 105 70 106 68 107
REMARK H PARENT 26 6 1 20 1 21 4 23 33 41 92 60 60 71
REMARK Flexibility Score: inf
ROOT
ATOM      1  C   UNL A   1      43.662  18.614  25.391  1.00  0.00     0.021 C 
ENDROOT
BRANCH   1   2
ATOM      2  C   UNL A   1      44.746  19.684  25.302  1.00  0.00     0.116 C 
BRANCH   2   3
ATOM      3  N   UNL A   1      44.593  20.486  24.101  1.00  0.00    -0.356 N 
ATOM      4  C   UNL A   1      44.570  21.835  23.934  1.00  0.00     0.223 C 
ATOM      5  O   UNL A   1      44.378  22.273  22.796  1.00  0.00    -0.275 OA
ATOM      6  H   UNL A   1      44.490  19.967  23.271  1.00  0.00     0.163 HD
BRANCH   4   7
ATOM      7  C   UNL A   1      44.794  22.786  25.098  1.00  0.00     0.082 C 
ATOM      8  N   UNL A   1      45.487  25.385  26.028  1.00  0.00    -0.355 N 
ATOM      9  C   UNL A   1      46.467  24.332  26.218  1.00  0.00     0.119 C 
ATOM     10  C   UNL A   1      44.078  25.039  26.063  1.00  0.00     0.119 C 
ATOM     11  C   UNL A   1      46.264  23.213  25.210  1.00  0.00     0.035 C 
ATOM     12  C   UNL A   1      43.771  23.933  25.066  1.00  0.00     0.035 C 
BRANCH   8  13
ATOM     13  C   UNL A   1      45.911  26.613  25.545  1.00  0.00     0.157 A 
ATOM     14  C   UNL A   1      45.892  27.746  26.379  1.00  0.00     0.118 A 
ATOM     15  C   UNL A   1      46.436  28.920  25.836  1.00  0.00     0.160 A 
ATOM     16  N   UNL A   1      46.873  28.993  24.567  1.00  0.00    -0.217 NA
ATOM     17  N   UNL A   1      46.375  26.668  24.281  1.00  0.00    -0.217 NA
ATOM     18  C   UNL A   1      46.816  27.861  23.859  1.00  0.00     0.226 A 
BRANCH  14  19
ATOM     19  N   UNL A   1      45.555  27.668  27.744  1.00  0.00    -0.393 N 
ATOM     20  H   UNL A   1      44.941  28.329  28.138  1.00  0.00     0.156 HD
ATOM     21  H   UNL A   1      45.932  26.952  28.305  1.00  0.00     0.156 HD
ENDBRANCH  14  19
BRANCH  15  22
ATOM     22  N   UNL A   1      46.585  30.032  26.704  1.00  0.00    -0.322 N 
ATOM     23  H   UNL A   1      47.198  29.912  27.466  1.00  0.00     0.170 HD
BRANCH  22  24
ATOM     24  C   UNL A   1      45.963  31.274  26.598  1.00  0.00     0.150 A 
ATOM     25  N   UNL A   1      44.646  31.211  26.268  1.00  0.00    -0.237 NA
ATOM     26  C   UNL A   1      46.604  32.502  26.805  1.00  0.00     0.084 A 
ATOM     27  C   UNL A   1      43.937  32.363  26.236  1.00  0.00     0.126 A 
ATOM     28  C   UNL A   1      45.848  33.676  26.752  1.00  0.00     0.039 A 
ATOM     29  Cl  UNL A   1      48.311  32.661  27.016  1.00  0.00    -0.080 Cl
ATOM     30  C   UNL A   1      44.479  33.613  26.482  1.00  0.00     0.075 A 
BRANCH  30  31
ATOM     31  C   UNL A   1      43.601  34.824  26.451  1.00  0.00     0.417 C 
ATOM     32  F   UNL A   1      42.748  34.820  25.390  1.00  0.00    -0.166 F 
ATOM     33  F   UNL A   1      42.819  34.927  27.560  1.00  0.00    -0.166 F 
ATOM     34  F   UNL A   1      44.292  35.994  26.369  1.00  0.00    -0.166 F 
ENDBRANCH  30  31
ENDBRANCH  22  24
ENDBRANCH  15  22
ENDBRANCH   8  13
ENDBRANCH   4   7
ENDBRANCH   2   3
ENDBRANCH   1   2
BRANCH   1  35
ATOM     35  C   UNL A   1      42.693  18.810  26.562  1.00  0.00     0.002 C 
BRANCH  35  36
ATOM     36  C   UNL A   1      41.630  19.892  26.344  1.00  0.00     0.002 C 
BRANCH  36  37
ATOM     37  C   UNL A   1      41.496  20.903  27.484  1.00  0.00     0.021 C 
BRANCH  37  38
ATOM     38  C   UNL A   1      41.307  22.344  27.026  1.00  0.00     0.116 C 
BRANCH  38  39
ATOM     39  N   UNL A   1      40.098  22.510  26.236  1.00  0.00    -0.352 N 
ATOM     40  C   UNL A   1      39.165  23.513  26.282  1.00  0.00     0.251 C 
ATOM     41  H   UNL A   1      39.924  21.802  25.575  1.00  0.00     0.163 HD
ATOM     42  O   UNL A   1      38.095  23.398  25.690  1.00  0.00    -0.269 OA
BRANCH  40  43
ATOM     43  C   UNL A   1      39.447  24.732  27.065  1.00  0.00     0.039 A 
ATOM     44  C   UNL A   1      38.971  24.818  28.376  1.00  0.00     0.014 A 
ATOM     45  C   UNL A   1      40.179  25.785  26.508  1.00  0.00     0.014 A 
ATOM     46  C   UNL A   1      39.274  25.942  29.145  1.00  0.00     0.010 A 
ATOM     47  C   UNL A   1      40.544  26.869  27.300  1.00  0.00     0.010 A 
ATOM     48  C   UNL A   1      40.086  26.962  28.623  1.00  0.00    -0.014 A 
BRANCH  48  49
ATOM     49  C   UNL A   1      40.443  28.148  29.441  1.00  0.00     0.031 A 
ATOM     50  C   UNL A   1      41.798  28.232  30.085  1.00  0.00     0.074 A 
ATOM     51  C   UNL A   1      39.539  29.128  29.626  1.00  0.00     0.049 A 
ATOM     52  N   UNL A   1      42.285  29.162  30.869  1.00  0.00    -0.248 NA
ATOM     53  C   UNL A   1      42.729  27.118  29.832  1.00  0.00     0.031 C 
ATOM     54  C   UNL A   1      38.183  29.142  29.078  1.00  0.00     0.029 A 
ATOM     55  N   UNL A   1      39.623  30.305  30.331  1.00  0.00    -0.354 N 
ATOM     56  C   UNL A   1      43.568  28.744  31.197  1.00  0.00     0.074 A 
ATOM     57  C   UNL A   1      43.768  27.452  30.583  1.00  0.00     0.031 C 
ATOM     58  C   UNL A   1      37.573  30.283  29.439  1.00  0.00     0.029 A 
ATOM     59  C   UNL A   1      38.477  31.062  30.279  1.00  0.00     0.049 A 
ATOM     60  H   UNL A   1      40.429  30.579  30.825  1.00  0.00     0.167 HD
ATOM     61  C   UNL A   1      44.505  29.400  31.921  1.00  0.00     0.037 A 
ATOM     62  C   UNL A   1      38.189  32.248  30.851  1.00  0.00     0.037 A 
ATOM     63  C   UNL A   1      44.311  30.697  32.509  1.00  0.00     0.049 A 
ATOM     64  C   UNL A   1      39.241  32.932  31.685  1.00  0.00     0.074 A 
ATOM     65  C   UNL A   1      45.216  31.460  33.225  1.00  0.00     0.029 A 
ATOM     66  N   UNL A   1      43.134  31.427  32.444  1.00  0.00    -0.354 N 
ATOM     67  N   UNL A   1      40.471  32.554  31.939  1.00  0.00    -0.248 NA
ATOM     68  C   UNL A   1      38.868  34.211  32.307  1.00  0.00     0.031 C 
ATOM     69  C   UNL A   1      44.573  32.628  33.637  1.00  0.00     0.029 A 
ATOM     70  C   UNL A   1      43.283  32.621  33.130  1.00  0.00     0.049 A 
ATOM     71  H   UNL A   1      42.314  31.140  31.979  1.00  0.00     0.167 HD
ATOM     72  C   UNL A   1      41.023  33.556  32.726  1.00  0.00     0.074 A 
ATOM     73  C   UNL A   1      40.004  34.571  32.889  1.00  0.00     0.031 C 
ATOM     74  C   UNL A   1      42.262  33.627  33.270  1.00  0.00     0.037 A 
BRANCH  61  75
ATOM     75  C   UNL A   1      45.842  28.745  32.103  1.00  0.00     0.064 A 
ATOM     76  C   UNL A   1      46.895  28.976  31.205  1.00  0.00     0.173 A 
ATOM     77  C   UNL A   1      46.106  27.966  33.240  1.00  0.00     0.173 A 
ATOM     78  F   UNL A   1      46.689  29.704  30.097  1.00  0.00    -0.203 F 
ATOM     79  C   UNL A   1      48.162  28.451  31.437  1.00  0.00     0.198 A 
ATOM     80  C   UNL A   1      47.382  27.466  33.483  1.00  0.00     0.198 A 
ATOM     81  F   UNL A   1      45.135  27.719  34.131  1.00  0.00    -0.203 F 
ATOM     82  F   UNL A   1      49.148  28.668  30.556  1.00  0.00    -0.200 F 
ATOM     83  C   UNL A   1      48.409  27.708  32.583  1.00  0.00     0.200 A 
ATOM     84  F   UNL A   1      47.623  26.762  34.598  1.00  0.00    -0.200 F 
ATOM     85  F   UNL A   1      49.638  27.229  32.820  1.00  0.00    -0.200 F 
ENDBRANCH  61  75
BRANCH  62  86
ATOM     86  C   UNL A   1      36.857  32.875  30.644  1.00  0.00     0.064 A 
ATOM     87  C   UNL A   1      36.555  33.548  29.451  1.00  0.00     0.173 A 
ATOM     88  C   UNL A   1      35.864  32.831  31.634  1.00  0.00     0.173 A 
ATOM     89  F   UNL A   1      37.478  33.638  28.481  1.00  0.00    -0.203 F 
ATOM     90  C   UNL A   1      35.323  34.173  29.267  1.00  0.00     0.198 A 
ATOM     91  C   UNL A   1      34.620  33.428  31.436  1.00  0.00     0.198 A 
ATOM     92  F   UNL A   1      36.099  32.200  32.794  1.00  0.00    -0.203 F 
ATOM     93  F   UNL A   1      35.083  34.855  28.138  1.00  0.00    -0.200 F 
ATOM     94  C   UNL A   1      34.354  34.107  30.256  1.00  0.00     0.200 A 
ATOM     95  F   UNL A   1      33.683  33.350  32.389  1.00  0.00    -0.200 F 
ATOM     96  F   UNL A   1      33.169  34.706  30.078  1.00  0.00    -0.200 F 
ENDBRANCH  62  86
BRANCH  74  97
ATOM     97  C   UNL A   1      42.604  34.847  34.075  1.00  0.00     0.064 A 
ATOM     98  C   UNL A   1      42.511  34.850  35.475  1.00  0.00     0.173 A 
ATOM     99  C   UNL A   1      43.111  35.995  33.447  1.00  0.00     0.173 A 
ATOM    100  F   UNL A   1      42.023  33.781  36.121  1.00  0.00    -0.203 F 
ATOM    101  C   UNL A   1      42.899  35.964  36.215  1.00  0.00     0.198 A 
ATOM    102  C   UNL A   1      43.530  37.093  34.193  1.00  0.00     0.198 A 
ATOM    103  F   UNL A   1      43.231  36.039  32.112  1.00  0.00    -0.203 F 
ATOM    104  F   UNL A   1      42.768  35.958  37.548  1.00  0.00    -0.200 F 
ATOM    105  C   UNL A   1      43.419  37.079  35.574  1.00  0.00     0.200 A 
ATOM    106  F   UNL A   1      44.051  38.162  33.573  1.00  0.00    -0.200 F 
ATOM    107  F   UNL A   1      43.813  38.141  36.291  1.00  0.00    -0.200 F 
ENDBRANCH  74  97
ENDBRANCH  48  49
ENDBRANCH  40  43
ENDBRANCH  38  39
ENDBRANCH  37  38
ENDBRANCH  36  37
ENDBRANCH  35  36
ENDBRANCH   1  35
TORSDOF 18
ENDMDL
MODEL 3
REMARK VINA RESULT:     -10.3      0.274      6.936
REMARK SMILES Nc1c(Nc2ncc(C(F)(F)F)cc2Cl)ncnc1N1CCC(C(=O)NCCCCCCNC(=O)c2ccc(-c3c4nc(c(-c5c(F)c(F)c(F)c(F)c5F)c5ccc([nH]5)c(-c5c(F)c(F)c(F)c(F)c5F)c5nc(c(-c6c(F)c(F)c(F)c(F)c6F)c6ccc3[nH]6)C=C5)C=C4)cc2)CC1
REMARK SMILES IDX 28 1 27 2 26 3 24 4 25 5 23 7 20 8 21 9 100 10 22 11 99 12
REMARK SMILES IDX 19 13 2 14 3 15 16 16 18 17 17 18 1 19 4 22 5 24 6 25 14 26
REMARK SMILES IDX 7 27 13 28 15 29 8 30 9 31 10 32 11 33 12 34 29 35 30 36
REMARK SMILES IDX 31 37 32 38 33 39 34 40 35 42 36 43 37 44 98 45 38 46 97 47
REMARK SMILES IDX 39 48 40 49 41 50 91 51 42 52 96 53 90 54 92 55 43 56 95 57
REMARK SMILES IDX 89 58 88 59 44 61 76 62 56 63 75 64 57 65 60 66 74 67 93 68
REMARK SMILES IDX 58 69 59 70 73 72 94 73 61 74 45 75 46 76 54 77 47 78 48 79
REMARK SMILES IDX 52 80 55 81 49 82 50 83 53 84 51 85 77 86 78 87 86 88 79 89
REMARK SMILES IDX 80 90 84 91 87 92 81 93 82 94 85 95 83 96 62 97 63 98 71 99
REMARK SMILES IDX 64 100 65 101 69 102 72 103 66 104 67 105 70 106 68 107
REMARK H PARENT 26 6 1 20 1 21 4 23 33 41 92 60 60 71
REMARK Flexibility Score: inf
ROOT
ATOM      1  C   UNL A   1      38.005  32.528  31.616  1.00  0.00     0.021 C 
ENDROOT
BRANCH   1   2
ATOM      2  C   UNL A   1      37.571  32.186  33.038  1.00  0.00     0.116 C 
BRANCH   2   3
ATOM      3  N   UNL A   1      37.096  30.816  33.125  1.00  0.00    -0.356 N 
ATOM      4  C   UNL A   1      37.781  29.647  33.242  1.00  0.00     0.223 C 
ATOM      5  O   UNL A   1      37.133  28.597  33.251  1.00  0.00    -0.275 OA
ATOM      6  H   UNL A   1      36.117  30.717  33.097  1.00  0.00     0.163 HD
BRANCH   4   7
ATOM      7  C   UNL A   1      39.294  29.620  33.381  1.00  0.00     0.082 C 
ATOM      8  N   UNL A   1      41.628  28.375  34.431  1.00  0.00    -0.355 N 
ATOM      9  C   UNL A   1      41.224  29.635  35.029  1.00  0.00     0.119 C 
ATOM     10  C   UNL A   1      41.354  28.154  33.024  1.00  0.00     0.119 C 
ATOM     11  C   UNL A   1      39.738  29.880  34.826  1.00  0.00     0.035 C 
ATOM     12  C   UNL A   1      39.876  28.358  32.724  1.00  0.00     0.035 C 
BRANCH   8  13
ATOM     13  C   UNL A   1      41.997  27.329  35.263  1.00  0.00     0.157 A 
ATOM     14  C   UNL A   1      43.225  26.672  35.070  1.00  0.00     0.118 A 
ATOM     15  C   UNL A   1      43.558  25.697  36.022  1.00  0.00     0.160 A 
ATOM     16  N   UNL A   1      42.723  25.341  37.013  1.00  0.00    -0.217 NA
ATOM     17  N   UNL A   1      41.164  27.001  36.270  1.00  0.00    -0.217 NA
ATOM     18  C   UNL A   1      41.569  26.013  37.081  1.00  0.00     0.226 A 
BRANCH  14  19
ATOM     19  N   UNL A   1      44.169  27.107  34.119  1.00  0.00    -0.393 N 
ATOM     20  H   UNL A   1      44.495  28.035  34.138  1.00  0.00     0.156 HD
ATOM     21  H   UNL A   1      44.502  26.483  33.435  1.00  0.00     0.156 HD
ENDBRANCH  14  19
BRANCH  15  22
ATOM     22  N   UNL A   1      44.860  25.137  35.955  1.00  0.00    -0.322 N 
ATOM     23  H   UNL A   1      45.611  25.759  36.094  1.00  0.00     0.170 HD
BRANCH  22  24
ATOM     24  C   UNL A   1      45.194  23.805  35.716  1.00  0.00     0.150 A 
ATOM     25  N   UNL A   1      45.642  23.137  36.811  1.00  0.00    -0.237 NA
ATOM     26  C   UNL A   1      45.091  23.174  34.470  1.00  0.00     0.084 A 
ATOM     27  C   UNL A   1      45.899  21.814  36.695  1.00  0.00     0.126 A 
ATOM     28  C   UNL A   1      45.376  21.809  34.378  1.00  0.00     0.039 A 
ATOM     29  Cl  UNL A   1      44.733  24.015  33.003  1.00  0.00    -0.080 Cl
ATOM     30  C   UNL A   1      45.771  21.101  35.515  1.00  0.00     0.075 A 
BRANCH  30  31
ATOM     31  C   UNL A   1      46.051  19.632  35.500  1.00  0.00     0.417 C 
ATOM     32  F   UNL A   1      44.913  18.885  35.500  1.00  0.00    -0.166 F 
ATOM     33  F   UNL A   1      46.750  19.248  34.397  1.00  0.00    -0.166 F 
ATOM     34  F   UNL A   1      46.776  19.206  36.571  1.00  0.00    -0.166 F 
ENDBRANCH  30  31
ENDBRANCH  22  24
ENDBRANCH  15  22
ENDBRANCH   8  13
ENDBRANCH   4   7
ENDBRANCH   2   3
ENDBRANCH   1   2
BRANCH   1  35
ATOM     35  C   UNL A   1      37.157  33.621  30.956  1.00  0.00     0.002 C 
BRANCH  35  36
ATOM     36  C   UNL A   1      35.689  33.652  31.395  1.00  0.00     0.002 C 
BRANCH  36  37
ATOM     37  C   UNL A   1      34.764  32.716  30.616  1.00  0.00     0.021 C 
BRANCH  37  38
ATOM     38  C   UNL A   1      35.141  32.538  29.150  1.00  0.00     0.116 C 
BRANCH  38  39
ATOM     39  N   UNL A   1      34.397  31.455  28.526  1.00  0.00    -0.352 N 
ATOM     40  C   UNL A   1      34.859  30.272  28.011  1.00  0.00     0.251 C 
ATOM     41  H   UNL A   1      33.424  31.592  28.464  1.00  0.00     0.163 HD
ATOM     42  O   UNL A   1      34.125  29.557  27.334  1.00  0.00    -0.269 OA
BRANCH  40  43
ATOM     43  C   UNL A   1      36.257  29.867  28.260  1.00  0.00     0.039 A 
ATOM     44  C   UNL A   1      37.200  30.035  27.244  1.00  0.00     0.014 A 
ATOM     45  C   UNL A   1      36.634  29.326  29.493  1.00  0.00     0.014 A 
ATOM     46  C   UNL A   1      38.534  29.705  27.483  1.00  0.00     0.010 A 
ATOM     47  C   UNL A   1      37.975  29.070  29.754  1.00  0.00     0.010 A 
ATOM     48  C   UNL A   1      38.937  29.248  28.748  1.00  0.00    -0.014 A 
BRANCH  48  49
ATOM     49  C   UNL A   1      40.358  28.924  29.026  1.00  0.00     0.031 A 
ATOM     50  C   UNL A   1      40.927  27.608  28.573  1.00  0.00     0.074 A 
ATOM     51  C   UNL A   1      41.123  29.797  29.708  1.00  0.00     0.049 A 
ATOM     52  N   UNL A   1      42.129  27.121  28.755  1.00  0.00    -0.248 NA
ATOM     53  C   UNL A   1      40.025  26.710  27.832  1.00  0.00     0.031 C 
ATOM     54  C   UNL A   1      40.672  31.090  30.225  1.00  0.00     0.029 A 
ATOM     55  N   UNL A   1      42.441  29.729  30.088  1.00  0.00    -0.354 N 
ATOM     56  C   UNL A   1      42.123  25.869  28.154  1.00  0.00     0.074 A 
ATOM     57  C   UNL A   1      40.787  25.640  27.655  1.00  0.00     0.031 C 
ATOM     58  C   UNL A   1      41.703  31.707  30.826  1.00  0.00     0.029 A 
ATOM     59  C   UNL A   1      42.875  30.838  30.776  1.00  0.00     0.049 A 
ATOM     60  H   UNL A   1      43.021  28.960  29.886  1.00  0.00     0.167 HD
ATOM     61  C   UNL A   1      43.153  25.004  28.005  1.00  0.00     0.037 A 
ATOM     62  C   UNL A   1      44.080  31.116  31.310  1.00  0.00     0.037 A 
ATOM     63  C   UNL A   1      44.489  25.247  28.479  1.00  0.00     0.049 A 
ATOM     64  C   UNL A   1      45.195  30.113  31.162  1.00  0.00     0.074 A 
ATOM     65  C   UNL A   1      45.608  24.448  28.339  1.00  0.00     0.029 A 
ATOM     66  N   UNL A   1      44.886  26.376  29.181  1.00  0.00    -0.354 N 
ATOM     67  N   UNL A   1      45.192  28.959  30.541  1.00  0.00    -0.248 NA
ATOM     68  C   UNL A   1      46.482  30.454  31.785  1.00  0.00     0.031 C 
ATOM     69  C   UNL A   1      46.672  25.066  28.998  1.00  0.00     0.029 A 
ATOM     70  C   UNL A   1      46.230  26.280  29.502  1.00  0.00     0.049 A 
ATOM     71  H   UNL A   1      44.300  27.132  29.415  1.00  0.00     0.167 HD
ATOM     72  C   UNL A   1      46.477  28.449  30.674  1.00  0.00     0.074 A 
ATOM     73  C   UNL A   1      47.240  29.430  31.417  1.00  0.00     0.031 C 
ATOM     74  C   UNL A   1      46.978  27.272  30.228  1.00  0.00     0.037 A 
BRANCH  61  75
ATOM     75  C   UNL A   1      42.896  23.719  27.275  1.00  0.00     0.064 A 
ATOM     76  C   UNL A   1      43.247  23.563  25.926  1.00  0.00     0.173 A 
ATOM     77  C   UNL A   1      42.393  22.600  27.957  1.00  0.00     0.173 A 
ATOM     78  F   UNL A   1      43.720  24.607  25.228  1.00  0.00    -0.203 F 
ATOM     79  C   UNL A   1      43.104  22.337  25.286  1.00  0.00     0.198 A 
ATOM     80  C   UNL A   1      42.277  21.367  27.321  1.00  0.00     0.198 A 
ATOM     81  F   UNL A   1      42.046  22.695  29.250  1.00  0.00    -0.203 F 
ATOM     82  F   UNL A   1      43.426  22.216  23.991  1.00  0.00    -0.200 F 
ATOM     83  C   UNL A   1      42.632  21.236  25.987  1.00  0.00     0.200 A 
ATOM     84  F   UNL A   1      41.837  20.301  28.004  1.00  0.00    -0.200 F 
ATOM     85  F   UNL A   1      42.523  20.048  25.376  1.00  0.00    -0.200 F 
ENDBRANCH  61  75
BRANCH  62  86
ATOM     86  C   UNL A   1      44.306  32.404  32.019  1.00  0.00     0.064 A 
ATOM     87  C   UNL A   1      44.718  33.548  31.322  1.00  0.00     0.173 A 
ATOM     88  C   UNL A   1      44.131  32.517  33.407  1.00  0.00     0.173 A 
ATOM     89  F   UNL A   1      44.921  33.487  29.997  1.00  0.00    -0.203 F 
ATOM     90  C   UNL A   1      44.970  34.747  31.986  1.00  0.00     0.198 A 
ATOM     91  C   UNL A   1      44.351  33.725  34.066  1.00  0.00     0.198 A 
ATOM     92  F   UNL A   1      43.737  31.454  34.124  1.00  0.00    -0.203 F 
ATOM     93  F   UNL A   1      45.415  35.809  31.300  1.00  0.00    -0.200 F 
ATOM     94  C   UNL A   1      44.781  34.837  33.356  1.00  0.00     0.200 A 
ATOM     95  F   UNL A   1      44.154  33.810  35.388  1.00  0.00    -0.200 F 
ATOM     96  F   UNL A   1      45.021  35.990  33.994  1.00  0.00    -0.200 F 
ENDBRANCH  62  86
BRANCH  74  97
ATOM     97  C   UNL A   1      48.424  26.978  30.504  1.00  0.00     0.064 A 
ATOM     98  C   UNL A   1      49.444  27.489  29.688  1.00  0.00     0.173 A 
ATOM     99  C   UNL A   1      48.797  26.252  31.645  1.00  0.00     0.173 A 
ATOM    100  F   UNL A   1      49.139  28.182  28.580  1.00  0.00    -0.203 F 
ATOM    101  C   UNL A   1      50.784  27.269  29.995  1.00  0.00     0.198 A 
ATOM    102  C   UNL A   1      50.138  26.063  31.967  1.00  0.00     0.198 A 
ATOM    103  F   UNL A   1      47.861  25.751  32.465  1.00  0.00    -0.203 F 
ATOM    104  F   UNL A   1      51.740  27.736  29.181  1.00  0.00    -0.200 F 
ATOM    105  C   UNL A   1      51.130  26.567  31.141  1.00  0.00     0.200 A 
ATOM    106  F   UNL A   1      50.470  25.401  33.085  1.00  0.00    -0.200 F 
ATOM    107  F   UNL A   1      52.420  26.376  31.446  1.00  0.00    -0.200 F 
ENDBRANCH  74  97
ENDBRANCH  48  49
ENDBRANCH  40  43
ENDBRANCH  38  39
ENDBRANCH  37  38
ENDBRANCH  36  37
ENDBRANCH  35  36
ENDBRANCH   1  35
TORSDOF 18
ENDMDL
