MODEL 1
REMARK VINA RESULT:     -12.9      0.000      0.000
REMARK SMILES O=C(NCCCCCCNC(=O)[C@H]1CC=CC[C@H]1C(=O)N[C@@H]1CCN(c2cccc(Cl)c2)C1)c1ccc(-c2c3nc(c(-c4c(F)c(F)c(F)c(F)c4F)c4ccc([nH]4)c(-c4c(F)c(F)c(F)c(F)c4F)c4nc(c(-c5c(F)c(F)c(F)c(F)c5F)c5ccc2[nH]5)C=C4)C=C3)cc1
REMARK SMILES IDX 7 1 6 2 5 3 4 4 3 5 1 6 2 7 34 9 35 10 96 11 36 12 95 13
REMARK SMILES IDX 37 14 38 15 39 16 89 17 40 18 94 19 88 20 90 21 41 22 93 23
REMARK SMILES IDX 87 24 86 25 42 27 74 28 54 29 73 30 55 31 58 32 72 33 91 34
REMARK SMILES IDX 56 35 57 36 71 38 92 39 59 40 43 41 44 42 52 43 45 44 46 45
REMARK SMILES IDX 50 46 53 47 47 48 48 49 51 50 49 51 75 52 76 53 84 54 77 55
REMARK SMILES IDX 78 56 82 57 85 58 79 59 80 60 83 61 81 62 60 63 61 64 69 65
REMARK SMILES IDX 62 66 63 67 67 68 70 69 64 70 65 71 68 72 66 73 8 74 9 75
REMARK SMILES IDX 10 76 11 77 12 79 13 80 14 81 18 82 15 83 17 84 16 85 19 86
REMARK SMILES IDX 20 87 21 88 22 90 23 91 33 92 24 93 25 94 26 95 27 96 32 97
REMARK SMILES IDX 28 98 30 99 29 100 31 101
REMARK H PARENT 3 8 90 26 58 37 10 78 21 89
REMARK Flexibility Score: inf
ROOT
ATOM      1  C   UNL A   1      33.463  30.207  27.014  1.00  0.00     0.002 C 
ENDROOT
BRANCH   1   2
ATOM      2  C   UNL A   1      31.986  30.596  26.811  1.00  0.00     0.002 C 
BRANCH   2   3
ATOM      3  C   UNL A   1      31.651  32.077  26.942  1.00  0.00     0.021 C 
BRANCH   3   4
ATOM      4  C   UNL A   1      32.841  32.960  27.267  1.00  0.00     0.116 C 
BRANCH   4   5
ATOM      5  N   UNL A   1      32.458  34.300  27.697  1.00  0.00    -0.352 N 
ATOM      6  O   UNL A   1      32.486  36.130  29.033  1.00  0.00    -0.269 OA
ATOM      7  C   UNL A   1      32.991  35.058  28.706  1.00  0.00     0.251 C 
ATOM      8  H   UNL A   1      31.718  34.714  27.196  1.00  0.00     0.163 HD
BRANCH   7   9
ATOM      9  C   UNL A   1      34.171  34.544  29.419  1.00  0.00     0.039 A 
ATOM     10  C   UNL A   1      35.446  34.752  28.886  1.00  0.00     0.014 A 
ATOM     11  C   UNL A   1      33.991  33.782  30.575  1.00  0.00     0.014 A 
ATOM     12  C   UNL A   1      36.525  34.064  29.414  1.00  0.00     0.010 A 
ATOM     13  C   UNL A   1      35.097  33.177  31.167  1.00  0.00     0.010 A 
ATOM     14  C   UNL A   1      36.365  33.290  30.572  1.00  0.00    -0.014 A 
BRANCH  14  15
ATOM     15  C   UNL A   1      37.549  32.658  31.196  1.00  0.00     0.031 A 
ATOM     16  C   UNL A   1      38.283  31.547  30.509  1.00  0.00     0.074 A 
ATOM     17  C   UNL A   1      37.937  33.095  32.409  1.00  0.00     0.049 A 
ATOM     18  N   UNL A   1      39.269  30.810  30.955  1.00  0.00    -0.248 NA
ATOM     19  C   UNL A   1      37.848  31.209  29.146  1.00  0.00     0.031 C 
ATOM     20  C   UNL A   1      37.293  34.177  33.157  1.00  0.00     0.029 A 
ATOM     21  N   UNL A   1      38.953  32.682  33.227  1.00  0.00    -0.354 N 
ATOM     22  C   UNL A   1      39.550  29.901  29.943  1.00  0.00     0.074 A 
ATOM     23  C   UNL A   1      38.618  30.166  28.868  1.00  0.00     0.031 C 
ATOM     24  C   UNL A   1      37.942  34.359  34.314  1.00  0.00     0.029 A 
ATOM     25  C   UNL A   1      38.990  33.352  34.425  1.00  0.00     0.049 A 
ATOM     26  H   UNL A   1      39.595  31.976  32.983  1.00  0.00     0.167 HD
ATOM     27  C   UNL A   1      40.502  28.936  29.925  1.00  0.00     0.037 A 
ATOM     28  C   UNL A   1      39.751  33.148  35.514  1.00  0.00     0.037 A 
ATOM     29  C   UNL A   1      41.422  28.697  31.009  1.00  0.00     0.049 A 
ATOM     30  C   UNL A   1      40.765  32.045  35.486  1.00  0.00     0.074 A 
ATOM     31  C   UNL A   1      42.444  27.767  31.086  1.00  0.00     0.029 A 
ATOM     32  N   UNL A   1      41.422  29.391  32.213  1.00  0.00    -0.354 N 
ATOM     33  N   UNL A   1      41.036  31.199  34.522  1.00  0.00    -0.248 NA
ATOM     34  C   UNL A   1      41.576  31.865  36.695  1.00  0.00     0.031 C 
ATOM     35  C   UNL A   1      43.022  27.858  32.357  1.00  0.00     0.029 A 
ATOM     36  C   UNL A   1      42.408  28.891  33.049  1.00  0.00     0.049 A 
ATOM     37  H   UNL A   1      40.811  30.129  32.440  1.00  0.00     0.167 HD
ATOM     38  C   UNL A   1      42.069  30.404  34.994  1.00  0.00     0.074 A 
ATOM     39  C   UNL A   1      42.377  30.874  36.330  1.00  0.00     0.031 C 
ATOM     40  C   UNL A   1      42.706  29.381  34.373  1.00  0.00     0.037 A 
BRANCH  27  41
ATOM     41  C   UNL A   1      40.565  28.043  28.717  1.00  0.00     0.064 A 
ATOM     42  C   UNL A   1      41.315  28.379  27.580  1.00  0.00     0.173 A 
ATOM     43  C   UNL A   1      39.874  26.821  28.705  1.00  0.00     0.173 A 
ATOM     44  F   UNL A   1      41.989  29.538  27.533  1.00  0.00    -0.203 F 
ATOM     45  C   UNL A   1      41.338  27.547  26.462  1.00  0.00     0.198 A 
ATOM     46  C   UNL A   1      39.928  25.974  27.600  1.00  0.00     0.198 A 
ATOM     47  F   UNL A   1      39.148  26.442  29.767  1.00  0.00    -0.203 F 
ATOM     48  F   UNL A   1      42.011  27.919  25.365  1.00  0.00    -0.200 F 
ATOM     49  C   UNL A   1      40.648  26.343  26.475  1.00  0.00     0.200 A 
ATOM     50  F   UNL A   1      39.273  24.805  27.621  1.00  0.00    -0.200 F 
ATOM     51  F   UNL A   1      40.672  25.544  25.400  1.00  0.00    -0.200 F 
ENDBRANCH  27  41
BRANCH  28  52
ATOM     52  C   UNL A   1      39.553  34.008  36.707  1.00  0.00     0.064 A 
ATOM     53  C   UNL A   1      38.757  33.582  37.777  1.00  0.00     0.173 A 
ATOM     54  C   UNL A   1      40.204  35.246  36.827  1.00  0.00     0.173 A 
ATOM     55  F   UNL A   1      38.107  32.411  37.703  1.00  0.00    -0.203 F 
ATOM     56  C   UNL A   1      38.612  34.365  38.920  1.00  0.00     0.198 A 
ATOM     57  C   UNL A   1      40.084  36.012  37.983  1.00  0.00     0.198 A 
ATOM     58  F   UNL A   1      40.990  35.691  35.835  1.00  0.00    -0.203 F 
ATOM     59  F   UNL A   1      37.823  33.948  39.918  1.00  0.00    -0.200 F 
ATOM     60  C   UNL A   1      39.284  35.574  39.027  1.00  0.00     0.200 A 
ATOM     61  F   UNL A   1      40.755  37.167  38.091  1.00  0.00    -0.200 F 
ATOM     62  F   UNL A   1      39.160  36.316  40.135  1.00  0.00    -0.200 F 
ENDBRANCH  28  52
BRANCH  40  63
ATOM     63  C   UNL A   1      43.842  28.735  35.110  1.00  0.00     0.064 A 
ATOM     64  C   UNL A   1      45.165  29.181  34.972  1.00  0.00     0.173 A 
ATOM     65  C   UNL A   1      43.592  27.685  36.007  1.00  0.00     0.173 A 
ATOM     66  F   UNL A   1      45.458  30.169  34.112  1.00  0.00    -0.203 F 
ATOM     67  C   UNL A   1      46.197  28.588  35.694  1.00  0.00     0.198 A 
ATOM     68  C   UNL A   1      44.621  27.118  36.752  1.00  0.00     0.198 A 
ATOM     69  F   UNL A   1      42.343  27.224  36.177  1.00  0.00    -0.203 F 
ATOM     70  F   UNL A   1      47.459  29.001  35.515  1.00  0.00    -0.200 F 
ATOM     71  C   UNL A   1      45.923  27.565  36.590  1.00  0.00     0.200 A 
ATOM     72  F   UNL A   1      44.351  26.139  37.626  1.00  0.00    -0.200 F 
ATOM     73  F   UNL A   1      46.916  27.006  37.295  1.00  0.00    -0.200 F 
ENDBRANCH  40  63
ENDBRANCH  14  15
ENDBRANCH   7   9
ENDBRANCH   4   5
ENDBRANCH   3   4
ENDBRANCH   2   3
ENDBRANCH   1   2
BRANCH   1  74
ATOM     74  C   UNL A   1      33.806  28.731  27.317  1.00  0.00     0.021 C 
BRANCH  74  75
ATOM     75  C   UNL A   1      32.738  27.699  26.941  1.00  0.00     0.116 C 
BRANCH  75  76
ATOM     76  N   UNL A   1      33.150  26.636  25.976  1.00  0.00    -0.356 N 
ATOM     77  C   UNL A   1      33.171  26.491  24.591  1.00  0.00     0.224 C 
ATOM     78  H   UNL A   1      33.493  25.835  26.434  1.00  0.00     0.163 HD
ATOM     79  O   UNL A   1      34.086  25.861  24.049  1.00  0.00    -0.275 OA
BRANCH  77  80
ATOM     80  C   UNL A   1      32.059  26.865  23.617  1.00  0.00     0.095 C 
ATOM     81  C   UNL A   1      31.767  28.354  23.867  1.00  0.00     0.041 C 
ATOM     82  C   UNL A   1      32.412  26.513  22.200  1.00  0.00     0.095 C 
ATOM     83  C   UNL A   1      33.026  29.121  23.634  1.00  0.00    -0.030 C 
ATOM     84  C   UNL A   1      33.426  27.613  21.660  1.00  0.00     0.041 C 
ATOM     85  C   UNL A   1      33.831  28.734  22.632  1.00  0.00    -0.030 C 
BRANCH  82  86
ATOM     86  C   UNL A   1      32.734  24.946  22.217  1.00  0.00     0.224 C 
ATOM     87  O   UNL A   1      33.819  24.501  21.849  1.00  0.00    -0.275 OA
ATOM     88  N   UNL A   1      31.674  24.100  22.639  1.00  0.00    -0.351 N 
ATOM     89  H   UNL A   1      30.791  24.345  22.278  1.00  0.00     0.163 HD
BRANCH  88  90
ATOM     90  C   UNL A   1      31.660  22.873  23.557  1.00  0.00     0.103 C 
ATOM     91  C   UNL A   1      31.435  23.277  25.026  1.00  0.00     0.048 C 
ATOM     92  C   UNL A   1      32.931  21.931  23.812  1.00  0.00     0.141 C 
ATOM     93  C   UNL A   1      32.839  23.416  25.665  1.00  0.00     0.119 C 
ATOM     94  N   UNL A   1      33.658  22.414  24.993  1.00  0.00    -0.369 N 
BRANCH  94  95
ATOM     95  C   UNL A   1      35.005  22.252  25.286  1.00  0.00     0.038 A 
ATOM     96  C   UNL A   1      35.812  23.321  25.686  1.00  0.00     0.026 A 
ATOM     97  C   UNL A   1      35.706  21.043  25.167  1.00  0.00     0.046 A 
ATOM     98  C   UNL A   1      37.211  23.194  25.871  1.00  0.00     0.004 A 
ATOM     99  C   UNL A   1      37.101  20.919  25.223  1.00  0.00     0.043 A 
ATOM    100  C   UNL A   1      37.868  22.000  25.593  1.00  0.00     0.020 A 
ATOM    101  Cl  UNL A   1      37.855  19.427  24.785  1.00  0.00    -0.084 Cl
ENDBRANCH  94  95
ENDBRANCH  88  90
ENDBRANCH  82  86
ENDBRANCH  77  80
ENDBRANCH  75  76
ENDBRANCH  74  75
ENDBRANCH   1  74
TORSDOF 16
ENDMDL
MODEL 2
REMARK VINA RESULT:     -12.9      1.228      2.238
REMARK SMILES O=C(NCCCCCCNC(=O)[C@H]1CC=CC[C@H]1C(=O)N[C@@H]1CCN(c2cccc(Cl)c2)C1)c1ccc(-c2c3nc(c(-c4c(F)c(F)c(F)c(F)c4F)c4ccc([nH]4)c(-c4c(F)c(F)c(F)c(F)c4F)c4nc(c(-c5c(F)c(F)c(F)c(F)c5F)c5ccc2[nH]5)C=C4)C=C3)cc1
REMARK SMILES IDX 7 1 6 2 5 3 4 4 3 5 1 6 2 7 34 9 35 10 96 11 36 12 95 13
REMARK SMILES IDX 37 14 38 15 39 16 89 17 40 18 94 19 88 20 90 21 41 22 93 23
REMARK SMILES IDX 87 24 86 25 42 27 74 28 54 29 73 30 55 31 58 32 72 33 91 34
REMARK SMILES IDX 56 35 57 36 71 38 92 39 59 40 43 41 44 42 52 43 45 44 46 45
REMARK SMILES IDX 50 46 53 47 47 48 48 49 51 50 49 51 75 52 76 53 84 54 77 55
REMARK SMILES IDX 78 56 82 57 85 58 79 59 80 60 83 61 81 62 60 63 61 64 69 65
REMARK SMILES IDX 62 66 63 67 67 68 70 69 64 70 65 71 68 72 66 73 8 74 9 75
REMARK SMILES IDX 10 76 11 77 12 79 13 80 14 81 18 82 15 83 17 84 16 85 19 86
REMARK SMILES IDX 20 87 21 88 22 90 23 91 33 92 24 93 25 94 26 95 27 96 32 97
REMARK SMILES IDX 28 98 30 99 29 100 31 101
REMARK H PARENT 3 8 90 26 58 37 10 78 21 89
REMARK Flexibility Score: inf
ROOT
ATOM      1  C   UNL A   1      33.299  30.017  26.259  1.00  0.00     0.002 C 
ENDROOT
BRANCH   1   2
ATOM      2  C   UNL A   1      31.832  30.470  26.137  1.00  0.00     0.002 C 
BRANCH   2   3
ATOM      3  C   UNL A   1      31.504  31.859  26.669  1.00  0.00     0.021 C 
BRANCH   3   4
ATOM      4  C   UNL A   1      32.667  32.556  27.353  1.00  0.00     0.116 C 
BRANCH   4   5
ATOM      5  N   UNL A   1      32.398  33.958  27.650  1.00  0.00    -0.352 N 
ATOM      6  O   UNL A   1      32.618  35.913  28.775  1.00  0.00    -0.269 OA
ATOM      7  C   UNL A   1      33.031  34.778  28.547  1.00  0.00     0.251 C 
ATOM      8  H   UNL A   1      31.664  34.370  27.139  1.00  0.00     0.163 HD
BRANCH   7   9
ATOM      9  C   UNL A   1      34.207  34.257  29.261  1.00  0.00     0.039 A 
ATOM     10  C   UNL A   1      35.486  34.671  28.879  1.00  0.00     0.014 A 
ATOM     11  C   UNL A   1      34.031  33.292  30.254  1.00  0.00     0.014 A 
ATOM     12  C   UNL A   1      36.594  34.002  29.374  1.00  0.00     0.010 A 
ATOM     13  C   UNL A   1      35.152  32.697  30.828  1.00  0.00     0.010 A 
ATOM     14  C   UNL A   1      36.438  33.027  30.369  1.00  0.00    -0.014 A 
BRANCH  14  15
ATOM     15  C   UNL A   1      37.636  32.407  30.977  1.00  0.00     0.031 A 
ATOM     16  C   UNL A   1      38.383  31.317  30.271  1.00  0.00     0.074 A 
ATOM     17  C   UNL A   1      38.026  32.835  32.193  1.00  0.00     0.049 A 
ATOM     18  N   UNL A   1      39.384  30.590  30.701  1.00  0.00    -0.248 NA
ATOM     19  C   UNL A   1      37.943  30.988  28.907  1.00  0.00     0.031 C 
ATOM     20  C   UNL A   1      37.371  33.898  32.959  1.00  0.00     0.029 A 
ATOM     21  N   UNL A   1      39.055  32.429  32.999  1.00  0.00    -0.354 N 
ATOM     22  C   UNL A   1      39.672  29.698  29.677  1.00  0.00     0.074 A 
ATOM     23  C   UNL A   1      38.728  29.961  28.611  1.00  0.00     0.031 C 
ATOM     24  C   UNL A   1      38.025  34.076  34.113  1.00  0.00     0.029 A 
ATOM     25  C   UNL A   1      39.089  33.085  34.204  1.00  0.00     0.049 A 
ATOM     26  H   UNL A   1      39.706  31.737  32.741  1.00  0.00     0.167 HD
ATOM     27  C   UNL A   1      40.640  28.749  29.640  1.00  0.00     0.037 A 
ATOM     28  C   UNL A   1      39.861  32.880  35.285  1.00  0.00     0.037 A 
ATOM     29  C   UNL A   1      41.571  28.512  30.714  1.00  0.00     0.049 A 
ATOM     30  C   UNL A   1      40.893  31.794  35.237  1.00  0.00     0.074 A 
ATOM     31  C   UNL A   1      42.608  27.598  30.772  1.00  0.00     0.029 A 
ATOM     32  N   UNL A   1      41.569  29.191  31.927  1.00  0.00    -0.354 N 
ATOM     33  N   UNL A   1      41.171  30.964  34.260  1.00  0.00    -0.248 NA
ATOM     34  C   UNL A   1      41.716  31.613  36.437  1.00  0.00     0.031 C 
ATOM     35  C   UNL A   1      43.194  27.683  32.040  1.00  0.00     0.029 A 
ATOM     36  C   UNL A   1      42.569  28.697  32.749  1.00  0.00     0.049 A 
ATOM     37  H   UNL A   1      40.948  29.916  32.166  1.00  0.00     0.167 HD
ATOM     38  C   UNL A   1      42.220  30.180  34.715  1.00  0.00     0.074 A 
ATOM     39  C   UNL A   1      42.531  30.639  36.055  1.00  0.00     0.031 C 
ATOM     40  C   UNL A   1      42.869  29.175  34.077  1.00  0.00     0.037 A 
BRANCH  27  41
ATOM     41  C   UNL A   1      40.708  27.872  28.420  1.00  0.00     0.064 A 
ATOM     42  C   UNL A   1      41.450  28.231  27.284  1.00  0.00     0.173 A 
ATOM     43  C   UNL A   1      40.031  26.643  28.395  1.00  0.00     0.173 A 
ATOM     44  F   UNL A   1      42.110  29.398  27.249  1.00  0.00    -0.203 F 
ATOM     45  C   UNL A   1      41.478  27.413  26.156  1.00  0.00     0.198 A 
ATOM     46  C   UNL A   1      40.090  25.810  27.279  1.00  0.00     0.198 A 
ATOM     47  F   UNL A   1      39.313  26.243  29.455  1.00  0.00    -0.203 F 
ATOM     48  F   UNL A   1      42.143  27.807  25.061  1.00  0.00    -0.200 F 
ATOM     49  C   UNL A   1      40.802  26.202  26.157  1.00  0.00     0.200 A 
ATOM     50  F   UNL A   1      39.448  24.634  27.288  1.00  0.00    -0.200 F 
ATOM     51  F   UNL A   1      40.831  25.416  25.071  1.00  0.00    -0.200 F 
ENDBRANCH  27  41
BRANCH  28  52
ATOM     52  C   UNL A   1      39.659  33.722  36.490  1.00  0.00     0.064 A 
ATOM     53  C   UNL A   1      40.239  34.992  36.586  1.00  0.00     0.173 A 
ATOM     54  C   UNL A   1      38.831  33.298  37.542  1.00  0.00     0.173 A 
ATOM     55  F   UNL A   1      41.045  35.437  35.610  1.00  0.00    -0.203 F 
ATOM     56  C   UNL A   1      40.007  35.805  37.694  1.00  0.00     0.198 A 
ATOM     57  C   UNL A   1      38.575  34.125  38.632  1.00  0.00     0.198 A 
ATOM     58  F   UNL A   1      38.240  32.096  37.489  1.00  0.00    -0.203 F 
ATOM     59  F   UNL A   1      40.596  37.006  37.775  1.00  0.00    -0.200 F 
ATOM     60  C   UNL A   1      39.167  35.375  38.710  1.00  0.00     0.200 A 
ATOM     61  F   UNL A   1      37.743  33.715  39.600  1.00  0.00    -0.200 F 
ATOM     62  F   UNL A   1      38.929  36.167  39.765  1.00  0.00    -0.200 F 
ENDBRANCH  28  52
BRANCH  40  63
ATOM     63  C   UNL A   1      44.021  28.539  34.797  1.00  0.00     0.064 A 
ATOM     64  C   UNL A   1      43.863  27.384  35.575  1.00  0.00     0.173 A 
ATOM     65  C   UNL A   1      45.313  29.070  34.662  1.00  0.00     0.173 A 
ATOM     66  F   UNL A   1      42.644  26.850  35.751  1.00  0.00    -0.203 F 
ATOM     67  C   UNL A   1      44.954  26.793  36.205  1.00  0.00     0.198 A 
ATOM     68  C   UNL A   1      46.407  28.458  35.265  1.00  0.00     0.198 A 
ATOM     69  F   UNL A   1      45.518  30.173  33.925  1.00  0.00    -0.203 F 
ATOM     70  F   UNL A   1      44.774  25.714  36.980  1.00  0.00    -0.200 F 
ATOM     71  C   UNL A   1      46.226  27.324  36.042  1.00  0.00     0.200 A 
ATOM     72  F   UNL A   1      47.635  28.964  35.094  1.00  0.00    -0.200 F 
ATOM     73  F   UNL A   1      47.277  26.744  36.637  1.00  0.00    -0.200 F 
ENDBRANCH  40  63
ENDBRANCH  14  15
ENDBRANCH   7   9
ENDBRANCH   4   5
ENDBRANCH   3   4
ENDBRANCH   2   3
ENDBRANCH   1   2
BRANCH   1  74
ATOM     74  C   UNL A   1      33.632  28.821  27.180  1.00  0.00     0.021 C 
BRANCH  74  75
ATOM     75  C   UNL A   1      32.746  27.581  27.023  1.00  0.00     0.116 C 
BRANCH  75  76
ATOM     76  N   UNL A   1      33.262  26.504  26.125  1.00  0.00    -0.356 N 
ATOM     77  C   UNL A   1      33.214  26.225  24.761  1.00  0.00     0.224 C 
ATOM     78  H   UNL A   1      33.762  25.818  26.624  1.00  0.00     0.163 HD
ATOM     79  O   UNL A   1      34.182  25.695  24.204  1.00  0.00    -0.275 OA
BRANCH  77  80
ATOM     80  C   UNL A   1      31.993  26.318  23.854  1.00  0.00     0.095 C 
ATOM     81  C   UNL A   1      31.714  27.820  23.681  1.00  0.00     0.041 C 
ATOM     82  C   UNL A   1      32.186  25.553  22.575  1.00  0.00     0.095 C 
ATOM     83  C   UNL A   1      32.928  28.455  23.089  1.00  0.00    -0.030 C 
ATOM     84  C   UNL A   1      33.117  26.420  21.620  1.00  0.00     0.041 C 
ATOM     85  C   UNL A   1      33.618  27.770  22.163  1.00  0.00    -0.030 C 
BRANCH  82  86
ATOM     86  C   UNL A   1      32.527  24.055  23.020  1.00  0.00     0.224 C 
ATOM     87  O   UNL A   1      33.400  23.394  22.464  1.00  0.00    -0.275 OA
ATOM     88  N   UNL A   1      31.726  23.522  24.067  1.00  0.00    -0.351 N 
ATOM     89  H   UNL A   1      30.767  23.732  23.990  1.00  0.00     0.163 HD
BRANCH  88  90
ATOM     90  C   UNL A   1      32.092  22.679  25.293  1.00  0.00     0.103 C 
ATOM     91  C   UNL A   1      33.596  22.774  25.609  1.00  0.00     0.048 C 
ATOM     92  C   UNL A   1      31.988  21.081  25.346  1.00  0.00     0.141 C 
ATOM     93  C   UNL A   1      34.271  21.571  24.904  1.00  0.00     0.119 C 
ATOM     94  N   UNL A   1      33.279  20.503  24.956  1.00  0.00    -0.369 N 
BRANCH  94  95
ATOM     95  C   UNL A   1      33.517  19.255  24.395  1.00  0.00     0.038 A 
ATOM     96  C   UNL A   1      32.784  18.780  23.304  1.00  0.00     0.026 A 
ATOM     97  C   UNL A   1      34.457  18.333  24.876  1.00  0.00     0.046 A 
ATOM     98  C   UNL A   1      32.934  17.464  22.799  1.00  0.00     0.004 A 
ATOM     99  C   UNL A   1      34.537  16.991  24.476  1.00  0.00     0.043 A 
ATOM    100  C   UNL A   1      33.779  16.548  23.417  1.00  0.00     0.020 A 
ATOM    101  Cl  UNL A   1      35.549  15.889  25.341  1.00  0.00    -0.084 Cl
ENDBRANCH  94  95
ENDBRANCH  88  90
ENDBRANCH  82  86
ENDBRANCH  77  80
ENDBRANCH  75  76
ENDBRANCH  74  75
ENDBRANCH   1  74
TORSDOF 16
ENDMDL
MODEL 3
REMARK VINA RESULT:     -12.8      1.767      7.635
REMARK SMILES O=C(NCCCCCCNC(=O)[C@H]1CC=CC[C@H]1C(=O)N[C@@H]1CCN(c2cccc(Cl)c2)C1)c1ccc(-c2c3nc(c(-c4c(F)c(F)c(F)c(F)c4F)c4ccc([nH]4)c(-c4c(F)c(F)c(F)c(F)c4F)c4nc(c(-c5c(F)c(F)c(F)c(F)c5F)c5ccc2[nH]5)C=C4)C=C3)cc1
REMARK SMILES IDX 7 1 6 2 5 3 4 4 3 5 1 6 2 7 34 9 35 10 96 11 36 12 95 13
REMARK SMILES IDX 37 14 38 15 39 16 89 17 40 18 94 19 88 20 90 21 41 22 93 23
REMARK SMILES IDX 87 24 86 25 42 27 74 28 54 29 73 30 55 31 58 32 72 33 91 34
REMARK SMILES IDX 56 35 57 36 71 38 92 39 59 40 43 41 44 42 52 43 45 44 46 45
REMARK SMILES IDX 50 46 53 47 47 48 48 49 51 50 49 51 75 52 76 53 84 54 77 55
REMARK SMILES IDX 78 56 82 57 85 58 79 59 80 60 83 61 81 62 60 63 61 64 69 65
REMARK SMILES IDX 62 66 63 67 67 68 70 69 64 70 65 71 68 72 66 73 8 74 9 75
REMARK SMILES IDX 10 76 11 77 12 79 13 80 14 81 18 82 15 83 17 84 16 85 19 86
REMARK SMILES IDX 20 87 21 88 22 90 23 91 33 92 24 93 25 94 26 95 27 96 32 97
REMARK SMILES IDX 28 98 30 99 29 100 31 101
REMARK H PARENT 3 8 90 26 58 37 10 78 21 89
REMARK Flexibility Score: inf
ROOT
ATOM      1  C   UNL A   1      34.882  32.606  28.975  1.00  0.00     0.002 C 
ENDROOT
BRANCH   1   2
ATOM      2  C   UNL A   1      35.379  34.064  28.979  1.00  0.00     0.002 C 
BRANCH   2   3
ATOM      3  C   UNL A   1      34.307  35.145  29.008  1.00  0.00     0.021 C 
BRANCH   3   4
ATOM      4  C   UNL A   1      32.984  34.698  29.603  1.00  0.00     0.116 C 
BRANCH   4   5
ATOM      5  N   UNL A   1      32.425  35.662  30.544  1.00  0.00    -0.352 N 
ATOM      6  O   UNL A   1      32.128  36.648  32.563  1.00  0.00    -0.269 OA
ATOM      7  C   UNL A   1      32.770  35.876  31.853  1.00  0.00     0.251 C 
ATOM      8  H   UNL A   1      31.705  36.234  30.192  1.00  0.00     0.163 HD
BRANCH   7   9
ATOM      9  C   UNL A   1      33.912  35.133  32.406  1.00  0.00     0.039 A 
ATOM     10  C   UNL A   1      35.186  35.708  32.385  1.00  0.00     0.014 A 
ATOM     11  C   UNL A   1      33.720  33.829  32.866  1.00  0.00     0.014 A 
ATOM     12  C   UNL A   1      36.291  34.924  32.670  1.00  0.00     0.010 A 
ATOM     13  C   UNL A   1      34.827  33.078  33.256  1.00  0.00     0.010 A 
ATOM     14  C   UNL A   1      36.121  33.611  33.131  1.00  0.00    -0.014 A 
BRANCH  14  15
ATOM     15  C   UNL A   1      37.303  32.825  33.549  1.00  0.00     0.031 A 
ATOM     16  C   UNL A   1      37.981  33.089  34.858  1.00  0.00     0.074 A 
ATOM     17  C   UNL A   1      37.766  31.879  32.710  1.00  0.00     0.049 A 
ATOM     18  N   UNL A   1      39.087  32.573  35.334  1.00  0.00    -0.248 NA
ATOM     19  C   UNL A   1      37.344  34.070  35.749  1.00  0.00     0.031 C 
ATOM     20  C   UNL A   1      37.170  31.540  31.416  1.00  0.00     0.029 A 
ATOM     21  N   UNL A   1      38.841  31.039  32.813  1.00  0.00    -0.354 N 
ATOM     22  C   UNL A   1      39.295  33.189  36.560  1.00  0.00     0.074 A 
ATOM     23  C   UNL A   1      38.213  34.131  36.749  1.00  0.00     0.031 C 
ATOM     24  C   UNL A   1      37.873  30.548  30.854  1.00  0.00     0.029 A 
ATOM     25  C   UNL A   1      39.014  30.244  31.708  1.00  0.00     0.049 A 
ATOM     26  H   UNL A   1      39.432  31.007  33.600  1.00  0.00     0.167 HD
ATOM     27  C   UNL A   1      40.303  32.979  37.442  1.00  0.00     0.037 A 
ATOM     28  C   UNL A   1      40.008  29.397  31.391  1.00  0.00     0.037 A 
ATOM     29  C   UNL A   1      41.368  32.029  37.232  1.00  0.00     0.049 A 
ATOM     30  C   UNL A   1      41.136  29.216  32.362  1.00  0.00     0.074 A 
ATOM     31  C   UNL A   1      42.423  31.715  38.070  1.00  0.00     0.029 A 
ATOM     32  N   UNL A   1      41.516  31.247  36.093  1.00  0.00    -0.354 N 
ATOM     33  N   UNL A   1      41.320  29.790  33.527  1.00  0.00    -0.248 NA
ATOM     34  C   UNL A   1      42.194  28.277  31.976  1.00  0.00     0.031 C 
ATOM     35  C   UNL A   1      43.240  30.789  37.413  1.00  0.00     0.029 A 
ATOM     36  C   UNL A   1      42.659  30.472  36.195  1.00  0.00     0.049 A 
ATOM     37  H   UNL A   1      40.899  31.246  35.325  1.00  0.00     0.167 HD
ATOM     38  C   UNL A   1      42.498  29.260  34.029  1.00  0.00     0.074 A 
ATOM     39  C   UNL A   1      42.983  28.315  33.041  1.00  0.00     0.031 C 
ATOM     40  C   UNL A   1      43.119  29.529  35.204  1.00  0.00     0.037 A 
BRANCH  27  41
ATOM     41  C   UNL A   1      40.325  33.821  38.688  1.00  0.00     0.064 A 
ATOM     42  C   UNL A   1      39.630  33.451  39.850  1.00  0.00     0.173 A 
ATOM     43  C   UNL A   1      41.068  35.011  38.724  1.00  0.00     0.173 A 
ATOM     44  F   UNL A   1      38.897  32.328  39.870  1.00  0.00    -0.203 F 
ATOM     45  C   UNL A   1      39.645  34.261  40.984  1.00  0.00     0.198 A 
ATOM     46  C   UNL A   1      41.110  35.800  39.871  1.00  0.00     0.198 A 
ATOM     47  F   UNL A   1      41.760  35.411  37.646  1.00  0.00    -0.203 F 
ATOM     48  F   UNL A   1      38.923  33.917  42.060  1.00  0.00    -0.200 F 
ATOM     49  C   UNL A   1      40.389  35.432  40.996  1.00  0.00     0.200 A 
ATOM     50  F   UNL A   1      41.842  36.924  39.885  1.00  0.00    -0.200 F 
ATOM     51  F   UNL A   1      40.403  36.208  42.088  1.00  0.00    -0.200 F 
ENDBRANCH  27  41
BRANCH  28  52
ATOM     52  C   UNL A   1      39.965  28.682  30.092  1.00  0.00     0.064 A 
ATOM     53  C   UNL A   1      40.555  29.232  28.948  1.00  0.00     0.173 A 
ATOM     54  C   UNL A   1      39.385  27.408  29.981  1.00  0.00     0.173 A 
ATOM     55  F   UNL A   1      41.113  30.451  29.002  1.00  0.00    -0.203 F 
ATOM     56  C   UNL A   1      40.561  28.539  27.739  1.00  0.00     0.198 A 
ATOM     57  C   UNL A   1      39.421  26.703  28.781  1.00  0.00     0.198 A 
ATOM     58  F   UNL A   1      38.821  26.831  31.053  1.00  0.00    -0.203 F 
ATOM     59  F   UNL A   1      41.109  29.099  26.652  1.00  0.00    -0.200 F 
ATOM     60  C   UNL A   1      40.004  27.272  27.659  1.00  0.00     0.200 A 
ATOM     61  F   UNL A   1      38.903  25.469  28.716  1.00  0.00    -0.200 F 
ATOM     62  F   UNL A   1      40.029  26.598  26.501  1.00  0.00    -0.200 F 
ENDBRANCH  28  52
BRANCH  40  63
ATOM     63  C   UNL A   1      44.362  28.749  35.515  1.00  0.00     0.064 A 
ATOM     64  C   UNL A   1      44.316  27.508  36.167  1.00  0.00     0.173 A 
ATOM     65  C   UNL A   1      45.615  29.231  35.106  1.00  0.00     0.173 A 
ATOM     66  F   UNL A   1      43.144  27.014  36.596  1.00  0.00    -0.203 F 
ATOM     67  C   UNL A   1      45.481  26.788  36.413  1.00  0.00     0.198 A 
ATOM     68  C   UNL A   1      46.774  28.493  35.323  1.00  0.00     0.198 A 
ATOM     69  F   UNL A   1      45.712  30.412  34.475  1.00  0.00    -0.203 F 
ATOM     70  F   UNL A   1      45.419  25.625  37.076  1.00  0.00    -0.200 F 
ATOM     71  C   UNL A   1      46.706  27.275  35.982  1.00  0.00     0.200 A 
ATOM     72  F   UNL A   1      47.954  28.959  34.893  1.00  0.00    -0.200 F 
ATOM     73  F   UNL A   1      47.825  26.572  36.207  1.00  0.00    -0.200 F 
ENDBRANCH  40  63
ENDBRANCH  14  15
ENDBRANCH   7   9
ENDBRANCH   4   5
ENDBRANCH   3   4
ENDBRANCH   2   3
ENDBRANCH   1   2
BRANCH   1  74
ATOM     74  C   UNL A   1      35.170  31.728  27.736  1.00  0.00     0.021 C 
BRANCH  74  75
ATOM     75  C   UNL A   1      35.331  30.226  27.994  1.00  0.00     0.116 C 
BRANCH  75  76
ATOM     76  N   UNL A   1      35.116  29.322  26.825  1.00  0.00    -0.356 N 
ATOM     77  C   UNL A   1      34.016  28.809  26.141  1.00  0.00     0.224 C 
ATOM     78  H   UNL A   1      35.967  29.010  26.440  1.00  0.00     0.163 HD
ATOM     79  O   UNL A   1      34.071  28.642  24.918  1.00  0.00    -0.275 OA
BRANCH  77  80
ATOM     80  C   UNL A   1      32.754  28.218  26.758  1.00  0.00     0.095 C 
ATOM     81  C   UNL A   1      32.105  29.360  27.558  1.00  0.00     0.041 C 
ATOM     82  C   UNL A   1      31.870  27.580  25.724  1.00  0.00     0.095 C 
ATOM     83  C   UNL A   1      31.821  30.484  26.618  1.00  0.00    -0.030 C 
ATOM     84  C   UNL A   1      31.101  28.740  24.953  1.00  0.00     0.041 C 
ATOM     85  C   UNL A   1      31.405  30.188  25.376  1.00  0.00    -0.030 C 
BRANCH  82  86
ATOM     86  C   UNL A   1      32.784  26.489  24.995  1.00  0.00     0.224 C 
ATOM     87  O   UNL A   1      33.419  25.646  25.625  1.00  0.00    -0.275 OA
ATOM     88  N   UNL A   1      32.854  26.585  23.578  1.00  0.00    -0.351 N 
ATOM     89  H   UNL A   1      32.942  27.505  23.238  1.00  0.00     0.163 HD
BRANCH  88  90
ATOM     90  C   UNL A   1      32.816  25.510  22.487  1.00  0.00     0.103 C 
ATOM     91  C   UNL A   1      31.420  24.866  22.386  1.00  0.00     0.048 C 
ATOM     92  C   UNL A   1      33.651  24.145  22.544  1.00  0.00     0.141 C 
ATOM     93  C   UNL A   1      31.457  23.596  23.272  1.00  0.00     0.119 C 
ATOM     94  N   UNL A   1      32.824  23.100  23.160  1.00  0.00    -0.369 N 
BRANCH  94  95
ATOM     95  C   UNL A   1      33.252  21.971  23.846  1.00  0.00     0.038 A 
ATOM     96  C   UNL A   1      34.494  21.915  24.482  1.00  0.00     0.026 A 
ATOM     97  C   UNL A   1      32.530  20.772  23.930  1.00  0.00     0.046 A 
ATOM     98  C   UNL A   1      34.992  20.731  25.081  1.00  0.00     0.004 A 
ATOM     99  C   UNL A   1      33.049  19.558  24.404  1.00  0.00     0.043 A 
ATOM    100  C   UNL A   1      34.289  19.533  25.001  1.00  0.00     0.020 A 
ATOM    101  Cl  UNL A   1      32.154  18.095  24.199  1.00  0.00    -0.084 Cl
ENDBRANCH  94  95
ENDBRANCH  88  90
ENDBRANCH  82  86
ENDBRANCH  77  80
ENDBRANCH  75  76
ENDBRANCH  74  75
ENDBRANCH   1  74
TORSDOF 16
ENDMDL
