MODEL 1
REMARK VINA RESULT:     -11.3      0.000      0.000
REMARK SMILES CCc1ccc(CNc2ccc(Cl)c(C(=O)NCCCCCCNC(=O)c3ccc(-c4c5nc(c(-c6c(F)c(F)c(F)c(F)c6F)c6ccc([nH]6)c(-c6c(F)c(F)c(F)c(F)c6F)c6nc(c(-c7c(F)c(F)c(F)c(F)c7F)c7ccc4[nH]7)C=C6)C=C5)cc3)c2)cc1
REMARK SMILES IDX 19 1 18 2 17 3 15 4 16 5 14 7 9 8 10 9 90 10 11 11 12 12
REMARK SMILES IDX 13 13 8 14 7 16 6 17 3 18 4 19 92 20 5 21 91 22 2 23 1 24
REMARK SMILES IDX 20 25 21 26 22 27 23 28 24 29 25 30 26 32 27 33 28 34 89 35
REMARK SMILES IDX 29 36 88 37 30 38 31 39 32 40 82 41 33 42 87 43 81 44 83 45
REMARK SMILES IDX 34 46 86 47 80 48 79 49 35 51 67 52 47 53 66 54 48 55 51 56
REMARK SMILES IDX 65 57 84 58 49 59 50 60 64 62 85 63 52 64 36 65 37 66 45 67
REMARK SMILES IDX 38 68 39 69 43 70 46 71 40 72 41 73 44 74 42 75 68 76 69 77
REMARK SMILES IDX 77 78 70 79 71 80 75 81 78 82 72 83 73 84 76 85 74 86 53 87
REMARK SMILES IDX 54 88 62 89 55 90 56 91 60 92 63 93 57 94 58 95 61 96 59 97
REMARK H PARENT 17 6 8 15 24 31 83 50 51 61
REMARK Flexibility Score: inf
ROOT
ATOM      1  C   UNL A   1      31.658  25.793  26.584  1.00  0.00     0.021 C 
ENDROOT
BRANCH   1   2
ATOM      2  C   UNL A   1      30.454  24.965  26.155  1.00  0.00     0.116 C 
BRANCH   2   3
ATOM      3  N   UNL A   1      29.467  25.685  25.366  1.00  0.00    -0.352 N 
ATOM      4  C   UNL A   1      29.490  26.165  24.069  1.00  0.00     0.252 C 
ATOM      5  O   UNL A   1      28.452  26.647  23.625  1.00  0.00    -0.269 OA
ATOM      6  H   UNL A   1      28.625  25.864  25.844  1.00  0.00     0.163 HD
BRANCH   4   7
ATOM      7  C   UNL A   1      30.726  26.116  23.232  1.00  0.00     0.060 A 
ATOM      8  C   UNL A   1      32.451  24.699  22.231  1.00  0.00     0.035 A 
ATOM      9  C   UNL A   1      33.191  25.847  21.945  1.00  0.00     0.027 A 
ATOM     10  C   UNL A   1      31.172  24.877  22.754  1.00  0.00     0.041 A 
ATOM     11  C   UNL A   1      32.695  27.117  22.247  1.00  0.00     0.023 A 
ATOM     12  C   UNL A   1      31.478  27.256  22.924  1.00  0.00     0.053 A 
ATOM     13  Cl  UNL A   1      31.024  28.865  23.356  1.00  0.00    -0.083 Cl
BRANCH   8  14
ATOM     14  N   UNL A   1      33.003  23.465  21.994  1.00  0.00    -0.381 N 
ATOM     15  H   UNL A   1      33.343  23.303  21.084  1.00  0.00     0.160 HD
BRANCH  14  16
ATOM     16  C   UNL A   1      33.140  22.374  22.942  1.00  0.00     0.148 C 
BRANCH  16  17
ATOM     17  C   UNL A   1      34.348  22.645  23.798  1.00  0.00    -0.029 A 
ATOM     18  C   UNL A   1      36.609  23.261  25.364  1.00  0.00    -0.048 A 
ATOM     19  C   UNL A   1      36.644  23.409  23.972  1.00  0.00     0.004 A 
ATOM     20  C   UNL A   1      35.437  22.770  25.958  1.00  0.00     0.004 A 
ATOM     21  C   UNL A   1      35.535  23.090  23.198  1.00  0.00     0.006 A 
ATOM     22  C   UNL A   1      34.316  22.459  25.182  1.00  0.00     0.006 A 
BRANCH  18  23
ATOM     23  C   UNL A   1      37.822  23.705  26.146  1.00  0.00     0.032 C 
ATOM     24  C   UNL A   1      38.969  22.712  26.240  1.00  0.00     0.009 C 
ENDBRANCH  18  23
ENDBRANCH  16  17
ENDBRANCH  14  16
ENDBRANCH   8  14
ENDBRANCH   4   7
ENDBRANCH   2   3
ENDBRANCH   1   2
BRANCH   1  25
ATOM     25  C   UNL A   1      32.980  25.486  25.885  1.00  0.00     0.002 C 
BRANCH  25  26
ATOM     26  C   UNL A   1      33.914  26.674  25.640  1.00  0.00     0.002 C 
BRANCH  26  27
ATOM     27  C   UNL A   1      33.372  28.052  26.025  1.00  0.00     0.021 C 
BRANCH  27  28
ATOM     28  C   UNL A   1      33.656  28.496  27.456  1.00  0.00     0.116 C 
BRANCH  28  29
ATOM     29  N   UNL A   1      33.661  29.941  27.608  1.00  0.00    -0.352 N 
ATOM     30  C   UNL A   1      34.642  30.766  28.102  1.00  0.00     0.251 C 
ATOM     31  H   UNL A   1      32.839  30.396  27.312  1.00  0.00     0.163 HD
ATOM     32  O   UNL A   1      34.409  31.952  28.301  1.00  0.00    -0.269 OA
BRANCH  30  33
ATOM     33  C   UNL A   1      35.980  30.217  28.418  1.00  0.00     0.039 A 
ATOM     34  C   UNL A   1      36.971  30.254  27.434  1.00  0.00     0.014 A 
ATOM     35  C   UNL A   1      36.256  29.665  29.670  1.00  0.00     0.014 A 
ATOM     36  C   UNL A   1      38.257  29.797  27.730  1.00  0.00     0.010 A 
ATOM     37  C   UNL A   1      37.556  29.283  29.988  1.00  0.00     0.010 A 
ATOM     38  C   UNL A   1      38.571  29.343  29.021  1.00  0.00    -0.014 A 
BRANCH  38  39
ATOM     39  C   UNL A   1      39.954  28.933  29.377  1.00  0.00     0.031 A 
ATOM     40  C   UNL A   1      40.821  29.835  30.211  1.00  0.00     0.074 A 
ATOM     41  C   UNL A   1      40.450  27.776  28.898  1.00  0.00     0.049 A 
ATOM     42  N   UNL A   1      42.071  29.683  30.571  1.00  0.00    -0.248 NA
ATOM     43  C   UNL A   1      40.211  31.089  30.682  1.00  0.00     0.031 C 
ATOM     44  C   UNL A   1      39.724  26.836  28.042  1.00  0.00     0.029 A 
ATOM     45  N   UNL A   1      41.686  27.197  29.052  1.00  0.00    -0.354 N 
ATOM     46  C   UNL A   1      42.398  30.821  31.297  1.00  0.00     0.074 A 
ATOM     47  C   UNL A   1      41.236  31.682  31.277  1.00  0.00     0.031 C 
ATOM     48  C   UNL A   1      40.516  25.787  27.769  1.00  0.00     0.029 A 
ATOM     49  C   UNL A   1      41.820  26.001  28.390  1.00  0.00     0.049 A 
ATOM     50  H   UNL A   1      42.407  27.601  29.587  1.00  0.00     0.167 HD
ATOM     51  C   UNL A   1      43.553  31.110  31.943  1.00  0.00     0.037 A 
ATOM     52  C   UNL A   1      42.879  25.174  28.287  1.00  0.00     0.037 A 
ATOM     53  C   UNL A   1      44.701  30.241  31.973  1.00  0.00     0.049 A 
ATOM     54  C   UNL A   1      44.159  25.529  28.995  1.00  0.00     0.074 A 
ATOM     55  C   UNL A   1      45.899  30.418  32.643  1.00  0.00     0.029 A 
ATOM     56  N   UNL A   1      44.795  29.032  31.298  1.00  0.00    -0.354 N 
ATOM     57  N   UNL A   1      44.433  26.575  29.736  1.00  0.00    -0.248 NA
ATOM     58  C   UNL A   1      45.275  24.584  28.858  1.00  0.00     0.031 C 
ATOM     59  C   UNL A   1      46.740  29.347  32.325  1.00  0.00     0.029 A 
ATOM     60  C   UNL A   1      46.043  28.468  31.513  1.00  0.00     0.049 A 
ATOM     61  H   UNL A   1      44.082  28.635  30.748  1.00  0.00     0.167 HD
ATOM     62  C   UNL A   1      45.735  26.397  30.181  1.00  0.00     0.074 A 
ATOM     63  C   UNL A   1      46.195  25.138  29.636  1.00  0.00     0.031 C 
ATOM     64  C   UNL A   1      46.482  27.205  30.973  1.00  0.00     0.037 A 
BRANCH  51  65
ATOM     65  C   UNL A   1      43.637  32.424  32.667  1.00  0.00     0.064 A 
ATOM     66  C   UNL A   1      44.105  33.587  32.035  1.00  0.00     0.173 A 
ATOM     67  C   UNL A   1      43.206  32.533  33.998  1.00  0.00     0.173 A 
ATOM     68  F   UNL A   1      44.537  33.538  30.766  1.00  0.00    -0.203 F 
ATOM     69  C   UNL A   1      44.170  34.799  32.719  1.00  0.00     0.198 A 
ATOM     70  C   UNL A   1      43.240  33.753  34.667  1.00  0.00     0.198 A 
ATOM     71  F   UNL A   1      42.742  31.455  34.650  1.00  0.00    -0.203 F 
ATOM     72  F   UNL A   1      44.672  35.882  32.110  1.00  0.00    -0.200 F 
ATOM     73  C   UNL A   1      43.730  34.883  34.030  1.00  0.00     0.200 A 
ATOM     74  F   UNL A   1      42.799  33.836  35.931  1.00  0.00    -0.200 F 
ATOM     75  F   UNL A   1      43.785  36.052  34.684  1.00  0.00    -0.200 F 
ENDBRANCH  51  65
BRANCH  52  76
ATOM     76  C   UNL A   1      42.767  23.918  27.497  1.00  0.00     0.064 A 
ATOM     77  C   UNL A   1      42.359  22.720  28.099  1.00  0.00     0.173 A 
ATOM     78  C   UNL A   1      43.076  23.886  26.129  1.00  0.00     0.173 A 
ATOM     79  F   UNL A   1      42.072  22.693  29.410  1.00  0.00    -0.203 F 
ATOM     80  C   UNL A   1      42.285  21.534  27.370  1.00  0.00     0.198 A 
ATOM     81  C   UNL A   1      42.970  22.707  25.393  1.00  0.00     0.198 A 
ATOM     82  F   UNL A   1      43.466  25.005  25.502  1.00  0.00    -0.203 F 
ATOM     83  F   UNL A   1      41.942  20.394  27.984  1.00  0.00    -0.200 F 
ATOM     84  C   UNL A   1      42.585  21.530  26.017  1.00  0.00     0.200 A 
ATOM     85  F   UNL A   1      43.245  22.712  24.082  1.00  0.00    -0.200 F 
ATOM     86  F   UNL A   1      42.512  20.391  25.316  1.00  0.00    -0.200 F 
ENDBRANCH  52  76
BRANCH  64  87
ATOM     87  C   UNL A   1      47.861  26.734  31.341  1.00  0.00     0.064 A 
ATOM     88  C   UNL A   1      48.997  27.130  30.621  1.00  0.00     0.173 A 
ATOM     89  C   UNL A   1      48.050  25.912  32.464  1.00  0.00     0.173 A 
ATOM     90  F   UNL A   1      48.871  27.903  29.532  1.00  0.00    -0.203 F 
ATOM     91  C   UNL A   1      50.268  26.703  30.996  1.00  0.00     0.198 A 
ATOM     92  C   UNL A   1      49.324  25.515  32.857  1.00  0.00     0.198 A 
ATOM     93  F   UNL A   1      46.998  25.511  33.192  1.00  0.00    -0.203 F 
ATOM     94  F   UNL A   1      51.334  27.054  30.263  1.00  0.00    -0.200 F 
ATOM     95  C   UNL A   1      50.432  25.903  32.118  1.00  0.00     0.200 A 
ATOM     96  F   UNL A   1      49.481  24.758  33.951  1.00  0.00    -0.200 F 
ATOM     97  F   UNL A   1      51.656  25.503  32.485  1.00  0.00    -0.200 F 
ENDBRANCH  64  87
ENDBRANCH  38  39
ENDBRANCH  30  33
ENDBRANCH  28  29
ENDBRANCH  27  28
ENDBRANCH  26  27
ENDBRANCH  25  26
ENDBRANCH   1  25
TORSDOF 17
ENDMDL
MODEL 2
REMARK VINA RESULT:     -11.0      3.427      8.526
REMARK SMILES CCc1ccc(CNc2ccc(Cl)c(C(=O)NCCCCCCNC(=O)c3ccc(-c4c5nc(c(-c6c(F)c(F)c(F)c(F)c6F)c6ccc([nH]6)c(-c6c(F)c(F)c(F)c(F)c6F)c6nc(c(-c7c(F)c(F)c(F)c(F)c7F)c7ccc4[nH]7)C=C6)C=C5)cc3)c2)cc1
REMARK SMILES IDX 19 1 18 2 17 3 15 4 16 5 14 7 9 8 10 9 90 10 11 11 12 12
REMARK SMILES IDX 13 13 8 14 7 16 6 17 3 18 4 19 92 20 5 21 91 22 2 23 1 24
REMARK SMILES IDX 20 25 21 26 22 27 23 28 24 29 25 30 26 32 27 33 28 34 89 35
REMARK SMILES IDX 29 36 88 37 30 38 31 39 32 40 82 41 33 42 87 43 81 44 83 45
REMARK SMILES IDX 34 46 86 47 80 48 79 49 35 51 67 52 47 53 66 54 48 55 51 56
REMARK SMILES IDX 65 57 84 58 49 59 50 60 64 62 85 63 52 64 36 65 37 66 45 67
REMARK SMILES IDX 38 68 39 69 43 70 46 71 40 72 41 73 44 74 42 75 68 76 69 77
REMARK SMILES IDX 77 78 70 79 71 80 75 81 78 82 72 83 73 84 76 85 74 86 53 87
REMARK SMILES IDX 54 88 62 89 55 90 56 91 60 92 63 93 57 94 58 95 61 96 59 97
REMARK H PARENT 17 6 8 15 24 31 83 50 51 61
REMARK Flexibility Score: inf
ROOT
ATOM      1  C   UNL A   1      33.027  28.639  27.203  1.00  0.00     0.021 C 
ENDROOT
BRANCH   1   2
ATOM      2  C   UNL A   1      34.039  28.008  26.257  1.00  0.00     0.116 C 
BRANCH   2   3
ATOM      3  N   UNL A   1      34.136  28.645  24.952  1.00  0.00    -0.352 N 
ATOM      4  C   UNL A   1      33.421  28.467  23.781  1.00  0.00     0.252 C 
ATOM      5  O   UNL A   1      33.656  29.236  22.853  1.00  0.00    -0.269 OA
ATOM      6  H   UNL A   1      34.841  29.330  24.892  1.00  0.00     0.163 HD
BRANCH   4   7
ATOM      7  C   UNL A   1      32.409  27.380  23.632  1.00  0.00     0.060 A 
ATOM      8  C   UNL A   1      31.997  25.059  22.980  1.00  0.00     0.035 A 
ATOM      9  C   UNL A   1      30.626  25.321  23.008  1.00  0.00     0.027 A 
ATOM     10  C   UNL A   1      32.850  26.068  23.421  1.00  0.00     0.041 A 
ATOM     11  C   UNL A   1      30.142  26.574  23.391  1.00  0.00     0.023 A 
ATOM     12  C   UNL A   1      31.030  27.619  23.668  1.00  0.00     0.053 A 
ATOM     13  Cl  UNL A   1      30.319  29.155  24.008  1.00  0.00    -0.083 Cl
BRANCH   8  14
ATOM     14  N   UNL A   1      32.440  23.842  22.523  1.00  0.00    -0.381 N 
ATOM     15  H   UNL A   1      32.798  23.821  21.606  1.00  0.00     0.160 HD
BRANCH  14  16
ATOM     16  C   UNL A   1      32.438  22.584  23.248  1.00  0.00     0.148 C 
BRANCH  16  17
ATOM     17  C   UNL A   1      33.846  22.300  23.698  1.00  0.00    -0.029 A 
ATOM     18  C   UNL A   1      36.470  21.661  24.502  1.00  0.00    -0.048 A 
ATOM     19  C   UNL A   1      35.373  20.976  25.040  1.00  0.00     0.004 A 
ATOM     20  C   UNL A   1      36.234  22.692  23.581  1.00  0.00     0.004 A 
ATOM     21  C   UNL A   1      34.078  21.303  24.656  1.00  0.00     0.006 A 
ATOM     22  C   UNL A   1      34.932  23.013  23.185  1.00  0.00     0.006 A 
BRANCH  18  23
ATOM     23  C   UNL A   1      37.850  21.197  24.905  1.00  0.00     0.032 C 
ATOM     24  C   UNL A   1      38.558  22.019  25.970  1.00  0.00     0.009 C 
ENDBRANCH  18  23
ENDBRANCH  16  17
ENDBRANCH  14  16
ENDBRANCH   8  14
ENDBRANCH   4   7
ENDBRANCH   2   3
ENDBRANCH   1   2
BRANCH   1  25
ATOM     25  C   UNL A   1      32.945  30.164  27.195  1.00  0.00     0.002 C 
BRANCH  25  26
ATOM     26  C   UNL A   1      31.657  30.774  26.634  1.00  0.00     0.002 C 
BRANCH  26  27
ATOM     27  C   UNL A   1      31.497  32.286  26.799  1.00  0.00     0.021 C 
BRANCH  27  28
ATOM     28  C   UNL A   1      32.743  33.036  27.260  1.00  0.00     0.116 C 
BRANCH  28  29
ATOM     29  N   UNL A   1      32.454  34.383  27.719  1.00  0.00    -0.352 N 
ATOM     30  C   UNL A   1      33.019  35.098  28.747  1.00  0.00     0.251 C 
ATOM     31  H   UNL A   1      31.748  34.853  27.219  1.00  0.00     0.163 HD
ATOM     32  O   UNL A   1      32.538  36.170  29.091  1.00  0.00    -0.269 OA
BRANCH  30  33
ATOM     33  C   UNL A   1      34.201  34.561  29.458  1.00  0.00     0.039 A 
ATOM     34  C   UNL A   1      34.015  33.935  30.693  1.00  0.00     0.014 A 
ATOM     35  C   UNL A   1      35.483  34.677  28.917  1.00  0.00     0.014 A 
ATOM     36  C   UNL A   1      35.107  33.368  31.353  1.00  0.00     0.010 A 
ATOM     37  C   UNL A   1      36.557  34.044  29.536  1.00  0.00     0.010 A 
ATOM     38  C   UNL A   1      36.381  33.383  30.763  1.00  0.00    -0.014 A 
BRANCH  38  39
ATOM     39  C   UNL A   1      37.537  32.711  31.410  1.00  0.00     0.031 A 
ATOM     40  C   UNL A   1      38.197  31.534  30.748  1.00  0.00     0.074 A 
ATOM     41  C   UNL A   1      37.953  33.123  32.623  1.00  0.00     0.049 A 
ATOM     42  N   UNL A   1      39.173  30.777  31.184  1.00  0.00    -0.248 NA
ATOM     43  C   UNL A   1      37.674  31.136  29.431  1.00  0.00     0.031 C 
ATOM     44  C   UNL A   1      37.367  34.224  33.389  1.00  0.00     0.029 A 
ATOM     45  N   UNL A   1      38.960  32.656  33.433  1.00  0.00    -0.354 N 
ATOM     46  C   UNL A   1      39.372  29.812  30.204  1.00  0.00     0.074 A 
ATOM     47  C   UNL A   1      38.377  30.041  29.180  1.00  0.00     0.031 C 
ATOM     48  C   UNL A   1      38.038  34.365  34.542  1.00  0.00     0.029 A 
ATOM     49  C   UNL A   1      39.072  33.338  34.620  1.00  0.00     0.049 A 
ATOM     50  H   UNL A   1      39.546  31.904  33.186  1.00  0.00     0.167 HD
ATOM     51  C   UNL A   1      40.313  28.840  30.153  1.00  0.00     0.037 A 
ATOM     52  C   UNL A   1      39.908  33.149  35.660  1.00  0.00     0.037 A 
ATOM     53  C   UNL A   1      41.312  28.628  31.169  1.00  0.00     0.049 A 
ATOM     54  C   UNL A   1      40.931  32.047  35.588  1.00  0.00     0.074 A 
ATOM     55  C   UNL A   1      42.343  27.705  31.185  1.00  0.00     0.029 A 
ATOM     56  N   UNL A   1      41.400  29.345  32.353  1.00  0.00    -0.354 N 
ATOM     57  N   UNL A   1      41.153  31.185  34.626  1.00  0.00    -0.248 NA
ATOM     58  C   UNL A   1      41.824  31.896  36.745  1.00  0.00     0.031 C 
ATOM     59  C   UNL A   1      43.017  27.824  32.403  1.00  0.00     0.029 A 
ATOM     60  C   UNL A   1      42.451  28.866  33.119  1.00  0.00     0.049 A 
ATOM     61  H   UNL A   1      40.804  30.085  32.610  1.00  0.00     0.167 HD
ATOM     62  C   UNL A   1      42.230  30.415  35.043  1.00  0.00     0.074 A 
ATOM     63  C   UNL A   1      42.624  30.919  36.342  1.00  0.00     0.031 C 
ATOM     64  C   UNL A   1      42.840  29.385  34.406  1.00  0.00     0.037 A 
BRANCH  51  65
ATOM     65  C   UNL A   1      40.307  27.926  28.960  1.00  0.00     0.064 A 
ATOM     66  C   UNL A   1      41.040  28.222  27.800  1.00  0.00     0.173 A 
ATOM     67  C   UNL A   1      39.592  26.719  28.990  1.00  0.00     0.173 A 
ATOM     68  F   UNL A   1      41.734  29.366  27.713  1.00  0.00    -0.203 F 
ATOM     69  C   UNL A   1      41.029  27.361  26.705  1.00  0.00     0.198 A 
ATOM     70  C   UNL A   1      39.611  25.845  27.908  1.00  0.00     0.198 A 
ATOM     71  F   UNL A   1      38.880  26.382  30.076  1.00  0.00    -0.203 F 
ATOM     72  F   UNL A   1      41.692  27.692  25.588  1.00  0.00    -0.200 F 
ATOM     73  C   UNL A   1      40.322  26.170  26.762  1.00  0.00     0.200 A 
ATOM     74  F   UNL A   1      38.940  24.685  27.971  1.00  0.00    -0.200 F 
ATOM     75  F   UNL A   1      40.319  25.339  25.711  1.00  0.00    -0.200 F 
ENDBRANCH  51  65
BRANCH  52  76
ATOM     76  C   UNL A   1      39.826  34.037  36.851  1.00  0.00     0.064 A 
ATOM     77  C   UNL A   1      38.992  33.719  37.932  1.00  0.00     0.173 A 
ATOM     78  C   UNL A   1      40.570  35.223  36.930  1.00  0.00     0.173 A 
ATOM     79  F   UNL A   1      38.244  32.605  37.896  1.00  0.00    -0.203 F 
ATOM     80  C   UNL A   1      38.887  34.564  39.035  1.00  0.00     0.198 A 
ATOM     81  C   UNL A   1      40.489  36.051  38.048  1.00  0.00     0.198 A 
ATOM     82  F   UNL A   1      41.388  35.572  35.926  1.00  0.00    -0.203 F 
ATOM     83  F   UNL A   1      38.042  34.261  40.030  1.00  0.00    -0.200 F 
ATOM     84  C   UNL A   1      39.640  35.727  39.095  1.00  0.00     0.200 A 
ATOM     85  F   UNL A   1      41.231  37.165  38.108  1.00  0.00    -0.200 F 
ATOM     86  F   UNL A   1      39.541  36.538  40.156  1.00  0.00    -0.200 F 
ENDBRANCH  52  76
BRANCH  64  87
ATOM     87  C   UNL A   1      44.029  28.760  35.078  1.00  0.00     0.064 A 
ATOM     88  C   UNL A   1      43.903  27.648  35.924  1.00  0.00     0.173 A 
ATOM     89  C   UNL A   1      45.320  29.252  34.830  1.00  0.00     0.173 A 
ATOM     90  F   UNL A   1      42.691  27.148  36.206  1.00  0.00    -0.203 F 
ATOM     91  C   UNL A   1      45.023  27.068  36.515  1.00  0.00     0.198 A 
ATOM     92  C   UNL A   1      46.440  28.649  35.395  1.00  0.00     0.198 A 
ATOM     93  F   UNL A   1      45.497  30.308  34.022  1.00  0.00    -0.203 F 
ATOM     94  F   UNL A   1      44.873  26.037  37.359  1.00  0.00    -0.200 F 
ATOM     95  C   UNL A   1      46.290  27.563  36.244  1.00  0.00     0.200 A 
ATOM     96  F   UNL A   1      47.663  29.117  35.116  1.00  0.00    -0.200 F 
ATOM     97  F   UNL A   1      47.367  26.995  36.803  1.00  0.00    -0.200 F 
ENDBRANCH  64  87
ENDBRANCH  38  39
ENDBRANCH  30  33
ENDBRANCH  28  29
ENDBRANCH  27  28
ENDBRANCH  26  27
ENDBRANCH  25  26
ENDBRANCH   1  25
TORSDOF 17
ENDMDL
MODEL 3
REMARK VINA RESULT:     -10.9      3.398      8.289
REMARK SMILES CCc1ccc(CNc2ccc(Cl)c(C(=O)NCCCCCCNC(=O)c3ccc(-c4c5nc(c(-c6c(F)c(F)c(F)c(F)c6F)c6ccc([nH]6)c(-c6c(F)c(F)c(F)c(F)c6F)c6nc(c(-c7c(F)c(F)c(F)c(F)c7F)c7ccc4[nH]7)C=C6)C=C5)cc3)c2)cc1
REMARK SMILES IDX 19 1 18 2 17 3 15 4 16 5 14 7 9 8 10 9 90 10 11 11 12 12
REMARK SMILES IDX 13 13 8 14 7 16 6 17 3 18 4 19 92 20 5 21 91 22 2 23 1 24
REMARK SMILES IDX 20 25 21 26 22 27 23 28 24 29 25 30 26 32 27 33 28 34 89 35
REMARK SMILES IDX 29 36 88 37 30 38 31 39 32 40 82 41 33 42 87 43 81 44 83 45
REMARK SMILES IDX 34 46 86 47 80 48 79 49 35 51 67 52 47 53 66 54 48 55 51 56
REMARK SMILES IDX 65 57 84 58 49 59 50 60 64 62 85 63 52 64 36 65 37 66 45 67
REMARK SMILES IDX 38 68 39 69 43 70 46 71 40 72 41 73 44 74 42 75 68 76 69 77
REMARK SMILES IDX 77 78 70 79 71 80 75 81 78 82 72 83 73 84 76 85 74 86 53 87
REMARK SMILES IDX 54 88 62 89 55 90 56 91 60 92 63 93 57 94 58 95 61 96 59 97
REMARK H PARENT 17 6 8 15 24 31 83 50 51 61
REMARK Flexibility Score: inf
ROOT
ATOM      1  C   UNL A   1      33.269  22.766  27.798  1.00  0.00     0.021 C 
ENDROOT
BRANCH   1   2
ATOM      2  C   UNL A   1      31.862  22.557  27.257  1.00  0.00     0.116 C 
BRANCH   2   3
ATOM      3  N   UNL A   1      31.070  23.770  27.125  1.00  0.00    -0.352 N 
ATOM      4  C   UNL A   1      30.968  24.702  26.108  1.00  0.00     0.252 C 
ATOM      5  O   UNL A   1      30.122  25.583  26.230  1.00  0.00    -0.269 OA
ATOM      6  H   UNL A   1      30.500  23.963  27.904  1.00  0.00     0.163 HD
BRANCH   4   7
ATOM      7  C   UNL A   1      31.855  24.659  24.907  1.00  0.00     0.060 A 
ATOM      8  C   UNL A   1      32.728  23.299  23.071  1.00  0.00     0.035 A 
ATOM      9  C   UNL A   1      33.676  24.293  22.819  1.00  0.00     0.027 A 
ATOM     10  C   UNL A   1      31.756  23.570  24.031  1.00  0.00     0.041 A 
ATOM     11  C   UNL A   1      33.688  25.477  23.559  1.00  0.00     0.023 A 
ATOM     12  C   UNL A   1      32.803  25.650  24.630  1.00  0.00     0.053 A 
ATOM     13  Cl  UNL A   1      32.994  27.097  25.551  1.00  0.00    -0.083 Cl
BRANCH   8  14
ATOM     14  N   UNL A   1      32.794  22.115  22.378  1.00  0.00    -0.381 N 
ATOM     15  H   UNL A   1      33.620  21.949  21.869  1.00  0.00     0.160 HD
BRANCH  14  16
ATOM     16  C   UNL A   1      31.776  21.082  22.317  1.00  0.00     0.148 C 
BRANCH  16  17
ATOM     17  C   UNL A   1      32.292  19.871  23.048  1.00  0.00    -0.029 A 
ATOM     18  C   UNL A   1      33.165  17.607  24.481  1.00  0.00    -0.048 A 
ATOM     19  C   UNL A   1      32.957  18.829  25.135  1.00  0.00     0.004 A 
ATOM     20  C   UNL A   1      32.962  17.543  23.095  1.00  0.00     0.004 A 
ATOM     21  C   UNL A   1      32.542  19.949  24.425  1.00  0.00     0.006 A 
ATOM     22  C   UNL A   1      32.533  18.667  22.382  1.00  0.00     0.006 A 
BRANCH  18  23
ATOM     23  C   UNL A   1      33.536  16.414  25.329  1.00  0.00     0.032 C 
ATOM     24  C   UNL A   1      32.530  15.275  25.373  1.00  0.00     0.009 C 
ENDBRANCH  18  23
ENDBRANCH  16  17
ENDBRANCH  14  16
ENDBRANCH   8  14
ENDBRANCH   4   7
ENDBRANCH   2   3
ENDBRANCH   1   2
BRANCH   1  25
ATOM     25  C   UNL A   1      34.362  21.870  27.219  1.00  0.00     0.002 C 
BRANCH  25  26
ATOM     26  C   UNL A   1      34.990  22.327  25.900  1.00  0.00     0.002 C 
BRANCH  26  27
ATOM     27  C   UNL A   1      35.761  23.648  25.939  1.00  0.00     0.021 C 
BRANCH  27  28
ATOM     28  C   UNL A   1      37.013  23.707  25.069  1.00  0.00     0.116 C 
BRANCH  28  29
ATOM     29  N   UNL A   1      38.013  22.727  25.453  1.00  0.00    -0.352 N 
ATOM     30  C   UNL A   1      39.176  22.896  26.165  1.00  0.00     0.251 C 
ATOM     31  H   UNL A   1      37.830  21.805  25.160  1.00  0.00     0.163 HD
ATOM     32  O   UNL A   1      39.980  21.977  26.260  1.00  0.00    -0.269 OA
BRANCH  30  33
ATOM     33  C   UNL A   1      39.471  24.199  26.800  1.00  0.00     0.039 A 
ATOM     34  C   UNL A   1      39.020  24.430  28.102  1.00  0.00     0.014 A 
ATOM     35  C   UNL A   1      40.182  25.190  26.118  1.00  0.00     0.014 A 
ATOM     36  C   UNL A   1      39.340  25.629  28.743  1.00  0.00     0.010 A 
ATOM     37  C   UNL A   1      40.566  26.350  26.784  1.00  0.00     0.010 A 
ATOM     38  C   UNL A   1      40.147  26.584  28.104  1.00  0.00    -0.014 A 
BRANCH  38  39
ATOM     39  C   UNL A   1      40.567  27.827  28.801  1.00  0.00     0.031 A 
ATOM     40  C   UNL A   1      41.972  27.968  29.319  1.00  0.00     0.074 A 
ATOM     41  C   UNL A   1      39.666  28.804  29.021  1.00  0.00     0.049 A 
ATOM     42  N   UNL A   1      42.507  28.945  30.007  1.00  0.00    -0.248 NA
ATOM     43  C   UNL A   1      42.890  26.850  29.053  1.00  0.00     0.031 C 
ATOM     44  C   UNL A   1      38.262  28.767  28.607  1.00  0.00     0.029 A 
ATOM     45  N   UNL A   1      39.792  30.014  29.658  1.00  0.00    -0.354 N 
ATOM     46  C   UNL A   1      43.816  28.556  30.263  1.00  0.00     0.074 A 
ATOM     47  C   UNL A   1      43.977  27.229  29.710  1.00  0.00     0.031 C 
ATOM     48  C   UNL A   1      37.665  29.911  28.976  1.00  0.00     0.029 A 
ATOM     49  C   UNL A   1      38.628  30.742  29.692  1.00  0.00     0.049 A 
ATOM     50  H   UNL A   1      40.637  30.330  30.052  1.00  0.00     0.167 HD
ATOM     51  C   UNL A   1      44.800  29.252  30.882  1.00  0.00     0.037 A 
ATOM     52  C   UNL A   1      38.363  31.941  30.248  1.00  0.00     0.037 A 
ATOM     53  C   UNL A   1      44.638  30.579  31.416  1.00  0.00     0.049 A 
ATOM     54  C   UNL A   1      39.469  32.684  30.950  1.00  0.00     0.074 A 
ATOM     55  C   UNL A   1      45.587  31.390  32.013  1.00  0.00     0.029 A 
ATOM     56  N   UNL A   1      43.445  31.288  31.423  1.00  0.00    -0.354 N 
ATOM     57  N   UNL A   1      40.720  32.335  31.125  1.00  0.00    -0.248 NA
ATOM     58  C   UNL A   1      39.125  33.992  31.526  1.00  0.00     0.031 C 
ATOM     59  C   UNL A   1      44.956  32.564  32.435  1.00  0.00     0.029 A 
ATOM     60  C   UNL A   1      43.629  32.515  32.041  1.00  0.00     0.049 A 
ATOM     61  H   UNL A   1      42.594  30.966  31.046  1.00  0.00     0.167 HD
ATOM     62  C   UNL A   1      41.321  33.391  31.796  1.00  0.00     0.074 A 
ATOM     63  C   UNL A   1      40.299  34.398  31.989  1.00  0.00     0.031 C 
ATOM     64  C   UNL A   1      42.605  33.515  32.214  1.00  0.00     0.037 A 
BRANCH  51  65
ATOM     65  C   UNL A   1      46.142  28.589  31.019  1.00  0.00     0.064 A 
ATOM     66  C   UNL A   1      46.402  27.654  32.034  1.00  0.00     0.173 A 
ATOM     67  C   UNL A   1      47.168  28.860  30.102  1.00  0.00     0.173 A 
ATOM     68  F   UNL A   1      45.460  27.364  32.943  1.00  0.00    -0.203 F 
ATOM     69  C   UNL A   1      47.649  27.043  32.144  1.00  0.00     0.198 A 
ATOM     70  C   UNL A   1      48.402  28.222  30.194  1.00  0.00     0.198 A 
ATOM     71  F   UNL A   1      46.972  29.739  29.107  1.00  0.00    -0.203 F 
ATOM     72  F   UNL A   1      47.891  26.196  33.154  1.00  0.00    -0.200 F 
ATOM     73  C   UNL A   1      48.644  27.321  31.220  1.00  0.00     0.200 A 
ATOM     74  F   UNL A   1      49.357  28.479  29.290  1.00  0.00    -0.200 F 
ATOM     75  F   UNL A   1      49.841  26.726  31.322  1.00  0.00    -0.200 F 
ENDBRANCH  51  65
BRANCH  52  76
ATOM     76  C   UNL A   1      36.997  32.523  30.147  1.00  0.00     0.064 A 
ATOM     77  C   UNL A   1      36.608  33.257  29.019  1.00  0.00     0.173 A 
ATOM     78  C   UNL A   1      36.059  32.365  31.178  1.00  0.00     0.173 A 
ATOM     79  F   UNL A   1      37.476  33.453  28.015  1.00  0.00    -0.203 F 
ATOM     80  C   UNL A   1      35.341  33.832  28.934  1.00  0.00     0.198 A 
ATOM     81  C   UNL A   1      34.781  32.913  31.078  1.00  0.00     0.198 A 
ATOM     82  F   UNL A   1      36.378  31.667  32.277  1.00  0.00    -0.203 F 
ATOM     83  F   UNL A   1      35.015  34.573  27.867  1.00  0.00    -0.200 F 
ATOM     84  C   UNL A   1      34.427  33.655  29.961  1.00  0.00     0.200 A 
ATOM     85  F   UNL A   1      33.896  32.724  32.065  1.00  0.00    -0.200 F 
ATOM     86  F   UNL A   1      33.208  34.205  29.879  1.00  0.00    -0.200 F 
ENDBRANCH  52  76
BRANCH  64  87
ATOM     87  C   UNL A   1      42.997  34.804  32.879  1.00  0.00     0.064 A 
ATOM     88  C   UNL A   1      43.442  35.912  32.144  1.00  0.00     0.173 A 
ATOM     89  C   UNL A   1      42.877  34.946  34.271  1.00  0.00     0.173 A 
ATOM     90  F   UNL A   1      43.588  35.825  30.813  1.00  0.00    -0.203 F 
ATOM     91  C   UNL A   1      43.775  37.106  32.779  1.00  0.00     0.198 A 
ATOM     92  C   UNL A   1      43.178  36.150  34.899  1.00  0.00     0.198 A 
ATOM     93  F   UNL A   1      42.449  33.919  35.020  1.00  0.00    -0.203 F 
ATOM     94  F   UNL A   1      44.245  38.135  32.061  1.00  0.00    -0.200 F 
ATOM     95  C   UNL A   1      43.635  37.227  34.154  1.00  0.00     0.200 A 
ATOM     96  F   UNL A   1      43.023  36.271  36.224  1.00  0.00    -0.200 F 
ATOM     97  F   UNL A   1      43.943  38.380  34.761  1.00  0.00    -0.200 F 
ENDBRANCH  64  87
ENDBRANCH  38  39
ENDBRANCH  30  33
ENDBRANCH  28  29
ENDBRANCH  27  28
ENDBRANCH  26  27
ENDBRANCH  25  26
ENDBRANCH   1  25
TORSDOF 17
ENDMDL
