MODEL 1
REMARK VINA RESULT:     -12.7      0.000      0.000
REMARK SMILES CC1=Nc2ncnn2[C@H](c2ccc(F)cc2)[C@@H]1C(=O)NCCCCCCNC(=O)c1ccc(-c2c3nc(c(-c4c(F)c(F)c(F)c(F)c4F)c4ccc([nH]4)c(-c4c(F)c(F)c(F)c(F)c4F)c4nc(c(-c5c(F)c(F)c(F)c(F)c5F)c5ccc2[nH]5)C=C4)C=C3)cc1
REMARK SMILES IDX 24 1 23 2 22 3 21 4 20 5 18 6 19 7 17 9 1 10 2 11 3 12 4 13
REMARK SMILES IDX 9 14 5 15 8 16 6 17 7 18 10 19 11 20 16 21 12 22 15 23 13 24
REMARK SMILES IDX 14 25 25 26 26 27 27 28 28 29 29 31 30 32 31 33 92 34 32 35
REMARK SMILES IDX 91 36 33 37 34 38 35 39 85 40 36 41 90 42 84 43 86 44 37 45
REMARK SMILES IDX 89 46 83 47 82 48 38 50 70 51 50 52 69 53 51 54 54 55 68 56
REMARK SMILES IDX 87 57 52 58 53 59 67 61 88 62 55 63 39 64 40 65 48 66 41 67
REMARK SMILES IDX 42 68 46 69 49 70 43 71 44 72 47 73 45 74 71 75 72 76 80 77
REMARK SMILES IDX 73 78 74 79 78 80 81 81 75 82 76 83 79 84 77 85 56 86 57 87
REMARK SMILES IDX 65 88 58 89 59 90 63 91 66 92 60 93 61 94 64 95 62 96
REMARK H PARENT 20 8 27 30 86 49 54 60
REMARK Flexibility Score: inf
ROOT
ATOM      1  C   UNL A   1      41.250  21.666  27.664  1.00  0.00     0.002 C 
ENDROOT
BRANCH   1   2
ATOM      2  C   UNL A   1      40.498  22.380  26.531  1.00  0.00     0.002 C 
BRANCH   2   3
ATOM      3  C   UNL A   1      38.964  22.325  26.597  1.00  0.00     0.021 C 
BRANCH   3   4
ATOM      4  C   UNL A   1      38.266  23.619  26.190  1.00  0.00     0.116 C 
BRANCH   4   5
ATOM      5  N   UNL A   1      37.790  23.553  24.823  1.00  0.00    -0.355 N 
ATOM      6  C   UNL A   1      36.595  23.141  24.327  1.00  0.00     0.231 C 
ATOM      7  O   UNL A   1      36.414  23.262  23.114  1.00  0.00    -0.274 OA
ATOM      8  H   UNL A   1      38.436  23.854  24.145  1.00  0.00     0.163 HD
BRANCH   6   9
ATOM      9  C   UNL A   1      35.531  22.562  25.239  1.00  0.00     0.152 C 
ATOM     10  C   UNL A   1      36.431  20.144  24.769  1.00  0.00     0.063 C 
ATOM     11  C   UNL A   1      35.252  21.092  24.914  1.00  0.00     0.034 C 
ATOM     12  N   UNL A   1      34.081  20.539  24.870  1.00  0.00    -0.220 NA
ATOM     13  C   UNL A   1      32.992  21.285  25.142  1.00  0.00     0.248 A 
ATOM     14  C   UNL A   1      34.250  23.432  25.348  1.00  0.00     0.159 C 
ATOM     15  N   UNL A   1      31.752  20.887  25.337  1.00  0.00    -0.198 NA
ATOM     16  N   UNL A   1      33.036  22.635  25.344  1.00  0.00    -0.221 N 
ATOM     17  C   UNL A   1      31.099  22.020  25.721  1.00  0.00     0.248 A 
ATOM     18  N   UNL A   1      31.855  23.116  25.792  1.00  0.00    -0.157 NA
BRANCH  14  19
ATOM     19  C   UNL A   1      34.072  24.688  24.481  1.00  0.00    -0.022 A 
ATOM     20  C   UNL A   1      33.656  24.524  23.142  1.00  0.00     0.009 A 
ATOM     21  C   UNL A   1      34.258  25.998  24.951  1.00  0.00     0.009 A 
ATOM     22  C   UNL A   1      33.320  25.621  22.348  1.00  0.00     0.039 A 
ATOM     23  C   UNL A   1      33.872  27.095  24.174  1.00  0.00     0.039 A 
ATOM     24  C   UNL A   1      33.394  26.896  22.886  1.00  0.00     0.123 A 
ATOM     25  F   UNL A   1      32.999  27.947  22.155  1.00  0.00    -0.207 F 
ENDBRANCH  14  19
ENDBRANCH   6   9
ENDBRANCH   4   5
ENDBRANCH   3   4
ENDBRANCH   2   3
ENDBRANCH   1   2
BRANCH   1  26
ATOM     26  C   UNL A   1      41.976  20.368  27.289  1.00  0.00     0.021 C 
BRANCH  26  27
ATOM     27  C   UNL A   1      42.061  20.111  25.792  1.00  0.00     0.116 C 
BRANCH  27  28
ATOM     28  N   UNL A   1      43.427  19.875  25.328  1.00  0.00    -0.352 N 
ATOM     29  C   UNL A   1      44.384  20.809  24.970  1.00  0.00     0.251 C 
ATOM     30  H   UNL A   1      43.702  18.931  25.263  1.00  0.00     0.163 HD
ATOM     31  O   UNL A   1      45.329  20.513  24.261  1.00  0.00    -0.269 OA
BRANCH  29  32
ATOM     32  C   UNL A   1      44.246  22.182  25.490  1.00  0.00     0.039 A 
ATOM     33  C   UNL A   1      43.475  23.149  24.836  1.00  0.00     0.014 A 
ATOM     34  C   UNL A   1      44.912  22.481  26.673  1.00  0.00     0.014 A 
ATOM     35  C   UNL A   1      43.333  24.403  25.426  1.00  0.00     0.010 A 
ATOM     36  C   UNL A   1      44.624  23.636  27.339  1.00  0.00     0.010 A 
ATOM     37  C   UNL A   1      43.908  24.630  26.685  1.00  0.00    -0.014 A 
BRANCH  37  38
ATOM     38  C   UNL A   1      43.709  25.870  27.419  1.00  0.00     0.031 A 
ATOM     39  C   UNL A   1      44.655  26.954  27.039  1.00  0.00     0.074 A 
ATOM     40  C   UNL A   1      42.582  26.075  28.139  1.00  0.00     0.049 A 
ATOM     41  N   UNL A   1      45.542  27.531  27.779  1.00  0.00    -0.248 NA
ATOM     42  C   UNL A   1      44.721  27.350  25.620  1.00  0.00     0.031 C 
ATOM     43  C   UNL A   1      41.430  25.171  28.283  1.00  0.00     0.029 A 
ATOM     44  N   UNL A   1      42.165  27.186  28.802  1.00  0.00    -0.354 N 
ATOM     45  C   UNL A   1      46.137  28.503  26.975  1.00  0.00     0.074 A 
ATOM     46  C   UNL A   1      45.745  28.205  25.624  1.00  0.00     0.031 C 
ATOM     47  C   UNL A   1      40.373  25.851  28.781  1.00  0.00     0.029 A 
ATOM     48  C   UNL A   1      40.815  27.181  29.151  1.00  0.00     0.049 A 
ATOM     49  H   UNL A   1      42.767  27.935  29.018  1.00  0.00     0.167 HD
ATOM     50  C   UNL A   1      46.664  29.633  27.523  1.00  0.00     0.037 A 
ATOM     51  C   UNL A   1      40.119  28.215  29.682  1.00  0.00     0.037 A 
ATOM     52  C   UNL A   1      46.819  29.477  28.946  1.00  0.00     0.049 A 
ATOM     53  C   UNL A   1      41.118  29.155  30.240  1.00  0.00     0.074 A 
ATOM     54  C   UNL A   1      47.596  28.700  29.778  1.00  0.00     0.029 A 
ATOM     55  N   UNL A   1      45.770  29.935  29.700  1.00  0.00    -0.354 N 
ATOM     56  N   UNL A   1      41.888  28.876  31.255  1.00  0.00    -0.248 NA
ATOM     57  C   UNL A   1      41.553  30.265  29.407  1.00  0.00     0.031 C 
ATOM     58  C   UNL A   1      46.776  28.423  30.912  1.00  0.00     0.029 A 
ATOM     59  C   UNL A   1      45.561  29.095  30.758  1.00  0.00     0.049 A 
ATOM     60  H   UNL A   1      45.245  30.747  29.509  1.00  0.00     0.167 HD
ATOM     61  C   UNL A   1      43.098  29.475  30.948  1.00  0.00     0.074 A 
ATOM     62  C   UNL A   1      42.790  30.425  29.882  1.00  0.00     0.031 C 
ATOM     63  C   UNL A   1      44.267  28.921  31.383  1.00  0.00     0.037 A 
BRANCH  50  64
ATOM     64  C   UNL A   1      46.619  31.008  26.885  1.00  0.00     0.064 A 
ATOM     65  C   UNL A   1      45.431  31.701  26.569  1.00  0.00     0.173 A 
ATOM     66  C   UNL A   1      47.793  31.792  26.871  1.00  0.00     0.173 A 
ATOM     67  F   UNL A   1      44.224  31.130  26.649  1.00  0.00    -0.203 F 
ATOM     68  C   UNL A   1      45.414  33.063  26.270  1.00  0.00     0.198 A 
ATOM     69  C   UNL A   1      47.764  33.169  26.626  1.00  0.00     0.198 A 
ATOM     70  F   UNL A   1      48.980  31.251  27.186  1.00  0.00    -0.203 F 
ATOM     71  F   UNL A   1      44.243  33.664  26.009  1.00  0.00    -0.200 F 
ATOM     72  C   UNL A   1      46.574  33.804  26.327  1.00  0.00     0.200 A 
ATOM     73  F   UNL A   1      48.887  33.891  26.748  1.00  0.00    -0.200 F 
ATOM     74  F   UNL A   1      46.533  35.130  26.145  1.00  0.00    -0.200 F 
ENDBRANCH  50  64
BRANCH  51  75
ATOM     75  C   UNL A   1      38.707  28.620  29.465  1.00  0.00     0.064 A 
ATOM     76  C   UNL A   1      38.265  29.075  28.208  1.00  0.00     0.173 A 
ATOM     77  C   UNL A   1      37.858  28.879  30.556  1.00  0.00     0.173 A 
ATOM     78  F   UNL A   1      39.032  28.932  27.118  1.00  0.00    -0.203 F 
ATOM     79  C   UNL A   1      37.072  29.788  28.061  1.00  0.00     0.198 A 
ATOM     80  C   UNL A   1      36.665  29.596  30.408  1.00  0.00     0.198 A 
ATOM     81  F   UNL A   1      38.221  28.511  31.793  1.00  0.00    -0.203 F 
ATOM     82  F   UNL A   1      36.733  30.272  26.857  1.00  0.00    -0.200 F 
ATOM     83  C   UNL A   1      36.282  30.065  29.162  1.00  0.00     0.200 A 
ATOM     84  F   UNL A   1      35.924  29.891  31.484  1.00  0.00    -0.200 F 
ATOM     85  F   UNL A   1      35.184  30.820  29.031  1.00  0.00    -0.200 F 
ENDBRANCH  51  75
BRANCH  63  86
ATOM     86  C   UNL A   1      44.183  27.899  32.482  1.00  0.00     0.064 A 
ATOM     87  C   UNL A   1      44.317  28.351  33.801  1.00  0.00     0.173 A 
ATOM     88  C   UNL A   1      44.119  26.510  32.280  1.00  0.00     0.173 A 
ATOM     89  F   UNL A   1      44.425  29.665  34.050  1.00  0.00    -0.203 F 
ATOM     90  C   UNL A   1      44.400  27.460  34.867  1.00  0.00     0.198 A 
ATOM     91  C   UNL A   1      44.165  25.620  33.353  1.00  0.00     0.198 A 
ATOM     92  F   UNL A   1      44.068  25.993  31.047  1.00  0.00    -0.203 F 
ATOM     93  F   UNL A   1      44.594  27.926  36.108  1.00  0.00    -0.200 F 
ATOM     94  C   UNL A   1      44.318  26.096  34.643  1.00  0.00     0.200 A 
ATOM     95  F   UNL A   1      44.099  24.298  33.133  1.00  0.00    -0.200 F 
ATOM     96  F   UNL A   1      44.414  25.241  35.671  1.00  0.00    -0.200 F 
ENDBRANCH  63  86
ENDBRANCH  37  38
ENDBRANCH  29  32
ENDBRANCH  27  28
ENDBRANCH  26  27
ENDBRANCH   1  26
TORSDOF 14
ENDMDL
MODEL 2
REMARK VINA RESULT:     -12.2      2.426      6.796
REMARK SMILES CC1=Nc2ncnn2[C@H](c2ccc(F)cc2)[C@@H]1C(=O)NCCCCCCNC(=O)c1ccc(-c2c3nc(c(-c4c(F)c(F)c(F)c(F)c4F)c4ccc([nH]4)c(-c4c(F)c(F)c(F)c(F)c4F)c4nc(c(-c5c(F)c(F)c(F)c(F)c5F)c5ccc2[nH]5)C=C4)C=C3)cc1
REMARK SMILES IDX 24 1 23 2 22 3 21 4 20 5 18 6 19 7 17 9 1 10 2 11 3 12 4 13
REMARK SMILES IDX 9 14 5 15 8 16 6 17 7 18 10 19 11 20 16 21 12 22 15 23 13 24
REMARK SMILES IDX 14 25 25 26 26 27 27 28 28 29 29 31 30 32 31 33 92 34 32 35
REMARK SMILES IDX 91 36 33 37 34 38 35 39 85 40 36 41 90 42 84 43 86 44 37 45
REMARK SMILES IDX 89 46 83 47 82 48 38 50 70 51 50 52 69 53 51 54 54 55 68 56
REMARK SMILES IDX 87 57 52 58 53 59 67 61 88 62 55 63 39 64 40 65 48 66 41 67
REMARK SMILES IDX 42 68 46 69 49 70 43 71 44 72 47 73 45 74 71 75 72 76 80 77
REMARK SMILES IDX 73 78 74 79 78 80 81 81 75 82 76 83 79 84 77 85 56 86 57 87
REMARK SMILES IDX 65 88 58 89 59 90 63 91 66 92 60 93 61 94 64 95 62 96
REMARK H PARENT 20 8 27 30 86 49 54 60
REMARK Flexibility Score: inf
ROOT
ATOM      1  C   UNL A   1      36.237  20.473  25.017  1.00  0.00     0.002 C 
ENDROOT
BRANCH   1   2
ATOM      2  C   UNL A   1      36.358  21.967  25.355  1.00  0.00     0.002 C 
BRANCH   2   3
ATOM      3  C   UNL A   1      35.513  22.463  26.538  1.00  0.00     0.021 C 
BRANCH   3   4
ATOM      4  C   UNL A   1      34.510  23.558  26.184  1.00  0.00     0.116 C 
BRANCH   4   5
ATOM      5  N   UNL A   1      33.270  23.391  26.914  1.00  0.00    -0.355 N 
ATOM      6  C   UNL A   1      31.989  23.331  26.469  1.00  0.00     0.231 C 
ATOM      7  O   UNL A   1      31.110  23.101  27.302  1.00  0.00    -0.274 OA
ATOM      8  H   UNL A   1      33.372  23.309  27.890  1.00  0.00     0.163 HD
BRANCH   6   9
ATOM      9  C   UNL A   1      31.664  23.536  25.002  1.00  0.00     0.152 C 
ATOM     10  C   UNL A   1      32.598  21.149  24.450  1.00  0.00     0.063 C 
ATOM     11  C   UNL A   1      32.509  22.626  24.107  1.00  0.00     0.034 C 
ATOM     12  N   UNL A   1      33.069  22.975  22.992  1.00  0.00    -0.220 NA
ATOM     13  C   UNL A   1      32.905  24.235  22.541  1.00  0.00     0.248 A 
ATOM     14  C   UNL A   1      31.664  25.024  24.559  1.00  0.00     0.159 C 
ATOM     15  N   UNL A   1      33.221  24.733  21.364  1.00  0.00    -0.198 NA
ATOM     16  N   UNL A   1      32.278  25.215  23.256  1.00  0.00    -0.221 N 
ATOM     17  C   UNL A   1      32.705  25.994  21.390  1.00  0.00     0.248 A 
ATOM     18  N   UNL A   1      32.068  26.325  22.515  1.00  0.00    -0.157 NA
BRANCH  14  19
ATOM     19  C   UNL A   1      32.095  26.137  25.525  1.00  0.00    -0.022 A 
ATOM     20  C   UNL A   1      33.412  26.637  25.427  1.00  0.00     0.009 A 
ATOM     21  C   UNL A   1      31.245  26.721  26.478  1.00  0.00     0.009 A 
ATOM     22  C   UNL A   1      33.821  27.752  26.160  1.00  0.00     0.039 A 
ATOM     23  C   UNL A   1      31.637  27.869  27.174  1.00  0.00     0.039 A 
ATOM     24  C   UNL A   1      32.915  28.382  26.998  1.00  0.00     0.123 A 
ATOM     25  F   UNL A   1      33.277  29.498  27.645  1.00  0.00    -0.207 F 
ENDBRANCH  14  19
ENDBRANCH   6   9
ENDBRANCH   4   5
ENDBRANCH   3   4
ENDBRANCH   2   3
ENDBRANCH   1   2
BRANCH   1  26
ATOM     26  C   UNL A   1      37.541  19.745  24.669  1.00  0.00     0.021 C 
BRANCH  26  27
ATOM     27  C   UNL A   1      38.749  20.214  25.465  1.00  0.00     0.116 C 
BRANCH  27  28
ATOM     28  N   UNL A   1      39.739  19.159  25.679  1.00  0.00    -0.352 N 
ATOM     29  C   UNL A   1      41.089  19.295  25.957  1.00  0.00     0.251 C 
ATOM     30  H   UNL A   1      39.402  18.235  25.619  1.00  0.00     0.163 HD
ATOM     31  O   UNL A   1      41.875  18.388  25.750  1.00  0.00    -0.269 OA
BRANCH  29  32
ATOM     32  C   UNL A   1      41.555  20.567  26.538  1.00  0.00     0.039 A 
ATOM     33  C   UNL A   1      42.233  21.526  25.779  1.00  0.00     0.014 A 
ATOM     34  C   UNL A   1      41.288  20.782  27.886  1.00  0.00     0.014 A 
ATOM     35  C   UNL A   1      42.578  22.735  26.379  1.00  0.00     0.010 A 
ATOM     36  C   UNL A   1      41.459  22.027  28.419  1.00  0.00     0.010 A 
ATOM     37  C   UNL A   1      42.177  22.974  27.702  1.00  0.00    -0.014 A 
BRANCH  37  38
ATOM     38  C   UNL A   1      42.397  24.252  28.362  1.00  0.00     0.031 A 
ATOM     39  C   UNL A   1      41.329  25.255  28.102  1.00  0.00     0.074 A 
ATOM     40  C   UNL A   1      43.320  24.375  29.343  1.00  0.00     0.049 A 
ATOM     41  N   UNL A   1      41.436  26.393  27.501  1.00  0.00    -0.248 NA
ATOM     42  C   UNL A   1      39.937  24.886  28.422  1.00  0.00     0.031 C 
ATOM     43  C   UNL A   1      44.186  23.324  29.900  1.00  0.00     0.029 A 
ATOM     44  N   UNL A   1      43.602  25.439  30.142  1.00  0.00    -0.354 N 
ATOM     45  C   UNL A   1      40.170  26.973  27.552  1.00  0.00     0.074 A 
ATOM     46  C   UNL A   1      39.260  25.927  27.935  1.00  0.00     0.031 C 
ATOM     47  C   UNL A   1      44.713  23.738  31.073  1.00  0.00     0.029 A 
ATOM     48  C   UNL A   1      44.365  25.132  31.267  1.00  0.00     0.049 A 
ATOM     49  H   UNL A   1      43.292  26.351  29.942  1.00  0.00     0.167 HD
ATOM     50  C   UNL A   1      40.022  28.327  27.552  1.00  0.00     0.037 A 
ATOM     51  C   UNL A   1      44.659  25.970  32.291  1.00  0.00     0.037 A 
ATOM     52  C   UNL A   1      41.249  28.966  27.151  1.00  0.00     0.049 A 
ATOM     53  C   UNL A   1      44.433  27.345  31.788  1.00  0.00     0.074 A 
ATOM     54  C   UNL A   1      41.995  29.039  25.995  1.00  0.00     0.029 A 
ATOM     55  N   UNL A   1      42.077  29.335  28.179  1.00  0.00    -0.354 N 
ATOM     56  N   UNL A   1      45.147  27.901  30.849  1.00  0.00    -0.248 NA
ATOM     57  C   UNL A   1      43.143  27.963  32.047  1.00  0.00     0.031 C 
ATOM     58  C   UNL A   1      43.354  29.094  26.425  1.00  0.00     0.029 A 
ATOM     59  C   UNL A   1      43.379  29.122  27.821  1.00  0.00     0.049 A 
ATOM     60  H   UNL A   1      41.780  29.698  29.046  1.00  0.00     0.167 HD
ATOM     61  C   UNL A   1      44.238  28.650  30.120  1.00  0.00     0.074 A 
ATOM     62  C   UNL A   1      43.064  28.763  30.982  1.00  0.00     0.031 C 
ATOM     63  C   UNL A   1      44.424  28.839  28.782  1.00  0.00     0.037 A 
BRANCH  50  64
ATOM     64  C   UNL A   1      38.961  29.084  28.327  1.00  0.00     0.064 A 
ATOM     65  C   UNL A   1      37.894  29.792  27.734  1.00  0.00     0.173 A 
ATOM     66  C   UNL A   1      38.822  28.840  29.711  1.00  0.00     0.173 A 
ATOM     67  F   UNL A   1      37.819  30.002  26.415  1.00  0.00    -0.203 F 
ATOM     68  C   UNL A   1      36.780  30.216  28.457  1.00  0.00     0.198 A 
ATOM     69  C   UNL A   1      37.678  29.218  30.421  1.00  0.00     0.198 A 
ATOM     70  F   UNL A   1      39.758  28.148  30.380  1.00  0.00    -0.203 F 
ATOM     71  F   UNL A   1      35.788  30.858  27.821  1.00  0.00    -0.200 F 
ATOM     72  C   UNL A   1      36.657  29.904  29.793  1.00  0.00     0.200 A 
ATOM     73  F   UNL A   1      37.539  28.853  31.704  1.00  0.00    -0.200 F 
ATOM     74  F   UNL A   1      35.537  30.220  30.456  1.00  0.00    -0.200 F 
ENDBRANCH  50  64
BRANCH  51  75
ATOM     75  C   UNL A   1      44.800  25.685  33.741  1.00  0.00     0.064 A 
ATOM     76  C   UNL A   1      46.032  25.276  34.285  1.00  0.00     0.173 A 
ATOM     77  C   UNL A   1      43.666  25.492  34.549  1.00  0.00     0.173 A 
ATOM     78  F   UNL A   1      47.162  25.361  33.569  1.00  0.00    -0.203 F 
ATOM     79  C   UNL A   1      46.116  24.665  35.540  1.00  0.00     0.198 A 
ATOM     80  C   UNL A   1      43.751  24.877  35.803  1.00  0.00     0.198 A 
ATOM     81  F   UNL A   1      42.449  25.821  34.091  1.00  0.00    -0.203 F 
ATOM     82  F   UNL A   1      47.301  24.219  35.982  1.00  0.00    -0.200 F 
ATOM     83  C   UNL A   1      44.975  24.449  36.290  1.00  0.00     0.200 A 
ATOM     84  F   UNL A   1      42.636  24.638  36.509  1.00  0.00    -0.200 F 
ATOM     85  F   UNL A   1      45.048  23.788  37.453  1.00  0.00    -0.200 F 
ENDBRANCH  51  75
BRANCH  63  86
ATOM     86  C   UNL A   1      45.790  28.547  28.223  1.00  0.00     0.064 A 
ATOM     87  C   UNL A   1      46.697  29.610  28.136  1.00  0.00     0.173 A 
ATOM     88  C   UNL A   1      46.175  27.320  27.655  1.00  0.00     0.173 A 
ATOM     89  F   UNL A   1      46.365  30.815  28.623  1.00  0.00    -0.203 F 
ATOM     90  C   UNL A   1      47.925  29.463  27.498  1.00  0.00     0.198 A 
ATOM     91  C   UNL A   1      47.422  27.165  27.049  1.00  0.00     0.198 A 
ATOM     92  F   UNL A   1      45.338  26.278  27.628  1.00  0.00    -0.203 F 
ATOM     93  F   UNL A   1      48.740  30.520  27.374  1.00  0.00    -0.200 F 
ATOM     94  C   UNL A   1      48.289  28.240  26.960  1.00  0.00     0.200 A 
ATOM     95  F   UNL A   1      47.768  25.983  26.517  1.00  0.00    -0.200 F 
ATOM     96  F   UNL A   1      49.467  28.107  26.333  1.00  0.00    -0.200 F 
ENDBRANCH  63  86
ENDBRANCH  37  38
ENDBRANCH  29  32
ENDBRANCH  27  28
ENDBRANCH  26  27
ENDBRANCH   1  26
TORSDOF 14
ENDMDL
MODEL 3
REMARK VINA RESULT:     -12.2      2.973      8.525
REMARK SMILES CC1=Nc2ncnn2[C@H](c2ccc(F)cc2)[C@@H]1C(=O)NCCCCCCNC(=O)c1ccc(-c2c3nc(c(-c4c(F)c(F)c(F)c(F)c4F)c4ccc([nH]4)c(-c4c(F)c(F)c(F)c(F)c4F)c4nc(c(-c5c(F)c(F)c(F)c(F)c5F)c5ccc2[nH]5)C=C4)C=C3)cc1
REMARK SMILES IDX 24 1 23 2 22 3 21 4 20 5 18 6 19 7 17 9 1 10 2 11 3 12 4 13
REMARK SMILES IDX 9 14 5 15 8 16 6 17 7 18 10 19 11 20 16 21 12 22 15 23 13 24
REMARK SMILES IDX 14 25 25 26 26 27 27 28 28 29 29 31 30 32 31 33 92 34 32 35
REMARK SMILES IDX 91 36 33 37 34 38 35 39 85 40 36 41 90 42 84 43 86 44 37 45
REMARK SMILES IDX 89 46 83 47 82 48 38 50 70 51 50 52 69 53 51 54 54 55 68 56
REMARK SMILES IDX 87 57 52 58 53 59 67 61 88 62 55 63 39 64 40 65 48 66 41 67
REMARK SMILES IDX 42 68 46 69 49 70 43 71 44 72 47 73 45 74 71 75 72 76 80 77
REMARK SMILES IDX 73 78 74 79 78 80 81 81 75 82 76 83 79 84 77 85 56 86 57 87
REMARK SMILES IDX 65 88 58 89 59 90 63 91 66 92 60 93 61 94 64 95 62 96
REMARK H PARENT 20 8 27 30 86 49 54 60
REMARK Flexibility Score: inf
ROOT
ATOM      1  C   UNL A   1      32.675  30.527  26.568  1.00  0.00     0.002 C 
ENDROOT
BRANCH   1   2
ATOM      2  C   UNL A   1      32.274  29.464  25.534  1.00  0.00     0.002 C 
BRANCH   2   3
ATOM      3  C   UNL A   1      33.392  28.966  24.606  1.00  0.00     0.021 C 
BRANCH   3   4
ATOM      4  C   UNL A   1      33.518  27.448  24.523  1.00  0.00     0.116 C 
BRANCH   4   5
ATOM      5  N   UNL A   1      33.679  27.007  23.152  1.00  0.00    -0.355 N 
ATOM      6  C   UNL A   1      32.999  26.068  22.445  1.00  0.00     0.231 C 
ATOM      7  O   UNL A   1      33.286  25.939  21.254  1.00  0.00    -0.274 OA
ATOM      8  H   UNL A   1      34.396  27.460  22.654  1.00  0.00     0.163 HD
BRANCH   6   9
ATOM      9  C   UNL A   1      31.928  25.221  23.105  1.00  0.00     0.152 C 
ATOM     10  C   UNL A   1      30.306  27.281  23.142  1.00  0.00     0.063 C 
ATOM     11  C   UNL A   1      30.912  26.085  23.856  1.00  0.00     0.034 C 
ATOM     12  N   UNL A   1      30.415  25.820  25.023  1.00  0.00    -0.220 NA
ATOM     13  C   UNL A   1      30.789  24.691  25.656  1.00  0.00     0.248 A 
ATOM     14  C   UNL A   1      32.487  24.040  23.944  1.00  0.00     0.159 C 
ATOM     15  N   UNL A   1      30.274  24.147  26.738  1.00  0.00    -0.198 NA
ATOM     16  N   UNL A   1      31.766  23.856  25.192  1.00  0.00    -0.221 N 
ATOM     17  C   UNL A   1      30.924  22.954  26.850  1.00  0.00     0.248 A 
ATOM     18  N   UNL A   1      31.818  22.702  25.892  1.00  0.00    -0.157 NA
BRANCH  14  19
ATOM     19  C   UNL A   1      33.997  23.872  24.165  1.00  0.00    -0.022 A 
ATOM     20  C   UNL A   1      34.552  24.336  25.378  1.00  0.00     0.009 A 
ATOM     21  C   UNL A   1      34.859  23.247  23.250  1.00  0.00     0.009 A 
ATOM     22  C   UNL A   1      35.881  24.074  25.713  1.00  0.00     0.039 A 
ATOM     23  C   UNL A   1      36.176  22.938  23.608  1.00  0.00     0.039 A 
ATOM     24  C   UNL A   1      36.670  23.341  24.841  1.00  0.00     0.123 A 
ATOM     25  F   UNL A   1      37.922  23.020  25.191  1.00  0.00    -0.207 F 
ENDBRANCH  14  19
ENDBRANCH   6   9
ENDBRANCH   4   5
ENDBRANCH   3   4
ENDBRANCH   2   3
ENDBRANCH   1   2
BRANCH   1  26
ATOM     26  C   UNL A   1      33.853  30.177  27.485  1.00  0.00     0.021 C 
BRANCH  26  27
ATOM     27  C   UNL A   1      34.886  31.285  27.624  1.00  0.00     0.116 C 
BRANCH  27  28
ATOM     28  N   UNL A   1      34.674  32.120  28.806  1.00  0.00    -0.352 N 
ATOM     29  C   UNL A   1      35.197  31.953  30.078  1.00  0.00     0.251 C 
ATOM     30  H   UNL A   1      34.086  32.900  28.682  1.00  0.00     0.163 HD
ATOM     31  O   UNL A   1      34.677  32.466  31.052  1.00  0.00    -0.269 OA
BRANCH  29  32
ATOM     32  C   UNL A   1      36.425  31.150  30.225  1.00  0.00     0.039 A 
ATOM     33  C   UNL A   1      36.390  29.758  30.358  1.00  0.00     0.014 A 
ATOM     34  C   UNL A   1      37.634  31.836  30.220  1.00  0.00     0.014 A 
ATOM     35  C   UNL A   1      37.594  29.060  30.420  1.00  0.00     0.010 A 
ATOM     36  C   UNL A   1      38.804  31.145  30.094  1.00  0.00     0.010 A 
ATOM     37  C   UNL A   1      38.796  29.768  30.279  1.00  0.00    -0.014 A 
BRANCH  37  38
ATOM     38  C   UNL A   1      40.089  29.103  30.216  1.00  0.00     0.031 A 
ATOM     39  C   UNL A   1      40.735  28.916  31.544  1.00  0.00     0.074 A 
ATOM     40  C   UNL A   1      40.485  28.464  29.092  1.00  0.00     0.049 A 
ATOM     41  N   UNL A   1      41.849  29.416  31.963  1.00  0.00    -0.248 NA
ATOM     42  C   UNL A   1      39.979  28.200  32.588  1.00  0.00     0.031 C 
ATOM     43  C   UNL A   1      39.737  28.310  27.834  1.00  0.00     0.029 A 
ATOM     44  N   UNL A   1      41.592  27.707  28.867  1.00  0.00    -0.354 N 
ATOM     45  C   UNL A   1      42.035  28.910  33.249  1.00  0.00     0.074 A 
ATOM     46  C   UNL A   1      40.773  28.350  33.650  1.00  0.00     0.031 C 
ATOM     47  C   UNL A   1      40.298  27.336  27.083  1.00  0.00     0.029 A 
ATOM     48  C   UNL A   1      41.531  26.918  27.719  1.00  0.00     0.049 A 
ATOM     49  H   UNL A   1      42.372  27.715  29.466  1.00  0.00     0.167 HD
ATOM     50  C   UNL A   1      43.287  28.742  33.757  1.00  0.00     0.037 A 
ATOM     51  C   UNL A   1      42.428  25.973  27.346  1.00  0.00     0.037 A 
ATOM     52  C   UNL A   1      44.253  29.457  32.963  1.00  0.00     0.049 A 
ATOM     53  C   UNL A   1      43.673  26.252  28.099  1.00  0.00     0.074 A 
ATOM     54  C   UNL A   1      44.529  30.781  32.696  1.00  0.00     0.029 A 
ATOM     55  N   UNL A   1      44.856  28.721  31.977  1.00  0.00    -0.354 N 
ATOM     56  N   UNL A   1      44.403  27.317  27.923  1.00  0.00    -0.248 NA
ATOM     57  C   UNL A   1      43.891  25.539  29.347  1.00  0.00     0.031 C 
ATOM     58  C   UNL A   1      44.982  30.807  31.344  1.00  0.00     0.029 A 
ATOM     59  C   UNL A   1      45.028  29.496  30.864  1.00  0.00     0.049 A 
ATOM     60  H   UNL A   1      45.125  27.777  32.057  1.00  0.00     0.167 HD
ATOM     61  C   UNL A   1      44.848  27.646  29.193  1.00  0.00     0.074 A 
ATOM     62  C   UNL A   1      44.623  26.447  29.995  1.00  0.00     0.031 C 
ATOM     63  C   UNL A   1      45.071  28.951  29.524  1.00  0.00     0.037 A 
BRANCH  50  64
ATOM     64  C   UNL A   1      43.709  27.603  34.666  1.00  0.00     0.064 A 
ATOM     65  C   UNL A   1      43.915  27.728  36.056  1.00  0.00     0.173 A 
ATOM     66  C   UNL A   1      43.604  26.277  34.192  1.00  0.00     0.173 A 
ATOM     67  F   UNL A   1      43.922  28.913  36.676  1.00  0.00    -0.203 F 
ATOM     68  C   UNL A   1      44.004  26.624  36.904  1.00  0.00     0.198 A 
ATOM     69  C   UNL A   1      43.637  25.176  35.053  1.00  0.00     0.198 A 
ATOM     70  F   UNL A   1      43.375  26.032  32.892  1.00  0.00    -0.203 F 
ATOM     71  F   UNL A   1      44.170  26.819  38.221  1.00  0.00    -0.200 F 
ATOM     72  C   UNL A   1      43.835  25.350  36.409  1.00  0.00     0.200 A 
ATOM     73  F   UNL A   1      43.407  23.946  34.571  1.00  0.00    -0.200 F 
ATOM     74  F   UNL A   1      43.814  24.303  37.244  1.00  0.00    -0.200 F 
ENDBRANCH  50  64
BRANCH  51  75
ATOM     75  C   UNL A   1      42.210  24.676  26.657  1.00  0.00     0.064 A 
ATOM     76  C   UNL A   1      41.477  23.642  27.268  1.00  0.00     0.173 A 
ATOM     77  C   UNL A   1      42.987  24.316  25.541  1.00  0.00     0.173 A 
ATOM     78  F   UNL A   1      40.757  23.871  28.374  1.00  0.00    -0.203 F 
ATOM     79  C   UNL A   1      41.557  22.319  26.820  1.00  0.00     0.198 A 
ATOM     80  C   UNL A   1      43.068  22.992  25.096  1.00  0.00     0.198 A 
ATOM     81  F   UNL A   1      43.743  25.236  24.923  1.00  0.00    -0.203 F 
ATOM     82  F   UNL A   1      40.904  21.354  27.484  1.00  0.00    -0.200 F 
ATOM     83  C   UNL A   1      42.366  21.992  25.748  1.00  0.00     0.200 A 
ATOM     84  F   UNL A   1      43.882  22.676  24.079  1.00  0.00    -0.200 F 
ATOM     85  F   UNL A   1      42.505  20.713  25.375  1.00  0.00    -0.200 F 
ENDBRANCH  51  75
BRANCH  63  86
ATOM     86  C   UNL A   1      45.184  29.942  28.398  1.00  0.00     0.064 A 
ATOM     87  C   UNL A   1      46.466  30.227  27.909  1.00  0.00     0.173 A 
ATOM     88  C   UNL A   1      44.117  30.706  27.895  1.00  0.00     0.173 A 
ATOM     89  F   UNL A   1      47.527  29.557  28.384  1.00  0.00    -0.203 F 
ATOM     90  C   UNL A   1      46.677  31.236  26.975  1.00  0.00     0.198 A 
ATOM     91  C   UNL A   1      44.326  31.693  26.931  1.00  0.00     0.198 A 
ATOM     92  F   UNL A   1      42.875  30.551  28.365  1.00  0.00    -0.203 F 
ATOM     93  F   UNL A   1      47.924  31.525  26.579  1.00  0.00    -0.200 F 
ATOM     94  C   UNL A   1      45.607  31.964  26.482  1.00  0.00     0.200 A 
ATOM     95  F   UNL A   1      43.290  32.406  26.464  1.00  0.00    -0.200 F 
ATOM     96  F   UNL A   1      45.816  32.946  25.593  1.00  0.00    -0.200 F 
ENDBRANCH  63  86
ENDBRANCH  37  38
ENDBRANCH  29  32
ENDBRANCH  27  28
ENDBRANCH  26  27
ENDBRANCH   1  26
TORSDOF 14
ENDMDL
