MODEL 1
REMARK VINA RESULT:     -12.0      0.000      0.000
REMARK SMILES [NH3+]C[C@H]1CC[C@@H](C(=O)Nc2ccc(O)c(C(=O)NCCCCCCNC(=O)c3ccc(-c4c5nc(c(-c6c(F)c(F)c(F)c(F)c6F)c6ccc([nH]6)c(-c6c(F)c(F)c(F)c(F)c6F)c6nc(c(-c7c(F)c(F)c(F)c(F)c7F)c7ccc4[nH]7)C=C6)C=C5)cc3)c2)O1
REMARK SMILES IDX 20 1 19 2 18 3 16 4 17 5 15 7 10 8 11 9 91 10 12 11 13 12
REMARK SMILES IDX 9 13 7 14 8 15 6 17 3 18 4 19 92 20 5 21 2 22 1 23 14 27
REMARK SMILES IDX 21 29 22 30 23 31 24 32 25 33 26 34 27 36 28 37 29 38 90 39
REMARK SMILES IDX 30 40 89 41 31 42 32 43 33 44 83 45 34 46 88 47 82 48 84 49
REMARK SMILES IDX 35 50 87 51 81 52 80 53 36 55 68 56 48 57 67 58 49 59 52 60
REMARK SMILES IDX 66 61 85 62 50 63 51 64 65 66 86 67 53 68 37 69 38 70 46 71
REMARK SMILES IDX 39 72 40 73 44 74 47 75 41 76 42 77 45 78 43 79 69 80 70 81
REMARK SMILES IDX 78 82 71 83 72 84 76 85 79 86 73 87 74 88 77 89 75 90 54 91
REMARK SMILES IDX 55 92 63 93 56 94 57 95 61 96 64 97 58 98 59 99 62 100
REMARK SMILES IDX 60 101
REMARK H PARENT 18 6 9 16 1 24 1 25 1 26 14 28 25 35 84 54 52 65
REMARK Flexibility Score: inf
ROOT
ATOM      1  C   UNL A   1      31.821  28.652  26.818  1.00  0.00     0.021 C 
ENDROOT
BRANCH   1   2
ATOM      2  C   UNL A   1      32.044  28.074  25.417  1.00  0.00     0.116 C 
BRANCH   2   3
ATOM      3  N   UNL A   1      30.842  27.428  24.949  1.00  0.00    -0.352 N 
ATOM      4  C   UNL A   1      30.637  26.341  24.148  1.00  0.00     0.255 C 
ATOM      5  O   UNL A   1      29.459  26.057  23.904  1.00  0.00    -0.269 OA
ATOM      6  H   UNL A   1      30.013  27.849  25.270  1.00  0.00     0.163 HD
BRANCH   4   7
ATOM      7  C   UNL A   1      31.697  25.435  23.614  1.00  0.00     0.083 A 
ATOM      8  C   UNL A   1      33.176  23.604  24.239  1.00  0.00     0.042 A 
ATOM      9  C   UNL A   1      33.567  23.447  22.915  1.00  0.00     0.030 A 
ATOM     10  C   UNL A   1      32.184  24.521  24.569  1.00  0.00     0.043 A 
ATOM     11  C   UNL A   1      33.115  24.345  21.959  1.00  0.00     0.049 A 
ATOM     12  C   UNL A   1      32.218  25.359  22.315  1.00  0.00     0.128 A 
BRANCH   8  13
ATOM     13  N   UNL A   1      33.733  22.824  25.245  1.00  0.00    -0.324 N 
ATOM     14  C   UNL A   1      33.635  21.472  25.429  1.00  0.00     0.253 C 
ATOM     15  O   UNL A   1      33.794  21.055  26.581  1.00  0.00    -0.272 OA
ATOM     16  H   UNL A   1      34.269  23.307  25.914  1.00  0.00     0.170 HD
BRANCH  14  17
ATOM     17  C   UNL A   1      33.552  20.478  24.228  1.00  0.00     0.208 C 
ATOM     18  C   UNL A   1      33.391  18.127  24.181  1.00  0.00     0.174 C 
ATOM     19  C   UNL A   1      32.535  18.678  23.057  1.00  0.00     0.041 C 
ATOM     20  O   UNL A   1      34.214  19.240  24.581  1.00  0.00    -0.359 OA
ATOM     21  C   UNL A   1      32.245  20.068  23.571  1.00  0.00     0.045 C 
BRANCH  18  22
ATOM     22  C   UNL A   1      32.561  17.605  25.388  1.00  0.00     0.291 C 
BRANCH  22  23
ATOM     23  N   UNL A   1      32.832  18.280  26.661  1.00  0.00    -0.355 N 
ATOM     24  H   UNL A   1      33.822  18.518  26.716  1.00  0.00     0.344 HD
ATOM     25  H   UNL A   1      32.588  17.660  27.433  1.00  0.00     0.344 HD
ATOM     26  H   UNL A   1      32.274  19.131  26.719  1.00  0.00     0.344 HD
ENDBRANCH  22  23
ENDBRANCH  18  22
ENDBRANCH  14  17
ENDBRANCH   8  13
BRANCH  12  27
ATOM     27  O   UNL A   1      31.885  26.220  21.316  1.00  0.00    -0.507 OA
ATOM     28  H   UNL A   1      31.058  26.139  20.884  1.00  0.00     0.293 HD
ENDBRANCH  12  27
ENDBRANCH   4   7
ENDBRANCH   2   3
ENDBRANCH   1   2
BRANCH   1  29
ATOM     29  C   UNL A   1      32.159  30.140  26.938  1.00  0.00     0.002 C 
BRANCH  29  30
ATOM     30  C   UNL A   1      31.312  31.058  26.052  1.00  0.00     0.002 C 
BRANCH  30  31
ATOM     31  C   UNL A   1      31.265  32.520  26.502  1.00  0.00     0.021 C 
BRANCH  31  32
ATOM     32  C   UNL A   1      32.484  32.963  27.305  1.00  0.00     0.116 C 
BRANCH  32  33
ATOM     33  N   UNL A   1      32.393  34.366  27.678  1.00  0.00    -0.352 N 
ATOM     34  C   UNL A   1      33.017  35.031  28.696  1.00  0.00     0.251 C 
ATOM     35  H   UNL A   1      31.797  34.915  27.118  1.00  0.00     0.163 HD
ATOM     36  O   UNL A   1      32.627  36.149  29.040  1.00  0.00    -0.269 OA
BRANCH  34  37
ATOM     37  C   UNL A   1      34.164  34.411  29.388  1.00  0.00     0.039 A 
ATOM     38  C   UNL A   1      33.937  33.659  30.543  1.00  0.00     0.014 A 
ATOM     39  C   UNL A   1      35.465  34.599  28.912  1.00  0.00     0.014 A 
ATOM     40  C   UNL A   1      35.014  33.061  31.199  1.00  0.00     0.010 A 
ATOM     41  C   UNL A   1      36.526  33.938  29.520  1.00  0.00     0.010 A 
ATOM     42  C   UNL A   1      36.314  33.178  30.680  1.00  0.00    -0.014 A 
BRANCH  42  43
ATOM     43  C   UNL A   1      37.469  32.533  31.351  1.00  0.00     0.031 A 
ATOM     44  C   UNL A   1      38.185  31.392  30.684  1.00  0.00     0.074 A 
ATOM     45  C   UNL A   1      37.834  32.939  32.581  1.00  0.00     0.049 A 
ATOM     46  N   UNL A   1      39.177  30.662  31.130  1.00  0.00    -0.248 NA
ATOM     47  C   UNL A   1      37.704  30.999  29.350  1.00  0.00     0.031 C 
ATOM     48  C   UNL A   1      37.186  34.004  33.348  1.00  0.00     0.029 A 
ATOM     49  N   UNL A   1      38.837  32.498  33.408  1.00  0.00    -0.354 N 
ATOM     50  C   UNL A   1      39.427  29.720  30.140  1.00  0.00     0.074 A 
ATOM     51  C   UNL A   1      38.444  29.930  29.099  1.00  0.00     0.031 C 
ATOM     52  C   UNL A   1      37.824  34.152  34.520  1.00  0.00     0.029 A 
ATOM     53  C   UNL A   1      38.899  33.169  34.604  1.00  0.00     0.049 A 
ATOM     54  H   UNL A   1      39.454  31.769  33.167  1.00  0.00     0.167 HD
ATOM     55  C   UNL A   1      40.404  28.784  30.092  1.00  0.00     0.037 A 
ATOM     56  C   UNL A   1      39.728  33.004  35.653  1.00  0.00     0.037 A 
ATOM     57  C   UNL A   1      41.391  28.596  31.122  1.00  0.00     0.049 A 
ATOM     58  C   UNL A   1      40.801  31.951  35.578  1.00  0.00     0.074 A 
ATOM     59  C   UNL A   1      42.456  27.713  31.147  1.00  0.00     0.029 A 
ATOM     60  N   UNL A   1      41.432  29.306  32.313  1.00  0.00    -0.354 N 
ATOM     61  N   UNL A   1      41.070  31.110  34.608  1.00  0.00    -0.248 NA
ATOM     62  C   UNL A   1      41.691  31.831  36.740  1.00  0.00     0.031 C 
ATOM     63  C   UNL A   1      43.109  27.852  32.377  1.00  0.00     0.029 A 
ATOM     64  C   UNL A   1      42.490  28.864  33.092  1.00  0.00     0.049 A 
ATOM     65  H   UNL A   1      40.802  30.019  32.569  1.00  0.00     0.167 HD
ATOM     66  C   UNL A   1      42.179  30.387  35.027  1.00  0.00     0.074 A 
ATOM     67  C   UNL A   1      42.539  30.898  36.333  1.00  0.00     0.031 C 
ATOM     68  C   UNL A   1      42.840  29.392  34.387  1.00  0.00     0.037 A 
BRANCH  55  69
ATOM     69  C   UNL A   1      40.449  27.890  28.884  1.00  0.00     0.064 A 
ATOM     70  C   UNL A   1      41.223  28.211  27.758  1.00  0.00     0.173 A 
ATOM     71  C   UNL A   1      39.732  26.685  28.862  1.00  0.00     0.173 A 
ATOM     72  F   UNL A   1      41.920  29.357  27.720  1.00  0.00    -0.203 F 
ATOM     73  C   UNL A   1      41.247  27.377  26.642  1.00  0.00     0.198 A 
ATOM     74  C   UNL A   1      39.786  25.836  27.760  1.00  0.00     0.198 A 
ATOM     75  F   UNL A   1      38.980  26.325  29.914  1.00  0.00    -0.203 F 
ATOM     76  F   UNL A   1      41.946  27.734  25.556  1.00  0.00    -0.200 F 
ATOM     77  C   UNL A   1      40.534  26.187  26.647  1.00  0.00     0.200 A 
ATOM     78  F   UNL A   1      39.109  24.679  27.772  1.00  0.00    -0.200 F 
ATOM     79  F   UNL A   1      40.564  25.384  25.575  1.00  0.00    -0.200 F 
ENDBRANCH  55  69
BRANCH  56  80
ATOM     80  C   UNL A   1      39.596  33.877  36.848  1.00  0.00     0.064 A 
ATOM     81  C   UNL A   1      40.242  35.120  36.907  1.00  0.00     0.173 A 
ATOM     82  C   UNL A   1      38.825  33.490  37.954  1.00  0.00     0.173 A 
ATOM     83  F   UNL A   1      41.004  35.526  35.882  1.00  0.00    -0.203 F 
ATOM     84  C   UNL A   1      40.140  35.932  38.035  1.00  0.00     0.198 A 
ATOM     85  C   UNL A   1      38.700  34.317  39.070  1.00  0.00     0.198 A 
ATOM     86  F   UNL A   1      38.180  32.314  37.946  1.00  0.00    -0.203 F 
ATOM     87  F   UNL A   1      40.808  37.093  38.083  1.00  0.00    -0.200 F 
ATOM     88  C   UNL A   1      39.365  35.533  39.112  1.00  0.00     0.200 A 
ATOM     89  F   UNL A   1      37.936  33.934  40.102  1.00  0.00    -0.200 F 
ATOM     90  F   UNL A   1      39.265  36.315  40.196  1.00  0.00    -0.200 F 
ENDBRANCH  56  80
BRANCH  68  91
ATOM     91  C   UNL A   1      44.050  28.819  35.069  1.00  0.00     0.064 A 
ATOM     92  C   UNL A   1      43.961  27.712  35.927  1.00  0.00     0.173 A 
ATOM     93  C   UNL A   1      45.321  29.366  34.833  1.00  0.00     0.173 A 
ATOM     94  F   UNL A   1      42.768  27.161  36.197  1.00  0.00    -0.203 F 
ATOM     95  C   UNL A   1      45.096  27.194  36.545  1.00  0.00     0.198 A 
ATOM     96  C   UNL A   1      46.457  28.823  35.425  1.00  0.00     0.198 A 
ATOM     97  F   UNL A   1      45.461  30.419  34.015  1.00  0.00    -0.203 F 
ATOM     98  F   UNL A   1      44.980  26.171  37.403  1.00  0.00    -0.200 F 
ATOM     99  C   UNL A   1      46.343  27.745  36.289  1.00  0.00     0.200 A 
ATOM    100  F   UNL A   1      47.662  29.347  35.163  1.00  0.00    -0.200 F 
ATOM    101  F   UNL A   1      47.435  27.240  36.880  1.00  0.00    -0.200 F 
ENDBRANCH  68  91
ENDBRANCH  42  43
ENDBRANCH  34  37
ENDBRANCH  32  33
ENDBRANCH  31  32
ENDBRANCH  30  31
ENDBRANCH  29  30
ENDBRANCH   1  29
TORSDOF 18
ENDMDL
MODEL 2
REMARK VINA RESULT:     -12.0      1.038      2.449
REMARK SMILES [NH3+]C[C@H]1CC[C@@H](C(=O)Nc2ccc(O)c(C(=O)NCCCCCCNC(=O)c3ccc(-c4c5nc(c(-c6c(F)c(F)c(F)c(F)c6F)c6ccc([nH]6)c(-c6c(F)c(F)c(F)c(F)c6F)c6nc(c(-c7c(F)c(F)c(F)c(F)c7F)c7ccc4[nH]7)C=C6)C=C5)cc3)c2)O1
REMARK SMILES IDX 20 1 19 2 18 3 16 4 17 5 15 7 10 8 11 9 91 10 12 11 13 12
REMARK SMILES IDX 9 13 7 14 8 15 6 17 3 18 4 19 92 20 5 21 2 22 1 23 14 27
REMARK SMILES IDX 21 29 22 30 23 31 24 32 25 33 26 34 27 36 28 37 29 38 90 39
REMARK SMILES IDX 30 40 89 41 31 42 32 43 33 44 83 45 34 46 88 47 82 48 84 49
REMARK SMILES IDX 35 50 87 51 81 52 80 53 36 55 68 56 48 57 67 58 49 59 52 60
REMARK SMILES IDX 66 61 85 62 50 63 51 64 65 66 86 67 53 68 37 69 38 70 46 71
REMARK SMILES IDX 39 72 40 73 44 74 47 75 41 76 42 77 45 78 43 79 69 80 70 81
REMARK SMILES IDX 78 82 71 83 72 84 76 85 79 86 73 87 74 88 77 89 75 90 54 91
REMARK SMILES IDX 55 92 63 93 56 94 57 95 61 96 64 97 58 98 59 99 62 100
REMARK SMILES IDX 60 101
REMARK H PARENT 18 6 9 16 1 24 1 25 1 26 14 28 25 35 84 54 52 65
REMARK Flexibility Score: inf
ROOT
ATOM      1  C   UNL A   1      32.419  28.699  26.815  1.00  0.00     0.021 C 
ENDROOT
BRANCH   1   2
ATOM      2  C   UNL A   1      33.769  28.246  26.251  1.00  0.00     0.116 C 
BRANCH   2   3
ATOM      3  N   UNL A   1      33.981  28.826  24.947  1.00  0.00    -0.352 N 
ATOM      4  C   UNL A   1      33.709  28.377  23.686  1.00  0.00     0.255 C 
ATOM      5  O   UNL A   1      34.053  29.115  22.757  1.00  0.00    -0.269 OA
ATOM      6  H   UNL A   1      34.401  29.716  24.970  1.00  0.00     0.163 HD
BRANCH   4   7
ATOM      7  C   UNL A   1      32.972  27.124  23.345  1.00  0.00     0.083 A 
ATOM      8  C   UNL A   1      33.264  24.725  23.040  1.00  0.00     0.042 A 
ATOM      9  C   UNL A   1      31.890  24.556  22.930  1.00  0.00     0.030 A 
ATOM     10  C   UNL A   1      33.790  25.977  23.339  1.00  0.00     0.043 A 
ATOM     11  C   UNL A   1      31.063  25.671  22.915  1.00  0.00     0.049 A 
ATOM     12  C   UNL A   1      31.607  26.950  23.079  1.00  0.00     0.128 A 
BRANCH   8  13
ATOM     13  N   UNL A   1      34.129  23.647  22.898  1.00  0.00    -0.324 N 
ATOM     14  C   UNL A   1      34.861  23.008  23.861  1.00  0.00     0.253 C 
ATOM     15  O   UNL A   1      35.877  22.413  23.484  1.00  0.00    -0.272 OA
ATOM     16  H   UNL A   1      34.229  23.296  21.984  1.00  0.00     0.170 HD
BRANCH  14  17
ATOM     17  C   UNL A   1      34.336  22.839  25.322  1.00  0.00     0.208 C 
ATOM     18  C   UNL A   1      33.006  21.155  26.297  1.00  0.00     0.174 C 
ATOM     19  C   UNL A   1      34.044  21.583  27.317  1.00  0.00     0.041 C 
ATOM     20  O   UNL A   1      33.042  22.192  25.296  1.00  0.00    -0.359 OA
ATOM     21  C   UNL A   1      35.122  22.137  26.417  1.00  0.00     0.045 C 
BRANCH  18  22
ATOM     22  C   UNL A   1      33.306  19.771  25.655  1.00  0.00     0.291 C 
BRANCH  22  23
ATOM     23  N   UNL A   1      32.832  18.618  26.426  1.00  0.00    -0.355 N 
ATOM     24  H   UNL A   1      32.175  18.079  25.862  1.00  0.00     0.344 HD
ATOM     25  H   UNL A   1      32.367  18.943  27.273  1.00  0.00     0.344 HD
ATOM     26  H   UNL A   1      33.626  18.029  26.679  1.00  0.00     0.344 HD
ENDBRANCH  22  23
ENDBRANCH  18  22
ENDBRANCH  14  17
ENDBRANCH   8  13
BRANCH  12  27
ATOM     27  O   UNL A   1      30.718  27.976  22.990  1.00  0.00    -0.507 OA
ATOM     28  H   UNL A   1      30.435  28.420  23.765  1.00  0.00     0.293 HD
ENDBRANCH  12  27
ENDBRANCH   4   7
ENDBRANCH   2   3
ENDBRANCH   1   2
BRANCH   1  29
ATOM     29  C   UNL A   1      32.350  30.194  27.137  1.00  0.00     0.002 C 
BRANCH  29  30
ATOM     30  C   UNL A   1      31.373  30.988  26.266  1.00  0.00     0.002 C 
BRANCH  30  31
ATOM     31  C   UNL A   1      31.386  32.500  26.501  1.00  0.00     0.021 C 
BRANCH  31  32
ATOM     32  C   UNL A   1      32.630  33.006  27.224  1.00  0.00     0.116 C 
BRANCH  32  33
ATOM     33  N   UNL A   1      32.460  34.378  27.675  1.00  0.00    -0.352 N 
ATOM     34  C   UNL A   1      33.018  35.009  28.753  1.00  0.00     0.251 C 
ATOM     35  H   UNL A   1      31.859  34.933  27.126  1.00  0.00     0.163 HD
ATOM     36  O   UNL A   1      32.564  36.086  29.147  1.00  0.00    -0.269 OA
BRANCH  34  37
ATOM     37  C   UNL A   1      34.168  34.400  29.450  1.00  0.00     0.039 A 
ATOM     38  C   UNL A   1      33.950  33.694  30.635  1.00  0.00     0.014 A 
ATOM     39  C   UNL A   1      35.464  34.554  28.947  1.00  0.00     0.014 A 
ATOM     40  C   UNL A   1      35.030  33.107  31.295  1.00  0.00     0.010 A 
ATOM     41  C   UNL A   1      36.526  33.903  29.562  1.00  0.00     0.010 A 
ATOM     42  C   UNL A   1      36.323  33.188  30.752  1.00  0.00    -0.014 A 
BRANCH  42  43
ATOM     43  C   UNL A   1      37.481  32.554  31.429  1.00  0.00     0.031 A 
ATOM     44  C   UNL A   1      38.208  31.417  30.767  1.00  0.00     0.074 A 
ATOM     45  C   UNL A   1      37.839  32.964  32.660  1.00  0.00     0.049 A 
ATOM     46  N   UNL A   1      39.205  30.696  31.217  1.00  0.00    -0.248 NA
ATOM     47  C   UNL A   1      37.736  31.018  29.432  1.00  0.00     0.031 C 
ATOM     48  C   UNL A   1      37.179  34.026  33.422  1.00  0.00     0.029 A 
ATOM     49  N   UNL A   1      38.842  32.533  33.491  1.00  0.00    -0.354 N 
ATOM     50  C   UNL A   1      39.466  29.754  30.230  1.00  0.00     0.074 A 
ATOM     51  C   UNL A   1      38.485  29.954  29.185  1.00  0.00     0.031 C 
ATOM     52  C   UNL A   1      37.811  34.182  34.596  1.00  0.00     0.029 A 
ATOM     53  C   UNL A   1      38.894  33.207  34.686  1.00  0.00     0.049 A 
ATOM     54  H   UNL A   1      39.466  31.809  33.253  1.00  0.00     0.167 HD
ATOM     55  C   UNL A   1      40.450  28.826  30.187  1.00  0.00     0.037 A 
ATOM     56  C   UNL A   1      39.720  33.051  35.738  1.00  0.00     0.037 A 
ATOM     57  C   UNL A   1      41.435  28.648  31.221  1.00  0.00     0.049 A 
ATOM     58  C   UNL A   1      40.802  32.006  35.668  1.00  0.00     0.074 A 
ATOM     59  C   UNL A   1      42.508  27.774  31.252  1.00  0.00     0.029 A 
ATOM     60  N   UNL A   1      41.467  29.361  32.411  1.00  0.00    -0.354 N 
ATOM     61  N   UNL A   1      41.082  31.166  34.701  1.00  0.00    -0.248 NA
ATOM     62  C   UNL A   1      41.689  31.896  36.834  1.00  0.00     0.031 C 
ATOM     63  C   UNL A   1      43.155  27.920  32.483  1.00  0.00     0.029 A 
ATOM     64  C   UNL A   1      42.525  28.928  33.195  1.00  0.00     0.049 A 
ATOM     65  H   UNL A   1      40.830  30.069  32.664  1.00  0.00     0.167 HD
ATOM     66  C   UNL A   1      42.195  30.453  35.126  1.00  0.00     0.074 A 
ATOM     67  C   UNL A   1      42.546  30.969  36.432  1.00  0.00     0.031 C 
ATOM     68  C   UNL A   1      42.866  29.461  34.489  1.00  0.00     0.037 A 
BRANCH  55  69
ATOM     69  C   UNL A   1      40.507  27.930  28.981  1.00  0.00     0.064 A 
ATOM     70  C   UNL A   1      39.768  26.739  28.911  1.00  0.00     0.173 A 
ATOM     71  C   UNL A   1      41.289  28.280  27.871  1.00  0.00     0.173 A 
ATOM     72  F   UNL A   1      39.012  26.351  29.949  1.00  0.00    -0.203 F 
ATOM     73  C   UNL A   1      39.839  25.914  27.791  1.00  0.00     0.198 A 
ATOM     74  C   UNL A   1      41.331  27.472  26.737  1.00  0.00     0.198 A 
ATOM     75  F   UNL A   1      42.012  29.411  27.879  1.00  0.00    -0.203 F 
ATOM     76  F   UNL A   1      39.170  24.754  27.772  1.00  0.00    -0.200 F 
ATOM     77  C   UNL A   1      40.614  26.286  26.702  1.00  0.00     0.200 A 
ATOM     78  F   UNL A   1      42.068  27.838  25.680  1.00  0.00    -0.200 F 
ATOM     79  F   UNL A   1      40.676  25.494  25.623  1.00  0.00    -0.200 F 
ENDBRANCH  55  69
BRANCH  56  80
ATOM     80  C   UNL A   1      39.577  33.925  36.931  1.00  0.00     0.064 A 
ATOM     81  C   UNL A   1      38.819  33.515  38.037  1.00  0.00     0.173 A 
ATOM     82  C   UNL A   1      40.189  35.185  36.993  1.00  0.00     0.173 A 
ATOM     83  F   UNL A   1      38.198  32.326  38.018  1.00  0.00    -0.203 F 
ATOM     84  C   UNL A   1      38.661  34.339  39.149  1.00  0.00     0.198 A 
ATOM     85  C   UNL A   1      40.056  35.997  38.118  1.00  0.00     0.198 A 
ATOM     86  F   UNL A   1      40.932  35.622  35.965  1.00  0.00    -0.203 F 
ATOM     87  F   UNL A   1      37.891  33.942  40.171  1.00  0.00    -0.200 F 
ATOM     88  C   UNL A   1      39.284  35.577  39.191  1.00  0.00     0.200 A 
ATOM     89  F   UNL A   1      40.674  37.185  38.161  1.00  0.00    -0.200 F 
ATOM     90  F   UNL A   1      39.135  36.369  40.261  1.00  0.00    -0.200 F 
ENDBRANCH  56  80
BRANCH  68  91
ATOM     91  C   UNL A   1      44.078  28.900  35.178  1.00  0.00     0.064 A 
ATOM     92  C   UNL A   1      45.360  29.430  34.970  1.00  0.00     0.173 A 
ATOM     93  C   UNL A   1      43.947  27.838  36.086  1.00  0.00     0.173 A 
ATOM     94  F   UNL A   1      45.542  30.436  34.101  1.00  0.00    -0.203 F 
ATOM     95  C   UNL A   1      46.469  28.897  35.622  1.00  0.00     0.198 A 
ATOM     96  C   UNL A   1      45.052  27.330  36.762  1.00  0.00     0.198 A 
ATOM     97  F   UNL A   1      42.742  27.300  36.326  1.00  0.00    -0.203 F 
ATOM     98  F   UNL A   1      47.691  29.384  35.366  1.00  0.00    -0.200 F 
ATOM     99  C   UNL A   1      46.314  27.854  36.522  1.00  0.00     0.200 A 
ATOM    100  F   UNL A   1      44.897  26.333  37.643  1.00  0.00    -0.200 F 
ATOM    101  F   UNL A   1      47.381  27.347  37.154  1.00  0.00    -0.200 F 
ENDBRANCH  68  91
ENDBRANCH  42  43
ENDBRANCH  34  37
ENDBRANCH  32  33
ENDBRANCH  31  32
ENDBRANCH  30  31
ENDBRANCH  29  30
ENDBRANCH   1  29
TORSDOF 18
ENDMDL
MODEL 3
REMARK VINA RESULT:     -12.0      1.520      7.479
REMARK SMILES [NH3+]C[C@H]1CC[C@@H](C(=O)Nc2ccc(O)c(C(=O)NCCCCCCNC(=O)c3ccc(-c4c5nc(c(-c6c(F)c(F)c(F)c(F)c6F)c6ccc([nH]6)c(-c6c(F)c(F)c(F)c(F)c6F)c6nc(c(-c7c(F)c(F)c(F)c(F)c7F)c7ccc4[nH]7)C=C6)C=C5)cc3)c2)O1
REMARK SMILES IDX 20 1 19 2 18 3 16 4 17 5 15 7 10 8 11 9 91 10 12 11 13 12
REMARK SMILES IDX 9 13 7 14 8 15 6 17 3 18 4 19 92 20 5 21 2 22 1 23 14 27
REMARK SMILES IDX 21 29 22 30 23 31 24 32 25 33 26 34 27 36 28 37 29 38 90 39
REMARK SMILES IDX 30 40 89 41 31 42 32 43 33 44 83 45 34 46 88 47 82 48 84 49
REMARK SMILES IDX 35 50 87 51 81 52 80 53 36 55 68 56 48 57 67 58 49 59 52 60
REMARK SMILES IDX 66 61 85 62 50 63 51 64 65 66 86 67 53 68 37 69 38 70 46 71
REMARK SMILES IDX 39 72 40 73 44 74 47 75 41 76 42 77 45 78 43 79 69 80 70 81
REMARK SMILES IDX 78 82 71 83 72 84 76 85 79 86 73 87 74 88 77 89 75 90 54 91
REMARK SMILES IDX 55 92 63 93 56 94 57 95 61 96 64 97 58 98 59 99 62 100
REMARK SMILES IDX 60 101
REMARK H PARENT 18 6 9 16 1 24 1 25 1 26 14 28 25 35 84 54 52 65
REMARK Flexibility Score: inf
ROOT
ATOM      1  C   UNL A   1      33.227  29.036  27.336  1.00  0.00     0.021 C 
ENDROOT
BRANCH   1   2
ATOM      2  C   UNL A   1      33.944  28.176  26.290  1.00  0.00     0.116 C 
BRANCH   2   3
ATOM      3  N   UNL A   1      33.856  28.799  24.992  1.00  0.00    -0.352 N 
ATOM      4  C   UNL A   1      32.963  28.663  23.967  1.00  0.00     0.255 C 
ATOM      5  O   UNL A   1      33.192  29.328  22.952  1.00  0.00    -0.269 OA
ATOM      6  H   UNL A   1      34.575  29.445  24.810  1.00  0.00     0.163 HD
BRANCH   4   7
ATOM      7  C   UNL A   1      31.710  27.851  24.001  1.00  0.00     0.083 A 
ATOM      8  C   UNL A   1      30.496  26.216  25.337  1.00  0.00     0.042 A 
ATOM      9  C   UNL A   1      29.394  26.326  24.498  1.00  0.00     0.030 A 
ATOM     10  C   UNL A   1      31.601  27.038  25.147  1.00  0.00     0.043 A 
ATOM     11  C   UNL A   1      29.482  27.106  23.353  1.00  0.00     0.049 A 
ATOM     12  C   UNL A   1      30.650  27.830  23.086  1.00  0.00     0.128 A 
BRANCH   8  13
ATOM     13  N   UNL A   1      30.496  25.323  26.401  1.00  0.00    -0.324 N 
ATOM     14  C   UNL A   1      30.623  23.961  26.372  1.00  0.00     0.253 C 
ATOM     15  O   UNL A   1      30.146  23.338  27.328  1.00  0.00    -0.272 OA
ATOM     16  H   UNL A   1      30.391  25.722  27.295  1.00  0.00     0.170 HD
BRANCH  14  17
ATOM     17  C   UNL A   1      31.511  23.236  25.313  1.00  0.00     0.208 C 
ATOM     18  C   UNL A   1      33.842  22.895  25.232  1.00  0.00     0.174 C 
ATOM     19  C   UNL A   1      33.166  21.649  24.692  1.00  0.00     0.041 C 
ATOM     20  O   UNL A   1      32.801  23.890  25.239  1.00  0.00    -0.359 OA
ATOM     21  C   UNL A   1      31.812  21.747  25.352  1.00  0.00     0.045 C 
BRANCH  18  22
ATOM     22  C   UNL A   1      34.426  22.710  26.661  1.00  0.00     0.291 C 
BRANCH  22  23
ATOM     23  N   UNL A   1      35.149  21.453  26.874  1.00  0.00    -0.355 N 
ATOM     24  H   UNL A   1      34.623  20.862  27.519  1.00  0.00     0.344 HD
ATOM     25  H   UNL A   1      36.068  21.652  27.269  1.00  0.00     0.344 HD
ATOM     26  H   UNL A   1      35.259  20.969  25.983  1.00  0.00     0.344 HD
ENDBRANCH  22  23
ENDBRANCH  18  22
ENDBRANCH  14  17
ENDBRANCH   8  13
BRANCH  12  27
ATOM     27  O   UNL A   1      30.653  28.515  21.910  1.00  0.00    -0.507 OA
ATOM     28  H   UNL A   1      30.920  29.412  21.890  1.00  0.00     0.293 HD
ENDBRANCH  12  27
ENDBRANCH   4   7
ENDBRANCH   2   3
ENDBRANCH   1   2
BRANCH   1  29
ATOM     29  C   UNL A   1      33.116  30.515  26.953  1.00  0.00     0.002 C 
BRANCH  29  30
ATOM     30  C   UNL A   1      31.686  30.996  26.688  1.00  0.00     0.002 C 
BRANCH  30  31
ATOM     31  C   UNL A   1      31.471  32.500  26.877  1.00  0.00     0.021 C 
BRANCH  31  32
ATOM     32  C   UNL A   1      32.762  33.304  26.985  1.00  0.00     0.116 C 
BRANCH  32  33
ATOM     33  N   UNL A   1      32.562  34.532  27.739  1.00  0.00    -0.352 N 
ATOM     34  C   UNL A   1      33.088  34.900  28.946  1.00  0.00     0.251 C 
ATOM     35  H   UNL A   1      31.962  35.192  27.321  1.00  0.00     0.163 HD
ATOM     36  O   UNL A   1      32.609  35.850  29.570  1.00  0.00    -0.269 OA
BRANCH  34  37
ATOM     37  C   UNL A   1      34.234  34.159  29.508  1.00  0.00     0.039 A 
ATOM     38  C   UNL A   1      35.526  34.483  29.089  1.00  0.00     0.014 A 
ATOM     39  C   UNL A   1      34.028  33.123  30.425  1.00  0.00     0.014 A 
ATOM     40  C   UNL A   1      36.617  33.795  29.621  1.00  0.00     0.010 A 
ATOM     41  C   UNL A   1      35.119  32.493  31.012  1.00  0.00     0.010 A 
ATOM     42  C   UNL A   1      36.423  32.810  30.603  1.00  0.00    -0.014 A 
BRANCH  42  43
ATOM     43  C   UNL A   1      37.571  32.080  31.195  1.00  0.00     0.031 A 
ATOM     44  C   UNL A   1      38.048  32.425  32.578  1.00  0.00     0.074 A 
ATOM     45  C   UNL A   1      38.215  31.149  30.467  1.00  0.00     0.049 A 
ATOM     46  N   UNL A   1      39.066  31.944  33.248  1.00  0.00    -0.248 NA
ATOM     47  C   UNL A   1      37.300  33.471  33.294  1.00  0.00     0.031 C 
ATOM     48  C   UNL A   1      37.872  30.761  29.097  1.00  0.00     0.029 A 
ATOM     49  N   UNL A   1      39.297  30.363  30.773  1.00  0.00    -0.354 N 
ATOM     50  C   UNL A   1      39.086  32.636  34.452  1.00  0.00     0.074 A 
ATOM     51  C   UNL A   1      38.020  33.613  34.396  1.00  0.00     0.031 C 
ATOM     52  C   UNL A   1      38.710  29.794  28.692  1.00  0.00     0.029 A 
ATOM     53  C   UNL A   1      39.671  29.520  29.756  1.00  0.00     0.049 A 
ATOM     54  H   UNL A   1      39.762  30.400  31.641  1.00  0.00     0.167 HD
ATOM     55  C   UNL A   1      39.902  32.455  35.517  1.00  0.00     0.037 A 
ATOM     56  C   UNL A   1      40.679  28.630  29.690  1.00  0.00     0.037 A 
ATOM     57  C   UNL A   1      40.946  31.467  35.573  1.00  0.00     0.049 A 
ATOM     58  C   UNL A   1      41.578  28.454  30.885  1.00  0.00     0.074 A 
ATOM     59  C   UNL A   1      41.795  31.164  36.623  1.00  0.00     0.029 A 
ATOM     60  N   UNL A   1      41.286  30.618  34.528  1.00  0.00    -0.354 N 
ATOM     61  N   UNL A   1      41.546  29.067  32.043  1.00  0.00    -0.248 NA
ATOM     62  C   UNL A   1      42.647  27.453  30.765  1.00  0.00     0.031 C 
ATOM     63  C   UNL A   1      42.682  30.171  36.196  1.00  0.00     0.029 A 
ATOM     64  C   UNL A   1      42.348  29.809  34.901  1.00  0.00     0.049 A 
ATOM     65  H   UNL A   1      40.839  30.595  33.651  1.00  0.00     0.167 HD
ATOM     66  C   UNL A   1      42.564  28.504  32.801  1.00  0.00     0.074 A 
ATOM     67  C   UNL A   1      43.186  27.491  31.974  1.00  0.00     0.031 C 
ATOM     68  C   UNL A   1      42.948  28.798  34.068  1.00  0.00     0.037 A 
BRANCH  55  69
ATOM     69  C   UNL A   1      39.697  33.349  36.708  1.00  0.00     0.064 A 
ATOM     70  C   UNL A   1      38.777  33.030  37.719  1.00  0.00     0.173 A 
ATOM     71  C   UNL A   1      40.447  34.524  36.855  1.00  0.00     0.173 A 
ATOM     72  F   UNL A   1      38.024  31.924  37.624  1.00  0.00    -0.203 F 
ATOM     73  C   UNL A   1      38.590  33.873  38.813  1.00  0.00     0.198 A 
ATOM     74  C   UNL A   1      40.285  35.347  37.967  1.00  0.00     0.198 A 
ATOM     75  F   UNL A   1      41.346  34.876  35.922  1.00  0.00    -0.203 F 
ATOM     76  F   UNL A   1      37.664  33.578  39.734  1.00  0.00    -0.200 F 
ATOM     77  C   UNL A   1      39.350  35.027  38.939  1.00  0.00     0.200 A 
ATOM     78  F   UNL A   1      41.029  36.454  38.095  1.00  0.00    -0.200 F 
ATOM     79  F   UNL A   1      39.173  35.834  39.994  1.00  0.00    -0.200 F 
ENDBRANCH  55  69
BRANCH  56  80
ATOM     80  C   UNL A   1      40.873  27.818  28.461  1.00  0.00     0.064 A 
ATOM     81  C   UNL A   1      41.703  28.268  27.424  1.00  0.00     0.173 A 
ATOM     82  C   UNL A   1      40.235  26.580  28.294  1.00  0.00     0.173 A 
ATOM     83  F   UNL A   1      42.320  29.454  27.528  1.00  0.00    -0.203 F 
ATOM     84  C   UNL A   1      41.869  27.521  26.259  1.00  0.00     0.198 A 
ATOM     85  C   UNL A   1      40.426  25.820  27.142  1.00  0.00     0.198 A 
ATOM     86  F   UNL A   1      39.437  26.100  29.260  1.00  0.00    -0.203 F 
ATOM     87  F   UNL A   1      42.630  27.998  25.264  1.00  0.00    -0.200 F 
ATOM     88  C   UNL A   1      41.236  26.296  26.121  1.00  0.00     0.200 A 
ATOM     89  F   UNL A   1      39.825  24.629  27.020  1.00  0.00    -0.200 F 
ATOM     90  F   UNL A   1      41.399  25.577  25.003  1.00  0.00    -0.200 F 
ENDBRANCH  56  80
BRANCH  68  91
ATOM     91  C   UNL A   1      44.065  27.983  34.655  1.00  0.00     0.064 A 
ATOM     92  C   UNL A   1      43.829  26.759  35.299  1.00  0.00     0.173 A 
ATOM     93  C   UNL A   1      45.394  28.418  34.539  1.00  0.00     0.173 A 
ATOM     94  F   UNL A   1      42.576  26.305  35.449  1.00  0.00    -0.203 F 
ATOM     95  C   UNL A   1      44.880  26.017  35.833  1.00  0.00     0.198 A 
ATOM     96  C   UNL A   1      46.445  27.657  35.043  1.00  0.00     0.198 A 
ATOM     97  F   UNL A   1      45.675  29.577  33.925  1.00  0.00    -0.203 F 
ATOM     98  F   UNL A   1      44.626  24.879  36.492  1.00  0.00    -0.200 F 
ATOM     99  C   UNL A   1      46.186  26.463  35.698  1.00  0.00     0.200 A 
ATOM    100  F   UNL A   1      47.707  28.081  34.897  1.00  0.00    -0.200 F 
ATOM    101  F   UNL A   1      47.197  25.744  36.205  1.00  0.00    -0.200 F 
ENDBRANCH  68  91
ENDBRANCH  42  43
ENDBRANCH  34  37
ENDBRANCH  32  33
ENDBRANCH  31  32
ENDBRANCH  30  31
ENDBRANCH  29  30
ENDBRANCH   1  29
TORSDOF 18
ENDMDL
