MODEL 1
REMARK VINA RESULT:     -13.6      0.000      0.000
REMARK SMILES CC1(C)CC[C@@]2(C(=O)NCCCCCCNC(=O)c3ccc(-c4c5nc(c(-c6c(F)c(F)c(F)c(F)c6F)c6ccc([nH]6)c(-c6c(F)c(F)c(F)c(F)c6F)c6nc(c(-c7c(F)c(F)c(F)c(F)c7F)c7ccc4[nH]7)C=C6)C=C5)cc3)CC[C@@]3(C)C(=CC[C@H]4[C@@]5(C)CC[C@H](O)C(C)(C)[C@@H]5CC[C@]43C)[C@@H]2C1
REMARK SMILES IDX 13 1 12 2 11 3 10 4 9 5 7 6 8 7 6 9 1 10 2 11 3 12 4 13
REMARK SMILES IDX 105 14 5 15 104 16 86 17 82 18 84 19 87 20 83 21 85 22
REMARK SMILES IDX 102 23 88 24 89 25 101 26 103 27 90 28 100 29 91 30 92 31
REMARK SMILES IDX 99 32 93 33 96 34 94 35 97 36 98 37 95 38 14 40 15 41 16 42
REMARK SMILES IDX 17 43 18 45 19 46 20 47 81 48 21 49 80 50 22 51 23 52 24 53
REMARK SMILES IDX 74 54 25 55 79 56 73 57 75 58 26 59 78 60 72 61 71 62 27 64
REMARK SMILES IDX 59 65 39 66 58 67 40 68 43 69 57 70 76 71 41 72 42 73 56 75
REMARK SMILES IDX 77 76 44 77 28 78 29 79 37 80 30 81 31 82 35 83 38 84 32 85
REMARK SMILES IDX 33 86 36 87 34 88 60 89 61 90 69 91 62 92 63 93 67 94 70 95
REMARK SMILES IDX 64 96 65 97 68 98 66 99 45 100 46 101 54 102 47 103 48 104
REMARK SMILES IDX 52 105 55 106 49 107 50 108 53 109 51 110
REMARK H PARENT 9 8 95 39 16 44 75 63 43 74
REMARK Flexibility Score: inf
ROOT
ATOM      1  C   UNL A   1      31.704  27.809  27.664  1.00  0.00     0.002 C 
ENDROOT
BRANCH   1   2
ATOM      2  C   UNL A   1      31.890  26.502  26.895  1.00  0.00     0.002 C 
BRANCH   2   3
ATOM      3  C   UNL A   1      30.690  25.566  26.649  1.00  0.00     0.021 C 
BRANCH   3   4
ATOM      4  C   UNL A   1      30.729  24.454  25.590  1.00  0.00     0.116 C 
BRANCH   4   5
ATOM      5  N   UNL A   1      31.841  24.386  24.661  1.00  0.00    -0.356 N 
ATOM      6  C   UNL A   1      31.794  24.129  23.303  1.00  0.00     0.226 C 
ATOM      7  O   UNL A   1      30.835  23.550  22.792  1.00  0.00    -0.274 OA
ATOM      8  H   UNL A   1      32.735  24.541  25.043  1.00  0.00     0.163 HD
BRANCH   6   9
ATOM      9  C   UNL A   1      32.966  24.720  22.410  1.00  0.00     0.056 C 
ATOM     10  C   UNL A   1      32.168  28.834  22.469  1.00  0.00     0.011 C 
ATOM     11  C   UNL A   1      31.876  27.459  23.097  1.00  0.00    -0.035 C 
ATOM     12  C   UNL A   1      30.794  27.745  24.185  1.00  0.00     0.011 C 
ATOM     13  C   UNL A   1      31.232  26.561  22.016  1.00  0.00     0.007 C 
ATOM     14  C   UNL A   1      33.208  26.900  23.751  1.00  0.00     0.015 C 
ATOM     15  C   UNL A   1      32.205  25.587  21.359  1.00  0.00     0.018 C 
ATOM     16  C   UNL A   1      33.977  25.653  23.117  1.00  0.00     0.031 C 
ATOM     17  C   UNL A   1      34.878  24.759  24.043  1.00  0.00    -0.064 C 
ATOM     18  C   UNL A   1      33.780  23.642  21.626  1.00  0.00     0.018 C 
ATOM     19  C   UNL A   1      35.651  23.489  23.511  1.00  0.00    -0.006 C 
ATOM     20  C   UNL A   1      34.801  24.945  25.368  1.00  0.00    -0.027 C 
ATOM     21  C   UNL A   1      34.840  22.795  22.383  1.00  0.00     0.013 C 
ATOM     22  C   UNL A   1      36.941  24.007  22.801  1.00  0.00     0.017 C 
ATOM     23  C   UNL A   1      36.133  22.505  24.805  1.00  0.00    -0.020 C 
ATOM     24  C   UNL A   1      34.571  23.771  26.274  1.00  0.00     0.032 C 
ATOM     25  C   UNL A   1      34.949  22.367  25.801  1.00  0.00     0.006 C 
ATOM     26  C   UNL A   1      36.711  21.052  24.590  1.00  0.00     0.008 C 
ATOM     27  C   UNL A   1      37.311  23.253  25.580  1.00  0.00     0.012 C 
ATOM     28  C   UNL A   1      33.804  21.218  25.523  1.00  0.00    -0.025 C 
ATOM     29  C   UNL A   1      35.928  19.882  25.288  1.00  0.00     0.005 C 
ATOM     30  C   UNL A   1      33.216  20.887  26.919  1.00  0.00     0.012 C 
ATOM     31  C   UNL A   1      32.612  21.553  24.606  1.00  0.00     0.010 C 
ATOM     32  C   UNL A   1      34.475  19.987  24.848  1.00  0.00     0.003 C 
ATOM     33  C   UNL A   1      31.825  20.430  23.887  1.00  0.00     0.033 C 
ATOM     34  C   UNL A   1      33.568  18.718  24.629  1.00  0.00    -0.006 C 
ATOM     35  C   UNL A   1      32.598  19.164  23.494  1.00  0.00     0.120 C 
ATOM     36  C   UNL A   1      32.721  18.189  25.808  1.00  0.00     0.014 C 
ATOM     37  C   UNL A   1      34.413  17.516  24.166  1.00  0.00     0.014 C 
BRANCH  35  38
ATOM     38  O   UNL A   1      31.676  18.126  23.165  1.00  0.00    -0.393 OA
ATOM     39  H   UNL A   1      31.733  17.931  22.217  1.00  0.00     0.210 HD
ENDBRANCH  35  38
ENDBRANCH   6   9
ENDBRANCH   4   5
ENDBRANCH   3   4
ENDBRANCH   2   3
ENDBRANCH   1   2
BRANCH   1  40
ATOM     40  C   UNL A   1      31.551  29.059  26.819  1.00  0.00     0.021 C 
BRANCH  40  41
ATOM     41  C   UNL A   1      32.827  29.856  26.680  1.00  0.00     0.116 C 
BRANCH  41  42
ATOM     42  N   UNL A   1      32.654  31.285  26.916  1.00  0.00    -0.352 N 
ATOM     43  C   UNL A   1      33.549  32.140  27.506  1.00  0.00     0.251 C 
ATOM     44  H   UNL A   1      31.801  31.678  26.619  1.00  0.00     0.163 HD
ATOM     45  O   UNL A   1      33.282  33.319  27.707  1.00  0.00    -0.269 OA
BRANCH  43  46
ATOM     46  C   UNL A   1      34.830  31.567  27.950  1.00  0.00     0.039 A 
ATOM     47  C   UNL A   1      35.927  32.414  28.087  1.00  0.00     0.014 A 
ATOM     48  C   UNL A   1      34.877  30.240  28.389  1.00  0.00     0.014 A 
ATOM     49  C   UNL A   1      37.069  31.938  28.724  1.00  0.00     0.010 A 
ATOM     50  C   UNL A   1      35.969  29.811  29.125  1.00  0.00     0.010 A 
ATOM     51  C   UNL A   1      37.083  30.647  29.279  1.00  0.00    -0.014 A 
BRANCH  51  52
ATOM     52  C   UNL A   1      38.279  30.136  29.987  1.00  0.00     0.031 A 
ATOM     53  C   UNL A   1      38.545  30.583  31.395  1.00  0.00     0.074 A 
ATOM     54  C   UNL A   1      39.138  29.318  29.351  1.00  0.00     0.049 A 
ATOM     55  N   UNL A   1      39.546  30.286  32.183  1.00  0.00    -0.248 NA
ATOM     56  C   UNL A   1      37.577  31.522  31.987  1.00  0.00     0.031 C 
ATOM     57  C   UNL A   1      39.014  28.873  27.962  1.00  0.00     0.029 A 
ATOM     58  N   UNL A   1      40.291  28.720  29.790  1.00  0.00    -0.354 N 
ATOM     59  C   UNL A   1      39.335  31.015  33.345  1.00  0.00     0.074 A 
ATOM     60  C   UNL A   1      38.156  31.823  33.137  1.00  0.00     0.031 C 
ATOM     61  C   UNL A   1      40.032  28.045  27.674  1.00  0.00     0.029 A 
ATOM     62  C   UNL A   1      40.897  27.932  28.843  1.00  0.00     0.049 A 
ATOM     63  H   UNL A   1      40.649  28.843  30.699  1.00  0.00     0.167 HD
ATOM     64  C   UNL A   1      40.042  30.985  34.498  1.00  0.00     0.037 A 
ATOM     65  C   UNL A   1      42.026  27.202  28.917  1.00  0.00     0.037 A 
ATOM     66  C   UNL A   1      41.193  30.150  34.706  1.00  0.00     0.049 A 
ATOM     67  C   UNL A   1      42.790  27.172  30.213  1.00  0.00     0.074 A 
ATOM     68  C   UNL A   1      41.940  29.980  35.857  1.00  0.00     0.029 A 
ATOM     69  N   UNL A   1      41.767  29.345  33.732  1.00  0.00    -0.354 N 
ATOM     70  N   UNL A   1      42.533  27.795  31.338  1.00  0.00    -0.248 NA
ATOM     71  C   UNL A   1      43.993  26.331  30.253  1.00  0.00     0.031 C 
ATOM     72  C   UNL A   1      43.000  29.118  35.563  1.00  0.00     0.029 A 
ATOM     73  C   UNL A   1      42.880  28.700  34.247  1.00  0.00     0.049 A 
ATOM     74  H   UNL A   1      41.434  29.247  32.811  1.00  0.00     0.167 HD
ATOM     75  C   UNL A   1      43.526  27.405  32.227  1.00  0.00     0.074 A 
ATOM     76  C   UNL A   1      44.379  26.476  31.513  1.00  0.00     0.031 C 
ATOM     77  C   UNL A   1      43.714  27.779  33.517  1.00  0.00     0.037 A 
BRANCH  64  78
ATOM     78  C   UNL A   1      39.588  31.884  35.612  1.00  0.00     0.064 A 
ATOM     79  C   UNL A   1      38.625  31.477  36.550  1.00  0.00     0.173 A 
ATOM     80  C   UNL A   1      40.128  33.172  35.747  1.00  0.00     0.173 A 
ATOM     81  F   UNL A   1      38.063  30.260  36.456  1.00  0.00    -0.203 F 
ATOM     82  C   UNL A   1      38.190  32.337  37.554  1.00  0.00     0.198 A 
ATOM     83  C   UNL A   1      39.718  34.016  36.776  1.00  0.00     0.198 A 
ATOM     84  F   UNL A   1      41.052  33.613  34.882  1.00  0.00    -0.203 F 
ATOM     85  F   UNL A   1      37.222  31.949  38.395  1.00  0.00    -0.200 F 
ATOM     86  C   UNL A   1      38.743  33.604  37.670  1.00  0.00     0.200 A 
ATOM     87  F   UNL A   1      40.262  35.236  36.895  1.00  0.00    -0.200 F 
ATOM     88  F   UNL A   1      38.326  34.430  38.640  1.00  0.00    -0.200 F 
ENDBRANCH  64  78
BRANCH  65  89
ATOM     89  C   UNL A   1      42.479  26.422  27.735  1.00  0.00     0.064 A 
ATOM     90  C   UNL A   1      43.430  26.943  26.846  1.00  0.00     0.173 A 
ATOM     91  C   UNL A   1      41.985  25.135  27.479  1.00  0.00     0.173 A 
ATOM     92  F   UNL A   1      43.921  28.177  27.038  1.00  0.00    -0.203 F 
ATOM     93  C   UNL A   1      43.857  26.213  25.738  1.00  0.00     0.198 A 
ATOM     94  C   UNL A   1      42.433  24.394  26.388  1.00  0.00     0.198 A 
ATOM     95  F   UNL A   1      41.080  24.587  28.303  1.00  0.00    -0.203 F 
ATOM     96  F   UNL A   1      44.737  26.751  24.883  1.00  0.00    -0.200 F 
ATOM     97  C   UNL A   1      43.363  24.936  25.513  1.00  0.00     0.200 A 
ATOM     98  F   UNL A   1      41.968  23.154  26.186  1.00  0.00    -0.200 F 
ATOM     99  F   UNL A   1      43.783  24.231  24.455  1.00  0.00    -0.200 F 
ENDBRANCH  65  89
BRANCH  77 100
ATOM    100  C   UNL A   1      44.872  27.165  34.248  1.00  0.00     0.064 A 
ATOM    101  C   UNL A   1      46.127  27.790  34.302  1.00  0.00     0.173 A 
ATOM    102  C   UNL A   1      44.709  25.958  34.947  1.00  0.00     0.173 A 
ATOM    103  F   UNL A   1      46.338  28.939  33.640  1.00  0.00    -0.203 F 
ATOM    104  C   UNL A   1      47.182  27.216  35.005  1.00  0.00     0.198 A 
ATOM    105  C   UNL A   1      45.756  25.406  35.677  1.00  0.00     0.198 A 
ATOM    106  F   UNL A   1      43.526  25.325  34.935  1.00  0.00    -0.203 F 
ATOM    107  F   UNL A   1      48.386  27.805  35.000  1.00  0.00    -0.200 F 
ATOM    108  C   UNL A   1      46.994  26.030  35.699  1.00  0.00     0.200 A 
ATOM    109  F   UNL A   1      45.568  24.269  36.361  1.00  0.00    -0.200 F 
ATOM    110  F   UNL A   1      48.008  25.485  36.383  1.00  0.00    -0.200 F 
ENDBRANCH  77 100
ENDBRANCH  51  52
ENDBRANCH  43  46
ENDBRANCH  41  42
ENDBRANCH  40  41
ENDBRANCH   1  40
TORSDOF 14
ENDMDL
MODEL 2
REMARK VINA RESULT:     -12.9      0.496      6.837
REMARK SMILES CC1(C)CC[C@@]2(C(=O)NCCCCCCNC(=O)c3ccc(-c4c5nc(c(-c6c(F)c(F)c(F)c(F)c6F)c6ccc([nH]6)c(-c6c(F)c(F)c(F)c(F)c6F)c6nc(c(-c7c(F)c(F)c(F)c(F)c7F)c7ccc4[nH]7)C=C6)C=C5)cc3)CC[C@@]3(C)C(=CC[C@H]4[C@@]5(C)CC[C@H](O)C(C)(C)[C@@H]5CC[C@]43C)[C@@H]2C1
REMARK SMILES IDX 13 1 12 2 11 3 10 4 9 5 7 6 8 7 6 9 1 10 2 11 3 12 4 13
REMARK SMILES IDX 105 14 5 15 104 16 86 17 82 18 84 19 87 20 83 21 85 22
REMARK SMILES IDX 102 23 88 24 89 25 101 26 103 27 90 28 100 29 91 30 92 31
REMARK SMILES IDX 99 32 93 33 96 34 94 35 97 36 98 37 95 38 14 40 15 41 16 42
REMARK SMILES IDX 17 43 18 45 19 46 20 47 81 48 21 49 80 50 22 51 23 52 24 53
REMARK SMILES IDX 74 54 25 55 79 56 73 57 75 58 26 59 78 60 72 61 71 62 27 64
REMARK SMILES IDX 59 65 39 66 58 67 40 68 43 69 57 70 76 71 41 72 42 73 56 75
REMARK SMILES IDX 77 76 44 77 28 78 29 79 37 80 30 81 31 82 35 83 38 84 32 85
REMARK SMILES IDX 33 86 36 87 34 88 60 89 61 90 69 91 62 92 63 93 67 94 70 95
REMARK SMILES IDX 64 96 65 97 68 98 66 99 45 100 46 101 54 102 47 103 48 104
REMARK SMILES IDX 52 105 55 106 49 107 50 108 53 109 51 110
REMARK H PARENT 9 8 95 39 16 44 75 63 43 74
REMARK Flexibility Score: inf
ROOT
ATOM      1  C   UNL A   1      31.713  27.726  27.769  1.00  0.00     0.002 C 
ENDROOT
BRANCH   1   2
ATOM      2  C   UNL A   1      31.933  26.504  26.878  1.00  0.00     0.002 C 
BRANCH   2   3
ATOM      3  C   UNL A   1      30.876  25.384  26.818  1.00  0.00     0.021 C 
BRANCH   3   4
ATOM      4  C   UNL A   1      30.792  24.407  25.636  1.00  0.00     0.116 C 
BRANCH   4   5
ATOM      5  N   UNL A   1      31.886  24.334  24.686  1.00  0.00    -0.356 N 
ATOM      6  C   UNL A   1      31.812  24.080  23.328  1.00  0.00     0.226 C 
ATOM      7  O   UNL A   1      30.840  23.508  22.835  1.00  0.00    -0.274 OA
ATOM      8  H   UNL A   1      32.788  24.483  25.052  1.00  0.00     0.163 HD
BRANCH   6   9
ATOM      9  C   UNL A   1      32.971  24.666  22.415  1.00  0.00     0.056 C 
ATOM     10  C   UNL A   1      32.149  28.776  22.427  1.00  0.00     0.011 C 
ATOM     11  C   UNL A   1      31.872  27.407  23.077  1.00  0.00    -0.035 C 
ATOM     12  C   UNL A   1      30.800  27.701  24.173  1.00  0.00     0.011 C 
ATOM     13  C   UNL A   1      31.222  26.491  22.016  1.00  0.00     0.007 C 
ATOM     14  C   UNL A   1      33.214  26.865  23.724  1.00  0.00     0.015 C 
ATOM     15  C   UNL A   1      32.192  25.514  21.361  1.00  0.00     0.018 C 
ATOM     16  C   UNL A   1      33.984  25.614  23.098  1.00  0.00     0.031 C 
ATOM     17  C   UNL A   1      34.900  24.738  24.025  1.00  0.00    -0.064 C 
ATOM     18  C   UNL A   1      33.783  23.583  21.637  1.00  0.00     0.018 C 
ATOM     19  C   UNL A   1      35.675  23.466  23.502  1.00  0.00    -0.006 C 
ATOM     20  C   UNL A   1      34.836  24.942  25.349  1.00  0.00    -0.027 C 
ATOM     21  C   UNL A   1      34.856  22.752  22.392  1.00  0.00     0.013 C 
ATOM     22  C   UNL A   1      36.954  23.982  22.771  1.00  0.00     0.017 C 
ATOM     23  C   UNL A   1      36.177  22.502  24.804  1.00  0.00    -0.020 C 
ATOM     24  C   UNL A   1      34.624  23.778  26.273  1.00  0.00     0.032 C 
ATOM     25  C   UNL A   1      35.005  22.371  25.814  1.00  0.00     0.006 C 
ATOM     26  C   UNL A   1      36.762  21.050  24.601  1.00  0.00     0.008 C 
ATOM     27  C   UNL A   1      37.359  23.268  25.556  1.00  0.00     0.012 C 
ATOM     28  C   UNL A   1      33.864  21.211  25.565  1.00  0.00    -0.025 C 
ATOM     29  C   UNL A   1      35.993  19.885  25.324  1.00  0.00     0.005 C 
ATOM     30  C   UNL A   1      33.293  20.896  26.972  1.00  0.00     0.012 C 
ATOM     31  C   UNL A   1      32.659  21.527  24.657  1.00  0.00     0.010 C 
ATOM     32  C   UNL A   1      34.535  19.975  24.899  1.00  0.00     0.003 C 
ATOM     33  C   UNL A   1      31.872  20.390  23.962  1.00  0.00     0.033 C 
ATOM     34  C   UNL A   1      33.633  18.698  24.707  1.00  0.00    -0.006 C 
ATOM     35  C   UNL A   1      32.648  19.123  23.577  1.00  0.00     0.120 C 
ATOM     36  C   UNL A   1      32.802  18.180  25.903  1.00  0.00     0.014 C 
ATOM     37  C   UNL A   1      34.480  17.495  24.251  1.00  0.00     0.014 C 
BRANCH  35  38
ATOM     38  O   UNL A   1      31.728  18.075  23.272  1.00  0.00    -0.393 OA
ATOM     39  H   UNL A   1      30.973  18.121  23.879  1.00  0.00     0.210 HD
ENDBRANCH  35  38
ENDBRANCH   6   9
ENDBRANCH   4   5
ENDBRANCH   3   4
ENDBRANCH   2   3
ENDBRANCH   1   2
BRANCH   1  40
ATOM     40  C   UNL A   1      31.519  29.046  27.049  1.00  0.00     0.021 C 
BRANCH  40  41
ATOM     41  C   UNL A   1      32.803  29.814  26.836  1.00  0.00     0.116 C 
BRANCH  41  42
ATOM     42  N   UNL A   1      32.631  31.262  26.873  1.00  0.00    -0.352 N 
ATOM     43  C   UNL A   1      33.518  32.186  27.364  1.00  0.00     0.251 C 
ATOM     44  H   UNL A   1      31.788  31.613  26.506  1.00  0.00     0.163 HD
ATOM     45  O   UNL A   1      33.253  33.382  27.398  1.00  0.00    -0.269 OA
BRANCH  43  46
ATOM     46  C   UNL A   1      34.784  31.676  27.913  1.00  0.00     0.039 A 
ATOM     47  C   UNL A   1      35.826  32.575  28.132  1.00  0.00     0.014 A 
ATOM     48  C   UNL A   1      34.859  30.353  28.361  1.00  0.00     0.014 A 
ATOM     49  C   UNL A   1      36.935  32.154  28.860  1.00  0.00     0.010 A 
ATOM     50  C   UNL A   1      35.907  29.977  29.183  1.00  0.00     0.010 A 
ATOM     51  C   UNL A   1      36.965  30.866  29.421  1.00  0.00    -0.014 A 
BRANCH  51  52
ATOM     52  C   UNL A   1      38.123  30.414  30.225  1.00  0.00     0.031 A 
ATOM     53  C   UNL A   1      39.108  29.455  29.619  1.00  0.00     0.074 A 
ATOM     54  C   UNL A   1      38.258  30.824  31.500  1.00  0.00     0.049 A 
ATOM     55  N   UNL A   1      40.168  28.909  30.155  1.00  0.00    -0.248 NA
ATOM     56  C   UNL A   1      38.845  29.021  28.236  1.00  0.00     0.031 C 
ATOM     57  C   UNL A   1      37.327  31.701  32.211  1.00  0.00     0.029 A 
ATOM     58  N   UNL A   1      39.232  30.551  32.426  1.00  0.00    -0.354 N 
ATOM     59  C   UNL A   1      40.680  28.058  29.185  1.00  0.00     0.074 A 
ATOM     60  C   UNL A   1      39.778  28.101  28.057  1.00  0.00     0.031 C 
ATOM     61  C   UNL A   1      37.792  31.921  33.452  1.00  0.00     0.029 A 
ATOM     62  C   UNL A   1      39.031  31.172  33.634  1.00  0.00     0.049 A 
ATOM     63  H   UNL A   1      40.002  29.966  32.241  1.00  0.00     0.167 HD
ATOM     64  C   UNL A   1      41.821  27.331  29.219  1.00  0.00     0.037 A 
ATOM     65  C   UNL A   1      39.769  31.137  34.759  1.00  0.00     0.037 A 
ATOM     66  C   UNL A   1      42.728  27.323  30.333  1.00  0.00     0.049 A 
ATOM     67  C   UNL A   1      41.042  30.334  34.770  1.00  0.00     0.074 A 
ATOM     68  C   UNL A   1      43.950  26.687  30.446  1.00  0.00     0.029 A 
ATOM     69  N   UNL A   1      42.506  27.983  31.533  1.00  0.00    -0.354 N 
ATOM     70  N   UNL A   1      41.565  29.603  33.817  1.00  0.00    -0.248 NA
ATOM     71  C   UNL A   1      41.830  30.360  36.009  1.00  0.00     0.031 C 
ATOM     72  C   UNL A   1      44.440  26.914  31.736  1.00  0.00     0.029 A 
ATOM     73  C   UNL A   1      43.554  27.743  32.406  1.00  0.00     0.049 A 
ATOM     74  H   UNL A   1      41.719  28.540  31.735  1.00  0.00     0.167 HD
ATOM     75  C   UNL A   1      42.754  29.100  34.329  1.00  0.00     0.074 A 
ATOM     76  C   UNL A   1      42.882  29.627  35.673  1.00  0.00     0.031 C 
ATOM     77  C   UNL A   1      43.659  28.279  33.740  1.00  0.00     0.037 A 
BRANCH  64  78
ATOM     78  C   UNL A   1      42.140  26.489  28.018  1.00  0.00     0.064 A 
ATOM     79  C   UNL A   1      43.045  26.913  27.031  1.00  0.00     0.173 A 
ATOM     80  C   UNL A   1      41.535  25.233  27.852  1.00  0.00     0.173 A 
ATOM     81  F   UNL A   1      43.639  28.113  27.131  1.00  0.00    -0.203 F 
ATOM     82  C   UNL A   1      43.301  26.133  25.906  1.00  0.00     0.198 A 
ATOM     83  C   UNL A   1      41.822  24.439  26.745  1.00  0.00     0.198 A 
ATOM     84  F   UNL A   1      40.664  24.776  28.764  1.00  0.00    -0.203 F 
ATOM     85  F   UNL A   1      44.116  26.591  24.947  1.00  0.00    -0.200 F 
ATOM     86  C   UNL A   1      42.694  24.894  25.768  1.00  0.00     0.200 A 
ATOM     87  F   UNL A   1      41.245  23.236  26.618  1.00  0.00    -0.200 F 
ATOM     88  F   UNL A   1      42.944  24.142  24.687  1.00  0.00    -0.200 F 
ENDBRANCH  64  78
BRANCH  65  89
ATOM     89  C   UNL A   1      39.333  31.910  35.952  1.00  0.00     0.064 A 
ATOM     90  C   UNL A   1      39.827  33.198  36.201  1.00  0.00     0.173 A 
ATOM     91  C   UNL A   1      38.401  31.384  36.859  1.00  0.00     0.173 A 
ATOM     92  F   UNL A   1      40.734  33.739  35.372  1.00  0.00    -0.203 F 
ATOM     93  C   UNL A   1      39.419  33.924  37.318  1.00  0.00     0.198 A 
ATOM     94  C   UNL A   1      37.971  32.122  37.960  1.00  0.00     0.198 A 
ATOM     95  F   UNL A   1      37.890  30.160  36.663  1.00  0.00    -0.203 F 
ATOM     96  F   UNL A   1      39.937  35.137  37.553  1.00  0.00    -0.200 F 
ATOM     97  C   UNL A   1      38.486  33.388  38.193  1.00  0.00     0.200 A 
ATOM     98  F   UNL A   1      37.055  31.608  38.792  1.00  0.00    -0.200 F 
ATOM     99  F   UNL A   1      38.085  34.091  39.261  1.00  0.00    -0.200 F 
ENDBRANCH  65  89
BRANCH  77 100
ATOM    100  C   UNL A   1      44.880  27.919  34.536  1.00  0.00     0.064 A 
ATOM    101  C   UNL A   1      44.931  26.760  35.326  1.00  0.00     0.173 A 
ATOM    102  C   UNL A   1      46.031  28.720  34.468  1.00  0.00     0.173 A 
ATOM    103  F   UNL A   1      43.853  25.968  35.433  1.00  0.00    -0.203 F 
ATOM    104  C   UNL A   1      46.081  26.431  36.038  1.00  0.00     0.198 A 
ATOM    105  C   UNL A   1      47.189  28.369  35.155  1.00  0.00     0.198 A 
ATOM    106  F   UNL A   1      46.036  29.833  33.720  1.00  0.00    -0.203 F 
ATOM    107  F   UNL A   1      46.091  25.347  36.825  1.00  0.00    -0.200 F 
ATOM    108  C   UNL A   1      47.211  27.230  35.945  1.00  0.00     0.200 A 
ATOM    109  F   UNL A   1      48.285  29.132  35.050  1.00  0.00    -0.200 F 
ATOM    110  F   UNL A   1      48.319  26.906  36.625  1.00  0.00    -0.200 F 
ENDBRANCH  77 100
ENDBRANCH  51  52
ENDBRANCH  43  46
ENDBRANCH  41  42
ENDBRANCH  40  41
ENDBRANCH   1  40
TORSDOF 14
ENDMDL
MODEL 3
REMARK VINA RESULT:     -12.6      6.505     13.159
REMARK SMILES CC1(C)CC[C@@]2(C(=O)NCCCCCCNC(=O)c3ccc(-c4c5nc(c(-c6c(F)c(F)c(F)c(F)c6F)c6ccc([nH]6)c(-c6c(F)c(F)c(F)c(F)c6F)c6nc(c(-c7c(F)c(F)c(F)c(F)c7F)c7ccc4[nH]7)C=C6)C=C5)cc3)CC[C@@]3(C)C(=CC[C@H]4[C@@]5(C)CC[C@H](O)C(C)(C)[C@@H]5CC[C@]43C)[C@@H]2C1
REMARK SMILES IDX 13 1 12 2 11 3 10 4 9 5 7 6 8 7 6 9 1 10 2 11 3 12 4 13
REMARK SMILES IDX 105 14 5 15 104 16 86 17 82 18 84 19 87 20 83 21 85 22
REMARK SMILES IDX 102 23 88 24 89 25 101 26 103 27 90 28 100 29 91 30 92 31
REMARK SMILES IDX 99 32 93 33 96 34 94 35 97 36 98 37 95 38 14 40 15 41 16 42
REMARK SMILES IDX 17 43 18 45 19 46 20 47 81 48 21 49 80 50 22 51 23 52 24 53
REMARK SMILES IDX 74 54 25 55 79 56 73 57 75 58 26 59 78 60 72 61 71 62 27 64
REMARK SMILES IDX 59 65 39 66 58 67 40 68 43 69 57 70 76 71 41 72 42 73 56 75
REMARK SMILES IDX 77 76 44 77 28 78 29 79 37 80 30 81 31 82 35 83 38 84 32 85
REMARK SMILES IDX 33 86 36 87 34 88 60 89 61 90 69 91 62 92 63 93 67 94 70 95
REMARK SMILES IDX 64 96 65 97 68 98 66 99 45 100 46 101 54 102 47 103 48 104
REMARK SMILES IDX 52 105 55 106 49 107 50 108 53 109 51 110
REMARK H PARENT 9 8 95 39 16 44 75 63 43 74
REMARK Flexibility Score: inf
ROOT
ATOM      1  C   UNL A   1      39.796  26.082  28.424  1.00  0.00     0.002 C 
ENDROOT
BRANCH   1   2
ATOM      2  C   UNL A   1      40.691  27.030  27.627  1.00  0.00     0.002 C 
BRANCH   2   3
ATOM      3  C   UNL A   1      40.227  28.468  27.325  1.00  0.00     0.021 C 
BRANCH   3   4
ATOM      4  C   UNL A   1      40.361  29.600  28.354  1.00  0.00     0.116 C 
BRANCH   4   5
ATOM      5  N   UNL A   1      40.654  29.281  29.739  1.00  0.00    -0.356 N 
ATOM      6  C   UNL A   1      40.752  30.155  30.806  1.00  0.00     0.226 C 
ATOM      7  O   UNL A   1      40.977  31.353  30.636  1.00  0.00    -0.274 OA
ATOM      8  H   UNL A   1      40.801  28.329  29.942  1.00  0.00     0.163 HD
BRANCH   6   9
ATOM      9  C   UNL A   1      40.439  29.576  32.251  1.00  0.00     0.056 C 
ATOM     10  C   UNL A   1      44.268  28.847  33.789  1.00  0.00     0.011 C 
ATOM     11  C   UNL A   1      43.432  29.539  32.698  1.00  0.00    -0.035 C 
ATOM     12  C   UNL A   1      44.485  30.212  31.762  1.00  0.00     0.011 C 
ATOM     13  C   UNL A   1      42.705  28.447  31.880  1.00  0.00     0.007 C 
ATOM     14  C   UNL A   1      42.498  30.625  33.377  1.00  0.00     0.015 C 
ATOM     15  C   UNL A   1      41.247  28.242  32.278  1.00  0.00     0.018 C 
ATOM     16  C   UNL A   1      40.917  30.418  33.457  1.00  0.00     0.031 C 
ATOM     17  C   UNL A   1      39.985  31.678  33.552  1.00  0.00    -0.064 C 
ATOM     18  C   UNL A   1      38.937  29.218  32.486  1.00  0.00     0.018 C 
ATOM     19  C   UNL A   1      38.410  31.573  33.606  1.00  0.00    -0.006 C 
ATOM     20  C   UNL A   1      40.532  32.886  33.350  1.00  0.00    -0.027 C 
ATOM     21  C   UNL A   1      37.922  30.359  32.768  1.00  0.00     0.013 C 
ATOM     22  C   UNL A   1      38.028  31.212  35.075  1.00  0.00     0.017 C 
ATOM     23  C   UNL A   1      37.704  33.071  33.241  1.00  0.00    -0.020 C 
ATOM     24  C   UNL A   1      39.908  33.832  32.367  1.00  0.00     0.032 C 
ATOM     25  C   UNL A   1      38.429  33.683  32.011  1.00  0.00     0.006 C 
ATOM     26  C   UNL A   1      36.156  33.231  32.977  1.00  0.00     0.008 C 
ATOM     27  C   UNL A   1      37.966  34.051  34.473  1.00  0.00     0.012 C 
ATOM     28  C   UNL A   1      37.950  33.237  30.501  1.00  0.00    -0.025 C 
ATOM     29  C   UNL A   1      35.747  33.818  31.577  1.00  0.00     0.005 C 
ATOM     30  C   UNL A   1      38.333  34.429  29.586  1.00  0.00     0.012 C 
ATOM     31  C   UNL A   1      38.560  31.974  29.863  1.00  0.00     0.010 C 
ATOM     32  C   UNL A   1      36.419  32.960  30.516  1.00  0.00     0.003 C 
ATOM     33  C   UNL A   1      37.812  31.211  28.742  1.00  0.00     0.033 C 
ATOM     34  C   UNL A   1      35.741  32.655  29.127  1.00  0.00    -0.006 C 
ATOM     35  C   UNL A   1      36.277  31.237  28.771  1.00  0.00     0.120 C 
ATOM     36  C   UNL A   1      36.026  33.593  27.932  1.00  0.00     0.014 C 
ATOM     37  C   UNL A   1      34.207  32.627  29.262  1.00  0.00     0.014 C 
BRANCH  35  38
ATOM     38  O   UNL A   1      35.770  30.793  27.513  1.00  0.00    -0.393 OA
ATOM     39  H   UNL A   1      36.110  29.904  27.323  1.00  0.00     0.210 HD
ENDBRANCH  35  38
ENDBRANCH   6   9
ENDBRANCH   4   5
ENDBRANCH   3   4
ENDBRANCH   2   3
ENDBRANCH   1   2
BRANCH   1  40
ATOM     40  C   UNL A   1      39.614  24.694  27.840  1.00  0.00     0.021 C 
BRANCH  40  41
ATOM     41  C   UNL A   1      40.135  24.558  26.428  1.00  0.00     0.116 C 
BRANCH  41  42
ATOM     42  N   UNL A   1      40.989  23.393  26.229  1.00  0.00    -0.352 N 
ATOM     43  C   UNL A   1      42.359  23.373  26.173  1.00  0.00     0.251 C 
ATOM     44  H   UNL A   1      40.532  22.528  26.123  1.00  0.00     0.163 HD
ATOM     45  O   UNL A   1      42.983  22.343  25.946  1.00  0.00    -0.269 OA
BRANCH  43  46
ATOM     46  C   UNL A   1      43.056  24.660  26.332  1.00  0.00     0.039 A 
ATOM     47  C   UNL A   1      43.658  24.944  27.556  1.00  0.00     0.014 A 
ATOM     48  C   UNL A   1      43.248  25.483  25.219  1.00  0.00     0.014 A 
ATOM     49  C   UNL A   1      44.511  26.040  27.647  1.00  0.00     0.010 A 
ATOM     50  C   UNL A   1      44.187  26.499  25.285  1.00  0.00     0.010 A 
ATOM     51  C   UNL A   1      44.809  26.801  26.504  1.00  0.00    -0.014 A 
BRANCH  51  52
ATOM     52  C   UNL A   1      45.738  27.951  26.577  1.00  0.00     0.031 A 
ATOM     53  C   UNL A   1      47.210  27.719  26.395  1.00  0.00     0.074 A 
ATOM     54  C   UNL A   1      45.265  29.181  26.852  1.00  0.00     0.049 A 
ATOM     55  N   UNL A   1      48.197  28.575  26.454  1.00  0.00    -0.248 NA
ATOM     56  C   UNL A   1      47.637  26.330  26.154  1.00  0.00     0.031 C 
ATOM     57  C   UNL A   1      43.863  29.511  27.112  1.00  0.00     0.029 A 
ATOM     58  N   UNL A   1      45.916  30.383  26.962  1.00  0.00    -0.354 N 
ATOM     59  C   UNL A   1      49.352  27.825  26.277  1.00  0.00     0.074 A 
ATOM     60  C   UNL A   1      48.954  26.440  26.183  1.00  0.00     0.031 C 
ATOM     61  C   UNL A   1      43.754  30.834  27.319  1.00  0.00     0.029 A 
ATOM     62  C   UNL A   1      45.081  31.436  27.244  1.00  0.00     0.049 A 
ATOM     63  H   UNL A   1      46.889  30.481  26.851  1.00  0.00     0.167 HD
ATOM     64  C   UNL A   1      50.629  28.259  26.167  1.00  0.00     0.037 A 
ATOM     65  C   UNL A   1      45.362  32.741  27.419  1.00  0.00     0.037 A 
ATOM     66  C   UNL A   1      51.008  29.644  26.226  1.00  0.00     0.049 A 
ATOM     67  C   UNL A   1      46.787  33.204  27.279  1.00  0.00     0.074 A 
ATOM     68  C   UNL A   1      52.260  30.204  26.050  1.00  0.00     0.029 A 
ATOM     69  N   UNL A   1      50.133  30.689  26.489  1.00  0.00    -0.354 N 
ATOM     70  N   UNL A   1      47.863  32.500  27.022  1.00  0.00    -0.248 NA
ATOM     71  C   UNL A   1      47.035  34.642  27.442  1.00  0.00     0.031 C 
ATOM     72  C   UNL A   1      52.153  31.582  26.263  1.00  0.00     0.029 A 
ATOM     73  C   UNL A   1      50.824  31.889  26.511  1.00  0.00     0.049 A 
ATOM     74  H   UNL A   1      49.165  30.592  26.638  1.00  0.00     0.167 HD
ATOM     75  C   UNL A   1      48.911  33.409  26.969  1.00  0.00     0.074 A 
ATOM     76  C   UNL A   1      48.336  34.719  27.202  1.00  0.00     0.031 C 
ATOM     77  C   UNL A   1      50.230  33.182  26.746  1.00  0.00     0.037 A 
BRANCH  64  78
ATOM     78  C   UNL A   1      51.697  27.222  25.976  1.00  0.00     0.064 A 
ATOM     79  C   UNL A   1      52.427  26.698  27.056  1.00  0.00     0.173 A 
ATOM     80  C   UNL A   1      51.994  26.740  24.692  1.00  0.00     0.173 A 
ATOM     81  F   UNL A   1      52.194  27.136  28.303  1.00  0.00    -0.203 F 
ATOM     82  C   UNL A   1      53.438  25.763  26.854  1.00  0.00     0.198 A 
ATOM     83  C   UNL A   1      52.981  25.777  24.498  1.00  0.00     0.198 A 
ATOM     84  F   UNL A   1      51.328  27.204  23.624  1.00  0.00    -0.203 F 
ATOM     85  F   UNL A   1      54.164  25.328  27.893  1.00  0.00    -0.200 F 
ATOM     86  C   UNL A   1      53.710  25.298  25.576  1.00  0.00     0.200 A 
ATOM     87  F   UNL A   1      53.234  25.319  23.264  1.00  0.00    -0.200 F 
ATOM     88  F   UNL A   1      54.681  24.395  25.384  1.00  0.00    -0.200 F 
ENDBRANCH  64  78
BRANCH  65  89
ATOM     89  C   UNL A   1      44.265  33.699  27.718  1.00  0.00     0.064 A 
ATOM     90  C   UNL A   1      43.731  33.807  29.010  1.00  0.00     0.173 A 
ATOM     91  C   UNL A   1      43.739  34.536  26.724  1.00  0.00     0.173 A 
ATOM     92  F   UNL A   1      44.189  33.016  29.992  1.00  0.00    -0.203 F 
ATOM     93  C   UNL A   1      42.703  34.705  29.293  1.00  0.00     0.198 A 
ATOM     94  C   UNL A   1      42.731  35.454  27.014  1.00  0.00     0.198 A 
ATOM     95  F   UNL A   1      44.219  34.479  25.474  1.00  0.00    -0.203 F 
ATOM     96  F   UNL A   1      42.185  34.760  30.527  1.00  0.00    -0.200 F 
ATOM     97  C   UNL A   1      42.208  35.533  28.296  1.00  0.00     0.200 A 
ATOM     98  F   UNL A   1      42.270  36.265  26.052  1.00  0.00    -0.200 F 
ATOM     99  F   UNL A   1      41.228  36.403  28.571  1.00  0.00    -0.200 F 
ENDBRANCH  65  89
BRANCH  77 100
ATOM    100  C   UNL A   1      51.138  34.376  26.718  1.00  0.00     0.064 A 
ATOM    101  C   UNL A   1      51.852  34.788  27.853  1.00  0.00     0.173 A 
ATOM    102  C   UNL A   1      51.333  35.089  25.524  1.00  0.00     0.173 A 
ATOM    103  F   UNL A   1      51.690  34.147  29.021  1.00  0.00    -0.203 F 
ATOM    104  C   UNL A   1      52.707  35.884  27.801  1.00  0.00     0.198 A 
ATOM    105  C   UNL A   1      52.215  36.163  25.468  1.00  0.00     0.198 A 
ATOM    106  F   UNL A   1      50.682  34.730  24.408  1.00  0.00    -0.203 F 
ATOM    107  F   UNL A   1      53.340  36.291  28.910  1.00  0.00    -0.200 F 
ATOM    108  C   UNL A   1      52.895  36.565  26.608  1.00  0.00     0.200 A 
ATOM    109  F   UNL A   1      52.409  36.809  24.310  1.00  0.00    -0.200 F 
ATOM    110  F   UNL A   1      53.727  37.615  26.558  1.00  0.00    -0.200 F 
ENDBRANCH  77 100
ENDBRANCH  51  52
ENDBRANCH  43  46
ENDBRANCH  41  42
ENDBRANCH  40  41
ENDBRANCH   1  40
TORSDOF 14
ENDMDL
