MODEL 1
REMARK VINA RESULT:     -11.6      0.000      0.000
REMARK SMILES CCc1n[nH]c2cc(CCC(=O)NCCCCCCNC(=O)c3ccc(-c4c5nc(c(-c6c(F)c(F)c(F)c(F)c6F)c6ccc([nH]6)c(-c6c(F)c(F)c(F)c(F)c6F)c6nc(c(-c7c(F)c(F)c(F)c(F)c7F)c7ccc4[nH]7)C=C6)C=C5)cc3)ccc12
REMARK SMILES IDX 16 1 15 2 14 3 13 4 11 5 12 6 10 8 9 9 8 10 3 11 4 12 88 13
REMARK SMILES IDX 5 14 6 15 87 16 7 18 86 19 2 20 1 21 17 22 18 23 19 24 20 25
REMARK SMILES IDX 21 26 22 28 23 29 24 30 85 31 25 32 84 33 26 34 27 35 28 36
REMARK SMILES IDX 78 37 29 38 83 39 77 40 79 41 30 42 82 43 76 44 75 45 31 47
REMARK SMILES IDX 63 48 43 49 62 50 44 51 47 52 61 53 80 54 45 55 46 56 60 58
REMARK SMILES IDX 81 59 48 60 32 61 33 62 41 63 34 64 35 65 39 66 42 67 36 68
REMARK SMILES IDX 37 69 40 70 38 71 64 72 65 73 73 74 66 75 67 76 71 77 74 78
REMARK SMILES IDX 68 79 69 80 72 81 70 82 49 83 50 84 58 85 51 86 52 87 56 88
REMARK SMILES IDX 59 89 53 90 54 91 57 92 55 93
REMARK H PARENT 13 7 5 17 20 27 79 46 47 57
REMARK Flexibility Score: inf
ROOT
ATOM      1  C   UNL A   1      31.787  29.025  26.630  1.00  0.00     0.002 C 
ENDROOT
BRANCH   1   2
ATOM      2  C   UNL A   1      32.571  27.890  25.973  1.00  0.00     0.021 C 
BRANCH   2   3
ATOM      3  C   UNL A   1      32.247  26.470  26.438  1.00  0.00     0.116 C 
BRANCH   3   4
ATOM      4  N   UNL A   1      33.221  25.530  25.908  1.00  0.00    -0.356 N 
ATOM      5  C   UNL A   1      33.036  24.405  25.160  1.00  0.00     0.220 C 
ATOM      6  O   UNL A   1      33.983  23.623  25.045  1.00  0.00    -0.275 OA
ATOM      7  H   UNL A   1      34.160  25.738  26.123  1.00  0.00     0.163 HD
BRANCH   5   8
ATOM      8  C   UNL A   1      31.725  24.135  24.447  1.00  0.00     0.105 C 
BRANCH   8   9
ATOM      9  C   UNL A   1      31.627  24.810  23.073  1.00  0.00     0.045 C 
BRANCH   9  10
ATOM     10  C   UNL A   1      30.948  26.160  23.136  1.00  0.00    -0.045 A 
ATOM     11  C   UNL A   1      28.973  29.774  22.449  1.00  0.00     0.070 A 
ATOM     12  N   UNL A   1      29.888  30.429  21.719  1.00  0.00    -0.180 NA
ATOM     13  C   UNL A   1      29.464  28.527  22.920  1.00  0.00     0.023 A 
ATOM     14  N   UNL A   1      30.957  29.607  21.735  1.00  0.00    -0.278 N 
ATOM     15  C   UNL A   1      30.747  28.427  22.398  1.00  0.00     0.066 A 
ATOM     16  C   UNL A   1      28.948  27.458  23.670  1.00  0.00     0.012 A 
ATOM     17  H   UNL A   1      31.814  29.836  21.307  1.00  0.00     0.190 HD
ATOM     18  C   UNL A   1      31.532  27.273  22.510  1.00  0.00     0.032 A 
ATOM     19  C   UNL A   1      29.698  26.280  23.763  1.00  0.00     0.004 A 
BRANCH  11  20
ATOM     20  C   UNL A   1      27.599  30.327  22.610  1.00  0.00     0.055 C 
ATOM     21  C   UNL A   1      27.515  31.370  23.708  1.00  0.00     0.011 C 
ENDBRANCH  11  20
ENDBRANCH   9  10
ENDBRANCH   8   9
ENDBRANCH   5   8
ENDBRANCH   3   4
ENDBRANCH   2   3
ENDBRANCH   1   2
BRANCH   1  22
ATOM     22  C   UNL A   1      31.480  30.227  25.730  1.00  0.00     0.002 C 
BRANCH  22  23
ATOM     23  C   UNL A   1      31.293  31.582  26.427  1.00  0.00     0.021 C 
BRANCH  23  24
ATOM     24  C   UNL A   1      32.571  32.324  26.824  1.00  0.00     0.116 C 
BRANCH  24  25
ATOM     25  N   UNL A   1      32.322  33.637  27.392  1.00  0.00    -0.352 N 
ATOM     26  C   UNL A   1      33.018  34.357  28.334  1.00  0.00     0.251 C 
ATOM     27  H   UNL A   1      31.520  34.088  27.043  1.00  0.00     0.163 HD
ATOM     28  O   UNL A   1      32.570  35.439  28.706  1.00  0.00    -0.269 OA
BRANCH  26  29
ATOM     29  C   UNL A   1      34.270  33.849  28.957  1.00  0.00     0.039 A 
ATOM     30  C   UNL A   1      34.150  32.821  29.901  1.00  0.00     0.014 A 
ATOM     31  C   UNL A   1      35.531  34.389  28.698  1.00  0.00     0.014 A 
ATOM     32  C   UNL A   1      35.286  32.301  30.532  1.00  0.00     0.010 A 
ATOM     33  C   UNL A   1      36.676  33.827  29.288  1.00  0.00     0.010 A 
ATOM     34  C   UNL A   1      36.569  32.773  30.210  1.00  0.00    -0.014 A 
BRANCH  34  35
ATOM     35  C   UNL A   1      37.771  32.138  30.828  1.00  0.00     0.031 A 
ATOM     36  C   UNL A   1      38.232  32.507  32.213  1.00  0.00     0.074 A 
ATOM     37  C   UNL A   1      38.454  31.198  30.141  1.00  0.00     0.049 A 
ATOM     38  N   UNL A   1      39.207  31.994  32.927  1.00  0.00    -0.248 NA
ATOM     39  C   UNL A   1      37.517  33.603  32.882  1.00  0.00     0.031 C 
ATOM     40  C   UNL A   1      38.153  30.769  28.775  1.00  0.00     0.029 A 
ATOM     41  N   UNL A   1      39.535  30.426  30.499  1.00  0.00    -0.354 N 
ATOM     42  C   UNL A   1      39.217  32.698  34.124  1.00  0.00     0.074 A 
ATOM     43  C   UNL A   1      38.190  33.713  34.019  1.00  0.00     0.031 C 
ATOM     44  C   UNL A   1      38.997  29.785  28.426  1.00  0.00     0.029 A 
ATOM     45  C   UNL A   1      39.924  29.536  29.528  1.00  0.00     0.049 A 
ATOM     46  H   UNL A   1      39.987  30.503  31.371  1.00  0.00     0.167 HD
ATOM     47  C   UNL A   1      39.992  32.506  35.221  1.00  0.00     0.037 A 
ATOM     48  C   UNL A   1      40.912  28.617  29.518  1.00  0.00     0.037 A 
ATOM     49  C   UNL A   1      41.017  31.496  35.335  1.00  0.00     0.049 A 
ATOM     50  C   UNL A   1      41.774  28.439  30.740  1.00  0.00     0.074 A 
ATOM     51  C   UNL A   1      41.818  31.200  36.426  1.00  0.00     0.029 A 
ATOM     52  N   UNL A   1      41.392  30.627  34.321  1.00  0.00    -0.354 N 
ATOM     53  N   UNL A   1      41.716  29.057  31.894  1.00  0.00    -0.248 NA
ATOM     54  C   UNL A   1      42.831  27.421  30.660  1.00  0.00     0.031 C 
ATOM     55  C   UNL A   1      42.718  30.195  36.053  1.00  0.00     0.029 A 
ATOM     56  C   UNL A   1      42.434  29.816  34.753  1.00  0.00     0.049 A 
ATOM     57  H   UNL A   1      40.981  30.591  33.428  1.00  0.00     0.167 HD
ATOM     58  C   UNL A   1      42.703  28.484  32.685  1.00  0.00     0.074 A 
ATOM     59  C   UNL A   1      43.331  27.453  31.887  1.00  0.00     0.031 C 
ATOM     60  C   UNL A   1      43.058  28.788  33.958  1.00  0.00     0.037 A 
BRANCH  47  61
ATOM     61  C   UNL A   1      39.768  33.413  36.399  1.00  0.00     0.064 A 
ATOM     62  C   UNL A   1      40.413  34.655  36.507  1.00  0.00     0.173 A 
ATOM     63  C   UNL A   1      38.857  33.061  37.408  1.00  0.00     0.173 A 
ATOM     64  F   UNL A   1      41.296  35.041  35.572  1.00  0.00    -0.203 F 
ATOM     65  C   UNL A   1      40.181  35.494  37.595  1.00  0.00     0.198 A 
ATOM     66  C   UNL A   1      38.602  33.917  38.476  1.00  0.00     0.198 A 
ATOM     67  F   UNL A   1      38.202  31.892  37.351  1.00  0.00    -0.203 F 
ATOM     68  F   UNL A   1      40.847  36.651  37.700  1.00  0.00    -0.200 F 
ATOM     69  C   UNL A   1      39.271  35.127  38.574  1.00  0.00     0.200 A 
ATOM     70  F   UNL A   1      37.708  33.570  39.412  1.00  0.00    -0.200 F 
ATOM     71  F   UNL A   1      39.041  35.940  39.615  1.00  0.00    -0.200 F 
ENDBRANCH  47  61
BRANCH  48  72
ATOM     72  C   UNL A   1      41.133  27.774  28.311  1.00  0.00     0.064 A 
ATOM     73  C   UNL A   1      40.480  26.542  28.158  1.00  0.00     0.173 A 
ATOM     74  C   UNL A   1      42.021  28.170  27.301  1.00  0.00     0.173 A 
ATOM     75  F   UNL A   1      39.640  26.106  29.107  1.00  0.00    -0.203 F 
ATOM     76  C   UNL A   1      40.728  25.728  27.054  1.00  0.00     0.198 A 
ATOM     77  C   UNL A   1      42.242  27.371  26.181  1.00  0.00     0.198 A 
ATOM     78  F   UNL A   1      42.671  29.340  27.397  1.00  0.00    -0.203 F 
ATOM     79  F   UNL A   1      40.137  24.529  26.962  1.00  0.00    -0.200 F 
ATOM     80  C   UNL A   1      41.604  26.146  26.064  1.00  0.00     0.200 A 
ATOM     81  F   UNL A   1      43.078  27.787  25.220  1.00  0.00    -0.200 F 
ATOM     82  F   UNL A   1      41.843  25.364  25.002  1.00  0.00    -0.200 F 
ENDBRANCH  48  72
BRANCH  60  83
ATOM     83  C   UNL A   1      44.152  27.966  34.586  1.00  0.00     0.064 A 
ATOM     84  C   UNL A   1      43.885  26.761  35.253  1.00  0.00     0.173 A 
ATOM     85  C   UNL A   1      45.489  28.387  34.510  1.00  0.00     0.173 A 
ATOM     86  F   UNL A   1      42.624  26.317  35.367  1.00  0.00    -0.203 F 
ATOM     87  C   UNL A   1      44.908  26.032  35.857  1.00  0.00     0.198 A 
ATOM     88  C   UNL A   1      46.514  27.637  35.083  1.00  0.00     0.198 A 
ATOM     89  F   UNL A   1      45.806  29.527  33.878  1.00  0.00    -0.203 F 
ATOM     90  F   UNL A   1      44.618  24.919  36.546  1.00  0.00    -0.200 F 
ATOM     91  C   UNL A   1      46.221  26.467  35.766  1.00  0.00     0.200 A 
ATOM     92  F   UNL A   1      47.784  28.051  34.979  1.00  0.00    -0.200 F 
ATOM     93  F   UNL A   1      47.204  25.765  36.347  1.00  0.00    -0.200 F 
ENDBRANCH  60  83
ENDBRANCH  34  35
ENDBRANCH  26  29
ENDBRANCH  24  25
ENDBRANCH  23  24
ENDBRANCH  22  23
ENDBRANCH   1  22
TORSDOF 16
ENDMDL
MODEL 2
REMARK VINA RESULT:     -11.6      1.656      2.735
REMARK SMILES CCc1n[nH]c2cc(CCC(=O)NCCCCCCNC(=O)c3ccc(-c4c5nc(c(-c6c(F)c(F)c(F)c(F)c6F)c6ccc([nH]6)c(-c6c(F)c(F)c(F)c(F)c6F)c6nc(c(-c7c(F)c(F)c(F)c(F)c7F)c7ccc4[nH]7)C=C6)C=C5)cc3)ccc12
REMARK SMILES IDX 16 1 15 2 14 3 13 4 11 5 12 6 10 8 9 9 8 10 3 11 4 12 88 13
REMARK SMILES IDX 5 14 6 15 87 16 7 18 86 19 2 20 1 21 17 22 18 23 19 24 20 25
REMARK SMILES IDX 21 26 22 28 23 29 24 30 85 31 25 32 84 33 26 34 27 35 28 36
REMARK SMILES IDX 78 37 29 38 83 39 77 40 79 41 30 42 82 43 76 44 75 45 31 47
REMARK SMILES IDX 63 48 43 49 62 50 44 51 47 52 61 53 80 54 45 55 46 56 60 58
REMARK SMILES IDX 81 59 48 60 32 61 33 62 41 63 34 64 35 65 39 66 42 67 36 68
REMARK SMILES IDX 37 69 40 70 38 71 64 72 65 73 73 74 66 75 67 76 71 77 74 78
REMARK SMILES IDX 68 79 69 80 72 81 70 82 49 83 50 84 58 85 51 86 52 87 56 88
REMARK SMILES IDX 59 89 53 90 54 91 57 92 55 93
REMARK H PARENT 13 7 5 17 20 27 79 46 47 57
REMARK Flexibility Score: inf
ROOT
ATOM      1  C   UNL A   1      32.724  25.496  26.279  1.00  0.00     0.002 C 
ENDROOT
BRANCH   1   2
ATOM      2  C   UNL A   1      33.551  24.217  26.160  1.00  0.00     0.021 C 
BRANCH   2   3
ATOM      3  C   UNL A   1      32.776  22.905  26.033  1.00  0.00     0.116 C 
BRANCH   3   4
ATOM      4  N   UNL A   1      32.998  22.312  24.725  1.00  0.00    -0.356 N 
ATOM      5  C   UNL A   1      32.314  22.483  23.558  1.00  0.00     0.220 C 
ATOM      6  O   UNL A   1      32.519  21.682  22.643  1.00  0.00    -0.275 OA
ATOM      7  H   UNL A   1      33.760  21.690  24.674  1.00  0.00     0.163 HD
BRANCH   5   8
ATOM      8  C   UNL A   1      31.361  23.646  23.361  1.00  0.00     0.105 C 
BRANCH   8   9
ATOM      9  C   UNL A   1      32.008  24.855  22.672  1.00  0.00     0.045 C 
BRANCH   9  10
ATOM     10  C   UNL A   1      31.245  26.138  22.914  1.00  0.00    -0.045 A 
ATOM     11  C   UNL A   1      28.956  29.624  22.731  1.00  0.00     0.070 A 
ATOM     12  N   UNL A   1      29.735  30.400  21.963  1.00  0.00    -0.180 NA
ATOM     13  C   UNL A   1      29.583  28.389  23.046  1.00  0.00     0.023 A 
ATOM     14  N   UNL A   1      30.854  29.667  21.800  1.00  0.00    -0.278 N 
ATOM     15  C   UNL A   1      30.803  28.430  22.385  1.00  0.00     0.066 A 
ATOM     16  C   UNL A   1      29.230  27.232  23.758  1.00  0.00     0.012 A 
ATOM     17  H   UNL A   1      31.639  29.993  21.304  1.00  0.00     0.190 HD
ATOM     18  C   UNL A   1      31.676  27.335  22.321  1.00  0.00     0.032 A 
ATOM     19  C   UNL A   1      30.067  26.114  23.676  1.00  0.00     0.004 A 
BRANCH  11  20
ATOM     20  C   UNL A   1      27.572  30.054  23.079  1.00  0.00     0.055 C 
ATOM     21  C   UNL A   1      27.499  31.515  23.479  1.00  0.00     0.011 C 
ENDBRANCH  11  20
ENDBRANCH   9  10
ENDBRANCH   8   9
ENDBRANCH   5   8
ENDBRANCH   3   4
ENDBRANCH   2   3
ENDBRANCH   1   2
BRANCH   1  22
ATOM     22  C   UNL A   1      33.429  26.785  25.841  1.00  0.00     0.002 C 
BRANCH  22  23
ATOM     23  C   UNL A   1      32.583  28.067  25.833  1.00  0.00     0.021 C 
BRANCH  23  24
ATOM     24  C   UNL A   1      33.273  29.333  25.322  1.00  0.00     0.116 C 
BRANCH  24  25
ATOM     25  N   UNL A   1      32.803  30.546  25.969  1.00  0.00    -0.352 N 
ATOM     26  C   UNL A   1      33.319  31.262  27.023  1.00  0.00     0.251 C 
ATOM     27  H   UNL A   1      31.976  30.918  25.587  1.00  0.00     0.163 HD
ATOM     28  O   UNL A   1      32.699  32.238  27.439  1.00  0.00    -0.269 OA
BRANCH  26  29
ATOM     29  C   UNL A   1      34.577  30.867  27.712  1.00  0.00     0.039 A 
ATOM     30  C   UNL A   1      35.590  31.829  27.807  1.00  0.00     0.014 A 
ATOM     31  C   UNL A   1      34.816  29.581  28.200  1.00  0.00     0.014 A 
ATOM     32  C   UNL A   1      36.802  31.524  28.435  1.00  0.00     0.010 A 
ATOM     33  C   UNL A   1      36.009  29.293  28.882  1.00  0.00     0.010 A 
ATOM     34  C   UNL A   1      37.017  30.262  29.012  1.00  0.00    -0.014 A 
BRANCH  34  35
ATOM     35  C   UNL A   1      38.282  29.992  29.759  1.00  0.00     0.031 A 
ATOM     36  C   UNL A   1      38.506  30.528  31.149  1.00  0.00     0.074 A 
ATOM     37  C   UNL A   1      39.244  29.237  29.187  1.00  0.00     0.049 A 
ATOM     38  N   UNL A   1      39.513  30.319  31.966  1.00  0.00    -0.248 NA
ATOM     39  C   UNL A   1      37.475  31.424  31.690  1.00  0.00     0.031 C 
ATOM     40  C   UNL A   1      39.188  28.687  27.833  1.00  0.00     0.029 A 
ATOM     41  N   UNL A   1      40.451  28.792  29.675  1.00  0.00    -0.354 N 
ATOM     42  C   UNL A   1      39.233  31.051  33.113  1.00  0.00     0.074 A 
ATOM     43  C   UNL A   1      37.991  31.755  32.865  1.00  0.00     0.031 C 
ATOM     44  C   UNL A   1      40.285  27.946  27.612  1.00  0.00     0.029 A 
ATOM     45  C   UNL A   1      41.143  27.996  28.794  1.00  0.00     0.049 A 
ATOM     46  H   UNL A   1      40.788  29.023  30.571  1.00  0.00     0.167 HD
ATOM     47  C   UNL A   1      39.930  31.115  34.275  1.00  0.00     0.037 A 
ATOM     48  C   UNL A   1      42.331  27.370  28.918  1.00  0.00     0.037 A 
ATOM     49  C   UNL A   1      41.166  30.416  34.531  1.00  0.00     0.049 A 
ATOM     50  C   UNL A   1      43.096  27.476  30.211  1.00  0.00     0.074 A 
ATOM     51  C   UNL A   1      41.915  30.387  35.696  1.00  0.00     0.029 A 
ATOM     52  N   UNL A   1      41.843  29.635  33.606  1.00  0.00    -0.354 N 
ATOM     53  N   UNL A   1      42.777  28.105  31.315  1.00  0.00    -0.248 NA
ATOM     54  C   UNL A   1      44.384  26.769  30.276  1.00  0.00     0.031 C 
ATOM     55  C   UNL A   1      43.074  29.640  35.457  1.00  0.00     0.029 A 
ATOM     56  C   UNL A   1      43.015  29.145  34.166  1.00  0.00     0.049 A 
ATOM     57  H   UNL A   1      41.536  29.454  32.688  1.00  0.00     0.167 HD
ATOM     58  C   UNL A   1      43.804  27.846  32.213  1.00  0.00     0.074 A 
ATOM     59  C   UNL A   1      44.747  26.983  31.533  1.00  0.00     0.031 C 
ATOM     60  C   UNL A   1      43.953  28.286  33.488  1.00  0.00     0.037 A 
BRANCH  47  61
ATOM     61  C   UNL A   1      39.374  31.980  35.372  1.00  0.00     0.064 A 
ATOM     62  C   UNL A   1      38.508  31.464  36.350  1.00  0.00     0.173 A 
ATOM     63  C   UNL A   1      39.751  33.328  35.481  1.00  0.00     0.173 A 
ATOM     64  F   UNL A   1      38.112  30.183  36.294  1.00  0.00    -0.203 F 
ATOM     65  C   UNL A   1      38.016  32.273  37.373  1.00  0.00     0.198 A 
ATOM     66  C   UNL A   1      39.285  34.123  36.523  1.00  0.00     0.198 A 
ATOM     67  F   UNL A   1      40.587  33.871  34.582  1.00  0.00    -0.203 F 
ATOM     68  F   UNL A   1      37.151  31.770  38.264  1.00  0.00    -0.200 F 
ATOM     69  C   UNL A   1      38.410  33.599  37.463  1.00  0.00     0.200 A 
ATOM     70  F   UNL A   1      39.682  35.400  36.621  1.00  0.00    -0.200 F 
ATOM     71  F   UNL A   1      37.945  34.372  38.453  1.00  0.00    -0.200 F 
ENDBRANCH  47  61
BRANCH  48  72
ATOM     72  C   UNL A   1      42.870  26.565  27.788  1.00  0.00     0.064 A 
ATOM     73  C   UNL A   1      43.637  27.160  26.775  1.00  0.00     0.173 A 
ATOM     74  C   UNL A   1      42.609  25.191  27.685  1.00  0.00     0.173 A 
ATOM     75  F   UNL A   1      43.893  28.475  26.814  1.00  0.00    -0.203 F 
ATOM     76  C   UNL A   1      44.096  26.417  25.689  1.00  0.00     0.198 A 
ATOM     77  C   UNL A   1      43.099  24.443  26.617  1.00  0.00     0.198 A 
ATOM     78  F   UNL A   1      41.884  24.572  28.627  1.00  0.00    -0.203 F 
ATOM     79  F   UNL A   1      44.775  27.023  24.704  1.00  0.00    -0.200 F 
ATOM     80  C   UNL A   1      43.833  25.058  25.614  1.00  0.00     0.200 A 
ATOM     81  F   UNL A   1      42.855  23.126  26.557  1.00  0.00    -0.200 F 
ATOM     82  F   UNL A   1      44.275  24.343  24.571  1.00  0.00    -0.200 F 
ENDBRANCH  48  72
BRANCH  60  83
ATOM     83  C   UNL A   1      45.161  27.807  34.248  1.00  0.00     0.064 A 
ATOM     84  C   UNL A   1      45.144  26.622  34.999  1.00  0.00     0.173 A 
ATOM     85  C   UNL A   1      46.357  28.542  34.216  1.00  0.00     0.173 A 
ATOM     86  F   UNL A   1      44.025  25.886  35.075  1.00  0.00    -0.203 F 
ATOM     87  C   UNL A   1      46.263  26.214  35.723  1.00  0.00     0.198 A 
ATOM     88  C   UNL A   1      47.485  28.112  34.910  1.00  0.00     0.198 A 
ATOM     89  F   UNL A   1      46.435  29.679  33.508  1.00  0.00    -0.203 F 
ATOM     90  F   UNL A   1      46.200  25.114  36.486  1.00  0.00    -0.200 F 
ATOM     91  C   UNL A   1      47.434  26.956  35.673  1.00  0.00     0.200 A 
ATOM     92  F   UNL A   1      48.620  28.821  34.847  1.00  0.00    -0.200 F 
ATOM     93  F   UNL A   1      48.509  26.562  36.370  1.00  0.00    -0.200 F 
ENDBRANCH  60  83
ENDBRANCH  34  35
ENDBRANCH  26  29
ENDBRANCH  24  25
ENDBRANCH  23  24
ENDBRANCH  22  23
ENDBRANCH   1  22
TORSDOF 16
ENDMDL
MODEL 3
REMARK VINA RESULT:     -11.4      5.567     10.912
REMARK SMILES CCc1n[nH]c2cc(CCC(=O)NCCCCCCNC(=O)c3ccc(-c4c5nc(c(-c6c(F)c(F)c(F)c(F)c6F)c6ccc([nH]6)c(-c6c(F)c(F)c(F)c(F)c6F)c6nc(c(-c7c(F)c(F)c(F)c(F)c7F)c7ccc4[nH]7)C=C6)C=C5)cc3)ccc12
REMARK SMILES IDX 16 1 15 2 14 3 13 4 11 5 12 6 10 8 9 9 8 10 3 11 4 12 88 13
REMARK SMILES IDX 5 14 6 15 87 16 7 18 86 19 2 20 1 21 17 22 18 23 19 24 20 25
REMARK SMILES IDX 21 26 22 28 23 29 24 30 85 31 25 32 84 33 26 34 27 35 28 36
REMARK SMILES IDX 78 37 29 38 83 39 77 40 79 41 30 42 82 43 76 44 75 45 31 47
REMARK SMILES IDX 63 48 43 49 62 50 44 51 47 52 61 53 80 54 45 55 46 56 60 58
REMARK SMILES IDX 81 59 48 60 32 61 33 62 41 63 34 64 35 65 39 66 42 67 36 68
REMARK SMILES IDX 37 69 40 70 38 71 64 72 65 73 73 74 66 75 67 76 71 77 74 78
REMARK SMILES IDX 68 79 69 80 72 81 70 82 49 83 50 84 58 85 51 86 52 87 56 88
REMARK SMILES IDX 59 89 53 90 54 91 57 92 55 93
REMARK H PARENT 13 7 5 17 20 27 79 46 47 57
REMARK Flexibility Score: inf
ROOT
ATOM      1  C   UNL A   1      36.867  22.145  23.881  1.00  0.00     0.002 C 
ENDROOT
BRANCH   1   2
ATOM      2  C   UNL A   1      36.659  23.497  24.561  1.00  0.00     0.021 C 
BRANCH   2   3
ATOM      3  C   UNL A   1      35.337  23.699  25.302  1.00  0.00     0.116 C 
BRANCH   3   4
ATOM      4  N   UNL A   1      34.654  24.881  24.804  1.00  0.00    -0.356 N 
ATOM      5  C   UNL A   1      33.992  25.081  23.629  1.00  0.00     0.220 C 
ATOM      6  O   UNL A   1      33.716  26.239  23.308  1.00  0.00    -0.275 OA
ATOM      7  H   UNL A   1      34.672  25.659  25.409  1.00  0.00     0.163 HD
BRANCH   5   8
ATOM      8  C   UNL A   1      33.561  23.918  22.756  1.00  0.00     0.105 C 
BRANCH   8   9
ATOM      9  C   UNL A   1      32.215  23.309  23.170  1.00  0.00     0.045 C 
BRANCH   9  10
ATOM     10  C   UNL A   1      32.313  21.829  23.464  1.00  0.00    -0.045 A 
ATOM     11  C   UNL A   1      33.219  17.759  23.673  1.00  0.00     0.070 A 
ATOM     12  N   UNL A   1      32.818  17.346  22.462  1.00  0.00    -0.180 NA
ATOM     13  C   UNL A   1      32.902  19.125  23.900  1.00  0.00     0.023 A 
ATOM     14  N   UNL A   1      32.241  18.441  21.926  1.00  0.00    -0.278 N 
ATOM     15  C   UNL A   1      32.305  19.554  22.722  1.00  0.00     0.066 A 
ATOM     16  C   UNL A   1      33.109  20.049  24.936  1.00  0.00     0.012 A 
ATOM     17  H   UNL A   1      31.811  18.440  21.041  1.00  0.00     0.190 HD
ATOM     18  C   UNL A   1      31.968  20.891  22.477  1.00  0.00     0.032 A 
ATOM     19  C   UNL A   1      32.816  21.397  24.700  1.00  0.00     0.004 A 
BRANCH  11  20
ATOM     20  C   UNL A   1      33.984  16.844  24.566  1.00  0.00     0.055 C 
ATOM     21  C   UNL A   1      33.125  16.247  25.664  1.00  0.00     0.011 C 
ENDBRANCH  11  20
ENDBRANCH   9  10
ENDBRANCH   8   9
ENDBRANCH   5   8
ENDBRANCH   3   4
ENDBRANCH   2   3
ENDBRANCH   1   2
BRANCH   1  22
ATOM     22  C   UNL A   1      36.705  20.916  24.783  1.00  0.00     0.002 C 
BRANCH  22  23
ATOM     23  C   UNL A   1      37.869  19.914  24.801  1.00  0.00     0.021 C 
BRANCH  23  24
ATOM     24  C   UNL A   1      38.880  20.069  25.939  1.00  0.00     0.116 C 
BRANCH  24  25
ATOM     25  N   UNL A   1      40.035  19.198  25.805  1.00  0.00    -0.352 N 
ATOM     26  C   UNL A   1      41.369  19.430  26.044  1.00  0.00     0.251 C 
ATOM     27  H   UNL A   1      39.827  18.289  25.490  1.00  0.00     0.163 HD
ATOM     28  O   UNL A   1      42.181  18.542  25.793  1.00  0.00    -0.269 OA
BRANCH  26  29
ATOM     29  C   UNL A   1      41.871  20.736  26.547  1.00  0.00     0.039 A 
ATOM     30  C   UNL A   1      42.169  21.722  25.598  1.00  0.00     0.014 A 
ATOM     31  C   UNL A   1      42.120  20.996  27.896  1.00  0.00     0.014 A 
ATOM     32  C   UNL A   1      42.653  22.972  26.001  1.00  0.00     0.010 A 
ATOM     33  C   UNL A   1      42.549  22.270  28.304  1.00  0.00     0.010 A 
ATOM     34  C   UNL A   1      42.818  23.276  27.362  1.00  0.00    -0.014 A 
BRANCH  34  35
ATOM     35  C   UNL A   1      43.246  24.647  27.771  1.00  0.00     0.031 A 
ATOM     36  C   UNL A   1      44.695  25.059  27.749  1.00  0.00     0.074 A 
ATOM     37  C   UNL A   1      42.317  25.549  28.153  1.00  0.00     0.049 A 
ATOM     38  N   UNL A   1      45.227  26.234  27.996  1.00  0.00    -0.248 NA
ATOM     39  C   UNL A   1      45.677  24.016  27.422  1.00  0.00     0.031 C 
ATOM     40  C   UNL A   1      40.883  25.283  28.264  1.00  0.00     0.029 A 
ATOM     41  N   UNL A   1      42.436  26.873  28.506  1.00  0.00    -0.354 N 
ATOM     42  C   UNL A   1      46.599  26.071  27.848  1.00  0.00     0.074 A 
ATOM     43  C   UNL A   1      46.823  24.672  27.548  1.00  0.00     0.031 C 
ATOM     44  C   UNL A   1      40.251  26.413  28.617  1.00  0.00     0.029 A 
ATOM     45  C   UNL A   1      41.236  27.479  28.792  1.00  0.00     0.049 A 
ATOM     46  H   UNL A   1      43.300  27.344  28.549  1.00  0.00     0.167 HD
ATOM     47  C   UNL A   1      47.582  27.002  27.931  1.00  0.00     0.037 A 
ATOM     48  C   UNL A   1      40.952  28.747  29.152  1.00  0.00     0.037 A 
ATOM     49  C   UNL A   1      47.368  28.398  28.229  1.00  0.00     0.049 A 
ATOM     50  C   UNL A   1      42.065  29.756  29.260  1.00  0.00     0.074 A 
ATOM     51  C   UNL A   1      48.301  29.421  28.286  1.00  0.00     0.029 A 
ATOM     52  N   UNL A   1      46.140  28.967  28.531  1.00  0.00    -0.354 N 
ATOM     53  N   UNL A   1      43.347  29.605  29.036  1.00  0.00    -0.248 NA
ATOM     54  C   UNL A   1      41.684  31.119  29.658  1.00  0.00     0.031 C 
ATOM     55  C   UNL A   1      47.648  30.593  28.683  1.00  0.00     0.029 A 
ATOM     56  C   UNL A   1      46.297  30.318  28.806  1.00  0.00     0.049 A 
ATOM     57  H   UNL A   1      45.282  28.483  28.548  1.00  0.00     0.167 HD
ATOM     58  C   UNL A   1      43.920  30.855  29.235  1.00  0.00     0.074 A 
ATOM     59  C   UNL A   1      42.842  31.759  29.575  1.00  0.00     0.031 C 
ATOM     60  C   UNL A   1      45.223  31.219  29.144  1.00  0.00     0.037 A 
BRANCH  47  61
ATOM     61  C   UNL A   1      48.995  26.544  27.700  1.00  0.00     0.064 A 
ATOM     62  C   UNL A   1      49.525  26.412  26.407  1.00  0.00     0.173 A 
ATOM     63  C   UNL A   1      49.849  26.284  28.784  1.00  0.00     0.173 A 
ATOM     64  F   UNL A   1      48.754  26.646  25.334  1.00  0.00    -0.203 F 
ATOM     65  C   UNL A   1      50.843  26.005  26.207  1.00  0.00     0.198 A 
ATOM     66  C   UNL A   1      51.174  25.910  28.582  1.00  0.00     0.198 A 
ATOM     67  F   UNL A   1      49.401  26.406  30.042  1.00  0.00    -0.203 F 
ATOM     68  F   UNL A   1      51.310  25.838  24.963  1.00  0.00    -0.200 F 
ATOM     69  C   UNL A   1      51.668  25.762  27.294  1.00  0.00     0.200 A 
ATOM     70  F   UNL A   1      51.977  25.694  29.633  1.00  0.00    -0.200 F 
ATOM     71  F   UNL A   1      52.938  25.381  27.102  1.00  0.00    -0.200 F 
ENDBRANCH  47  61
BRANCH  48  72
ATOM     72  C   UNL A   1      39.544  29.147  29.423  1.00  0.00     0.064 A 
ATOM     73  C   UNL A   1      39.006  29.076  30.716  1.00  0.00     0.173 A 
ATOM     74  C   UNL A   1      38.702  29.584  28.391  1.00  0.00     0.173 A 
ATOM     75  F   UNL A   1      39.763  28.640  31.733  1.00  0.00    -0.203 F 
ATOM     76  C   UNL A   1      37.672  29.399  30.960  1.00  0.00     0.198 A 
ATOM     77  C   UNL A   1      37.379  29.941  28.642  1.00  0.00     0.198 A 
ATOM     78  F   UNL A   1      39.166  29.673  27.136  1.00  0.00    -0.203 F 
ATOM     79  F   UNL A   1      37.167  29.265  32.194  1.00  0.00    -0.200 F 
ATOM     80  C   UNL A   1      36.862  29.837  29.924  1.00  0.00     0.200 A 
ATOM     81  F   UNL A   1      36.604  30.378  27.640  1.00  0.00    -0.200 F 
ATOM     82  F   UNL A   1      35.580  30.150  30.158  1.00  0.00    -0.200 F 
ENDBRANCH  48  72
BRANCH  60  83
ATOM     83  C   UNL A   1      45.554  32.669  29.376  1.00  0.00     0.064 A 
ATOM     84  C   UNL A   1      45.528  33.612  28.337  1.00  0.00     0.173 A 
ATOM     85  C   UNL A   1      45.892  33.123  30.661  1.00  0.00     0.173 A 
ATOM     86  F   UNL A   1      45.223  33.232  27.087  1.00  0.00    -0.203 F 
ATOM     87  C   UNL A   1      45.870  34.943  28.567  1.00  0.00     0.198 A 
ATOM     88  C   UNL A   1      46.197  34.462  30.894  1.00  0.00     0.198 A 
ATOM     89  F   UNL A   1      45.925  32.269  31.695  1.00  0.00    -0.203 F 
ATOM     90  F   UNL A   1      45.903  35.810  27.545  1.00  0.00    -0.200 F 
ATOM     91  C   UNL A   1      46.199  35.368  29.845  1.00  0.00     0.200 A 
ATOM     92  F   UNL A   1      46.497  34.874  32.134  1.00  0.00    -0.200 F 
ATOM     93  F   UNL A   1      46.527  36.649  30.065  1.00  0.00    -0.200 F 
ENDBRANCH  60  83
ENDBRANCH  34  35
ENDBRANCH  26  29
ENDBRANCH  24  25
ENDBRANCH  23  24
ENDBRANCH  22  23
ENDBRANCH   1  22
TORSDOF 16
ENDMDL
