MODEL 1
REMARK VINA RESULT:     -15.3      0.000      0.000
REMARK SMILES C[C@]12C(=O)N(c3ccc(C(=O)NCCCCCCNC(=O)c4ccc(-c5c6nc(c(-c7c(F)c(F)c(F)c(F)c7F)c7ccc([nH]7)c(-c7c(F)c(F)c(F)c(F)c7F)c7nc(c(-c8c(F)c(F)c(F)c(F)c8F)c8ccc5[nH]8)C=C7)C=C6)cc4)cc3)C(=O)[C@H]1[C@H]1c3ccccc3[C@@H]2c2ccccc21
REMARK SMILES IDX 16 1 15 2 14 3 13 4 12 5 10 6 11 7 9 9 6 10 7 11 86 12 8 13
REMARK SMILES IDX 85 14 5 15 1 16 2 17 3 18 89 19 97 20 4 21 87 22 90 23 96 24
REMARK SMILES IDX 98 25 88 26 91 27 103 28 95 29 99 30 92 31 102 32 94 33
REMARK SMILES IDX 100 34 93 35 101 36 17 37 18 38 19 39 20 40 21 42 22 43
REMARK SMILES IDX 23 44 84 45 24 46 83 47 25 48 26 49 27 50 77 51 28 52 82 53
REMARK SMILES IDX 76 54 78 55 29 56 81 57 75 58 74 59 30 61 62 62 42 63 61 64
REMARK SMILES IDX 43 65 46 66 60 67 79 68 44 69 45 70 59 72 80 73 47 74 31 75
REMARK SMILES IDX 32 76 40 77 33 78 34 79 38 80 41 81 35 82 36 83 39 84 37 85
REMARK SMILES IDX 63 86 64 87 72 88 65 89 66 90 70 91 73 92 67 93 68 94 71 95
REMARK SMILES IDX 69 96 48 97 49 98 57 99 50 100 51 101 55 102 58 103 52 104
REMARK SMILES IDX 53 105 56 106 54 107
REMARK H PARENT 12 8 19 41 78 60 46 71
REMARK Flexibility Score: inf
ROOT
ATOM      1  C   UNL A   1      31.795  30.671  26.203  1.00  0.00     0.002 C 
ENDROOT
BRANCH   1   2
ATOM      2  C   UNL A   1      30.979  30.387  24.939  1.00  0.00     0.002 C 
BRANCH   2   3
ATOM      3  C   UNL A   1      29.863  31.375  24.594  1.00  0.00     0.021 C 
BRANCH   3   4
ATOM      4  C   UNL A   1      29.219  31.217  23.222  1.00  0.00     0.116 C 
BRANCH   4   5
ATOM      5  N   UNL A   1      27.932  30.557  23.273  1.00  0.00    -0.352 N 
ATOM      6  C   UNL A   1      27.632  29.220  23.233  1.00  0.00     0.251 C 
ATOM      7  O   UNL A   1      26.457  28.864  23.195  1.00  0.00    -0.269 OA
ATOM      8  H   UNL A   1      27.157  31.158  23.349  1.00  0.00     0.163 HD
BRANCH   6   9
ATOM      9  C   UNL A   1      28.702  28.195  23.208  1.00  0.00     0.039 A 
ATOM     10  C   UNL A   1      30.738  26.231  22.968  1.00  0.00     0.052 A 
ATOM     11  C   UNL A   1      30.805  27.452  22.270  1.00  0.00     0.027 A 
ATOM     12  C   UNL A   1      29.636  26.037  23.812  1.00  0.00     0.027 A 
ATOM     13  C   UNL A   1      29.800  28.419  22.383  1.00  0.00     0.016 A 
ATOM     14  C   UNL A   1      28.612  26.990  23.905  1.00  0.00     0.016 A 
BRANCH  10  15
ATOM     15  N   UNL A   1      31.628  25.154  22.658  1.00  0.00    -0.250 N 
ATOM     16  C   UNL A   1      32.716  21.783  22.656  1.00  0.00     0.024 C 
ATOM     17  C   UNL A   1      32.736  23.190  23.270  1.00  0.00     0.071 C 
ATOM     18  C   UNL A   1      31.402  23.850  23.034  1.00  0.00     0.241 C 
ATOM     19  C   UNL A   1      33.746  24.121  22.543  1.00  0.00     0.107 C 
ATOM     20  C   UNL A   1      33.022  23.200  24.817  1.00  0.00     0.066 C 
ATOM     21  O   UNL A   1      30.342  23.263  23.192  1.00  0.00    -0.273 OA
ATOM     22  C   UNL A   1      32.883  25.287  22.099  1.00  0.00     0.238 C 
ATOM     23  C   UNL A   1      34.852  24.606  23.539  1.00  0.00     0.063 C 
ATOM     24  C   UNL A   1      33.117  24.662  25.289  1.00  0.00    -0.036 A 
ATOM     25  C   UNL A   1      34.429  22.626  24.954  1.00  0.00    -0.036 A 
ATOM     26  O   UNL A   1      33.312  26.174  21.371  1.00  0.00    -0.274 OA
ATOM     27  C   UNL A   1      34.123  25.409  24.619  1.00  0.00    -0.036 A 
ATOM     28  C   UNL A   1      35.411  23.364  24.238  1.00  0.00    -0.036 A 
ATOM     29  C   UNL A   1      32.289  25.282  26.213  1.00  0.00     0.005 A 
ATOM     30  C   UNL A   1      34.769  21.511  25.707  1.00  0.00     0.005 A 
ATOM     31  C   UNL A   1      34.308  26.761  24.878  1.00  0.00     0.004 A 
ATOM     32  C   UNL A   1      36.741  22.976  24.286  1.00  0.00     0.004 A 
ATOM     33  C   UNL A   1      32.468  26.647  26.464  1.00  0.00     0.000 A 
ATOM     34  C   UNL A   1      36.107  21.126  25.746  1.00  0.00     0.000 A 
ATOM     35  C   UNL A   1      33.471  27.378  25.807  1.00  0.00     0.000 A 
ATOM     36  C   UNL A   1      37.083  21.851  25.042  1.00  0.00     0.000 A 
ENDBRANCH  10  15
ENDBRANCH   6   9
ENDBRANCH   4   5
ENDBRANCH   3   4
ENDBRANCH   2   3
ENDBRANCH   1   2
BRANCH   1  37
ATOM     37  C   UNL A   1      31.509  31.985  26.931  1.00  0.00     0.021 C 
BRANCH  37  38
ATOM     38  C   UNL A   1      32.720  32.837  27.282  1.00  0.00     0.116 C 
BRANCH  38  39
ATOM     39  N   UNL A   1      32.382  34.197  27.663  1.00  0.00    -0.352 N 
ATOM     40  C   UNL A   1      32.983  35.013  28.593  1.00  0.00     0.251 C 
ATOM     41  H   UNL A   1      31.614  34.590  27.189  1.00  0.00     0.163 HD
ATOM     42  O   UNL A   1      32.504  36.112  28.854  1.00  0.00    -0.269 OA
BRANCH  40  43
ATOM     43  C   UNL A   1      34.184  34.544  29.323  1.00  0.00     0.039 A 
ATOM     44  C   UNL A   1      35.461  34.667  28.771  1.00  0.00     0.014 A 
ATOM     45  C   UNL A   1      34.016  33.935  30.569  1.00  0.00     0.014 A 
ATOM     46  C   UNL A   1      36.540  34.030  29.379  1.00  0.00     0.010 A 
ATOM     47  C   UNL A   1      35.115  33.364  31.218  1.00  0.00     0.010 A 
ATOM     48  C   UNL A   1      36.376  33.358  30.601  1.00  0.00    -0.014 A 
BRANCH  48  49
ATOM     49  C   UNL A   1      37.522  32.627  31.205  1.00  0.00     0.031 A 
ATOM     50  C   UNL A   1      37.993  32.957  32.596  1.00  0.00     0.074 A 
ATOM     51  C   UNL A   1      38.109  31.627  30.519  1.00  0.00     0.049 A 
ATOM     52  N   UNL A   1      38.981  32.436  33.281  1.00  0.00    -0.248 NA
ATOM     53  C   UNL A   1      37.260  34.011  33.315  1.00  0.00     0.031 C 
ATOM     54  C   UNL A   1      37.729  31.195  29.174  1.00  0.00     0.029 A 
ATOM     55  N   UNL A   1      39.131  30.782  30.867  1.00  0.00    -0.354 N 
ATOM     56  C   UNL A   1      38.999  33.107  34.497  1.00  0.00     0.074 A 
ATOM     57  C   UNL A   1      37.940  34.093  34.450  1.00  0.00     0.031 C 
ATOM     58  C   UNL A   1      38.475  30.134  28.829  1.00  0.00     0.029 A 
ATOM     59  C   UNL A   1      39.424  29.849  29.901  1.00  0.00     0.049 A 
ATOM     60  H   UNL A   1      39.609  30.836  31.725  1.00  0.00     0.167 HD
ATOM     61  C   UNL A   1      39.814  32.910  35.560  1.00  0.00     0.037 A 
ATOM     62  C   UNL A   1      40.359  28.882  29.876  1.00  0.00     0.037 A 
ATOM     63  C   UNL A   1      40.852  31.914  35.618  1.00  0.00     0.049 A 
ATOM     64  C   UNL A   1      41.285  28.719  31.048  1.00  0.00     0.074 A 
ATOM     65  C   UNL A   1      41.721  31.633  36.659  1.00  0.00     0.029 A 
ATOM     66  N   UNL A   1      41.159  31.033  34.593  1.00  0.00    -0.354 N 
ATOM     67  N   UNL A   1      41.300  29.371  32.185  1.00  0.00    -0.248 NA
ATOM     68  C   UNL A   1      42.332  27.696  30.927  1.00  0.00     0.031 C 
ATOM     69  C   UNL A   1      42.577  30.604  36.250  1.00  0.00     0.029 A 
ATOM     70  C   UNL A   1      42.215  30.218  34.970  1.00  0.00     0.049 A 
ATOM     71  H   UNL A   1      40.695  30.991  33.726  1.00  0.00     0.167 HD
ATOM     72  C   UNL A   1      42.350  28.835  32.917  1.00  0.00     0.074 A 
ATOM     73  C   UNL A   1      42.934  27.788  32.105  1.00  0.00     0.031 C 
ATOM     74  C   UNL A   1      42.792  29.185  34.148  1.00  0.00     0.037 A 
BRANCH  61  75
ATOM     75  C   UNL A   1      39.624  33.795  36.758  1.00  0.00     0.064 A 
ATOM     76  C   UNL A   1      40.196  35.074  36.823  1.00  0.00     0.173 A 
ATOM     77  C   UNL A   1      38.812  33.383  37.825  1.00  0.00     0.173 A 
ATOM     78  F   UNL A   1      40.990  35.509  35.833  1.00  0.00    -0.203 F 
ATOM     79  C   UNL A   1      39.974  35.903  37.919  1.00  0.00     0.198 A 
ATOM     80  C   UNL A   1      38.573  34.224  38.910  1.00  0.00     0.198 A 
ATOM     81  F   UNL A   1      38.237  32.171  37.809  1.00  0.00    -0.203 F 
ATOM     82  F   UNL A   1      40.556  37.108  37.976  1.00  0.00    -0.200 F 
ATOM     83  C   UNL A   1      39.156  35.481  38.958  1.00  0.00     0.200 A 
ATOM     84  F   UNL A   1      37.773  33.819  39.907  1.00  0.00    -0.200 F 
ATOM     85  F   UNL A   1      38.935  36.284  40.007  1.00  0.00    -0.200 F 
ENDBRANCH  61  75
BRANCH  62  86
ATOM     86  C   UNL A   1      40.458  27.992  28.693  1.00  0.00     0.064 A 
ATOM     87  C   UNL A   1      39.772  26.770  28.657  1.00  0.00     0.173 A 
ATOM     88  C   UNL A   1      41.208  28.357  27.566  1.00  0.00     0.173 A 
ATOM     89  F   UNL A   1      39.060  26.370  29.719  1.00  0.00    -0.203 F 
ATOM     90  C   UNL A   1      39.835  25.946  27.535  1.00  0.00     0.198 A 
ATOM     91  C   UNL A   1      41.250  27.543  26.437  1.00  0.00     0.198 A 
ATOM     92  F   UNL A   1      41.880  29.517  27.554  1.00  0.00    -0.203 F 
ATOM     93  F   UNL A   1      39.192  24.770  27.535  1.00  0.00    -0.200 F 
ATOM     94  C   UNL A   1      40.566  26.337  26.423  1.00  0.00     0.200 A 
ATOM     95  F   UNL A   1      41.944  27.932  25.359  1.00  0.00    -0.200 F 
ATOM     96  F   UNL A   1      40.613  25.550  25.339  1.00  0.00    -0.200 F 
ENDBRANCH  62  86
BRANCH  74  97
ATOM     97  C   UNL A   1      43.964  28.430  34.699  1.00  0.00     0.064 A 
ATOM     98  C   UNL A   1      45.276  28.902  34.540  1.00  0.00     0.173 A 
ATOM     99  C   UNL A   1      43.772  27.252  35.437  1.00  0.00     0.173 A 
ATOM    100  F   UNL A   1      45.510  30.016  33.830  1.00  0.00    -0.203 F 
ATOM    101  C   UNL A   1      46.354  28.213  35.087  1.00  0.00     0.198 A 
ATOM    102  C   UNL A   1      44.851  26.579  36.003  1.00  0.00     0.198 A 
ATOM    103  F   UNL A   1      42.536  26.764  35.621  1.00  0.00    -0.203 F 
ATOM    104  F   UNL A   1      47.601  28.662  34.893  1.00  0.00    -0.200 F 
ATOM    105  C   UNL A   1      46.140  27.057  35.823  1.00  0.00     0.200 A 
ATOM    106  F   UNL A   1      44.643  25.468  36.724  1.00  0.00    -0.200 F 
ATOM    107  F   UNL A   1      47.180  26.400  36.357  1.00  0.00    -0.200 F 
ENDBRANCH  74  97
ENDBRANCH  48  49
ENDBRANCH  40  43
ENDBRANCH  38  39
ENDBRANCH  37  38
ENDBRANCH   1  37
TORSDOF 14
ENDMDL
MODEL 2
REMARK VINA RESULT:     -14.9      1.115      7.158
REMARK SMILES C[C@]12C(=O)N(c3ccc(C(=O)NCCCCCCNC(=O)c4ccc(-c5c6nc(c(-c7c(F)c(F)c(F)c(F)c7F)c7ccc([nH]7)c(-c7c(F)c(F)c(F)c(F)c7F)c7nc(c(-c8c(F)c(F)c(F)c(F)c8F)c8ccc5[nH]8)C=C7)C=C6)cc4)cc3)C(=O)[C@H]1[C@H]1c3ccccc3[C@@H]2c2ccccc21
REMARK SMILES IDX 16 1 15 2 14 3 13 4 12 5 10 6 11 7 9 9 6 10 7 11 86 12 8 13
REMARK SMILES IDX 85 14 5 15 1 16 2 17 3 18 89 19 97 20 4 21 87 22 90 23 96 24
REMARK SMILES IDX 98 25 88 26 91 27 103 28 95 29 99 30 92 31 102 32 94 33
REMARK SMILES IDX 100 34 93 35 101 36 17 37 18 38 19 39 20 40 21 42 22 43
REMARK SMILES IDX 23 44 84 45 24 46 83 47 25 48 26 49 27 50 77 51 28 52 82 53
REMARK SMILES IDX 76 54 78 55 29 56 81 57 75 58 74 59 30 61 62 62 42 63 61 64
REMARK SMILES IDX 43 65 46 66 60 67 79 68 44 69 45 70 59 72 80 73 47 74 31 75
REMARK SMILES IDX 32 76 40 77 33 78 34 79 38 80 41 81 35 82 36 83 39 84 37 85
REMARK SMILES IDX 63 86 64 87 72 88 65 89 66 90 70 91 73 92 67 93 68 94 71 95
REMARK SMILES IDX 69 96 48 97 49 98 57 99 50 100 51 101 55 102 58 103 52 104
REMARK SMILES IDX 53 105 56 106 54 107
REMARK H PARENT 12 8 19 41 78 60 46 71
REMARK Flexibility Score: inf
ROOT
ATOM      1  C   UNL A   1      32.069  30.058  26.958  1.00  0.00     0.002 C 
ENDROOT
BRANCH   1   2
ATOM      2  C   UNL A   1      31.782  29.227  25.704  1.00  0.00     0.002 C 
BRANCH   2   3
ATOM      3  C   UNL A   1      31.109  29.944  24.532  1.00  0.00     0.021 C 
BRANCH   3   4
ATOM      4  C   UNL A   1      30.681  29.071  23.360  1.00  0.00     0.116 C 
BRANCH   4   5
ATOM      5  N   UNL A   1      29.257  28.816  23.335  1.00  0.00    -0.352 N 
ATOM      6  C   UNL A   1      28.572  27.652  23.570  1.00  0.00     0.251 C 
ATOM      7  O   UNL A   1      27.355  27.622  23.405  1.00  0.00    -0.269 OA
ATOM      8  H   UNL A   1      28.696  29.595  23.117  1.00  0.00     0.163 HD
BRANCH   6   9
ATOM      9  C   UNL A   1      29.277  26.420  23.993  1.00  0.00     0.039 A 
ATOM     10  C   UNL A   1      30.754  24.169  24.898  1.00  0.00     0.052 A 
ATOM     11  C   UNL A   1      30.278  25.147  25.791  1.00  0.00     0.027 A 
ATOM     12  C   UNL A   1      30.442  24.338  23.541  1.00  0.00     0.027 A 
ATOM     13  C   UNL A   1      29.554  26.260  25.348  1.00  0.00     0.016 A 
ATOM     14  C   UNL A   1      29.744  25.466  23.088  1.00  0.00     0.016 A 
BRANCH  10  15
ATOM     15  N   UNL A   1      31.698  23.181  25.320  1.00  0.00    -0.250 N 
ATOM     16  C   UNL A   1      33.997  21.681  27.559  1.00  0.00     0.024 C 
ATOM     17  C   UNL A   1      33.706  22.600  26.365  1.00  0.00     0.071 C 
ATOM     18  C   UNL A   1      32.342  23.215  26.536  1.00  0.00     0.241 C 
ATOM     19  C   UNL A   1      33.589  21.799  25.038  1.00  0.00     0.107 C 
ATOM     20  C   UNL A   1      34.752  23.763  26.194  1.00  0.00     0.066 C 
ATOM     21  O   UNL A   1      31.953  23.665  27.604  1.00  0.00    -0.273 OA
ATOM     22  C   UNL A   1      32.209  22.172  24.530  1.00  0.00     0.238 C 
ATOM     23  C   UNL A   1      34.690  22.263  24.025  1.00  0.00     0.063 C 
ATOM     24  C   UNL A   1      34.410  24.545  24.912  1.00  0.00    -0.036 A 
ATOM     25  C   UNL A   1      36.074  23.058  25.911  1.00  0.00    -0.036 A 
ATOM     26  O   UNL A   1      31.706  21.626  23.555  1.00  0.00    -0.274 OA
ATOM     27  C   UNL A   1      34.406  23.739  23.741  1.00  0.00    -0.036 A 
ATOM     28  C   UNL A   1      36.032  22.222  24.761  1.00  0.00    -0.036 A 
ATOM     29  C   UNL A   1      34.055  25.884  24.837  1.00  0.00     0.005 A 
ATOM     30  C   UNL A   1      37.233  23.200  26.659  1.00  0.00     0.005 A 
ATOM     31  C   UNL A   1      34.061  24.269  22.505  1.00  0.00     0.004 A 
ATOM     32  C   UNL A   1      37.166  21.531  24.364  1.00  0.00     0.004 A 
ATOM     33  C   UNL A   1      33.695  26.413  23.593  1.00  0.00     0.000 A 
ATOM     34  C   UNL A   1      38.368  22.500  26.255  1.00  0.00     0.000 A 
ATOM     35  C   UNL A   1      33.703  25.615  22.438  1.00  0.00     0.000 A 
ATOM     36  C   UNL A   1      38.334  21.674  25.120  1.00  0.00     0.000 A 
ENDBRANCH  10  15
ENDBRANCH   6   9
ENDBRANCH   4   5
ENDBRANCH   3   4
ENDBRANCH   2   3
ENDBRANCH   1   2
BRANCH   1  37
ATOM     37  C   UNL A   1      31.799  31.560  26.869  1.00  0.00     0.021 C 
BRANCH  37  38
ATOM     38  C   UNL A   1      32.960  32.474  27.236  1.00  0.00     0.116 C 
BRANCH  38  39
ATOM     39  N   UNL A   1      32.552  33.830  27.561  1.00  0.00    -0.352 N 
ATOM     40  C   UNL A   1      33.064  34.689  28.505  1.00  0.00     0.251 C 
ATOM     41  H   UNL A   1      31.802  34.183  27.031  1.00  0.00     0.163 HD
ATOM     42  O   UNL A   1      32.531  35.775  28.708  1.00  0.00    -0.269 OA
BRANCH  40  43
ATOM     43  C   UNL A   1      34.232  34.280  29.320  1.00  0.00     0.039 A 
ATOM     44  C   UNL A   1      35.537  34.463  28.856  1.00  0.00     0.014 A 
ATOM     45  C   UNL A   1      34.008  33.669  30.556  1.00  0.00     0.014 A 
ATOM     46  C   UNL A   1      36.601  33.881  29.542  1.00  0.00     0.010 A 
ATOM     47  C   UNL A   1      35.086  33.154  31.283  1.00  0.00     0.010 A 
ATOM     48  C   UNL A   1      36.385  33.207  30.755  1.00  0.00    -0.014 A 
BRANCH  48  49
ATOM     49  C   UNL A   1      37.520  32.534  31.441  1.00  0.00     0.031 A 
ATOM     50  C   UNL A   1      38.324  31.477  30.733  1.00  0.00     0.074 A 
ATOM     51  C   UNL A   1      37.864  32.913  32.687  1.00  0.00     0.049 A 
ATOM     52  N   UNL A   1      39.339  30.774  31.174  1.00  0.00    -0.248 NA
ATOM     53  C   UNL A   1      37.940  31.164  29.347  1.00  0.00     0.031 C 
ATOM     54  C   UNL A   1      37.180  33.943  33.471  1.00  0.00     0.029 A 
ATOM     55  N   UNL A   1      38.882  32.492  33.503  1.00  0.00    -0.354 N 
ATOM     56  C   UNL A   1      39.699  29.929  30.132  1.00  0.00     0.074 A 
ATOM     57  C   UNL A   1      38.780  30.185  29.043  1.00  0.00     0.031 C 
ATOM     58  C   UNL A   1      37.828  34.108  34.634  1.00  0.00     0.029 A 
ATOM     59  C   UNL A   1      38.933  33.157  34.704  1.00  0.00     0.049 A 
ATOM     60  H   UNL A   1      39.517  31.783  33.253  1.00  0.00     0.167 HD
ATOM     61  C   UNL A   1      40.712  29.032  30.082  1.00  0.00     0.037 A 
ATOM     62  C   UNL A   1      39.768  33.010  35.750  1.00  0.00     0.037 A 
ATOM     63  C   UNL A   1      41.643  28.792  31.155  1.00  0.00     0.049 A 
ATOM     64  C   UNL A   1      40.851  31.971  35.689  1.00  0.00     0.074 A 
ATOM     65  C   UNL A   1      42.710  27.911  31.191  1.00  0.00     0.029 A 
ATOM     66  N   UNL A   1      41.619  29.441  32.380  1.00  0.00    -0.354 N 
ATOM     67  N   UNL A   1      41.172  31.168  34.703  1.00  0.00    -0.248 NA
ATOM     68  C   UNL A   1      41.679  31.807  36.891  1.00  0.00     0.031 C 
ATOM     69  C   UNL A   1      43.311  28.001  32.452  1.00  0.00     0.029 A 
ATOM     70  C   UNL A   1      42.643  28.968  33.185  1.00  0.00     0.049 A 
ATOM     71  H   UNL A   1      40.972  30.136  32.639  1.00  0.00     0.167 HD
ATOM     72  C   UNL A   1      42.239  30.410  35.161  1.00  0.00     0.074 A 
ATOM     73  C   UNL A   1      42.528  30.864  36.505  1.00  0.00     0.031 C 
ATOM     74  C   UNL A   1      42.914  29.423  34.525  1.00  0.00     0.037 A 
BRANCH  61  75
ATOM     75  C   UNL A   1      40.873  28.229  28.824  1.00  0.00     0.064 A 
ATOM     76  C   UNL A   1      40.195  27.015  28.637  1.00  0.00     0.173 A 
ATOM     77  C   UNL A   1      41.664  28.710  27.769  1.00  0.00     0.173 A 
ATOM     78  F   UNL A   1      39.436  26.508  29.620  1.00  0.00    -0.203 F 
ATOM     79  C   UNL A   1      40.316  26.304  27.446  1.00  0.00     0.198 A 
ATOM     80  C   UNL A   1      41.764  28.007  26.571  1.00  0.00     0.198 A 
ATOM     81  F   UNL A   1      42.328  29.868  27.896  1.00  0.00    -0.203 F 
ATOM     82  F   UNL A   1      39.687  25.130  27.301  1.00  0.00    -0.200 F 
ATOM     83  C   UNL A   1      41.094  26.804  26.411  1.00  0.00     0.200 A 
ATOM     84  F   UNL A   1      42.506  28.497  25.568  1.00  0.00    -0.200 F 
ATOM     85  F   UNL A   1      41.201  26.123  25.262  1.00  0.00    -0.200 F 
ENDBRANCH  61  75
BRANCH  62  86
ATOM     86  C   UNL A   1      39.605  33.877  36.942  1.00  0.00     0.064 A 
ATOM     87  C   UNL A   1      40.202  35.144  36.993  1.00  0.00     0.173 A 
ATOM     88  C   UNL A   1      38.826  33.475  38.037  1.00  0.00     0.173 A 
ATOM     89  F   UNL A   1      40.973  35.563  35.980  1.00  0.00    -0.203 F 
ATOM     90  C   UNL A   1      40.025  35.976  38.097  1.00  0.00     0.198 A 
ATOM     91  C   UNL A   1      38.630  34.317  39.128  1.00  0.00     0.198 A 
ATOM     92  F   UNL A   1      38.234  32.272  38.033  1.00  0.00    -0.203 F 
ATOM     93  F   UNL A   1      40.627  37.173  38.133  1.00  0.00    -0.200 F 
ATOM     94  C   UNL A   1      39.232  35.566  39.159  1.00  0.00     0.200 A 
ATOM     95  F   UNL A   1      37.851  33.924  40.144  1.00  0.00    -0.200 F 
ATOM     96  F   UNL A   1      39.050  36.374  40.213  1.00  0.00    -0.200 F 
ENDBRANCH  62  86
BRANCH  74  97
ATOM     97  C   UNL A   1      44.035  28.764  35.271  1.00  0.00     0.064 A 
ATOM     98  C   UNL A   1      43.806  27.660  36.106  1.00  0.00     0.173 A 
ATOM     99  C   UNL A   1      45.356  29.207  35.111  1.00  0.00     0.173 A 
ATOM    100  F   UNL A   1      42.557  27.210  36.301  1.00  0.00    -0.203 F 
ATOM    101  C   UNL A   1      44.859  27.033  36.766  1.00  0.00     0.198 A 
ATOM    102  C   UNL A   1      46.409  28.562  35.754  1.00  0.00     0.198 A 
ATOM    103  F   UNL A   1      45.627  30.256  34.320  1.00  0.00    -0.203 F 
ATOM    104  F   UNL A   1      44.614  26.002  37.585  1.00  0.00    -0.200 F 
ATOM    105  C   UNL A   1      46.159  27.479  36.583  1.00  0.00     0.200 A 
ATOM    106  F   UNL A   1      47.667  28.987  35.569  1.00  0.00    -0.200 F 
ATOM    107  F   UNL A   1      47.173  26.868  37.212  1.00  0.00    -0.200 F 
ENDBRANCH  74  97
ENDBRANCH  48  49
ENDBRANCH  40  43
ENDBRANCH  38  39
ENDBRANCH  37  38
ENDBRANCH   1  37
TORSDOF 14
ENDMDL
MODEL 3
REMARK VINA RESULT:     -14.7      1.123      2.030
REMARK SMILES C[C@]12C(=O)N(c3ccc(C(=O)NCCCCCCNC(=O)c4ccc(-c5c6nc(c(-c7c(F)c(F)c(F)c(F)c7F)c7ccc([nH]7)c(-c7c(F)c(F)c(F)c(F)c7F)c7nc(c(-c8c(F)c(F)c(F)c(F)c8F)c8ccc5[nH]8)C=C7)C=C6)cc4)cc3)C(=O)[C@H]1[C@H]1c3ccccc3[C@@H]2c2ccccc21
REMARK SMILES IDX 16 1 15 2 14 3 13 4 12 5 10 6 11 7 9 9 6 10 7 11 86 12 8 13
REMARK SMILES IDX 85 14 5 15 1 16 2 17 3 18 89 19 97 20 4 21 87 22 90 23 96 24
REMARK SMILES IDX 98 25 88 26 91 27 103 28 95 29 99 30 92 31 102 32 94 33
REMARK SMILES IDX 100 34 93 35 101 36 17 37 18 38 19 39 20 40 21 42 22 43
REMARK SMILES IDX 23 44 84 45 24 46 83 47 25 48 26 49 27 50 77 51 28 52 82 53
REMARK SMILES IDX 76 54 78 55 29 56 81 57 75 58 74 59 30 61 62 62 42 63 61 64
REMARK SMILES IDX 43 65 46 66 60 67 79 68 44 69 45 70 59 72 80 73 47 74 31 75
REMARK SMILES IDX 32 76 40 77 33 78 34 79 38 80 41 81 35 82 36 83 39 84 37 85
REMARK SMILES IDX 63 86 64 87 72 88 65 89 66 90 70 91 73 92 67 93 68 94 71 95
REMARK SMILES IDX 69 96 48 97 49 98 57 99 50 100 51 101 55 102 58 103 52 104
REMARK SMILES IDX 53 105 56 106 54 107
REMARK H PARENT 12 8 19 41 78 60 46 71
REMARK Flexibility Score: inf
ROOT
ATOM      1  C   UNL A   1      32.331  29.915  26.919  1.00  0.00     0.002 C 
ENDROOT
BRANCH   1   2
ATOM      2  C   UNL A   1      32.054  29.233  25.577  1.00  0.00     0.002 C 
BRANCH   2   3
ATOM      3  C   UNL A   1      31.083  29.935  24.626  1.00  0.00     0.021 C 
BRANCH   3   4
ATOM      4  C   UNL A   1      30.672  29.159  23.382  1.00  0.00     0.116 C 
BRANCH   4   5
ATOM      5  N   UNL A   1      29.249  28.902  23.319  1.00  0.00    -0.352 N 
ATOM      6  C   UNL A   1      28.561  27.734  23.523  1.00  0.00     0.251 C 
ATOM      7  O   UNL A   1      27.348  27.705  23.328  1.00  0.00    -0.269 OA
ATOM      8  H   UNL A   1      28.693  29.683  23.097  1.00  0.00     0.163 HD
BRANCH   6   9
ATOM      9  C   UNL A   1      29.257  26.498  23.948  1.00  0.00     0.039 A 
ATOM     10  C   UNL A   1      30.717  24.239  24.858  1.00  0.00     0.052 A 
ATOM     11  C   UNL A   1      30.237  25.215  25.750  1.00  0.00     0.027 A 
ATOM     12  C   UNL A   1      30.418  24.413  23.499  1.00  0.00     0.027 A 
ATOM     13  C   UNL A   1      29.522  26.332  25.304  1.00  0.00     0.016 A 
ATOM     14  C   UNL A   1      29.728  25.546  23.044  1.00  0.00     0.016 A 
BRANCH  10  15
ATOM     15  N   UNL A   1      31.654  23.245  25.285  1.00  0.00    -0.250 N 
ATOM     16  C   UNL A   1      33.935  21.734  27.534  1.00  0.00     0.024 C 
ATOM     17  C   UNL A   1      33.655  22.653  26.337  1.00  0.00     0.071 C 
ATOM     18  C   UNL A   1      32.293  23.277  26.503  1.00  0.00     0.241 C 
ATOM     19  C   UNL A   1      33.537  21.851  25.011  1.00  0.00     0.107 C 
ATOM     20  C   UNL A   1      34.708  23.809  26.168  1.00  0.00     0.066 C 
ATOM     21  O   UNL A   1      31.904  23.731  27.569  1.00  0.00    -0.273 OA
ATOM     22  C   UNL A   1      32.161  22.231  24.498  1.00  0.00     0.238 C 
ATOM     23  C   UNL A   1      34.644  22.306  24.001  1.00  0.00     0.063 C 
ATOM     24  C   UNL A   1      34.376  24.591  24.884  1.00  0.00    -0.036 A 
ATOM     25  C   UNL A   1      36.026  23.095  25.891  1.00  0.00    -0.036 A 
ATOM     26  O   UNL A   1      31.658  21.687  23.522  1.00  0.00    -0.274 OA
ATOM     27  C   UNL A   1      34.370  23.784  23.714  1.00  0.00    -0.036 A 
ATOM     28  C   UNL A   1      35.983  22.257  24.742  1.00  0.00    -0.036 A 
ATOM     29  C   UNL A   1      34.029  25.932  24.806  1.00  0.00     0.005 A 
ATOM     30  C   UNL A   1      37.184  23.232  26.642  1.00  0.00     0.005 A 
ATOM     31  C   UNL A   1      34.033  24.314  22.476  1.00  0.00     0.004 A 
ATOM     32  C   UNL A   1      37.114  21.559  24.350  1.00  0.00     0.004 A 
ATOM     33  C   UNL A   1      33.676  26.461  23.559  1.00  0.00     0.000 A 
ATOM     34  C   UNL A   1      38.316  22.524  26.243  1.00  0.00     0.000 A 
ATOM     35  C   UNL A   1      33.684  25.662  22.405  1.00  0.00     0.000 A 
ATOM     36  C   UNL A   1      38.281  21.696  25.110  1.00  0.00     0.000 A 
ENDBRANCH  10  15
ENDBRANCH   6   9
ENDBRANCH   4   5
ENDBRANCH   3   4
ENDBRANCH   2   3
ENDBRANCH   1   2
BRANCH   1  37
ATOM     37  C   UNL A   1      31.890  31.372  27.060  1.00  0.00     0.021 C 
BRANCH  37  38
ATOM     38  C   UNL A   1      32.997  32.416  27.023  1.00  0.00     0.116 C 
BRANCH  38  39
ATOM     39  N   UNL A   1      32.568  33.734  27.455  1.00  0.00    -0.352 N 
ATOM     40  C   UNL A   1      33.080  34.531  28.453  1.00  0.00     0.251 C 
ATOM     41  H   UNL A   1      31.801  34.109  26.967  1.00  0.00     0.163 HD
ATOM     42  O   UNL A   1      32.529  35.587  28.746  1.00  0.00    -0.269 OA
BRANCH  40  43
ATOM     43  C   UNL A   1      34.271  34.088  29.214  1.00  0.00     0.039 A 
ATOM     44  C   UNL A   1      35.556  34.499  28.851  1.00  0.00     0.014 A 
ATOM     45  C   UNL A   1      34.095  33.213  30.290  1.00  0.00     0.014 A 
ATOM     46  C   UNL A   1      36.665  33.904  29.447  1.00  0.00     0.010 A 
ATOM     47  C   UNL A   1      35.210  32.676  30.940  1.00  0.00     0.010 A 
ATOM     48  C   UNL A   1      36.504  32.974  30.487  1.00  0.00    -0.014 A 
BRANCH  48  49
ATOM     49  C   UNL A   1      37.695  32.298  31.067  1.00  0.00     0.031 A 
ATOM     50  C   UNL A   1      38.143  32.608  32.470  1.00  0.00     0.074 A 
ATOM     51  C   UNL A   1      38.345  31.361  30.349  1.00  0.00     0.049 A 
ATOM     52  N   UNL A   1      39.163  32.128  33.139  1.00  0.00    -0.248 NA
ATOM     53  C   UNL A   1      37.344  33.587  33.223  1.00  0.00     0.031 C 
ATOM     54  C   UNL A   1      37.994  30.952  28.988  1.00  0.00     0.029 A 
ATOM     55  N   UNL A   1      39.419  30.572  30.669  1.00  0.00    -0.354 N 
ATOM     56  C   UNL A   1      39.137  32.757  34.377  1.00  0.00     0.074 A 
ATOM     57  C   UNL A   1      38.017  33.674  34.362  1.00  0.00     0.031 C 
ATOM     58  C   UNL A   1      38.806  29.954  28.609  1.00  0.00     0.029 A 
ATOM     59  C   UNL A   1      39.771  29.694  29.673  1.00  0.00     0.049 A 
ATOM     60  H   UNL A   1      39.893  30.627  31.531  1.00  0.00     0.167 HD
ATOM     61  C   UNL A   1      39.963  32.576  35.435  1.00  0.00     0.037 A 
ATOM     62  C   UNL A   1      40.766  28.790  29.617  1.00  0.00     0.037 A 
ATOM     63  C   UNL A   1      41.063  31.647  35.461  1.00  0.00     0.049 A 
ATOM     64  C   UNL A   1      41.700  28.646  30.785  1.00  0.00     0.074 A 
ATOM     65  C   UNL A   1      41.948  31.386  36.494  1.00  0.00     0.029 A 
ATOM     66  N   UNL A   1      41.426  30.823  34.407  1.00  0.00    -0.354 N 
ATOM     67  N   UNL A   1      41.674  29.258  31.944  1.00  0.00    -0.248 NA
ATOM     68  C   UNL A   1      42.811  27.698  30.631  1.00  0.00     0.031 C 
ATOM     69  C   UNL A   1      42.868  30.429  36.052  1.00  0.00     0.029 A 
ATOM     70  C   UNL A   1      42.532  30.065  34.759  1.00  0.00     0.049 A 
ATOM     71  H   UNL A   1      40.966  30.782  33.538  1.00  0.00     0.167 HD
ATOM     72  C   UNL A   1      42.756  28.766  32.658  1.00  0.00     0.074 A 
ATOM     73  C   UNL A   1      43.406  27.787  31.812  1.00  0.00     0.031 C 
ATOM     74  C   UNL A   1      43.174  29.101  33.902  1.00  0.00     0.037 A 
BRANCH  61  75
ATOM     75  C   UNL A   1      39.717  33.405  36.663  1.00  0.00     0.064 A 
ATOM     76  C   UNL A   1      40.349  34.643  36.850  1.00  0.00     0.173 A 
ATOM     77  C   UNL A   1      38.793  32.985  37.631  1.00  0.00     0.173 A 
ATOM     78  F   UNL A   1      41.249  35.083  35.958  1.00  0.00    -0.203 F 
ATOM     79  C   UNL A   1      40.076  35.423  37.971  1.00  0.00     0.198 A 
ATOM     80  C   UNL A   1      38.505  33.779  38.739  1.00  0.00     0.198 A 
ATOM     81  F   UNL A   1      38.157  31.812  37.496  1.00  0.00    -0.203 F 
ATOM     82  F   UNL A   1      40.716  36.587  38.147  1.00  0.00    -0.200 F 
ATOM     83  C   UNL A   1      39.148  34.995  38.910  1.00  0.00     0.200 A 
ATOM     84  F   UNL A   1      37.600  33.369  39.639  1.00  0.00    -0.200 F 
ATOM     85  F   UNL A   1      38.880  35.752  39.982  1.00  0.00    -0.200 F 
ENDBRANCH  61  75
BRANCH  62  86
ATOM     86  C   UNL A   1      40.922  27.950  28.404  1.00  0.00     0.064 A 
ATOM     87  C   UNL A   1      41.621  28.427  27.287  1.00  0.00     0.173 A 
ATOM     88  C   UNL A   1      40.407  26.646  28.347  1.00  0.00     0.173 A 
ATOM     89  F   UNL A   1      42.112  29.675  27.287  1.00  0.00    -0.203 F 
ATOM     90  C   UNL A   1      41.798  27.632  26.158  1.00  0.00     0.198 A 
ATOM     91  C   UNL A   1      40.607  25.844  27.227  1.00  0.00     0.198 A 
ATOM     92  F   UNL A   1      39.732  26.146  29.391  1.00  0.00    -0.203 F 
ATOM     93  F   UNL A   1      42.449  28.120  25.093  1.00  0.00    -0.200 F 
ATOM     94  C   UNL A   1      41.300  26.337  26.132  1.00  0.00     0.200 A 
ATOM     95  F   UNL A   1      40.137  24.589  27.212  1.00  0.00    -0.200 F 
ATOM     96  F   UNL A   1      41.485  25.567  25.051  1.00  0.00    -0.200 F 
ENDBRANCH  62  86
BRANCH  74  97
ATOM     97  C   UNL A   1      44.393  28.404  34.430  1.00  0.00     0.064 A 
ATOM     98  C   UNL A   1      45.666  28.983  34.328  1.00  0.00     0.173 A 
ATOM     99  C   UNL A   1      44.280  27.170  35.088  1.00  0.00     0.173 A 
ATOM    100  F   UNL A   1      45.824  30.156  33.695  1.00  0.00    -0.203 F 
ATOM    101  C   UNL A   1      46.786  28.345  34.853  1.00  0.00     0.198 A 
ATOM    102  C   UNL A   1      45.399  26.546  35.633  1.00  0.00     0.198 A 
ATOM    103  F   UNL A   1      43.084  26.577  35.215  1.00  0.00    -0.203 F 
ATOM    104  F   UNL A   1      47.997  28.900  34.715  1.00  0.00    -0.200 F 
ATOM    105  C   UNL A   1      46.650  27.132  35.512  1.00  0.00     0.200 A 
ATOM    106  F   UNL A   1      45.267  25.379  36.279  1.00  0.00    -0.200 F 
ATOM    107  F   UNL A   1      47.729  26.523  36.025  1.00  0.00    -0.200 F 
ENDBRANCH  74  97
ENDBRANCH  48  49
ENDBRANCH  40  43
ENDBRANCH  38  39
ENDBRANCH  37  38
ENDBRANCH   1  37
TORSDOF 14
ENDMDL
