MODEL 1
REMARK VINA RESULT:     -12.2      0.000      0.000
REMARK SMILES O=C(NCCCCCCNC(=O)c1cc(SCc2csc(-c3ccsc3)n2)ccn1)c1ccc(-c2c3nc(c(-c4c(F)c(F)c(F)c(F)c4F)c4ccc([nH]4)c(-c4c(F)c(F)c(F)c(F)c4F)c4nc(c(-c5c(F)c(F)c(F)c(F)c5F)c5ccc2[nH]5)C=C4)C=C3)cc1
REMARK SMILES IDX 7 1 6 2 5 3 4 4 3 5 1 6 2 7 31 9 32 10 93 11 33 12 92 13
REMARK SMILES IDX 34 14 35 15 36 16 86 17 37 18 91 19 85 20 87 21 38 22 90 23
REMARK SMILES IDX 84 24 83 25 39 27 71 28 51 29 70 30 52 31 55 32 69 33 88 34
REMARK SMILES IDX 53 35 54 36 68 38 89 39 56 40 40 41 41 42 49 43 42 44 43 45
REMARK SMILES IDX 47 46 50 47 44 48 45 49 48 50 46 51 72 52 73 53 81 54 74 55
REMARK SMILES IDX 75 56 79 57 82 58 76 59 77 60 80 61 78 62 57 63 58 64 66 65
REMARK SMILES IDX 59 66 60 67 64 68 67 69 61 70 62 71 65 72 63 73 8 74 9 75
REMARK SMILES IDX 10 76 11 77 12 79 13 80 14 81 30 82 15 83 29 84 28 85 16 86
REMARK SMILES IDX 17 87 18 88 19 89 27 90 20 91 21 92 22 93 23 94 26 95 24 96
REMARK SMILES IDX 25 97
REMARK H PARENT 3 8 87 26 55 37 10 78
REMARK Flexibility Score: inf
ROOT
ATOM      1  C   UNL A   1      32.531  30.089  27.251  1.00  0.00     0.002 C 
ENDROOT
BRANCH   1   2
ATOM      2  C   UNL A   1      31.501  30.816  26.379  1.00  0.00     0.002 C 
BRANCH   2   3
ATOM      3  C   UNL A   1      31.430  32.325  26.590  1.00  0.00     0.021 C 
BRANCH   3   4
ATOM      4  C   UNL A   1      32.677  32.953  27.190  1.00  0.00     0.116 C 
BRANCH   4   5
ATOM      5  N   UNL A   1      32.441  34.308  27.660  1.00  0.00    -0.352 N 
ATOM      6  O   UNL A   1      32.587  36.063  29.075  1.00  0.00    -0.269 OA
ATOM      7  C   UNL A   1      33.037  34.981  28.698  1.00  0.00     0.251 C 
ATOM      8  H   UNL A   1      31.759  34.816  27.164  1.00  0.00     0.163 HD
BRANCH   7   9
ATOM      9  C   UNL A   1      34.218  34.402  29.376  1.00  0.00     0.039 A 
ATOM     10  C   UNL A   1      34.059  33.579  30.492  1.00  0.00     0.014 A 
ATOM     11  C   UNL A   1      35.498  34.653  28.871  1.00  0.00     0.014 A 
ATOM     12  C   UNL A   1      35.177  33.115  31.172  1.00  0.00     0.010 A 
ATOM     13  C   UNL A   1      36.619  34.103  29.503  1.00  0.00     0.010 A 
ATOM     14  C   UNL A   1      36.468  33.335  30.668  1.00  0.00    -0.014 A 
BRANCH  14  15
ATOM     15  C   UNL A   1      37.616  32.632  31.300  1.00  0.00     0.031 A 
ATOM     16  C   UNL A   1      38.337  31.506  30.614  1.00  0.00     0.074 A 
ATOM     17  C   UNL A   1      38.002  33.035  32.527  1.00  0.00     0.049 A 
ATOM     18  N   UNL A   1      39.329  30.775  31.060  1.00  0.00    -0.248 NA
ATOM     19  C   UNL A   1      37.890  31.142  29.262  1.00  0.00     0.031 C 
ATOM     20  C   UNL A   1      37.364  34.106  33.300  1.00  0.00     0.029 A 
ATOM     21  N   UNL A   1      39.021  32.609  33.341  1.00  0.00    -0.354 N 
ATOM     22  C   UNL A   1      39.607  29.852  30.060  1.00  0.00     0.074 A 
ATOM     23  C   UNL A   1      38.673  30.106  28.983  1.00  0.00     0.031 C 
ATOM     24  C   UNL A   1      38.029  34.283  34.448  1.00  0.00     0.029 A 
ATOM     25  C   UNL A   1      39.080  33.280  34.539  1.00  0.00     0.049 A 
ATOM     26  H   UNL A   1      39.649  31.894  33.092  1.00  0.00     0.167 HD
ATOM     27  C   UNL A   1      40.557  28.885  30.050  1.00  0.00     0.037 A 
ATOM     28  C   UNL A   1      39.861  33.085  35.617  1.00  0.00     0.037 A 
ATOM     29  C   UNL A   1      41.502  28.661  31.118  1.00  0.00     0.049 A 
ATOM     30  C   UNL A   1      40.879  31.982  35.581  1.00  0.00     0.074 A 
ATOM     31  C   UNL A   1      42.546  27.753  31.167  1.00  0.00     0.029 A 
ATOM     32  N   UNL A   1      41.511  29.342  32.327  1.00  0.00    -0.354 N 
ATOM     33  N   UNL A   1      41.167  31.156  34.607  1.00  0.00    -0.248 NA
ATOM     34  C   UNL A   1      41.673  31.777  36.799  1.00  0.00     0.031 C 
ATOM     35  C   UNL A   1      43.142  27.835  32.428  1.00  0.00     0.029 A 
ATOM     36  C   UNL A   1      42.514  28.840  33.144  1.00  0.00     0.049 A 
ATOM     37  H   UNL A   1      40.897  30.072  32.570  1.00  0.00     0.167 HD
ATOM     38  C   UNL A   1      42.182  30.342  35.087  1.00  0.00     0.074 A 
ATOM     39  C   UNL A   1      42.484  30.798  36.428  1.00  0.00     0.031 C 
ATOM     40  C   UNL A   1      42.800  29.302  34.478  1.00  0.00     0.037 A 
BRANCH  27  41
ATOM     41  C   UNL A   1      40.634  27.965  28.866  1.00  0.00     0.064 A 
ATOM     42  C   UNL A   1      39.872  26.791  28.786  1.00  0.00     0.173 A 
ATOM     43  C   UNL A   1      41.393  28.329  27.741  1.00  0.00     0.173 A 
ATOM     44  F   UNL A   1      39.132  26.395  29.833  1.00  0.00    -0.203 F 
ATOM     45  C   UNL A   1      39.868  26.015  27.629  1.00  0.00     0.198 A 
ATOM     46  C   UNL A   1      41.368  27.565  26.576  1.00  0.00     0.198 A 
ATOM     47  F   UNL A   1      42.134  29.448  27.759  1.00  0.00    -0.203 F 
ATOM     48  F   UNL A   1      39.145  24.888  27.581  1.00  0.00    -0.200 F 
ATOM     49  C   UNL A   1      40.605  26.410  26.522  1.00  0.00     0.200 A 
ATOM     50  F   UNL A   1      42.067  27.959  25.503  1.00  0.00    -0.200 F 
ATOM     51  F   UNL A   1      40.580  25.676  25.400  1.00  0.00    -0.200 F 
ENDBRANCH  27  41
BRANCH  28  52
ATOM     52  C   UNL A   1      39.671  33.913  36.837  1.00  0.00     0.064 A 
ATOM     53  C   UNL A   1      38.845  33.484  37.884  1.00  0.00     0.173 A 
ATOM     54  C   UNL A   1      40.293  35.166  36.968  1.00  0.00     0.173 A 
ATOM     55  F   UNL A   1      38.213  32.305  37.799  1.00  0.00    -0.203 F 
ATOM     56  C   UNL A   1      38.621  34.290  38.999  1.00  0.00     0.198 A 
ATOM     57  C   UNL A   1      40.102  35.950  38.101  1.00  0.00     0.198 A 
ATOM     58  F   UNL A   1      41.100  35.621  35.998  1.00  0.00    -0.203 F 
ATOM     59  F   UNL A   1      37.774  33.885  39.955  1.00  0.00    -0.200 F 
ATOM     60  C   UNL A   1      39.255  35.519  39.109  1.00  0.00     0.200 A 
ATOM     61  F   UNL A   1      40.734  37.127  38.213  1.00  0.00    -0.200 F 
ATOM     62  F   UNL A   1      39.038  36.293  40.182  1.00  0.00    -0.200 F 
ENDBRANCH  28  52
BRANCH  40  63
ATOM     63  C   UNL A   1      43.876  28.601  35.255  1.00  0.00     0.064 A 
ATOM     64  C   UNL A   1      45.223  28.981  35.148  1.00  0.00     0.173 A 
ATOM     65  C   UNL A   1      43.556  27.552  36.129  1.00  0.00     0.173 A 
ATOM     66  F   UNL A   1      45.583  29.964  34.309  1.00  0.00    -0.203 F 
ATOM     67  C   UNL A   1      46.213  28.314  35.865  1.00  0.00     0.198 A 
ATOM     68  C   UNL A   1      44.545  26.912  36.871  1.00  0.00     0.198 A 
ATOM     69  F   UNL A   1      42.283  27.154  36.272  1.00  0.00    -0.203 F 
ATOM     70  F   UNL A   1      47.498  28.654  35.701  1.00  0.00    -0.200 F 
ATOM     71  C   UNL A   1      45.872  27.287  36.732  1.00  0.00     0.200 A 
ATOM     72  F   UNL A   1      44.212  25.930  37.719  1.00  0.00    -0.200 F 
ATOM     73  F   UNL A   1      46.825  26.650  37.425  1.00  0.00    -0.200 F 
ENDBRANCH  40  63
ENDBRANCH  14  15
ENDBRANCH   7   9
ENDBRANCH   4   5
ENDBRANCH   3   4
ENDBRANCH   2   3
ENDBRANCH   1   2
BRANCH   1  74
ATOM     74  C   UNL A   1      32.584  28.565  27.086  1.00  0.00     0.021 C 
BRANCH  74  75
ATOM     75  C   UNL A   1      33.819  28.034  26.367  1.00  0.00     0.116 C 
BRANCH  75  76
ATOM     76  N   UNL A   1      34.025  28.657  25.070  1.00  0.00    -0.351 N 
ATOM     77  C   UNL A   1      33.309  28.499  23.902  1.00  0.00     0.269 C 
ATOM     78  H   UNL A   1      34.785  29.282  25.019  1.00  0.00     0.163 HD
ATOM     79  O   UNL A   1      33.685  29.073  22.882  1.00  0.00    -0.268 OA
BRANCH  77  80
ATOM     80  C   UNL A   1      32.081  27.653  23.894  1.00  0.00     0.129 A 
ATOM     81  C   UNL A   1      32.198  26.271  23.787  1.00  0.00     0.049 A 
ATOM     82  N   UNL A   1      30.901  28.315  23.943  1.00  0.00    -0.251 NA
ATOM     83  C   UNL A   1      31.039  25.523  23.627  1.00  0.00     0.011 A 
ATOM     84  C   UNL A   1      29.790  27.562  23.853  1.00  0.00     0.113 A 
ATOM     85  C   UNL A   1      29.809  26.187  23.682  1.00  0.00     0.035 A 
BRANCH  83  86
ATOM     86  S   UNL A   1      30.977  23.772  23.285  1.00  0.00    -0.120 SA
BRANCH  86  87
ATOM     87  C   UNL A   1      31.459  22.965  24.839  1.00  0.00     0.132 C 
BRANCH  87  88
ATOM     88  C   UNL A   1      32.564  21.951  24.759  1.00  0.00     0.062 A 
ATOM     89  C   UNL A   1      33.908  22.255  24.876  1.00  0.00     0.091 A 
ATOM     90  N   UNL A   1      32.302  20.586  24.653  1.00  0.00    -0.240 NA
ATOM     91  S   UNL A   1      34.824  20.828  25.068  1.00  0.00    -0.122 S 
ATOM     92  C   UNL A   1      33.407  19.885  24.817  1.00  0.00     0.124 A 
BRANCH  92  93
ATOM     93  C   UNL A   1      33.405  18.379  24.804  1.00  0.00     0.021 A 
ATOM     94  C   UNL A   1      34.146  17.579  23.879  1.00  0.00     0.023 A 
ATOM     95  C   UNL A   1      32.675  17.595  25.677  1.00  0.00     0.076 A 
ATOM     96  C   UNL A   1      33.945  16.229  24.073  1.00  0.00     0.065 A 
ATOM     97  S   UNL A   1      32.844  15.924  25.343  1.00  0.00    -0.152 S 
ENDBRANCH  92  93
ENDBRANCH  87  88
ENDBRANCH  86  87
ENDBRANCH  83  86
ENDBRANCH  77  80
ENDBRANCH  75  76
ENDBRANCH  74  75
ENDBRANCH   1  74
TORSDOF 17
ENDMDL
MODEL 2
REMARK VINA RESULT:     -11.8      1.103      7.246
REMARK SMILES O=C(NCCCCCCNC(=O)c1cc(SCc2csc(-c3ccsc3)n2)ccn1)c1ccc(-c2c3nc(c(-c4c(F)c(F)c(F)c(F)c4F)c4ccc([nH]4)c(-c4c(F)c(F)c(F)c(F)c4F)c4nc(c(-c5c(F)c(F)c(F)c(F)c5F)c5ccc2[nH]5)C=C4)C=C3)cc1
REMARK SMILES IDX 7 1 6 2 5 3 4 4 3 5 1 6 2 7 31 9 32 10 93 11 33 12 92 13
REMARK SMILES IDX 34 14 35 15 36 16 86 17 37 18 91 19 85 20 87 21 38 22 90 23
REMARK SMILES IDX 84 24 83 25 39 27 71 28 51 29 70 30 52 31 55 32 69 33 88 34
REMARK SMILES IDX 53 35 54 36 68 38 89 39 56 40 40 41 41 42 49 43 42 44 43 45
REMARK SMILES IDX 47 46 50 47 44 48 45 49 48 50 46 51 72 52 73 53 81 54 74 55
REMARK SMILES IDX 75 56 79 57 82 58 76 59 77 60 80 61 78 62 57 63 58 64 66 65
REMARK SMILES IDX 59 66 60 67 64 68 67 69 61 70 62 71 65 72 63 73 8 74 9 75
REMARK SMILES IDX 10 76 11 77 12 79 13 80 14 81 30 82 15 83 29 84 28 85 16 86
REMARK SMILES IDX 17 87 18 88 19 89 27 90 20 91 21 92 22 93 23 94 26 95 24 96
REMARK SMILES IDX 25 97
REMARK H PARENT 3 8 87 26 55 37 10 78
REMARK Flexibility Score: inf
ROOT
ATOM      1  C   UNL A   1      32.784  30.200  26.262  1.00  0.00     0.002 C 
ENDROOT
BRANCH   1   2
ATOM      2  C   UNL A   1      31.379  30.801  26.154  1.00  0.00     0.002 C 
BRANCH   2   3
ATOM      3  C   UNL A   1      31.268  32.260  26.585  1.00  0.00     0.021 C 
BRANCH   3   4
ATOM      4  C   UNL A   1      32.527  32.851  27.198  1.00  0.00     0.116 C 
BRANCH   4   5
ATOM      5  N   UNL A   1      32.357  34.245  27.571  1.00  0.00    -0.352 N 
ATOM      6  O   UNL A   1      32.622  36.095  28.839  1.00  0.00    -0.269 OA
ATOM      7  C   UNL A   1      33.017  34.972  28.530  1.00  0.00     0.251 C 
ATOM      8  H   UNL A   1      31.674  34.739  27.063  1.00  0.00     0.163 HD
BRANCH   7   9
ATOM      9  C   UNL A   1      34.204  34.402  29.205  1.00  0.00     0.039 A 
ATOM     10  C   UNL A   1      34.067  33.701  30.405  1.00  0.00     0.014 A 
ATOM     11  C   UNL A   1      35.466  34.535  28.617  1.00  0.00     0.014 A 
ATOM     12  C   UNL A   1      35.195  33.248  31.074  1.00  0.00     0.010 A 
ATOM     13  C   UNL A   1      36.593  33.992  29.247  1.00  0.00     0.010 A 
ATOM     14  C   UNL A   1      36.467  33.351  30.489  1.00  0.00    -0.014 A 
BRANCH  14  15
ATOM     15  C   UNL A   1      37.613  32.655  31.133  1.00  0.00     0.031 A 
ATOM     16  C   UNL A   1      38.214  33.132  32.424  1.00  0.00     0.074 A 
ATOM     17  C   UNL A   1      38.110  31.562  30.518  1.00  0.00     0.049 A 
ATOM     18  N   UNL A   1      39.240  32.648  33.081  1.00  0.00    -0.248 NA
ATOM     19  C   UNL A   1      37.599  34.307  33.061  1.00  0.00     0.031 C 
ATOM     20  C   UNL A   1      37.620  31.015  29.248  1.00  0.00     0.029 A 
ATOM     21  N   UNL A   1      39.125  30.709  30.870  1.00  0.00    -0.354 N 
ATOM     22  C   UNL A   1      39.409  33.469  34.189  1.00  0.00     0.074 A 
ATOM     23  C   UNL A   1      38.387  34.491  34.114  1.00  0.00     0.031 C 
ATOM     24  C   UNL A   1      38.299  29.900  28.952  1.00  0.00     0.029 A 
ATOM     25  C   UNL A   1      39.334  29.703  29.957  1.00  0.00     0.049 A 
ATOM     26  H   UNL A   1      39.652  30.806  31.695  1.00  0.00     0.167 HD
ATOM     27  C   UNL A   1      40.337  33.369  35.172  1.00  0.00     0.037 A 
ATOM     28  C   UNL A   1      40.283  28.751  29.903  1.00  0.00     0.037 A 
ATOM     29  C   UNL A   1      41.333  32.328  35.250  1.00  0.00     0.049 A 
ATOM     30  C   UNL A   1      41.313  28.694  30.993  1.00  0.00     0.074 A 
ATOM     31  C   UNL A   1      42.268  32.105  36.247  1.00  0.00     0.029 A 
ATOM     32  N   UNL A   1      41.532  31.345  34.292  1.00  0.00    -0.354 N 
ATOM     33  N   UNL A   1      41.425  29.441  32.063  1.00  0.00    -0.248 NA
ATOM     34  C   UNL A   1      42.356  27.668  30.863  1.00  0.00     0.031 C 
ATOM     35  C   UNL A   1      43.075  31.032  35.860  1.00  0.00     0.029 A 
ATOM     36  C   UNL A   1      42.604  30.542  34.653  1.00  0.00     0.049 A 
ATOM     37  H   UNL A   1      40.993  31.234  33.475  1.00  0.00     0.167 HD
ATOM     38  C   UNL A   1      42.540  28.970  32.739  1.00  0.00     0.074 A 
ATOM     39  C   UNL A   1      43.048  27.849  31.977  1.00  0.00     0.031 C 
ATOM     40  C   UNL A   1      43.101  29.432  33.883  1.00  0.00     0.037 A 
BRANCH  27  41
ATOM     41  C   UNL A   1      40.355  34.415  36.251  1.00  0.00     0.064 A 
ATOM     42  C   UNL A   1      39.576  34.298  37.411  1.00  0.00     0.173 A 
ATOM     43  C   UNL A   1      41.257  35.489  36.174  1.00  0.00     0.173 A 
ATOM     44  F   UNL A   1      38.696  33.295  37.534  1.00  0.00    -0.203 F 
ATOM     45  C   UNL A   1      39.698  35.218  38.451  1.00  0.00     0.198 A 
ATOM     46  C   UNL A   1      41.395  36.391  37.225  1.00  0.00     0.198 A 
ATOM     47  F   UNL A   1      42.034  35.643  35.090  1.00  0.00    -0.203 F 
ATOM     48  F   UNL A   1      38.930  35.097  39.543  1.00  0.00    -0.200 F 
ATOM     49  C   UNL A   1      40.615  36.255  38.362  1.00  0.00     0.200 A 
ATOM     50  F   UNL A   1      42.294  37.381  37.144  1.00  0.00    -0.200 F 
ATOM     51  F   UNL A   1      40.749  37.123  39.375  1.00  0.00    -0.200 F 
ENDBRANCH  27  41
BRANCH  28  52
ATOM     52  C   UNL A   1      40.335  27.814  28.749  1.00  0.00     0.064 A 
ATOM     53  C   UNL A   1      41.057  28.129  27.590  1.00  0.00     0.173 A 
ATOM     54  C   UNL A   1      39.641  26.593  28.772  1.00  0.00     0.173 A 
ATOM     55  F   UNL A   1      41.722  29.291  27.510  1.00  0.00    -0.203 F 
ATOM     56  C   UNL A   1      41.055  27.276  26.488  1.00  0.00     0.198 A 
ATOM     57  C   UNL A   1      39.674  25.723  27.687  1.00  0.00     0.198 A 
ATOM     58  F   UNL A   1      38.940  26.239  29.859  1.00  0.00    -0.203 F 
ATOM     59  F   UNL A   1      41.699  27.633  25.368  1.00  0.00    -0.200 F 
ATOM     60  C   UNL A   1      40.368  26.072  26.539  1.00  0.00     0.200 A 
ATOM     61  F   UNL A   1      39.028  24.552  27.750  1.00  0.00    -0.200 F 
ATOM     62  F   UNL A   1      40.367  25.254  25.478  1.00  0.00    -0.200 F 
ENDBRANCH  28  52
BRANCH  40  63
ATOM     63  C   UNL A   1      44.318  28.710  34.383  1.00  0.00     0.064 A 
ATOM     64  C   UNL A   1      45.612  29.131  34.042  1.00  0.00     0.173 A 
ATOM     65  C   UNL A   1      44.189  27.597  35.227  1.00  0.00     0.173 A 
ATOM     66  F   UNL A   1      45.787  30.177  33.220  1.00  0.00    -0.203 F 
ATOM     67  C   UNL A   1      46.732  28.445  34.503  1.00  0.00     0.198 A 
ATOM     68  C   UNL A   1      45.313  26.935  35.714  1.00  0.00     0.198 A 
ATOM     69  F   UNL A   1      42.974  27.156  35.587  1.00  0.00    -0.203 F 
ATOM     70  F   UNL A   1      47.956  28.829  34.115  1.00  0.00    -0.200 F 
ATOM     71  C   UNL A   1      46.581  27.353  35.345  1.00  0.00     0.200 A 
ATOM     72  F   UNL A   1      45.165  25.890  36.540  1.00  0.00    -0.200 F 
ATOM     73  F   UNL A   1      47.661  26.697  35.792  1.00  0.00    -0.200 F 
ENDBRANCH  40  63
ENDBRANCH  14  15
ENDBRANCH   7   9
ENDBRANCH   4   5
ENDBRANCH   3   4
ENDBRANCH   2   3
ENDBRANCH   1   2
BRANCH   1  74
ATOM     74  C   UNL A   1      33.011  28.895  25.489  1.00  0.00     0.021 C 
BRANCH  74  75
ATOM     75  C   UNL A   1      33.224  29.059  23.989  1.00  0.00     0.116 C 
BRANCH  75  76
ATOM     76  N   UNL A   1      31.984  29.295  23.268  1.00  0.00    -0.351 N 
ATOM     77  C   UNL A   1      31.145  28.390  22.652  1.00  0.00     0.269 C 
ATOM     78  H   UNL A   1      31.703  30.238  23.213  1.00  0.00     0.163 HD
ATOM     79  O   UNL A   1      30.166  28.800  22.033  1.00  0.00    -0.268 OA
BRANCH  77  80
ATOM     80  C   UNL A   1      31.424  26.929  22.760  1.00  0.00     0.129 A 
ATOM     81  C   UNL A   1      30.892  26.204  23.821  1.00  0.00     0.049 A 
ATOM     82  N   UNL A   1      32.241  26.407  21.815  1.00  0.00    -0.251 NA
ATOM     83  C   UNL A   1      31.293  24.883  23.982  1.00  0.00     0.011 A 
ATOM     84  C   UNL A   1      32.563  25.108  21.955  1.00  0.00     0.113 A 
ATOM     85  C   UNL A   1      32.131  24.323  23.012  1.00  0.00     0.035 A 
BRANCH  83  86
ATOM     86  S   UNL A   1      30.883  23.840  25.371  1.00  0.00    -0.120 SA
BRANCH  86  87
ATOM     87  C   UNL A   1      32.437  23.632  26.287  1.00  0.00     0.132 C 
BRANCH  87  88
ATOM     88  C   UNL A   1      33.389  22.591  25.772  1.00  0.00     0.062 A 
ATOM     89  C   UNL A   1      34.757  22.622  25.973  1.00  0.00     0.091 A 
ATOM     90  N   UNL A   1      32.941  21.443  25.122  1.00  0.00    -0.240 NA
ATOM     91  S   UNL A   1      35.454  21.125  25.541  1.00  0.00    -0.122 S 
ATOM     92  C   UNL A   1      33.929  20.584  24.959  1.00  0.00     0.124 A 
BRANCH  92  93
ATOM     93  C   UNL A   1      33.713  19.233  24.329  1.00  0.00     0.021 A 
ATOM     94  C   UNL A   1      32.579  18.885  23.531  1.00  0.00     0.023 A 
ATOM     95  C   UNL A   1      34.582  18.167  24.460  1.00  0.00     0.076 A 
ATOM     96  C   UNL A   1      32.620  17.578  23.099  1.00  0.00     0.065 A 
ATOM     97  S   UNL A   1      34.003  16.758  23.677  1.00  0.00    -0.152 S 
ENDBRANCH  92  93
ENDBRANCH  87  88
ENDBRANCH  86  87
ENDBRANCH  83  86
ENDBRANCH  77  80
ENDBRANCH  75  76
ENDBRANCH  74  75
ENDBRANCH   1  74
TORSDOF 17
ENDMDL
MODEL 3
REMARK VINA RESULT:     -11.8      1.972      2.991
REMARK SMILES O=C(NCCCCCCNC(=O)c1cc(SCc2csc(-c3ccsc3)n2)ccn1)c1ccc(-c2c3nc(c(-c4c(F)c(F)c(F)c(F)c4F)c4ccc([nH]4)c(-c4c(F)c(F)c(F)c(F)c4F)c4nc(c(-c5c(F)c(F)c(F)c(F)c5F)c5ccc2[nH]5)C=C4)C=C3)cc1
REMARK SMILES IDX 7 1 6 2 5 3 4 4 3 5 1 6 2 7 31 9 32 10 93 11 33 12 92 13
REMARK SMILES IDX 34 14 35 15 36 16 86 17 37 18 91 19 85 20 87 21 38 22 90 23
REMARK SMILES IDX 84 24 83 25 39 27 71 28 51 29 70 30 52 31 55 32 69 33 88 34
REMARK SMILES IDX 53 35 54 36 68 38 89 39 56 40 40 41 41 42 49 43 42 44 43 45
REMARK SMILES IDX 47 46 50 47 44 48 45 49 48 50 46 51 72 52 73 53 81 54 74 55
REMARK SMILES IDX 75 56 79 57 82 58 76 59 77 60 80 61 78 62 57 63 58 64 66 65
REMARK SMILES IDX 59 66 60 67 64 68 67 69 61 70 62 71 65 72 63 73 8 74 9 75
REMARK SMILES IDX 10 76 11 77 12 79 13 80 14 81 30 82 15 83 29 84 28 85 16 86
REMARK SMILES IDX 17 87 18 88 19 89 27 90 20 91 21 92 22 93 23 94 26 95 24 96
REMARK SMILES IDX 25 97
REMARK H PARENT 3 8 87 26 55 37 10 78
REMARK Flexibility Score: inf
ROOT
ATOM      1  C   UNL A   1      30.775  29.141  24.076  1.00  0.00     0.002 C 
ENDROOT
BRANCH   1   2
ATOM      2  C   UNL A   1      31.156  28.103  25.137  1.00  0.00     0.002 C 
BRANCH   2   3
ATOM      3  C   UNL A   1      31.871  28.668  26.361  1.00  0.00     0.021 C 
BRANCH   3   4
ATOM      4  C   UNL A   1      33.054  29.572  26.059  1.00  0.00     0.116 C 
BRANCH   4   5
ATOM      5  N   UNL A   1      32.786  30.962  26.389  1.00  0.00    -0.352 N 
ATOM      6  O   UNL A   1      32.948  32.875  27.579  1.00  0.00    -0.269 OA
ATOM      7  C   UNL A   1      33.422  31.776  27.293  1.00  0.00     0.251 C 
ATOM      8  H   UNL A   1      32.044  31.379  25.894  1.00  0.00     0.163 HD
BRANCH   7   9
ATOM      9  C   UNL A   1      34.678  31.330  27.936  1.00  0.00     0.039 A 
ATOM     10  C   UNL A   1      35.732  32.226  28.123  1.00  0.00     0.014 A 
ATOM     11  C   UNL A   1      34.793  30.013  28.391  1.00  0.00     0.014 A 
ATOM     12  C   UNL A   1      36.937  31.775  28.645  1.00  0.00     0.010 A 
ATOM     13  C   UNL A   1      35.977  29.586  29.006  1.00  0.00     0.010 A 
ATOM     14  C   UNL A   1      37.065  30.464  29.130  1.00  0.00    -0.014 A 
BRANCH  14  15
ATOM     15  C   UNL A   1      38.291  30.092  29.884  1.00  0.00     0.031 A 
ATOM     16  C   UNL A   1      39.326  29.163  29.316  1.00  0.00     0.074 A 
ATOM     17  C   UNL A   1      38.458  30.620  31.114  1.00  0.00     0.049 A 
ATOM     18  N   UNL A   1      40.425  28.719  29.874  1.00  0.00    -0.248 NA
ATOM     19  C   UNL A   1      39.102  28.654  27.954  1.00  0.00     0.031 C 
ATOM     20  C   UNL A   1      37.509  31.521  31.777  1.00  0.00     0.029 A 
ATOM     21  N   UNL A   1      39.475  30.490  32.024  1.00  0.00    -0.354 N 
ATOM     22  C   UNL A   1      41.009  27.863  28.949  1.00  0.00     0.074 A 
ATOM     23  C   UNL A   1      40.138  27.839  27.792  1.00  0.00     0.031 C 
ATOM     24  C   UNL A   1      38.007  31.896  32.962  1.00  0.00     0.029 A 
ATOM     25  C   UNL A   1      39.262  31.193  33.186  1.00  0.00     0.049 A 
ATOM     26  H   UNL A   1      40.280  29.947  31.862  1.00  0.00     0.167 HD
ATOM     27  C   UNL A   1      42.166  27.166  29.063  1.00  0.00     0.037 A 
ATOM     28  C   UNL A   1      39.970  31.235  34.329  1.00  0.00     0.037 A 
ATOM     29  C   UNL A   1      43.040  27.221  30.210  1.00  0.00     0.049 A 
ATOM     30  C   UNL A   1      41.229  30.422  34.429  1.00  0.00     0.074 A 
ATOM     31  C   UNL A   1      44.268  26.606  30.386  1.00  0.00     0.029 A 
ATOM     32  N   UNL A   1      42.775  27.921  31.378  1.00  0.00    -0.354 N 
ATOM     33  N   UNL A   1      41.796  29.664  33.525  1.00  0.00    -0.248 NA
ATOM     34  C   UNL A   1      41.939  30.463  35.714  1.00  0.00     0.031 C 
ATOM     35  C   UNL A   1      44.713  26.877  31.683  1.00  0.00     0.029 A 
ATOM     36  C   UNL A   1      43.796  27.714  32.295  1.00  0.00     0.049 A 
ATOM     37  H   UNL A   1      41.981  28.481  31.534  1.00  0.00     0.167 HD
ATOM     38  C   UNL A   1      42.935  29.147  34.124  1.00  0.00     0.074 A 
ATOM     39  C   UNL A   1      42.997  29.708  35.457  1.00  0.00     0.031 C 
ATOM     40  C   UNL A   1      43.842  28.276  33.620  1.00  0.00     0.037 A 
BRANCH  27  41
ATOM     41  C   UNL A   1      42.571  26.257  27.938  1.00  0.00     0.064 A 
ATOM     42  C   UNL A   1      42.008  24.983  27.773  1.00  0.00     0.173 A 
ATOM     43  C   UNL A   1      43.448  26.718  26.943  1.00  0.00     0.173 A 
ATOM     44  F   UNL A   1      41.167  24.493  28.696  1.00  0.00    -0.203 F 
ATOM     45  C   UNL A   1      42.309  24.205  26.657  1.00  0.00     0.198 A 
ATOM     46  C   UNL A   1      43.727  25.949  25.815  1.00  0.00     0.198 A 
ATOM     47  F   UNL A   1      44.008  27.933  27.045  1.00  0.00    -0.203 F 
ATOM     48  F   UNL A   1      41.772  22.984  26.528  1.00  0.00    -0.200 F 
ATOM     49  C   UNL A   1      43.158  24.694  25.674  1.00  0.00     0.200 A 
ATOM     50  F   UNL A   1      44.534  26.431  24.859  1.00  0.00    -0.200 F 
ATOM     51  F   UNL A   1      43.426  23.955  24.588  1.00  0.00    -0.200 F 
ENDBRANCH  27  41
BRANCH  28  52
ATOM     52  C   UNL A   1      39.476  32.028  35.485  1.00  0.00     0.064 A 
ATOM     53  C   UNL A   1      39.912  33.341  35.706  1.00  0.00     0.173 A 
ATOM     54  C   UNL A   1      38.572  31.477  36.409  1.00  0.00     0.173 A 
ATOM     55  F   UNL A   1      40.789  33.905  34.863  1.00  0.00    -0.203 F 
ATOM     56  C   UNL A   1      39.492  34.059  36.824  1.00  0.00     0.198 A 
ATOM     57  C   UNL A   1      38.121  32.212  37.502  1.00  0.00     0.198 A 
ATOM     58  F   UNL A   1      38.116  30.227  36.242  1.00  0.00    -0.203 F 
ATOM     59  F   UNL A   1      39.978  35.288  37.046  1.00  0.00    -0.200 F 
ATOM     60  C   UNL A   1      38.593  33.496  37.717  1.00  0.00     0.200 A 
ATOM     61  F   UNL A   1      37.235  31.671  38.349  1.00  0.00    -0.200 F 
ATOM     62  F   UNL A   1      38.191  34.189  38.792  1.00  0.00    -0.200 F 
ENDBRANCH  28  52
BRANCH  40  63
ATOM     63  C   UNL A   1      44.986  27.894  34.512  1.00  0.00     0.064 A 
ATOM     64  C   UNL A   1      46.171  28.645  34.548  1.00  0.00     0.173 A 
ATOM     65  C   UNL A   1      44.891  26.776  35.354  1.00  0.00     0.173 A 
ATOM     66  F   UNL A   1      46.319  29.711  33.747  1.00  0.00    -0.203 F 
ATOM     67  C   UNL A   1      47.229  28.273  35.372  1.00  0.00     0.198 A 
ATOM     68  C   UNL A   1      45.938  26.427  36.202  1.00  0.00     0.198 A 
ATOM     69  F   UNL A   1      43.778  26.026  35.362  1.00  0.00    -0.203 F 
ATOM     70  F   UNL A   1      48.373  28.970  35.345  1.00  0.00    -0.200 F 
ATOM     71  C   UNL A   1      47.109  27.169  36.204  1.00  0.00     0.200 A 
ATOM     72  F   UNL A   1      45.814  25.370  37.016  1.00  0.00    -0.200 F 
ATOM     73  F   UNL A   1      48.127  26.815  37.000  1.00  0.00    -0.200 F 
ENDBRANCH  40  63
ENDBRANCH  14  15
ENDBRANCH   7   9
ENDBRANCH   4   5
ENDBRANCH   3   4
ENDBRANCH   2   3
ENDBRANCH   1   2
BRANCH   1  74
ATOM     74  C   UNL A   1      31.394  28.932  22.689  1.00  0.00     0.021 C 
BRANCH  74  75
ATOM     75  C   UNL A   1      32.827  28.411  22.690  1.00  0.00     0.116 C 
BRANCH  75  76
ATOM     76  N   UNL A   1      33.081  27.465  21.617  1.00  0.00    -0.351 N 
ATOM     77  C   UNL A   1      32.959  26.091  21.615  1.00  0.00     0.269 C 
ATOM     78  H   UNL A   1      33.384  27.863  20.768  1.00  0.00     0.163 HD
ATOM     79  O   UNL A   1      33.287  25.458  20.614  1.00  0.00    -0.268 OA
BRANCH  77  80
ATOM     80  C   UNL A   1      32.413  25.394  22.815  1.00  0.00     0.129 A 
ATOM     81  C   UNL A   1      33.208  25.251  23.948  1.00  0.00     0.049 A 
ATOM     82  N   UNL A   1      31.162  24.893  22.696  1.00  0.00    -0.251 NA
ATOM     83  C   UNL A   1      32.732  24.467  24.991  1.00  0.00     0.011 A 
ATOM     84  C   UNL A   1      30.696  24.193  23.746  1.00  0.00     0.113 A 
ATOM     85  C   UNL A   1      31.438  23.945  24.890  1.00  0.00     0.035 A 
BRANCH  83  86
ATOM     86  S   UNL A   1      33.662  24.000  26.442  1.00  0.00    -0.120 SA
BRANCH  86  87
ATOM     87  C   UNL A   1      35.355  23.710  25.851  1.00  0.00     0.132 C 
BRANCH  87  88
ATOM     88  C   UNL A   1      35.658  22.339  25.319  1.00  0.00     0.062 A 
ATOM     89  C   UNL A   1      36.936  21.848  25.118  1.00  0.00     0.091 A 
ATOM     90  N   UNL A   1      34.652  21.406  25.075  1.00  0.00    -0.240 NA
ATOM     91  S   UNL A   1      36.886  20.166  24.831  1.00  0.00    -0.122 S 
ATOM     92  C   UNL A   1      35.167  20.218  24.825  1.00  0.00     0.124 A 
BRANCH  92  93
ATOM     93  C   UNL A   1      34.301  19.010  24.578  1.00  0.00     0.021 A 
ATOM     94  C   UNL A   1      32.878  19.049  24.456  1.00  0.00     0.023 A 
ATOM     95  C   UNL A   1      34.783  17.722  24.453  1.00  0.00     0.076 A 
ATOM     96  C   UNL A   1      32.333  17.799  24.256  1.00  0.00     0.065 A 
ATOM     97  S   UNL A   1      33.526  16.577  24.247  1.00  0.00    -0.152 S 
ENDBRANCH  92  93
ENDBRANCH  87  88
ENDBRANCH  86  87
ENDBRANCH  83  86
ENDBRANCH  77  80
ENDBRANCH  75  76
ENDBRANCH  74  75
ENDBRANCH   1  74
TORSDOF 17
ENDMDL
