MODEL 1
REMARK VINA RESULT:     -11.2      0.000      0.000
REMARK SMILES COc1cnc(SCC(=O)NCCCCCCNC(=O)c2ccc(-c3c4nc(c(-c5c(F)c(F)c(F)c(F)c5F)c5ccc([nH]5)c(-c5c(F)c(F)c(F)c(F)c5F)c5nc(c(-c6c(F)c(F)c(F)c(F)c6F)c6ccc3[nH]6)C=C5)C=C4)cc2)[nH]c1=O
REMARK SMILES IDX 14 1 13 2 12 3 11 4 9 5 10 6 8 8 7 9 6 10 3 11 4 12 85 13
REMARK SMILES IDX 5 14 84 15 86 16 2 18 1 19 15 20 16 21 17 22 18 23 19 24
REMARK SMILES IDX 20 26 21 27 22 28 83 29 23 30 82 31 24 32 25 33 26 34 76 35
REMARK SMILES IDX 27 36 81 37 75 38 77 39 28 40 80 41 74 42 73 43 29 45 61 46
REMARK SMILES IDX 41 47 60 48 42 49 45 50 59 51 78 52 43 53 44 54 58 56 79 57
REMARK SMILES IDX 46 58 30 59 31 60 39 61 32 62 33 63 37 64 40 65 34 66 35 67
REMARK SMILES IDX 38 68 36 69 62 70 63 71 71 72 64 73 65 74 69 75 72 76 66 77
REMARK SMILES IDX 67 78 70 79 68 80 47 81 48 82 56 83 49 84 50 85 54 86 57 87
REMARK SMILES IDX 51 88 52 89 55 90 53 91
REMARK H PARENT 11 7 84 17 18 25 77 44 45 55
REMARK Flexibility Score: inf
ROOT
ATOM      1  C   UNL A   1      37.819  22.133  25.349  1.00  0.00     0.002 C 
ENDROOT
BRANCH   1   2
ATOM      2  C   UNL A   1      37.025  23.326  24.798  1.00  0.00     0.021 C 
BRANCH   2   3
ATOM      3  C   UNL A   1      35.889  23.797  25.708  1.00  0.00     0.116 C 
BRANCH   3   4
ATOM      4  N   UNL A   1      34.714  24.137  24.931  1.00  0.00    -0.355 N 
ATOM      5  C   UNL A   1      33.777  23.341  24.344  1.00  0.00     0.230 C 
ATOM      6  O   UNL A   1      32.856  23.905  23.747  1.00  0.00    -0.274 OA
ATOM      7  H   UNL A   1      34.568  25.103  24.808  1.00  0.00     0.163 HD
BRANCH   5   8
ATOM      8  C   UNL A   1      33.782  21.835  24.543  1.00  0.00     0.178 C 
BRANCH   8   9
ATOM      9  S   UNL A   1      32.189  21.011  24.291  1.00  0.00    -0.078 SA
BRANCH   9  10
ATOM     10  C   UNL A   1      32.585  19.351  24.564  1.00  0.00     0.168 A 
ATOM     11  C   UNL A   1      33.297  16.717  24.703  1.00  0.00     0.202 A 
ATOM     12  C   UNL A   1      32.781  17.421  25.721  1.00  0.00     0.166 A 
ATOM     13  C   UNL A   1      33.460  17.454  23.414  1.00  0.00     0.293 A 
ATOM     14  N   UNL A   1      32.434  18.749  25.691  1.00  0.00    -0.229 NA
ATOM     15  N   UNL A   1      33.080  18.764  23.444  1.00  0.00    -0.298 N 
ATOM     16  O   UNL A   1      33.892  16.943  22.384  1.00  0.00    -0.265 OA
ATOM     17  H   UNL A   1      33.168  19.303  22.625  1.00  0.00     0.172 HD
BRANCH  11  18
ATOM     18  O   UNL A   1      33.588  15.373  24.846  1.00  0.00    -0.490 OA
ATOM     19  C   UNL A   1      32.630  14.669  25.632  1.00  0.00     0.278 C 
ENDBRANCH  11  18
ENDBRANCH   9  10
ENDBRANCH   8   9
ENDBRANCH   5   8
ENDBRANCH   3   4
ENDBRANCH   2   3
ENDBRANCH   1   2
BRANCH   1  20
ATOM     20  C   UNL A   1      37.386  20.759  24.825  1.00  0.00     0.002 C 
BRANCH  20  21
ATOM     21  C   UNL A   1      38.420  19.644  24.992  1.00  0.00     0.021 C 
BRANCH  21  22
ATOM     22  C   UNL A   1      39.482  19.914  26.053  1.00  0.00     0.116 C 
BRANCH  22  23
ATOM     23  N   UNL A   1      40.558  18.936  26.019  1.00  0.00    -0.352 N 
ATOM     24  C   UNL A   1      41.914  19.133  26.074  1.00  0.00     0.251 C 
ATOM     25  H   UNL A   1      40.272  17.996  25.948  1.00  0.00     0.163 HD
ATOM     26  O   UNL A   1      42.685  18.199  25.855  1.00  0.00    -0.269 OA
BRANCH  24  27
ATOM     27  C   UNL A   1      42.456  20.476  26.369  1.00  0.00     0.039 A 
ATOM     28  C   UNL A   1      42.841  21.299  25.306  1.00  0.00     0.014 A 
ATOM     29  C   UNL A   1      42.597  20.921  27.687  1.00  0.00     0.014 A 
ATOM     30  C   UNL A   1      43.309  22.590  25.564  1.00  0.00     0.010 A 
ATOM     31  C   UNL A   1      42.992  22.232  27.938  1.00  0.00     0.010 A 
ATOM     32  C   UNL A   1      43.358  23.079  26.880  1.00  0.00    -0.014 A 
BRANCH  32  33
ATOM     33  C   UNL A   1      43.796  24.468  27.168  1.00  0.00     0.031 A 
ATOM     34  C   UNL A   1      42.807  25.482  27.672  1.00  0.00     0.074 A 
ATOM     35  C   UNL A   1      45.069  24.832  26.923  1.00  0.00     0.049 A 
ATOM     36  N   UNL A   1      42.978  26.758  27.915  1.00  0.00    -0.248 NA
ATOM     37  C   UNL A   1      41.435  25.006  27.908  1.00  0.00     0.031 C 
ATOM     38  C   UNL A   1      46.114  23.952  26.396  1.00  0.00     0.029 A 
ATOM     39  N   UNL A   1      45.700  26.042  27.075  1.00  0.00    -0.354 N 
ATOM     40  C   UNL A   1      41.738  27.235  28.322  1.00  0.00     0.074 A 
ATOM     41  C   UNL A   1      40.811  26.127  28.236  1.00  0.00     0.031 C 
ATOM     42  C   UNL A   1      47.260  24.643  26.291  1.00  0.00     0.029 A 
ATOM     43  C   UNL A   1      47.023  26.023  26.704  1.00  0.00     0.049 A 
ATOM     44  H   UNL A   1      45.248  26.846  27.417  1.00  0.00     0.167 HD
ATOM     45  C   UNL A   1      41.410  28.475  28.753  1.00  0.00     0.037 A 
ATOM     46  C   UNL A   1      47.939  27.012  26.691  1.00  0.00     0.037 A 
ATOM     47  C   UNL A   1      42.339  29.570  28.855  1.00  0.00     0.049 A 
ATOM     48  C   UNL A   1      47.542  28.387  27.156  1.00  0.00     0.074 A 
ATOM     49  C   UNL A   1      42.113  30.854  29.323  1.00  0.00     0.029 A 
ATOM     50  N   UNL A   1      43.673  29.510  28.482  1.00  0.00    -0.354 N 
ATOM     51  N   UNL A   1      46.382  28.811  27.596  1.00  0.00    -0.248 NA
ATOM     52  C   UNL A   1      48.585  29.422  27.128  1.00  0.00     0.031 C 
ATOM     53  C   UNL A   1      43.299  31.583  29.188  1.00  0.00     0.029 A 
ATOM     54  C   UNL A   1      44.279  30.739  28.689  1.00  0.00     0.049 A 
ATOM     55  H   UNL A   1      44.124  28.711  28.123  1.00  0.00     0.167 HD
ATOM     56  C   UNL A   1      46.564  30.146  27.930  1.00  0.00     0.074 A 
ATOM     57  C   UNL A   1      47.950  30.460  27.653  1.00  0.00     0.031 C 
ATOM     58  C   UNL A   1      45.664  31.032  28.421  1.00  0.00     0.037 A 
BRANCH  45  59
ATOM     59  C   UNL A   1      39.981  28.716  29.152  1.00  0.00     0.064 A 
ATOM     60  C   UNL A   1      39.028  29.174  28.229  1.00  0.00     0.173 A 
ATOM     61  C   UNL A   1      39.551  28.454  30.462  1.00  0.00     0.173 A 
ATOM     62  F   UNL A   1      39.388  29.450  26.967  1.00  0.00    -0.203 F 
ATOM     63  C   UNL A   1      37.706  29.390  28.611  1.00  0.00     0.198 A 
ATOM     64  C   UNL A   1      38.221  28.640  30.830  1.00  0.00     0.198 A 
ATOM     65  F   UNL A   1      40.419  28.009  31.383  1.00  0.00    -0.203 F 
ATOM     66  F   UNL A   1      36.826  29.877  27.724  1.00  0.00    -0.200 F 
ATOM     67  C   UNL A   1      37.302  29.116  29.908  1.00  0.00     0.200 A 
ATOM     68  F   UNL A   1      37.829  28.361  32.082  1.00  0.00    -0.200 F 
ATOM     69  F   UNL A   1      36.028  29.316  30.271  1.00  0.00    -0.200 F 
ENDBRANCH  45  59
BRANCH  46  70
ATOM     70  C   UNL A   1      49.329  26.733  26.245  1.00  0.00     0.064 A 
ATOM     71  C   UNL A   1      49.719  26.958  24.917  1.00  0.00     0.173 A 
ATOM     72  C   UNL A   1      50.292  26.223  27.128  1.00  0.00     0.173 A 
ATOM     73  F   UNL A   1      48.828  27.426  24.030  1.00  0.00    -0.203 F 
ATOM     74  C   UNL A   1      51.009  26.661  24.483  1.00  0.00     0.198 A 
ATOM     75  C   UNL A   1      51.591  25.955  26.701  1.00  0.00     0.198 A 
ATOM     76  F   UNL A   1      49.974  25.994  28.411  1.00  0.00    -0.203 F 
ATOM     77  F   UNL A   1      51.337  26.837  23.197  1.00  0.00    -0.200 F 
ATOM     78  C   UNL A   1      51.945  26.163  25.377  1.00  0.00     0.200 A 
ATOM     79  F   UNL A   1      52.498  25.489  27.571  1.00  0.00    -0.200 F 
ATOM     80  F   UNL A   1      53.186  25.878  24.961  1.00  0.00    -0.200 F 
ENDBRANCH  46  70
BRANCH  58  81
ATOM     81  C   UNL A   1      46.159  32.415  28.737  1.00  0.00     0.064 A 
ATOM     82  C   UNL A   1      46.108  33.451  27.793  1.00  0.00     0.173 A 
ATOM     83  C   UNL A   1      46.657  32.713  30.014  1.00  0.00     0.173 A 
ATOM     84  F   UNL A   1      45.655  33.214  26.553  1.00  0.00    -0.203 F 
ATOM     85  C   UNL A   1      46.563  34.729  28.109  1.00  0.00     0.198 A 
ATOM     86  C   UNL A   1      47.080  33.999  30.336  1.00  0.00     0.198 A 
ATOM     87  F   UNL A   1      46.722  31.760  30.955  1.00  0.00    -0.203 F 
ATOM     88  F   UNL A   1      46.552  35.690  27.176  1.00  0.00    -0.200 F 
ATOM     89  C   UNL A   1      47.042  35.004  29.382  1.00  0.00     0.200 A 
ATOM     90  F   UNL A   1      47.528  34.266  31.571  1.00  0.00    -0.200 F 
ATOM     91  F   UNL A   1      47.472  36.236  29.686  1.00  0.00    -0.200 F 
ENDBRANCH  58  81
ENDBRANCH  32  33
ENDBRANCH  24  27
ENDBRANCH  22  23
ENDBRANCH  21  22
ENDBRANCH  20  21
ENDBRANCH   1  20
TORSDOF 16
ENDMDL
MODEL 2
REMARK VINA RESULT:     -11.2      6.561     12.068
REMARK SMILES COc1cnc(SCC(=O)NCCCCCCNC(=O)c2ccc(-c3c4nc(c(-c5c(F)c(F)c(F)c(F)c5F)c5ccc([nH]5)c(-c5c(F)c(F)c(F)c(F)c5F)c5nc(c(-c6c(F)c(F)c(F)c(F)c6F)c6ccc3[nH]6)C=C5)C=C4)cc2)[nH]c1=O
REMARK SMILES IDX 14 1 13 2 12 3 11 4 9 5 10 6 8 8 7 9 6 10 3 11 4 12 85 13
REMARK SMILES IDX 5 14 84 15 86 16 2 18 1 19 15 20 16 21 17 22 18 23 19 24
REMARK SMILES IDX 20 26 21 27 22 28 83 29 23 30 82 31 24 32 25 33 26 34 76 35
REMARK SMILES IDX 27 36 81 37 75 38 77 39 28 40 80 41 74 42 73 43 29 45 61 46
REMARK SMILES IDX 41 47 60 48 42 49 45 50 59 51 78 52 43 53 44 54 58 56 79 57
REMARK SMILES IDX 46 58 30 59 31 60 39 61 32 62 33 63 37 64 40 65 34 66 35 67
REMARK SMILES IDX 38 68 36 69 62 70 63 71 71 72 64 73 65 74 69 75 72 76 66 77
REMARK SMILES IDX 67 78 70 79 68 80 47 81 48 82 56 83 49 84 50 85 54 86 57 87
REMARK SMILES IDX 51 88 52 89 55 90 53 91
REMARK H PARENT 11 7 84 17 18 25 77 44 45 55
REMARK Flexibility Score: inf
ROOT
ATOM      1  C   UNL A   1      32.457  30.024  27.046  1.00  0.00     0.002 C 
ENDROOT
BRANCH   1   2
ATOM      2  C   UNL A   1      32.135  28.533  27.229  1.00  0.00     0.021 C 
BRANCH   2   3
ATOM      3  C   UNL A   1      32.917  27.604  26.300  1.00  0.00     0.116 C 
BRANCH   3   4
ATOM      4  N   UNL A   1      32.273  26.310  26.202  1.00  0.00    -0.355 N 
ATOM      5  C   UNL A   1      31.404  25.819  25.274  1.00  0.00     0.230 C 
ATOM      6  O   UNL A   1      31.017  24.658  25.427  1.00  0.00    -0.274 OA
ATOM      7  H   UNL A   1      32.501  25.682  26.925  1.00  0.00     0.163 HD
BRANCH   5   8
ATOM      8  C   UNL A   1      31.046  26.612  24.029  1.00  0.00     0.178 C 
BRANCH   8   9
ATOM      9  S   UNL A   1      29.274  26.828  23.727  1.00  0.00    -0.078 SA
BRANCH   9  10
ATOM     10  C   UNL A   1      29.210  28.400  23.010  1.00  0.00     0.168 A 
ATOM     11  C   UNL A   1      28.875  30.941  22.064  1.00  0.00     0.202 A 
ATOM     12  C   UNL A   1      29.798  30.076  21.616  1.00  0.00     0.166 A 
ATOM     13  C   UNL A   1      27.974  30.435  23.143  1.00  0.00     0.293 A 
ATOM     14  N   UNL A   1      30.006  28.803  22.085  1.00  0.00    -0.229 NA
ATOM     15  N   UNL A   1      28.220  29.156  23.551  1.00  0.00    -0.298 N 
ATOM     16  O   UNL A   1      27.064  31.093  23.638  1.00  0.00    -0.265 OA
ATOM     17  H   UNL A   1      27.661  28.769  24.262  1.00  0.00     0.172 HD
BRANCH  11  18
ATOM     18  O   UNL A   1      28.743  32.195  21.498  1.00  0.00    -0.490 OA
ATOM     19  C   UNL A   1      27.900  32.210  20.350  1.00  0.00     0.278 C 
ENDBRANCH  11  18
ENDBRANCH   9  10
ENDBRANCH   8   9
ENDBRANCH   5   8
ENDBRANCH   3   4
ENDBRANCH   2   3
ENDBRANCH   1   2
BRANCH   1  20
ATOM     20  C   UNL A   1      31.467  30.806  26.176  1.00  0.00     0.002 C 
BRANCH  20  21
ATOM     21  C   UNL A   1      31.376  32.303  26.481  1.00  0.00     0.021 C 
BRANCH  21  22
ATOM     22  C   UNL A   1      32.537  32.859  27.298  1.00  0.00     0.116 C 
BRANCH  22  23
ATOM     23  N   UNL A   1      32.348  34.258  27.648  1.00  0.00    -0.352 N 
ATOM     24  C   UNL A   1      32.988  35.010  28.600  1.00  0.00     0.251 C 
ATOM     25  H   UNL A   1      31.663  34.734  27.124  1.00  0.00     0.163 HD
ATOM     26  O   UNL A   1      32.576  36.136  28.878  1.00  0.00    -0.269 OA
BRANCH  24  27
ATOM     27  C   UNL A   1      34.159  34.460  29.315  1.00  0.00     0.039 A 
ATOM     28  C   UNL A   1      33.963  33.826  30.545  1.00  0.00     0.014 A 
ATOM     29  C   UNL A   1      35.446  34.578  28.784  1.00  0.00     0.014 A 
ATOM     30  C   UNL A   1      35.051  33.258  31.213  1.00  0.00     0.010 A 
ATOM     31  C   UNL A   1      36.516  33.947  29.412  1.00  0.00     0.010 A 
ATOM     32  C   UNL A   1      36.331  33.285  30.636  1.00  0.00    -0.014 A 
BRANCH  32  33
ATOM     33  C   UNL A   1      37.489  32.634  31.301  1.00  0.00     0.031 A 
ATOM     34  C   UNL A   1      38.211  31.503  30.624  1.00  0.00     0.074 A 
ATOM     35  C   UNL A   1      37.853  33.022  32.538  1.00  0.00     0.049 A 
ATOM     36  N   UNL A   1      39.196  30.763  31.068  1.00  0.00    -0.248 NA
ATOM     37  C   UNL A   1      37.747  31.136  29.276  1.00  0.00     0.031 C 
ATOM     38  C   UNL A   1      37.208  34.080  33.317  1.00  0.00     0.029 A 
ATOM     39  N   UNL A   1      38.851  32.564  33.363  1.00  0.00    -0.354 N 
ATOM     40  C   UNL A   1      39.460  29.841  30.063  1.00  0.00     0.074 A 
ATOM     41  C   UNL A   1      38.495  30.076  29.011  1.00  0.00     0.031 C 
ATOM     42  C   UNL A   1      37.839  34.206  34.496  1.00  0.00     0.029 A 
ATOM     43  C   UNL A   1      38.907  33.214  34.573  1.00  0.00     0.049 A 
ATOM     44  H   UNL A   1      39.468  31.840  33.111  1.00  0.00     0.167 HD
ATOM     45  C   UNL A   1      40.435  28.904  30.011  1.00  0.00     0.037 A 
ATOM     46  C   UNL A   1      39.723  33.023  35.627  1.00  0.00     0.037 A 
ATOM     47  C   UNL A   1      41.406  28.686  31.051  1.00  0.00     0.049 A 
ATOM     48  C   UNL A   1      40.786  31.961  35.551  1.00  0.00     0.074 A 
ATOM     49  C   UNL A   1      42.462  27.790  31.073  1.00  0.00     0.029 A 
ATOM     50  N   UNL A   1      41.438  29.371  32.256  1.00  0.00    -0.354 N 
ATOM     51  N   UNL A   1      41.066  31.137  34.570  1.00  0.00    -0.248 NA
ATOM     52  C   UNL A   1      41.652  31.805  36.727  1.00  0.00     0.031 C 
ATOM     53  C   UNL A   1      43.104  27.901  32.311  1.00  0.00     0.029 A 
ATOM     54  C   UNL A   1      42.483  28.905  33.038  1.00  0.00     0.049 A 
ATOM     55  H   UNL A   1      40.812  30.085  32.518  1.00  0.00     0.167 HD
ATOM     56  C   UNL A   1      42.157  30.392  34.996  1.00  0.00     0.074 A 
ATOM     57  C   UNL A   1      42.498  30.870  36.319  1.00  0.00     0.031 C 
ATOM     58  C   UNL A   1      42.818  29.401  34.349  1.00  0.00     0.037 A 
BRANCH  45  59
ATOM     59  C   UNL A   1      40.504  28.041  28.782  1.00  0.00     0.064 A 
ATOM     60  C   UNL A   1      41.263  28.416  27.663  1.00  0.00     0.173 A 
ATOM     61  C   UNL A   1      39.831  26.811  28.734  1.00  0.00     0.173 A 
ATOM     62  F   UNL A   1      41.917  29.587  27.652  1.00  0.00    -0.203 F 
ATOM     63  C   UNL A   1      41.322  27.606  26.531  1.00  0.00     0.198 A 
ATOM     64  C   UNL A   1      39.919  25.989  27.614  1.00  0.00     0.198 A 
ATOM     65  F   UNL A   1      39.096  26.400  29.778  1.00  0.00    -0.203 F 
ATOM     66  F   UNL A   1      42.012  28.011  25.456  1.00  0.00    -0.200 F 
ATOM     67  C   UNL A   1      40.656  26.391  26.511  1.00  0.00     0.200 A 
ATOM     68  F   UNL A   1      39.286  24.807  27.601  1.00  0.00    -0.200 F 
ATOM     69  F   UNL A   1      40.720  25.608  25.424  1.00  0.00    -0.200 F 
ENDBRANCH  45  59
BRANCH  46  70
ATOM     70  C   UNL A   1      39.587  33.875  36.838  1.00  0.00     0.064 A 
ATOM     71  C   UNL A   1      38.822  33.449  37.935  1.00  0.00     0.173 A 
ATOM     72  C   UNL A   1      40.200  35.133  36.921  1.00  0.00     0.173 A 
ATOM     73  F   UNL A   1      38.199  32.262  37.894  1.00  0.00    -0.203 F 
ATOM     74  C   UNL A   1      38.657  34.260  39.056  1.00  0.00     0.198 A 
ATOM     75  C   UNL A   1      40.059  35.930  38.056  1.00  0.00     0.198 A 
ATOM     76  F   UNL A   1      40.946  35.586  35.903  1.00  0.00    -0.203 F 
ATOM     77  F   UNL A   1      37.878  33.849  40.066  1.00  0.00    -0.200 F 
ATOM     78  C   UNL A   1      39.279  35.497  39.117  1.00  0.00     0.200 A 
ATOM     79  F   UNL A   1      40.674  37.119  38.118  1.00  0.00    -0.200 F 
ATOM     80  F   UNL A   1      39.121  36.276  40.196  1.00  0.00    -0.200 F 
ENDBRANCH  46  70
BRANCH  58  81
ATOM     81  C   UNL A   1      44.007  28.799  35.041  1.00  0.00     0.064 A 
ATOM     82  C   UNL A   1      45.297  29.331  34.895  1.00  0.00     0.173 A 
ATOM     83  C   UNL A   1      43.845  27.696  35.894  1.00  0.00     0.173 A 
ATOM     84  F   UNL A   1      45.507  30.376  34.079  1.00  0.00    -0.203 F 
ATOM     85  C   UNL A   1      46.384  28.764  35.554  1.00  0.00     0.198 A 
ATOM     86  C   UNL A   1      44.930  27.152  36.576  1.00  0.00     0.198 A 
ATOM     87  F   UNL A   1      42.632  27.152  36.074  1.00  0.00    -0.203 F 
ATOM     88  F   UNL A   1      47.614  29.257  35.358  1.00  0.00    -0.200 F 
ATOM     89  C   UNL A   1      46.199  27.680  36.399  1.00  0.00     0.200 A 
ATOM     90  F   UNL A   1      44.746  26.114  37.405  1.00  0.00    -0.200 F 
ATOM     91  F   UNL A   1      47.246  27.140  37.039  1.00  0.00    -0.200 F 
ENDBRANCH  58  81
ENDBRANCH  32  33
ENDBRANCH  24  27
ENDBRANCH  22  23
ENDBRANCH  21  22
ENDBRANCH  20  21
ENDBRANCH   1  20
TORSDOF 16
ENDMDL
MODEL 3
REMARK VINA RESULT:     -11.0      5.888     11.060
REMARK SMILES COc1cnc(SCC(=O)NCCCCCCNC(=O)c2ccc(-c3c4nc(c(-c5c(F)c(F)c(F)c(F)c5F)c5ccc([nH]5)c(-c5c(F)c(F)c(F)c(F)c5F)c5nc(c(-c6c(F)c(F)c(F)c(F)c6F)c6ccc3[nH]6)C=C5)C=C4)cc2)[nH]c1=O
REMARK SMILES IDX 14 1 13 2 12 3 11 4 9 5 10 6 8 8 7 9 6 10 3 11 4 12 85 13
REMARK SMILES IDX 5 14 84 15 86 16 2 18 1 19 15 20 16 21 17 22 18 23 19 24
REMARK SMILES IDX 20 26 21 27 22 28 83 29 23 30 82 31 24 32 25 33 26 34 76 35
REMARK SMILES IDX 27 36 81 37 75 38 77 39 28 40 80 41 74 42 73 43 29 45 61 46
REMARK SMILES IDX 41 47 60 48 42 49 45 50 59 51 78 52 43 53 44 54 58 56 79 57
REMARK SMILES IDX 46 58 30 59 31 60 39 61 32 62 33 63 37 64 40 65 34 66 35 67
REMARK SMILES IDX 38 68 36 69 62 70 63 71 71 72 64 73 65 74 69 75 72 76 66 77
REMARK SMILES IDX 67 78 70 79 68 80 47 81 48 82 56 83 49 84 50 85 54 86 57 87
REMARK SMILES IDX 51 88 52 89 55 90 53 91
REMARK H PARENT 11 7 84 17 18 25 77 44 45 55
REMARK Flexibility Score: inf
ROOT
ATOM      1  C   UNL A   1      37.382  34.004  29.461  1.00  0.00     0.002 C 
ENDROOT
BRANCH   1   2
ATOM      2  C   UNL A   1      37.606  33.267  30.790  1.00  0.00     0.021 C 
BRANCH   2   3
ATOM      3  C   UNL A   1      38.012  34.177  31.950  1.00  0.00     0.116 C 
BRANCH   3   4
ATOM      4  N   UNL A   1      38.250  33.405  33.152  1.00  0.00    -0.355 N 
ATOM      5  C   UNL A   1      37.601  33.406  34.351  1.00  0.00     0.230 C 
ATOM      6  O   UNL A   1      38.011  32.622  35.211  1.00  0.00    -0.274 OA
ATOM      7  H   UNL A   1      39.005  32.776  33.095  1.00  0.00     0.163 HD
BRANCH   5   8
ATOM      8  C   UNL A   1      36.340  34.225  34.567  1.00  0.00     0.178 C 
BRANCH   8   9
ATOM      9  S   UNL A   1      34.806  33.459  33.983  1.00  0.00    -0.078 SA
BRANCH   9  10
ATOM     10  C   UNL A   1      34.243  34.604  32.816  1.00  0.00     0.168 A 
ATOM     11  C   UNL A   1      33.390  36.625  31.188  1.00  0.00     0.202 A 
ATOM     12  C   UNL A   1      33.452  35.334  30.831  1.00  0.00     0.166 A 
ATOM     13  C   UNL A   1      33.807  36.937  32.588  1.00  0.00     0.293 A 
ATOM     14  N   UNL A   1      33.895  34.299  31.616  1.00  0.00    -0.229 NA
ATOM     15  N   UNL A   1      34.219  35.864  33.323  1.00  0.00    -0.298 N 
ATOM     16  O   UNL A   1      33.782  38.065  33.074  1.00  0.00    -0.265 OA
ATOM     17  H   UNL A   1      34.510  36.008  34.252  1.00  0.00     0.172 HD
BRANCH  11  18
ATOM     18  O   UNL A   1      32.903  37.580  30.315  1.00  0.00    -0.490 OA
ATOM     19  C   UNL A   1      33.275  37.349  28.960  1.00  0.00     0.278 C 
ENDBRANCH  11  18
ENDBRANCH   9  10
ENDBRANCH   8   9
ENDBRANCH   5   8
ENDBRANCH   3   4
ENDBRANCH   2   3
ENDBRANCH   1   2
BRANCH   1  20
ATOM     20  C   UNL A   1      36.851  33.137  28.313  1.00  0.00     0.002 C 
BRANCH  20  21
ATOM     21  C   UNL A   1      35.335  33.183  28.111  1.00  0.00     0.021 C 
BRANCH  21  22
ATOM     22  C   UNL A   1      34.541  32.268  29.038  1.00  0.00     0.116 C 
BRANCH  22  23
ATOM     23  N   UNL A   1      33.977  31.126  28.336  1.00  0.00    -0.352 N 
ATOM     24  C   UNL A   1      34.603  30.001  27.862  1.00  0.00     0.251 C 
ATOM     25  H   UNL A   1      33.006  31.165  28.179  1.00  0.00     0.163 HD
ATOM     26  O   UNL A   1      33.997  29.215  27.135  1.00  0.00    -0.269 OA
BRANCH  24  27
ATOM     27  C   UNL A   1      36.019  29.743  28.201  1.00  0.00     0.039 A 
ATOM     28  C   UNL A   1      36.339  29.329  29.497  1.00  0.00     0.014 A 
ATOM     29  C   UNL A   1      37.029  29.917  27.250  1.00  0.00     0.014 A 
ATOM     30  C   UNL A   1      37.665  29.033  29.822  1.00  0.00     0.010 A 
ATOM     31  C   UNL A   1      38.337  29.550  27.554  1.00  0.00     0.010 A 
ATOM     32  C   UNL A   1      38.670  29.110  28.844  1.00  0.00    -0.014 A 
BRANCH  32  33
ATOM     33  C   UNL A   1      40.075  28.741  29.155  1.00  0.00     0.031 A 
ATOM     34  C   UNL A   1      40.957  29.697  29.909  1.00  0.00     0.074 A 
ATOM     35  C   UNL A   1      40.574  27.572  28.710  1.00  0.00     0.049 A 
ATOM     36  N   UNL A   1      42.226  29.590  30.216  1.00  0.00    -0.248 NA
ATOM     37  C   UNL A   1      40.338  30.955  30.355  1.00  0.00     0.031 C 
ATOM     38  C   UNL A   1      39.831  26.578  27.934  1.00  0.00     0.029 A 
ATOM     39  N   UNL A   1      41.827  27.026  28.837  1.00  0.00    -0.354 N 
ATOM     40  C   UNL A   1      42.556  30.765  30.879  1.00  0.00     0.074 A 
ATOM     41  C   UNL A   1      41.372  31.596  30.878  1.00  0.00     0.031 C 
ATOM     42  C   UNL A   1      40.635  25.533  27.674  1.00  0.00     0.029 A 
ATOM     43  C   UNL A   1      41.958  25.801  28.229  1.00  0.00     0.049 A 
ATOM     44  H   UNL A   1      42.562  27.471  29.318  1.00  0.00     0.167 HD
ATOM     45  C   UNL A   1      43.731  31.107  31.458  1.00  0.00     0.037 A 
ATOM     46  C   UNL A   1      43.028  24.989  28.126  1.00  0.00     0.037 A 
ATOM     47  C   UNL A   1      44.902  30.269  31.473  1.00  0.00     0.049 A 
ATOM     48  C   UNL A   1      44.328  25.403  28.761  1.00  0.00     0.074 A 
ATOM     49  C   UNL A   1      46.126  30.507  32.073  1.00  0.00     0.029 A 
ATOM     50  N   UNL A   1      44.992  29.029  30.858  1.00  0.00    -0.354 N 
ATOM     51  N   UNL A   1      44.611  26.489  29.439  1.00  0.00    -0.248 NA
ATOM     52  C   UNL A   1      45.458  24.474  28.624  1.00  0.00     0.031 C 
ATOM     53  C   UNL A   1      46.973  29.432  31.780  1.00  0.00     0.029 A 
ATOM     54  C   UNL A   1      46.259  28.499  31.046  1.00  0.00     0.049 A 
ATOM     55  H   UNL A   1      44.264  28.590  30.361  1.00  0.00     0.167 HD
ATOM     56  C   UNL A   1      45.934  26.359  29.836  1.00  0.00     0.074 A 
ATOM     57  C   UNL A   1      46.396  25.081  29.335  1.00  0.00     0.031 C 
ATOM     58  C   UNL A   1      46.699  27.219  30.552  1.00  0.00     0.037 A 
BRANCH  45  59
ATOM     59  C   UNL A   1      43.809  32.449  32.130  1.00  0.00     0.064 A 
ATOM     60  C   UNL A   1      43.508  32.607  33.491  1.00  0.00     0.173 A 
ATOM     61  C   UNL A   1      44.221  33.583  31.414  1.00  0.00     0.173 A 
ATOM     62  F   UNL A   1      43.098  31.558  34.219  1.00  0.00    -0.203 F 
ATOM     63  C   UNL A   1      43.587  33.856  34.103  1.00  0.00     0.198 A 
ATOM     64  C   UNL A   1      44.330  34.823  32.038  1.00  0.00     0.198 A 
ATOM     65  F   UNL A   1      44.527  33.488  30.112  1.00  0.00    -0.203 F 
ATOM     66  F   UNL A   1      43.244  33.991  35.392  1.00  0.00    -0.200 F 
ATOM     67  C   UNL A   1      44.005  34.961  33.378  1.00  0.00     0.200 A 
ATOM     68  F   UNL A   1      44.749  35.888  31.339  1.00  0.00    -0.200 F 
ATOM     69  F   UNL A   1      44.089  36.160  33.970  1.00  0.00    -0.200 F 
ENDBRANCH  45  59
BRANCH  46  70
ATOM     70  C   UNL A   1      42.912  23.690  27.412  1.00  0.00     0.064 A 
ATOM     71  C   UNL A   1      43.311  23.565  26.074  1.00  0.00     0.173 A 
ATOM     72  C   UNL A   1      42.386  22.553  28.044  1.00  0.00     0.173 A 
ATOM     73  F   UNL A   1      43.801  24.630  25.420  1.00  0.00    -0.203 F 
ATOM     74  C   UNL A   1      43.167  22.361  25.387  1.00  0.00     0.198 A 
ATOM     75  C   UNL A   1      42.271  21.342  27.365  1.00  0.00     0.198 A 
ATOM     76  F   UNL A   1      41.994  22.616  29.325  1.00  0.00    -0.203 F 
ATOM     77  F   UNL A   1      43.508  22.286  24.094  1.00  0.00    -0.200 F 
ATOM     78  C   UNL A   1      42.651  21.249  26.035  1.00  0.00     0.200 A 
ATOM     79  F   UNL A   1      41.786  20.265  27.999  1.00  0.00    -0.200 F 
ATOM     80  F   UNL A   1      42.513  20.091  25.376  1.00  0.00    -0.200 F 
ENDBRANCH  46  70
BRANCH  58  81
ATOM     81  C   UNL A   1      48.101  26.788  30.878  1.00  0.00     0.064 A 
ATOM     82  C   UNL A   1      48.383  25.957  31.972  1.00  0.00     0.173 A 
ATOM     83  C   UNL A   1      49.170  27.184  30.061  1.00  0.00     0.173 A 
ATOM     84  F   UNL A   1      47.397  25.564  32.794  1.00  0.00    -0.203 F 
ATOM     85  C   UNL A   1      49.688  25.561  32.251  1.00  0.00     0.198 A 
ATOM     86  C   UNL A   1      50.469  26.759  30.324  1.00  0.00     0.198 A 
ATOM     87  F   UNL A   1      48.954  27.973  28.998  1.00  0.00    -0.203 F 
ATOM     88  F   UNL A   1      49.941  24.810  33.331  1.00  0.00    -0.200 F 
ATOM     89  C   UNL A   1      50.729  25.956  31.424  1.00  0.00     0.200 A 
ATOM     90  F   UNL A   1      51.471  27.129  29.514  1.00  0.00    -0.200 F 
ATOM     91  F   UNL A   1      51.983  25.567  31.689  1.00  0.00    -0.200 F 
ENDBRANCH  58  81
ENDBRANCH  32  33
ENDBRANCH  24  27
ENDBRANCH  22  23
ENDBRANCH  21  22
ENDBRANCH  20  21
ENDBRANCH   1  20
TORSDOF 16
ENDMDL
