MODEL 1
REMARK VINA RESULT:     -13.0      0.000      0.000
REMARK SMILES O=C(NCCCCCCNC(=O)[C@@H]1CCCC[C@@H]1NS(=O)(=O)c1ccc2ccccc2c1)c1ccc(-c2c3nc(c(-c4c(F)c(F)c(F)c(F)c4F)c4ccc([nH]4)c(-c4c(F)c(F)c(F)c(F)c4F)c4nc(c(-c5c(F)c(F)c(F)c(F)c5F)c5ccc2[nH]5)C=C4)C=C3)cc1
REMARK SMILES IDX 7 1 6 2 5 3 4 4 3 5 1 6 2 7 33 9 34 10 95 11 35 12 94 13
REMARK SMILES IDX 36 14 37 15 38 16 88 17 39 18 93 19 87 20 89 21 40 22 92 23
REMARK SMILES IDX 86 24 85 25 41 27 73 28 53 29 72 30 54 31 57 32 71 33 90 34
REMARK SMILES IDX 55 35 56 36 70 38 91 39 58 40 42 41 43 42 51 43 44 44 45 45
REMARK SMILES IDX 49 46 52 47 46 48 47 49 50 50 48 51 74 52 75 53 83 54 76 55
REMARK SMILES IDX 77 56 81 57 84 58 78 59 79 60 82 61 80 62 59 63 60 64 68 65
REMARK SMILES IDX 61 66 62 67 66 68 69 69 63 70 64 71 67 72 65 73 8 74 9 75
REMARK SMILES IDX 10 76 11 77 12 79 13 80 14 81 18 82 15 83 17 84 16 85 19 86
REMARK SMILES IDX 20 88 21 89 22 90 23 91 24 92 32 93 25 94 31 95 26 96 30 97
REMARK SMILES IDX 27 98 29 99 28 100
REMARK H PARENT 3 8 89 26 57 37 10 78 19 87
REMARK Flexibility Score: inf
ROOT
ATOM      1  C   UNL A   1      32.844  29.828  26.139  1.00  0.00     0.002 C 
ENDROOT
BRANCH   1   2
ATOM      2  C   UNL A   1      31.478  30.485  25.911  1.00  0.00     0.002 C 
BRANCH   2   3
ATOM      3  C   UNL A   1      31.345  31.922  26.424  1.00  0.00     0.021 C 
BRANCH   3   4
ATOM      4  C   UNL A   1      32.562  32.456  27.172  1.00  0.00     0.116 C 
BRANCH   4   5
ATOM      5  N   UNL A   1      32.418  33.859  27.519  1.00  0.00    -0.352 N 
ATOM      6  O   UNL A   1      32.675  35.725  28.753  1.00  0.00    -0.269 OA
ATOM      7  C   UNL A   1      33.064  34.594  28.479  1.00  0.00     0.251 C 
ATOM      8  H   UNL A   1      31.757  34.357  26.985  1.00  0.00     0.163 HD
BRANCH   7   9
ATOM      9  C   UNL A   1      34.221  34.025  29.201  1.00  0.00     0.039 A 
ATOM     10  C   UNL A   1      34.044  33.128  30.261  1.00  0.00     0.014 A 
ATOM     11  C   UNL A   1      35.507  34.357  28.768  1.00  0.00     0.014 A 
ATOM     12  C   UNL A   1      35.154  32.632  30.943  1.00  0.00     0.010 A 
ATOM     13  C   UNL A   1      36.618  33.821  29.420  1.00  0.00     0.010 A 
ATOM     14  C   UNL A   1      36.449  32.970  30.523  1.00  0.00    -0.014 A 
BRANCH  14  15
ATOM     15  C   UNL A   1      37.635  32.397  31.204  1.00  0.00     0.031 A 
ATOM     16  C   UNL A   1      38.410  31.279  30.574  1.00  0.00     0.074 A 
ATOM     17  C   UNL A   1      37.982  32.863  32.417  1.00  0.00     0.049 A 
ATOM     18  N   UNL A   1      39.414  30.593  31.058  1.00  0.00    -0.248 NA
ATOM     19  C   UNL A   1      37.996  30.870  29.224  1.00  0.00     0.031 C 
ATOM     20  C   UNL A   1      37.297  33.940  33.133  1.00  0.00     0.029 A 
ATOM     21  N   UNL A   1      38.986  32.481  33.269  1.00  0.00    -0.354 N 
ATOM     22  C   UNL A   1      39.738  29.658  30.086  1.00  0.00     0.074 A 
ATOM     23  C   UNL A   1      38.814  29.853  28.988  1.00  0.00     0.031 C 
ATOM     24  C   UNL A   1      37.899  34.133  34.316  1.00  0.00     0.029 A 
ATOM     25  C   UNL A   1      38.982  33.163  34.459  1.00  0.00     0.049 A 
ATOM     26  H   UNL A   1      39.646  31.784  33.048  1.00  0.00     0.167 HD
ATOM     27  C   UNL A   1      40.718  28.724  30.110  1.00  0.00     0.037 A 
ATOM     28  C   UNL A   1      39.746  33.008  35.557  1.00  0.00     0.037 A 
ATOM     29  C   UNL A   1      41.644  28.544  31.199  1.00  0.00     0.049 A 
ATOM     30  C   UNL A   1      40.815  31.956  35.567  1.00  0.00     0.074 A 
ATOM     31  C   UNL A   1      42.703  27.658  31.296  1.00  0.00     0.029 A 
ATOM     32  N   UNL A   1      41.613  29.262  32.385  1.00  0.00    -0.354 N 
ATOM     33  N   UNL A   1      41.137  31.100  34.627  1.00  0.00    -0.248 NA
ATOM     34  C   UNL A   1      41.626  31.845  36.786  1.00  0.00     0.031 C 
ATOM     35  C   UNL A   1      43.292  27.816  32.555  1.00  0.00     0.029 A 
ATOM     36  C   UNL A   1      42.623  28.826  33.228  1.00  0.00     0.049 A 
ATOM     37  H   UNL A   1      40.970  29.977  32.596  1.00  0.00     0.167 HD
ATOM     38  C   UNL A   1      42.196  30.361  35.132  1.00  0.00     0.074 A 
ATOM     39  C   UNL A   1      42.468  30.873  36.461  1.00  0.00     0.031 C 
ATOM     40  C   UNL A   1      42.882  29.351  34.545  1.00  0.00     0.037 A 
BRANCH  27  41
ATOM     41  C   UNL A   1      40.827  27.807  28.928  1.00  0.00     0.064 A 
ATOM     42  C   UNL A   1      40.008  26.678  28.793  1.00  0.00     0.173 A 
ATOM     43  C   UNL A   1      41.745  28.081  27.903  1.00  0.00     0.173 A 
ATOM     44  F   UNL A   1      39.124  26.367  29.754  1.00  0.00    -0.203 F 
ATOM     45  C   UNL A   1      40.122  25.839  27.688  1.00  0.00     0.198 A 
ATOM     46  C   UNL A   1      41.841  27.253  26.787  1.00  0.00     0.198 A 
ATOM     47  F   UNL A   1      42.549  29.152  27.982  1.00  0.00    -0.203 F 
ATOM     48  F   UNL A   1      39.358  24.740  27.601  1.00  0.00    -0.200 F 
ATOM     49  C   UNL A   1      41.034  26.129  26.684  1.00  0.00     0.200 A 
ATOM     50  F   UNL A   1      42.717  27.538  25.814  1.00  0.00    -0.200 F 
ATOM     51  F   UNL A   1      41.141  25.321  25.621  1.00  0.00    -0.200 F 
ENDBRANCH  27  41
BRANCH  28  52
ATOM     52  C   UNL A   1      39.505  33.881  36.732  1.00  0.00     0.064 A 
ATOM     53  C   UNL A   1      38.719  33.441  37.804  1.00  0.00     0.173 A 
ATOM     54  C   UNL A   1      40.104  35.144  36.831  1.00  0.00     0.173 A 
ATOM     55  F   UNL A   1      38.113  32.245  37.744  1.00  0.00    -0.203 F 
ATOM     56  C   UNL A   1      38.540  34.235  38.934  1.00  0.00     0.198 A 
ATOM     57  C   UNL A   1      39.942  35.928  37.970  1.00  0.00     0.198 A 
ATOM     58  F   UNL A   1      40.871  35.603  35.831  1.00  0.00    -0.203 F 
ATOM     59  F   UNL A   1      37.769  33.800  39.940  1.00  0.00    -0.200 F 
ATOM     60  C   UNL A   1      39.160  35.473  39.021  1.00  0.00     0.200 A 
ATOM     61  F   UNL A   1      40.555  37.117  38.055  1.00  0.00    -0.200 F 
ATOM     62  F   UNL A   1      39.003  36.228  40.116  1.00  0.00    -0.200 F 
ENDBRANCH  28  52
BRANCH  40  63
ATOM     63  C   UNL A   1      44.012  28.747  35.321  1.00  0.00     0.064 A 
ATOM     64  C   UNL A   1      43.804  27.679  36.204  1.00  0.00     0.173 A 
ATOM     65  C   UNL A   1      45.324  29.206  35.135  1.00  0.00     0.173 A 
ATOM     66  F   UNL A   1      42.565  27.217  36.425  1.00  0.00    -0.203 F 
ATOM     67  C   UNL A   1      44.873  27.097  36.883  1.00  0.00     0.198 A 
ATOM     68  C   UNL A   1      46.391  28.610  35.800  1.00  0.00     0.198 A 
ATOM     69  F   UNL A   1      45.571  30.225  34.297  1.00  0.00    -0.203 F 
ATOM     70  F   UNL A   1      44.650  26.095  37.743  1.00  0.00    -0.200 F 
ATOM     71  C   UNL A   1      46.164  27.558  36.674  1.00  0.00     0.200 A 
ATOM     72  F   UNL A   1      47.640  29.051  35.592  1.00  0.00    -0.200 F 
ATOM     73  F   UNL A   1      47.191  26.990  37.321  1.00  0.00    -0.200 F 
ENDBRANCH  40  63
ENDBRANCH  14  15
ENDBRANCH   7   9
ENDBRANCH   4   5
ENDBRANCH   3   4
ENDBRANCH   2   3
ENDBRANCH   1   2
BRANCH   1  74
ATOM     74  C   UNL A   1      32.797  28.373  26.614  1.00  0.00     0.021 C 
BRANCH  74  75
ATOM     75  C   UNL A   1      31.386  27.817  26.796  1.00  0.00     0.116 C 
BRANCH  75  76
ATOM     76  N   UNL A   1      31.197  26.575  26.065  1.00  0.00    -0.356 N 
ATOM     77  C   UNL A   1      30.548  26.345  24.881  1.00  0.00     0.224 C 
ATOM     78  H   UNL A   1      31.598  25.779  26.484  1.00  0.00     0.163 HD
ATOM     79  O   UNL A   1      30.318  25.181  24.564  1.00  0.00    -0.275 OA
BRANCH  77  80
ATOM     80  C   UNL A   1      30.110  27.542  24.055  1.00  0.00     0.096 C 
ATOM     81  C   UNL A   1      28.674  27.494  23.539  1.00  0.00     0.015 C 
ATOM     82  C   UNL A   1      31.120  27.977  22.988  1.00  0.00     0.082 C 
ATOM     83  C   UNL A   1      28.265  28.885  23.056  1.00  0.00     0.001 C 
ATOM     84  C   UNL A   1      30.700  29.300  22.337  1.00  0.00     0.021 C 
ATOM     85  C   UNL A   1      29.215  29.429  21.996  1.00  0.00     0.002 C 
BRANCH  82  86
ATOM     86  N   UNL A   1      31.663  26.995  22.030  1.00  0.00    -0.207 NA
ATOM     87  H   UNL A   1      31.328  27.335  21.129  1.00  0.00     0.141 HD
BRANCH  86  88
ATOM     88  S   UNL A   1      33.216  26.481  21.700  1.00  0.00     0.240 S 
ATOM     89  O   UNL A   1      33.091  25.643  20.525  1.00  0.00    -0.207 OA
ATOM     90  O   UNL A   1      34.113  27.606  21.724  1.00  0.00    -0.207 OA
BRANCH  88  91
ATOM     91  C   UNL A   1      33.622  25.398  23.038  1.00  0.00     0.083 A 
ATOM     92  C   UNL A   1      34.157  25.921  24.215  1.00  0.00     0.022 A 
ATOM     93  C   UNL A   1      33.285  24.045  22.937  1.00  0.00     0.030 A 
ATOM     94  C   UNL A   1      34.271  25.097  25.336  1.00  0.00     0.010 A 
ATOM     95  C   UNL A   1      33.343  23.229  24.073  1.00  0.00    -0.017 A 
ATOM     96  C   UNL A   1      33.825  23.766  25.293  1.00  0.00    -0.018 A 
ATOM     97  C   UNL A   1      32.863  21.911  24.038  1.00  0.00     0.009 A 
ATOM     98  C   UNL A   1      33.796  22.968  26.447  1.00  0.00     0.009 A 
ATOM     99  C   UNL A   1      32.823  21.141  25.200  1.00  0.00     0.001 A 
ATOM    100  C   UNL A   1      33.285  21.670  26.403  1.00  0.00     0.001 A 
ENDBRANCH  88  91
ENDBRANCH  86  88
ENDBRANCH  82  86
ENDBRANCH  77  80
ENDBRANCH  75  76
ENDBRANCH  74  75
ENDBRANCH   1  74
TORSDOF 16
ENDMDL
MODEL 2
REMARK VINA RESULT:     -12.8      0.600      2.109
REMARK SMILES O=C(NCCCCCCNC(=O)[C@@H]1CCCC[C@@H]1NS(=O)(=O)c1ccc2ccccc2c1)c1ccc(-c2c3nc(c(-c4c(F)c(F)c(F)c(F)c4F)c4ccc([nH]4)c(-c4c(F)c(F)c(F)c(F)c4F)c4nc(c(-c5c(F)c(F)c(F)c(F)c5F)c5ccc2[nH]5)C=C4)C=C3)cc1
REMARK SMILES IDX 7 1 6 2 5 3 4 4 3 5 1 6 2 7 33 9 34 10 95 11 35 12 94 13
REMARK SMILES IDX 36 14 37 15 38 16 88 17 39 18 93 19 87 20 89 21 40 22 92 23
REMARK SMILES IDX 86 24 85 25 41 27 73 28 53 29 72 30 54 31 57 32 71 33 90 34
REMARK SMILES IDX 55 35 56 36 70 38 91 39 58 40 42 41 43 42 51 43 44 44 45 45
REMARK SMILES IDX 49 46 52 47 46 48 47 49 50 50 48 51 74 52 75 53 83 54 76 55
REMARK SMILES IDX 77 56 81 57 84 58 78 59 79 60 82 61 80 62 59 63 60 64 68 65
REMARK SMILES IDX 61 66 62 67 66 68 69 69 63 70 64 71 67 72 65 73 8 74 9 75
REMARK SMILES IDX 10 76 11 77 12 79 13 80 14 81 18 82 15 83 17 84 16 85 19 86
REMARK SMILES IDX 20 88 21 89 22 90 23 91 24 92 32 93 25 94 31 95 26 96 30 97
REMARK SMILES IDX 27 98 29 99 28 100
REMARK H PARENT 3 8 89 26 57 37 10 78 19 87
REMARK Flexibility Score: inf
ROOT
ATOM      1  C   UNL A   1      32.711  29.662  25.790  1.00  0.00     0.002 C 
ENDROOT
BRANCH   1   2
ATOM      2  C   UNL A   1      31.421  30.267  26.355  1.00  0.00     0.002 C 
BRANCH   2   3
ATOM      3  C   UNL A   1      31.408  31.794  26.475  1.00  0.00     0.021 C 
BRANCH   3   4
ATOM      4  C   UNL A   1      32.686  32.409  27.038  1.00  0.00     0.116 C 
BRANCH   4   5
ATOM      5  N   UNL A   1      32.486  33.778  27.478  1.00  0.00    -0.352 N 
ATOM      6  O   UNL A   1      32.673  35.569  28.830  1.00  0.00    -0.269 OA
ATOM      7  C   UNL A   1      33.106  34.475  28.482  1.00  0.00     0.251 C 
ATOM      8  H   UNL A   1      31.802  34.282  26.978  1.00  0.00     0.163 HD
BRANCH   7   9
ATOM      9  C   UNL A   1      34.289  33.908  29.162  1.00  0.00     0.039 A 
ATOM     10  C   UNL A   1      34.157  32.919  30.142  1.00  0.00     0.014 A 
ATOM     11  C   UNL A   1      35.558  34.340  28.765  1.00  0.00     0.014 A 
ATOM     12  C   UNL A   1      35.289  32.426  30.788  1.00  0.00     0.010 A 
ATOM     13  C   UNL A   1      36.693  33.810  29.378  1.00  0.00     0.010 A 
ATOM     14  C   UNL A   1      36.567  32.863  30.405  1.00  0.00    -0.014 A 
BRANCH  14  15
ATOM     15  C   UNL A   1      37.779  32.296  31.044  1.00  0.00     0.031 A 
ATOM     16  C   UNL A   1      38.571  31.223  30.361  1.00  0.00     0.074 A 
ATOM     17  C   UNL A   1      38.136  32.728  32.268  1.00  0.00     0.049 A 
ATOM     18  N   UNL A   1      39.601  30.546  30.802  1.00  0.00    -0.248 NA
ATOM     19  C   UNL A   1      38.142  30.852  29.004  1.00  0.00     0.031 C 
ATOM     20  C   UNL A   1      37.437  33.759  33.034  1.00  0.00     0.029 A 
ATOM     21  N   UNL A   1      39.165  32.341  33.088  1.00  0.00    -0.354 N 
ATOM     22  C   UNL A   1      39.930  29.656  29.791  1.00  0.00     0.074 A 
ATOM     23  C   UNL A   1      38.982  29.866  28.716  1.00  0.00     0.031 C 
ATOM     24  C   UNL A   1      38.055  33.925  34.213  1.00  0.00     0.029 A 
ATOM     25  C   UNL A   1      39.166  32.980  34.302  1.00  0.00     0.049 A 
ATOM     26  H   UNL A   1      39.838  31.670  32.830  1.00  0.00     0.167 HD
ATOM     27  C   UNL A   1      40.934  28.747  29.764  1.00  0.00     0.037 A 
ATOM     28  C   UNL A   1      39.953  32.806  35.379  1.00  0.00     0.037 A 
ATOM     29  C   UNL A   1      41.884  28.553  30.829  1.00  0.00     0.049 A 
ATOM     30  C   UNL A   1      41.049  31.782  35.332  1.00  0.00     0.074 A 
ATOM     31  C   UNL A   1      42.967  27.692  30.875  1.00  0.00     0.029 A 
ATOM     32  N   UNL A   1      41.857  29.227  32.041  1.00  0.00    -0.354 N 
ATOM     33  N   UNL A   1      41.375  30.969  34.357  1.00  0.00    -0.248 NA
ATOM     34  C   UNL A   1      41.884  31.648  36.532  1.00  0.00     0.031 C 
ATOM     35  C   UNL A   1      43.575  27.819  32.129  1.00  0.00     0.029 A 
ATOM     36  C   UNL A   1      42.892  28.787  32.849  1.00  0.00     0.049 A 
ATOM     37  H   UNL A   1      41.199  29.916  32.289  1.00  0.00     0.167 HD
ATOM     38  C   UNL A   1      42.462  30.240  34.815  1.00  0.00     0.074 A 
ATOM     39  C   UNL A   1      42.745  30.711  36.157  1.00  0.00     0.031 C 
ATOM     40  C   UNL A   1      43.162  29.270  34.180  1.00  0.00     0.037 A 
BRANCH  27  41
ATOM     41  C   UNL A   1      41.045  27.877  28.547  1.00  0.00     0.064 A 
ATOM     42  C   UNL A   1      41.917  28.190  27.494  1.00  0.00     0.173 A 
ATOM     43  C   UNL A   1      40.289  26.699  28.447  1.00  0.00     0.173 A 
ATOM     44  F   UNL A   1      42.651  29.313  27.537  1.00  0.00    -0.203 F 
ATOM     45  C   UNL A   1      42.008  27.370  26.374  1.00  0.00     0.198 A 
ATOM     46  C   UNL A   1      40.400  25.869  27.336  1.00  0.00     0.198 A 
ATOM     47  F   UNL A   1      39.444  26.353  29.430  1.00  0.00    -0.203 F 
ATOM     48  F   UNL A   1      42.816  27.711  25.359  1.00  0.00    -0.200 F 
ATOM     49  C   UNL A   1      41.254  26.208  26.296  1.00  0.00     0.200 A 
ATOM     50  F   UNL A   1      39.676  24.743  27.266  1.00  0.00    -0.200 F 
ATOM     51  F   UNL A   1      41.344  25.420  25.217  1.00  0.00    -0.200 F 
ENDBRANCH  27  41
BRANCH  28  52
ATOM     52  C   UNL A   1      39.712  33.628  36.590  1.00  0.00     0.064 A 
ATOM     53  C   UNL A   1      40.268  34.907  36.711  1.00  0.00     0.173 A 
ATOM     54  C   UNL A   1      38.875  33.174  37.619  1.00  0.00     0.173 A 
ATOM     55  F   UNL A   1      41.088  35.375  35.758  1.00  0.00    -0.203 F 
ATOM     56  C   UNL A   1      39.994  35.705  37.821  1.00  0.00     0.198 A 
ATOM     57  C   UNL A   1      38.586  33.980  38.717  1.00  0.00     0.198 A 
ATOM     58  F   UNL A   1      38.316  31.958  37.542  1.00  0.00    -0.203 F 
ATOM     59  F   UNL A   1      40.552  36.918  37.923  1.00  0.00    -0.200 F 
ATOM     60  C   UNL A   1      39.146  35.244  38.817  1.00  0.00     0.200 A 
ATOM     61  F   UNL A   1      37.754  33.537  39.670  1.00  0.00    -0.200 F 
ATOM     62  F   UNL A   1      38.869  36.019  39.874  1.00  0.00    -0.200 F 
ENDBRANCH  28  52
BRANCH  40  63
ATOM     63  C   UNL A   1      44.321  28.669  34.913  1.00  0.00     0.064 A 
ATOM     64  C   UNL A   1      45.602  29.236  34.850  1.00  0.00     0.173 A 
ATOM     65  C   UNL A   1      44.135  27.545  35.732  1.00  0.00     0.173 A 
ATOM     66  F   UNL A   1      45.829  30.301  34.068  1.00  0.00    -0.203 F 
ATOM     67  C   UNL A   1      46.658  28.692  35.576  1.00  0.00     0.198 A 
ATOM     68  C   UNL A   1      45.189  27.016  36.470  1.00  0.00     0.198 A 
ATOM     69  F   UNL A   1      42.927  26.969  35.825  1.00  0.00    -0.203 F 
ATOM     70  F   UNL A   1      47.881  29.233  35.481  1.00  0.00    -0.200 F 
ATOM     71  C   UNL A   1      46.450  27.588  36.390  1.00  0.00     0.200 A 
ATOM     72  F   UNL A   1      44.985  25.954  37.263  1.00  0.00    -0.200 F 
ATOM     73  F   UNL A   1      47.467  27.073  37.094  1.00  0.00    -0.200 F 
ENDBRANCH  40  63
ENDBRANCH  14  15
ENDBRANCH   7   9
ENDBRANCH   4   5
ENDBRANCH   3   4
ENDBRANCH   2   3
ENDBRANCH   1   2
BRANCH   1  74
ATOM     74  C   UNL A   1      32.912  28.170  26.073  1.00  0.00     0.021 C 
BRANCH  74  75
ATOM     75  C   UNL A   1      31.663  27.457  26.589  1.00  0.00     0.116 C 
BRANCH  75  76
ATOM     76  N   UNL A   1      31.384  26.246  25.836  1.00  0.00    -0.356 N 
ATOM     77  C   UNL A   1      30.617  26.068  24.716  1.00  0.00     0.224 C 
ATOM     78  H   UNL A   1      31.813  25.430  26.184  1.00  0.00     0.163 HD
ATOM     79  O   UNL A   1      30.339  24.920  24.381  1.00  0.00    -0.275 OA
BRANCH  77  80
ATOM     80  C   UNL A   1      30.116  27.300  23.982  1.00  0.00     0.096 C 
ATOM     81  C   UNL A   1      28.647  27.267  23.568  1.00  0.00     0.015 C 
ATOM     82  C   UNL A   1      31.045  27.793  22.869  1.00  0.00     0.082 C 
ATOM     83  C   UNL A   1      28.200  28.676  23.184  1.00  0.00     0.001 C 
ATOM     84  C   UNL A   1      30.575  29.144  22.314  1.00  0.00     0.021 C 
ATOM     85  C   UNL A   1      29.069  29.278  22.086  1.00  0.00     0.002 C 
BRANCH  82  86
ATOM     86  N   UNL A   1      31.522  26.863  21.828  1.00  0.00    -0.207 NA
ATOM     87  H   UNL A   1      31.187  27.285  20.962  1.00  0.00     0.141 HD
BRANCH  86  88
ATOM     88  S   UNL A   1      33.043  26.304  21.425  1.00  0.00     0.240 S 
ATOM     89  O   UNL A   1      32.889  25.715  20.110  1.00  0.00    -0.207 OA
ATOM     90  O   UNL A   1      34.017  27.334  21.673  1.00  0.00    -0.207 OA
BRANCH  88  91
ATOM     91  C   UNL A   1      33.334  24.961  22.537  1.00  0.00     0.083 A 
ATOM     92  C   UNL A   1      32.922  23.673  22.193  1.00  0.00     0.022 A 
ATOM     93  C   UNL A   1      34.082  25.194  23.695  1.00  0.00     0.030 A 
ATOM     94  C   UNL A   1      33.344  22.593  22.969  1.00  0.00     0.010 A 
ATOM     95  C   UNL A   1      34.556  24.111  24.445  1.00  0.00    -0.017 A 
ATOM     96  C   UNL A   1      34.198  22.792  24.067  1.00  0.00    -0.018 A 
ATOM     97  C   UNL A   1      35.437  24.308  25.518  1.00  0.00     0.009 A 
ATOM     98  C   UNL A   1      34.749  21.709  24.769  1.00  0.00     0.009 A 
ATOM     99  C   UNL A   1      35.991  23.219  26.190  1.00  0.00     0.001 A 
ATOM    100  C   UNL A   1      35.649  21.922  25.814  1.00  0.00     0.001 A 
ENDBRANCH  88  91
ENDBRANCH  86  88
ENDBRANCH  82  86
ENDBRANCH  77  80
ENDBRANCH  75  76
ENDBRANCH  74  75
ENDBRANCH   1  74
TORSDOF 16
ENDMDL
MODEL 3
REMARK VINA RESULT:     -12.6      1.499      2.895
REMARK SMILES O=C(NCCCCCCNC(=O)[C@@H]1CCCC[C@@H]1NS(=O)(=O)c1ccc2ccccc2c1)c1ccc(-c2c3nc(c(-c4c(F)c(F)c(F)c(F)c4F)c4ccc([nH]4)c(-c4c(F)c(F)c(F)c(F)c4F)c4nc(c(-c5c(F)c(F)c(F)c(F)c5F)c5ccc2[nH]5)C=C4)C=C3)cc1
REMARK SMILES IDX 7 1 6 2 5 3 4 4 3 5 1 6 2 7 33 9 34 10 95 11 35 12 94 13
REMARK SMILES IDX 36 14 37 15 38 16 88 17 39 18 93 19 87 20 89 21 40 22 92 23
REMARK SMILES IDX 86 24 85 25 41 27 73 28 53 29 72 30 54 31 57 32 71 33 90 34
REMARK SMILES IDX 55 35 56 36 70 38 91 39 58 40 42 41 43 42 51 43 44 44 45 45
REMARK SMILES IDX 49 46 52 47 46 48 47 49 50 50 48 51 74 52 75 53 83 54 76 55
REMARK SMILES IDX 77 56 81 57 84 58 78 59 79 60 82 61 80 62 59 63 60 64 68 65
REMARK SMILES IDX 61 66 62 67 66 68 69 69 63 70 64 71 67 72 65 73 8 74 9 75
REMARK SMILES IDX 10 76 11 77 12 79 13 80 14 81 18 82 15 83 17 84 16 85 19 86
REMARK SMILES IDX 20 88 21 89 22 90 23 91 24 92 32 93 25 94 31 95 26 96 30 97
REMARK SMILES IDX 27 98 29 99 28 100
REMARK H PARENT 3 8 89 26 57 37 10 78 19 87
REMARK Flexibility Score: inf
ROOT
ATOM      1  C   UNL A   1      32.640  30.190  26.184  1.00  0.00     0.002 C 
ENDROOT
BRANCH   1   2
ATOM      2  C   UNL A   1      31.332  30.931  25.887  1.00  0.00     0.002 C 
BRANCH   2   3
ATOM      3  C   UNL A   1      31.201  32.318  26.524  1.00  0.00     0.021 C 
BRANCH   3   4
ATOM      4  C   UNL A   1      32.469  32.844  27.190  1.00  0.00     0.116 C 
BRANCH   4   5
ATOM      5  N   UNL A   1      32.325  34.222  27.626  1.00  0.00    -0.352 N 
ATOM      6  O   UNL A   1      32.598  36.010  28.968  1.00  0.00    -0.269 OA
ATOM      7  C   UNL A   1      32.986  34.900  28.618  1.00  0.00     0.251 C 
ATOM      8  H   UNL A   1      31.653  34.748  27.135  1.00  0.00     0.163 HD
BRANCH   7   9
ATOM      9  C   UNL A   1      34.158  34.294  29.283  1.00  0.00     0.039 A 
ATOM     10  C   UNL A   1      34.011  33.484  30.415  1.00  0.00     0.014 A 
ATOM     11  C   UNL A   1      35.423  34.497  28.723  1.00  0.00     0.014 A 
ATOM     12  C   UNL A   1      35.138  32.951  31.038  1.00  0.00     0.010 A 
ATOM     13  C   UNL A   1      36.545  33.923  29.320  1.00  0.00     0.010 A 
ATOM     14  C   UNL A   1      36.413  33.161  30.491  1.00  0.00    -0.014 A 
BRANCH  14  15
ATOM     15  C   UNL A   1      37.610  32.546  31.113  1.00  0.00     0.031 A 
ATOM     16  C   UNL A   1      38.345  31.438  30.420  1.00  0.00     0.074 A 
ATOM     17  C   UNL A   1      38.004  32.964  32.329  1.00  0.00     0.049 A 
ATOM     18  N   UNL A   1      39.353  30.720  30.847  1.00  0.00    -0.248 NA
ATOM     19  C   UNL A   1      37.881  31.083  29.071  1.00  0.00     0.031 C 
ATOM     20  C   UNL A   1      37.360  34.026  33.103  1.00  0.00     0.029 A 
ATOM     21  N   UNL A   1      39.028  32.536  33.134  1.00  0.00    -0.354 N 
ATOM     22  C   UNL A   1      39.629  29.814  29.834  1.00  0.00     0.074 A 
ATOM     23  C   UNL A   1      38.674  30.062  28.773  1.00  0.00     0.031 C 
ATOM     24  C   UNL A   1      38.004  34.168  34.272  1.00  0.00     0.029 A 
ATOM     25  C   UNL A   1      39.074  33.177  34.347  1.00  0.00     0.049 A 
ATOM     26  H   UNL A   1      39.668  31.837  32.868  1.00  0.00     0.167 HD
ATOM     27  C   UNL A   1      40.593  28.864  29.794  1.00  0.00     0.037 A 
ATOM     28  C   UNL A   1      39.870  32.972  35.413  1.00  0.00     0.037 A 
ATOM     29  C   UNL A   1      41.550  28.632  30.844  1.00  0.00     0.049 A 
ATOM     30  C   UNL A   1      40.921  31.902  35.352  1.00  0.00     0.074 A 
ATOM     31  C   UNL A   1      42.596  27.726  30.876  1.00  0.00     0.029 A 
ATOM     32  N   UNL A   1      41.570  29.309  32.055  1.00  0.00    -0.354 N 
ATOM     33  N   UNL A   1      41.198  31.075  34.373  1.00  0.00    -0.248 NA
ATOM     34  C   UNL A   1      41.768  31.736  36.539  1.00  0.00     0.031 C 
ATOM     35  C   UNL A   1      43.228  27.831  32.120  1.00  0.00     0.029 A 
ATOM     36  C   UNL A   1      42.598  28.827  32.849  1.00  0.00     0.049 A 
ATOM     37  H   UNL A   1      40.946  30.026  32.312  1.00  0.00     0.167 HD
ATOM     38  C   UNL A   1      42.260  30.302  34.817  1.00  0.00     0.074 A 
ATOM     39  C   UNL A   1      42.583  30.763  36.153  1.00  0.00     0.031 C 
ATOM     40  C   UNL A   1      42.909  29.302  34.174  1.00  0.00     0.037 A 
BRANCH  27  41
ATOM     41  C   UNL A   1      40.649  27.988  28.578  1.00  0.00     0.064 A 
ATOM     42  C   UNL A   1      41.399  28.342  27.448  1.00  0.00     0.173 A 
ATOM     43  C   UNL A   1      39.964  26.763  28.556  1.00  0.00     0.173 A 
ATOM     44  F   UNL A   1      42.060  29.510  27.416  1.00  0.00    -0.203 F 
ATOM     45  C   UNL A   1      41.441  27.515  26.329  1.00  0.00     0.198 A 
ATOM     46  C   UNL A   1      40.026  25.928  27.444  1.00  0.00     0.198 A 
ATOM     47  F   UNL A   1      39.236  26.377  29.614  1.00  0.00    -0.203 F 
ATOM     48  F   UNL A   1      42.129  27.895  25.242  1.00  0.00    -0.200 F 
ATOM     49  C   UNL A   1      40.759  26.307  26.328  1.00  0.00     0.200 A 
ATOM     50  F   UNL A   1      39.373  24.758  27.448  1.00  0.00    -0.200 F 
ATOM     51  F   UNL A   1      40.801  25.513  25.251  1.00  0.00    -0.200 F 
ENDBRANCH  27  41
BRANCH  28  52
ATOM     52  C   UNL A   1      39.682  33.806  36.624  1.00  0.00     0.064 A 
ATOM     53  C   UNL A   1      40.281  35.067  36.728  1.00  0.00     0.173 A 
ATOM     54  C   UNL A   1      38.855  33.383  37.674  1.00  0.00     0.173 A 
ATOM     55  F   UNL A   1      41.094  35.505  35.754  1.00  0.00    -0.203 F 
ATOM     56  C   UNL A   1      40.058  35.877  37.839  1.00  0.00     0.198 A 
ATOM     57  C   UNL A   1      38.616  34.202  38.774  1.00  0.00     0.198 A 
ATOM     58  F   UNL A   1      38.255  32.185  37.615  1.00  0.00    -0.203 F 
ATOM     59  F   UNL A   1      40.656  37.073  37.924  1.00  0.00    -0.200 F 
ATOM     60  C   UNL A   1      39.219  35.448  38.857  1.00  0.00     0.200 A 
ATOM     61  F   UNL A   1      37.792  33.789  39.748  1.00  0.00    -0.200 F 
ATOM     62  F   UNL A   1      38.990  36.236  39.916  1.00  0.00    -0.200 F 
ENDBRANCH  28  52
BRANCH  40  63
ATOM     63  C   UNL A   1      44.052  28.653  34.891  1.00  0.00     0.064 A 
ATOM     64  C   UNL A   1      45.351  29.176  34.821  1.00  0.00     0.173 A 
ATOM     65  C   UNL A   1      43.835  27.530  35.702  1.00  0.00     0.173 A 
ATOM     66  F   UNL A   1      45.609  30.239  34.046  1.00  0.00    -0.203 F 
ATOM     67  C   UNL A   1      46.395  28.588  35.531  1.00  0.00     0.198 A 
ATOM     68  C   UNL A   1      44.876  26.958  36.426  1.00  0.00     0.198 A 
ATOM     69  F   UNL A   1      42.607  26.996  35.802  1.00  0.00    -0.203 F 
ATOM     70  F   UNL A   1      47.635  29.087  35.430  1.00  0.00    -0.200 F 
ATOM     71  C   UNL A   1      46.155  27.486  36.339  1.00  0.00     0.200 A 
ATOM     72  F   UNL A   1      44.641  25.897  37.212  1.00  0.00    -0.200 F 
ATOM     73  F   UNL A   1      47.159  26.929  37.029  1.00  0.00    -0.200 F 
ENDBRANCH  40  63
ENDBRANCH  14  15
ENDBRANCH   7   9
ENDBRANCH   4   5
ENDBRANCH   3   4
ENDBRANCH   2   3
ENDBRANCH   1   2
BRANCH   1  74
ATOM     74  C   UNL A   1      32.570  29.174  27.328  1.00  0.00     0.021 C 
BRANCH  74  75
ATOM     75  C   UNL A   1      32.831  27.730  26.903  1.00  0.00     0.116 C 
BRANCH  75  76
ATOM     76  N   UNL A   1      31.655  26.896  27.074  1.00  0.00    -0.356 N 
ATOM     77  C   UNL A   1      30.841  26.325  26.130  1.00  0.00     0.224 C 
ATOM     78  H   UNL A   1      31.405  26.712  28.008  1.00  0.00     0.163 HD
ATOM     79  O   UNL A   1      29.773  25.846  26.502  1.00  0.00    -0.275 OA
BRANCH  77  80
ATOM     80  C   UNL A   1      31.285  26.360  24.679  1.00  0.00     0.096 C 
ATOM     81  C   UNL A   1      30.223  26.809  23.677  1.00  0.00     0.015 C 
ATOM     82  C   UNL A   1      32.056  25.117  24.223  1.00  0.00     0.082 C 
ATOM     83  C   UNL A   1      30.894  27.144  22.347  1.00  0.00     0.001 C 
ATOM     84  C   UNL A   1      32.638  25.312  22.818  1.00  0.00     0.021 C 
ATOM     85  C   UNL A   1      31.709  25.977  21.802  1.00  0.00     0.002 C 
BRANCH  82  86
ATOM     86  N   UNL A   1      31.499  23.770  24.448  1.00  0.00    -0.207 NA
ATOM     87  H   UNL A   1      31.848  23.234  23.654  1.00  0.00     0.141 HD
BRANCH  86  88
ATOM     88  S   UNL A   1      31.618  22.697  25.722  1.00  0.00     0.240 S 
ATOM     89  O   UNL A   1      32.343  23.415  26.750  1.00  0.00    -0.207 OA
ATOM     90  O   UNL A   1      30.328  22.116  25.985  1.00  0.00    -0.207 OA
BRANCH  88  91
ATOM     91  C   UNL A   1      32.708  21.433  25.140  1.00  0.00     0.083 A 
ATOM     92  C   UNL A   1      33.984  21.310  25.690  1.00  0.00     0.022 A 
ATOM     93  C   UNL A   1      32.226  20.498  24.219  1.00  0.00     0.030 A 
ATOM     94  C   UNL A   1      34.753  20.186  25.383  1.00  0.00     0.010 A 
ATOM     95  C   UNL A   1      32.967  19.341  23.952  1.00  0.00    -0.017 A 
ATOM     96  C   UNL A   1      34.239  19.173  24.556  1.00  0.00    -0.018 A 
ATOM     97  C   UNL A   1      32.439  18.314  23.156  1.00  0.00     0.009 A 
ATOM     98  C   UNL A   1      34.935  17.972  24.354  1.00  0.00     0.009 A 
ATOM     99  C   UNL A   1      33.136  17.119  22.984  1.00  0.00     0.001 A 
ATOM    100  C   UNL A   1      34.381  16.947  23.585  1.00  0.00     0.001 A 
ENDBRANCH  88  91
ENDBRANCH  86  88
ENDBRANCH  82  86
ENDBRANCH  77  80
ENDBRANCH  75  76
ENDBRANCH  74  75
ENDBRANCH   1  74
TORSDOF 16
ENDMDL
