MODEL 1
REMARK VINA RESULT:     -14.2      0.000      0.000
REMARK SMILES Cc1ccc(S(=O)(=O)Nc2ccc(C(=O)CCC(=O)NCCCCCCNC(=O)c3ccc(-c4c5nc(c(-c6c(F)c(F)c(F)c(F)c6F)c6ccc([nH]6)c(-c6c(F)c(F)c(F)c(F)c6F)c6nc(c(-c7c(F)c(F)c(F)c(F)c7F)c7ccc4[nH]7)C=C6)C=C5)cc3)cc2)c(C)c1
REMARK SMILES IDX 21 1 20 2 18 3 19 4 17 6 16 7 14 8 15 9 13 10 10 11 11 12
REMARK SMILES IDX 94 13 12 14 93 15 9 16 6 18 7 19 8 20 5 21 1 22 2 23 3 24
REMARK SMILES IDX 97 25 4 26 95 27 96 28 22 29 23 30 24 31 25 32 26 33 27 34
REMARK SMILES IDX 28 35 29 37 30 38 31 39 92 40 32 41 91 42 33 43 34 44 35 45
REMARK SMILES IDX 85 46 36 47 90 48 84 49 86 50 37 51 89 52 83 53 82 54 38 56
REMARK SMILES IDX 70 57 50 58 69 59 51 60 54 61 68 62 87 63 52 64 53 65 67 67
REMARK SMILES IDX 88 68 55 69 39 70 40 71 48 72 41 73 42 74 46 75 49 76 43 77
REMARK SMILES IDX 44 78 47 79 45 80 71 81 72 82 80 83 73 84 74 85 78 86 81 87
REMARK SMILES IDX 75 88 76 89 79 90 77 91 56 92 57 93 65 94 58 95 59 96 63 97
REMARK SMILES IDX 66 98 60 99 61 100 64 101 62 102
REMARK H PARENT 20 5 9 17 27 36 86 55 54 66
REMARK Flexibility Score: inf
ROOT
ATOM      1  C   UNL A   1      32.598  25.683  25.085  1.00  0.00     0.116 C 
ENDROOT
BRANCH   1   2
ATOM      2  N   UNL A   1      32.880  26.214  23.733  1.00  0.00    -0.356 N 
ATOM      3  C   UNL A   1      33.217  25.491  22.607  1.00  0.00     0.220 C 
ATOM      4  O   UNL A   1      33.848  26.064  21.716  1.00  0.00    -0.275 OA
ATOM      5  H   UNL A   1      32.821  27.190  23.624  1.00  0.00     0.163 HD
BRANCH   3   6
ATOM      6  C   UNL A   1      32.828  24.007  22.475  1.00  0.00     0.108 C 
BRANCH   6   7
ATOM      7  C   UNL A   1      33.906  22.979  22.923  1.00  0.00     0.091 C 
BRANCH   7   8
ATOM      8  C   UNL A   1      33.602  22.159  24.209  1.00  0.00     0.163 C 
ATOM      9  O   UNL A   1      32.467  21.842  24.547  1.00  0.00    -0.294 OA
BRANCH   8  10
ATOM     10  C   UNL A   1      34.728  21.927  25.188  1.00  0.00     0.018 A 
ATOM     11  C   UNL A   1      38.365  22.003  25.463  1.00  0.00     0.049 A 
ATOM     12  C   UNL A   1      37.387  23.519  25.756  1.00  0.00     0.027 A 
ATOM     13  C   UNL A   1      37.522  20.473  25.085  1.00  0.00     0.027 A 
ATOM     14  C   UNL A   1      35.575  23.479  25.643  1.00  0.00     0.014 A 
ATOM     15  C   UNL A   1      35.703  20.437  24.955  1.00  0.00     0.014 A 
BRANCH  11  16
ATOM     16  N   UNL A   1      39.723  22.035  25.947  1.00  0.00    -0.280 N 
ATOM     17  H   UNL A   1      40.142  22.922  26.023  1.00  0.00     0.180 HD
BRANCH  16  18
ATOM     18  S   UNL A   1      40.659  20.723  26.392  1.00  0.00     0.262 S 
ATOM     19  O   UNL A   1      40.368  19.643  25.477  1.00  0.00    -0.201 OA
ATOM     20  O   UNL A   1      40.431  20.583  27.816  1.00  0.00    -0.201 OA
BRANCH  18  21
ATOM     21  C   UNL A   1      42.332  21.227  26.182  1.00  0.00     0.090 A 
ATOM     22  C   UNL A   1      45.664  22.662  23.970  1.00  0.00     0.044 C 
ATOM     23  C   UNL A   1      44.581  22.146  24.865  1.00  0.00    -0.051 A 
ATOM     24  C   UNL A   1      43.759  23.048  25.540  1.00  0.00     0.005 A 
ATOM     25  C   UNL A   1      44.393  20.770  25.057  1.00  0.00     0.008 A 
ATOM     26  C   UNL A   1      42.645  22.583  26.227  1.00  0.00     0.023 A 
ATOM     27  C   UNL A   1      43.266  20.291  25.734  1.00  0.00    -0.030 A 
ATOM     28  C   UNL A   1      43.156  18.834  26.087  1.00  0.00     0.046 C 
ENDBRANCH  18  21
ENDBRANCH  16  18
ENDBRANCH  11  16
ENDBRANCH   8  10
ENDBRANCH   7   8
ENDBRANCH   6   7
ENDBRANCH   3   6
ENDBRANCH   1   2
BRANCH   1  29
ATOM     29  C   UNL A   1      32.938  26.897  26.134  1.00  0.00     0.021 C 
BRANCH  29  30
ATOM     30  C   UNL A   1      32.246  28.855  26.763  1.00  0.00     0.002 C 
BRANCH  30  31
ATOM     31  C   UNL A   1      32.495  30.470  26.240  1.00  0.00     0.002 C 
BRANCH  31  32
ATOM     32  C   UNL A   1      31.950  31.641  27.048  1.00  0.00     0.021 C 
BRANCH  32  33
ATOM     33  C   UNL A   1      33.079  32.516  27.528  1.00  0.00     0.116 C 
BRANCH  33  34
ATOM     34  N   UNL A   1      32.667  33.920  27.633  1.00  0.00    -0.352 N 
ATOM     35  C   UNL A   1      33.040  34.847  28.576  1.00  0.00     0.251 C 
ATOM     36  H   UNL A   1      32.044  34.239  26.940  1.00  0.00     0.163 HD
ATOM     37  O   UNL A   1      32.455  35.913  28.703  1.00  0.00    -0.269 OA
BRANCH  35  38
ATOM     38  C   UNL A   1      34.169  34.491  29.447  1.00  0.00     0.039 A 
ATOM     39  C   UNL A   1      33.935  33.915  30.695  1.00  0.00     0.014 A 
ATOM     40  C   UNL A   1      35.458  34.595  28.922  1.00  0.00     0.014 A 
ATOM     41  C   UNL A   1      35.009  33.363  31.388  1.00  0.00     0.010 A 
ATOM     42  C   UNL A   1      36.486  33.909  29.535  1.00  0.00     0.010 A 
ATOM     43  C   UNL A   1      36.279  33.319  30.790  1.00  0.00    -0.014 A 
BRANCH  43  44
ATOM     44  C   UNL A   1      37.448  32.725  31.467  1.00  0.00     0.031 A 
ATOM     45  C   UNL A   1      38.135  31.558  30.816  1.00  0.00     0.074 A 
ATOM     46  C   UNL A   1      37.805  33.153  32.691  1.00  0.00     0.049 A 
ATOM     47  N   UNL A   1      39.086  30.792  31.279  1.00  0.00    -0.248 NA
ATOM     48  C   UNL A   1      37.644  31.163  29.483  1.00  0.00     0.031 C 
ATOM     49  C   UNL A   1      37.149  34.227  33.439  1.00  0.00     0.029 A 
ATOM     50  N   UNL A   1      38.796  32.718  33.532  1.00  0.00    -0.354 N 
ATOM     51  C   UNL A   1      39.278  29.815  30.313  1.00  0.00     0.074 A 
ATOM     52  C   UNL A   1      38.296  30.032  29.278  1.00  0.00     0.031 C 
ATOM     53  C   UNL A   1      37.769  34.381  34.620  1.00  0.00     0.029 A 
ATOM     54  C   UNL A   1      38.833  33.388  34.729  1.00  0.00     0.049 A 
ATOM     55  H   UNL A   1      39.421  31.994  33.299  1.00  0.00     0.167 HD
ATOM     56  C   UNL A   1      40.217  28.844  30.278  1.00  0.00     0.037 A 
ATOM     57  C   UNL A   1      39.630  33.203  35.798  1.00  0.00     0.037 A 
ATOM     58  C   UNL A   1      41.212  28.674  31.301  1.00  0.00     0.049 A 
ATOM     59  C   UNL A   1      40.681  32.127  35.733  1.00  0.00     0.074 A 
ATOM     60  C   UNL A   1      42.281  27.802  31.328  1.00  0.00     0.029 A 
ATOM     61  N   UNL A   1      41.246  29.397  32.486  1.00  0.00    -0.354 N 
ATOM     62  N   UNL A   1      40.933  31.277  34.766  1.00  0.00    -0.248 NA
ATOM     63  C   UNL A   1      41.557  31.986  36.902  1.00  0.00     0.031 C 
ATOM     64  C   UNL A   1      42.925  27.948  32.560  1.00  0.00     0.029 A 
ATOM     65  C   UNL A   1      42.292  28.954  33.276  1.00  0.00     0.049 A 
ATOM     66  H   UNL A   1      40.620  30.117  32.729  1.00  0.00     0.167 HD
ATOM     67  C   UNL A   1      41.998  30.503  35.204  1.00  0.00     0.074 A 
ATOM     68  C   UNL A   1      42.363  31.005  36.515  1.00  0.00     0.031 C 
ATOM     69  C   UNL A   1      42.616  29.467  34.585  1.00  0.00     0.037 A 
BRANCH  56  70
ATOM     70  C   UNL A   1      40.199  27.901  29.110  1.00  0.00     0.064 A 
ATOM     71  C   UNL A   1      39.499  26.683  29.146  1.00  0.00     0.173 A 
ATOM     72  C   UNL A   1      40.898  28.218  27.936  1.00  0.00     0.173 A 
ATOM     73  F   UNL A   1      38.828  26.321  30.250  1.00  0.00    -0.203 F 
ATOM     74  C   UNL A   1      39.538  25.801  28.069  1.00  0.00     0.198 A 
ATOM     75  C   UNL A   1      40.902  27.351  26.847  1.00  0.00     0.198 A 
ATOM     76  F   UNL A   1      41.585  29.367  27.846  1.00  0.00    -0.203 F 
ATOM     77  F   UNL A   1      38.922  24.614  28.156  1.00  0.00    -0.200 F 
ATOM     78  C   UNL A   1      40.233  26.138  26.918  1.00  0.00     0.200 A 
ATOM     79  F   UNL A   1      41.565  27.683  25.730  1.00  0.00    -0.200 F 
ATOM     80  F   UNL A   1      40.267  25.289  25.882  1.00  0.00    -0.200 F 
ENDBRANCH  56  70
BRANCH  57  81
ATOM     81  C   UNL A   1      39.463  34.062  36.998  1.00  0.00     0.064 A 
ATOM     82  C   UNL A   1      38.728  33.622  38.108  1.00  0.00     0.173 A 
ATOM     83  C   UNL A   1      40.067  35.326  37.078  1.00  0.00     0.173 A 
ATOM     84  F   UNL A   1      38.118  32.429  38.075  1.00  0.00    -0.203 F 
ATOM     85  C   UNL A   1      38.597  34.417  39.246  1.00  0.00     0.198 A 
ATOM     86  C   UNL A   1      39.960  36.106  38.228  1.00  0.00     0.198 A 
ATOM     87  F   UNL A   1      40.792  35.791  36.049  1.00  0.00    -0.203 F 
ATOM     88  F   UNL A   1      37.863  33.984  40.281  1.00  0.00    -0.200 F 
ATOM     89  C   UNL A   1      39.220  35.653  39.309  1.00  0.00     0.200 A 
ATOM     90  F   UNL A   1      40.582  37.292  38.291  1.00  0.00    -0.200 F 
ATOM     91  F   UNL A   1      39.108  36.408  40.410  1.00  0.00    -0.200 F 
ENDBRANCH  57  81
BRANCH  69  92
ATOM     92  C   UNL A   1      43.740  28.801  35.321  1.00  0.00     0.064 A 
ATOM     93  C   UNL A   1      45.070  29.208  35.144  1.00  0.00     0.173 A 
ATOM     94  C   UNL A   1      43.478  27.796  36.265  1.00  0.00     0.173 A 
ATOM     95  F   UNL A   1      45.371  30.155  34.242  1.00  0.00    -0.203 F 
ATOM     96  C   UNL A   1      46.099  28.620  35.872  1.00  0.00     0.198 A 
ATOM     97  C   UNL A   1      44.506  27.236  37.016  1.00  0.00     0.198 A 
ATOM     98  F   UNL A   1      42.221  27.379  36.478  1.00  0.00    -0.203 F 
ATOM     99  F   UNL A   1      47.368  28.996  35.657  1.00  0.00    -0.200 F 
ATOM    100  C   UNL A   1      45.816  27.644  36.816  1.00  0.00     0.200 A 
ATOM    101  F   UNL A   1      44.228  26.305  37.940  1.00  0.00    -0.200 F 
ATOM    102  F   UNL A   1      46.807  27.092  37.529  1.00  0.00    -0.200 F 
ENDBRANCH  69  92
ENDBRANCH  43  44
ENDBRANCH  35  38
ENDBRANCH  33  34
ENDBRANCH  32  33
ENDBRANCH  31  32
ENDBRANCH  30  31
ENDBRANCH  29  30
ENDBRANCH   1  29
TORSDOF 19
ENDMDL
MODEL 2
REMARK VINA RESULT:     -14.0      0.843      2.219
REMARK SMILES Cc1ccc(S(=O)(=O)Nc2ccc(C(=O)CCC(=O)NCCCCCCNC(=O)c3ccc(-c4c5nc(c(-c6c(F)c(F)c(F)c(F)c6F)c6ccc([nH]6)c(-c6c(F)c(F)c(F)c(F)c6F)c6nc(c(-c7c(F)c(F)c(F)c(F)c7F)c7ccc4[nH]7)C=C6)C=C5)cc3)cc2)c(C)c1
REMARK SMILES IDX 21 1 20 2 18 3 19 4 17 6 16 7 14 8 15 9 13 10 10 11 11 12
REMARK SMILES IDX 94 13 12 14 93 15 9 16 6 18 7 19 8 20 5 21 1 22 2 23 3 24
REMARK SMILES IDX 97 25 4 26 95 27 96 28 22 29 23 30 24 31 25 32 26 33 27 34
REMARK SMILES IDX 28 35 29 37 30 38 31 39 92 40 32 41 91 42 33 43 34 44 35 45
REMARK SMILES IDX 85 46 36 47 90 48 84 49 86 50 37 51 89 52 83 53 82 54 38 56
REMARK SMILES IDX 70 57 50 58 69 59 51 60 54 61 68 62 87 63 52 64 53 65 67 67
REMARK SMILES IDX 88 68 55 69 39 70 40 71 48 72 41 73 42 74 46 75 49 76 43 77
REMARK SMILES IDX 44 78 47 79 45 80 71 81 72 82 80 83 73 84 74 85 78 86 81 87
REMARK SMILES IDX 75 88 76 89 79 90 77 91 56 92 57 93 65 94 58 95 59 96 63 97
REMARK SMILES IDX 66 98 60 99 61 100 64 101 62 102
REMARK H PARENT 20 5 9 17 27 36 86 55 54 66
REMARK Flexibility Score: inf
ROOT
ATOM      1  C   UNL A   1      31.670  25.481  24.998  1.00  0.00     0.116 C 
ENDROOT
BRANCH   1   2
ATOM      2  N   UNL A   1      32.222  25.813  23.664  1.00  0.00    -0.356 N 
ATOM      3  C   UNL A   1      32.869  24.960  22.794  1.00  0.00     0.220 C 
ATOM      4  O   UNL A   1      33.646  25.449  21.972  1.00  0.00    -0.275 OA
ATOM      5  H   UNL A   1      32.114  26.744  23.366  1.00  0.00     0.163 HD
BRANCH   3   6
ATOM      6  C   UNL A   1      32.638  23.439  22.860  1.00  0.00     0.108 C 
BRANCH   6   7
ATOM      7  C   UNL A   1      33.846  22.588  23.346  1.00  0.00     0.091 C 
BRANCH   7   8
ATOM      8  C   UNL A   1      33.731  21.951  24.761  1.00  0.00     0.163 C 
ATOM      9  O   UNL A   1      32.657  21.719  25.304  1.00  0.00    -0.294 OA
BRANCH   8  10
ATOM     10  C   UNL A   1      34.990  21.806  25.581  1.00  0.00     0.018 A 
ATOM     11  C   UNL A   1      38.589  22.392  25.459  1.00  0.00     0.049 A 
ATOM     12  C   UNL A   1      37.458  23.718  26.007  1.00  0.00     0.027 A 
ATOM     13  C   UNL A   1      37.922  20.792  25.025  1.00  0.00     0.027 A 
ATOM     14  C   UNL A   1      35.667  23.423  26.092  1.00  0.00     0.014 A 
ATOM     15  C   UNL A   1      36.123  20.500  25.094  1.00  0.00     0.014 A 
BRANCH  11  16
ATOM     16  N   UNL A   1      39.979  22.582  25.790  1.00  0.00    -0.280 N 
ATOM     17  H   UNL A   1      40.402  23.407  25.458  1.00  0.00     0.180 HD
BRANCH  16  18
ATOM     18  S   UNL A   1      40.948  21.550  26.679  1.00  0.00     0.262 S 
ATOM     19  O   UNL A   1      41.444  20.530  25.784  1.00  0.00    -0.201 OA
ATOM     20  O   UNL A   1      40.145  21.208  27.836  1.00  0.00    -0.201 OA
BRANCH  18  21
ATOM     21  C   UNL A   1      42.296  22.525  27.254  1.00  0.00     0.090 A 
ATOM     22  C   UNL A   1      44.170  26.118  28.534  1.00  0.00     0.044 C 
ATOM     23  C   UNL A   1      43.641  24.787  28.098  1.00  0.00    -0.051 A 
ATOM     24  C   UNL A   1      43.070  23.931  29.039  1.00  0.00     0.005 A 
ATOM     25  C   UNL A   1      43.732  24.374  26.761  1.00  0.00     0.008 A 
ATOM     26  C   UNL A   1      42.419  22.779  28.617  1.00  0.00     0.023 A 
ATOM     27  C   UNL A   1      43.067  23.223  26.323  1.00  0.00    -0.030 A 
ATOM     28  C   UNL A   1      43.307  22.690  24.937  1.00  0.00     0.046 C 
ENDBRANCH  18  21
ENDBRANCH  16  18
ENDBRANCH  11  16
ENDBRANCH   8  10
ENDBRANCH   7   8
ENDBRANCH   6   7
ENDBRANCH   3   6
ENDBRANCH   1   2
BRANCH   1  29
ATOM     29  C   UNL A   1      32.400  26.495  26.060  1.00  0.00     0.021 C 
BRANCH  29  30
ATOM     30  C   UNL A   1      32.288  28.514  26.846  1.00  0.00     0.002 C 
BRANCH  30  31
ATOM     31  C   UNL A   1      32.776  30.069  26.308  1.00  0.00     0.002 C 
BRANCH  31  32
ATOM     32  C   UNL A   1      32.159  31.327  26.905  1.00  0.00     0.021 C 
BRANCH  32  33
ATOM     33  C   UNL A   1      33.234  32.223  27.463  1.00  0.00     0.116 C 
BRANCH  33  34
ATOM     34  N   UNL A   1      32.776  33.612  27.577  1.00  0.00    -0.352 N 
ATOM     35  C   UNL A   1      33.112  34.543  28.529  1.00  0.00     0.251 C 
ATOM     36  H   UNL A   1      32.147  33.916  26.883  1.00  0.00     0.163 HD
ATOM     37  O   UNL A   1      32.491  35.588  28.660  1.00  0.00    -0.269 OA
BRANCH  35  38
ATOM     38  C   UNL A   1      34.246  34.218  29.405  1.00  0.00     0.039 A 
ATOM     39  C   UNL A   1      34.040  33.493  30.578  1.00  0.00     0.014 A 
ATOM     40  C   UNL A   1      35.532  34.510  28.946  1.00  0.00     0.014 A 
ATOM     41  C   UNL A   1      35.146  32.987  31.255  1.00  0.00     0.010 A 
ATOM     42  C   UNL A   1      36.609  33.875  29.527  1.00  0.00     0.010 A 
ATOM     43  C   UNL A   1      36.430  33.138  30.707  1.00  0.00    -0.014 A 
BRANCH  43  44
ATOM     44  C   UNL A   1      37.636  32.602  31.367  1.00  0.00     0.031 A 
ATOM     45  C   UNL A   1      38.392  31.497  30.687  1.00  0.00     0.074 A 
ATOM     46  C   UNL A   1      37.970  33.021  32.601  1.00  0.00     0.049 A 
ATOM     47  N   UNL A   1      39.391  30.780  31.129  1.00  0.00    -0.248 NA
ATOM     48  C   UNL A   1      37.924  31.105  29.345  1.00  0.00     0.031 C 
ATOM     49  C   UNL A   1      37.250  34.034  33.376  1.00  0.00     0.029 A 
ATOM     50  N   UNL A   1      38.988  32.629  33.429  1.00  0.00    -0.354 N 
ATOM     51  C   UNL A   1      39.641  29.841  30.139  1.00  0.00     0.074 A 
ATOM     52  C   UNL A   1      38.644  30.022  29.111  1.00  0.00     0.031 C 
ATOM     53  C   UNL A   1      37.863  34.197  34.559  1.00  0.00     0.029 A 
ATOM     54  C   UNL A   1      38.988  33.270  34.642  1.00  0.00     0.049 A 
ATOM     55  H   UNL A   1      39.657  31.952  33.177  1.00  0.00     0.167 HD
ATOM     56  C   UNL A   1      40.638  28.932  30.079  1.00  0.00     0.037 A 
ATOM     57  C   UNL A   1      39.798  33.110  35.705  1.00  0.00     0.037 A 
ATOM     58  C   UNL A   1      41.645  28.800  31.095  1.00  0.00     0.049 A 
ATOM     59  C   UNL A   1      40.913  32.103  35.613  1.00  0.00     0.074 A 
ATOM     60  C   UNL A   1      42.767  27.996  31.099  1.00  0.00     0.029 A 
ATOM     61  N   UNL A   1      41.638  29.494  32.298  1.00  0.00    -0.354 N 
ATOM     62  N   UNL A   1      41.215  31.294  34.624  1.00  0.00    -0.248 NA
ATOM     63  C   UNL A   1      41.800  31.988  36.776  1.00  0.00     0.031 C 
ATOM     64  C   UNL A   1      43.404  28.152  32.334  1.00  0.00     0.029 A 
ATOM     65  C   UNL A   1      42.712  29.098  33.075  1.00  0.00     0.049 A 
ATOM     66  H   UNL A   1      40.969  30.167  32.560  1.00  0.00     0.167 HD
ATOM     67  C   UNL A   1      42.327  30.578  35.041  1.00  0.00     0.074 A 
ATOM     68  C   UNL A   1      42.664  31.069  36.364  1.00  0.00     0.031 C 
ATOM     69  C   UNL A   1      43.008  29.598  34.396  1.00  0.00     0.037 A 
BRANCH  56  70
ATOM     70  C   UNL A   1      40.676  28.019  28.888  1.00  0.00     0.064 A 
ATOM     71  C   UNL A   1      41.297  28.389  27.684  1.00  0.00     0.173 A 
ATOM     72  C   UNL A   1      40.074  26.753  28.949  1.00  0.00     0.173 A 
ATOM     73  F   UNL A   1      41.873  29.595  27.563  1.00  0.00    -0.203 F 
ATOM     74  C   UNL A   1      41.276  27.547  26.576  1.00  0.00     0.198 A 
ATOM     75  C   UNL A   1      40.088  25.898  27.851  1.00  0.00     0.198 A 
ATOM     76  F   UNL A   1      39.464  26.347  30.073  1.00  0.00    -0.203 F 
ATOM     77  F   UNL A   1      41.813  27.953  25.417  1.00  0.00    -0.200 F 
ATOM     78  C   UNL A   1      40.678  26.299  26.662  1.00  0.00     0.200 A 
ATOM     79  F   UNL A   1      39.520  24.687  27.939  1.00  0.00    -0.200 F 
ATOM     80  F   UNL A   1      40.660  25.488  25.595  1.00  0.00    -0.200 F 
ENDBRANCH  56  70
BRANCH  57  81
ATOM     81  C   UNL A   1      39.581  33.926  36.927  1.00  0.00     0.064 A 
ATOM     82  C   UNL A   1      40.080  35.233  37.024  1.00  0.00     0.173 A 
ATOM     83  C   UNL A   1      38.835  33.433  38.008  1.00  0.00     0.173 A 
ATOM     84  F   UNL A   1      40.812  35.745  36.025  1.00  0.00    -0.203 F 
ATOM     85  C   UNL A   1      39.850  36.009  38.159  1.00  0.00     0.198 A 
ATOM     86  C   UNL A   1      38.580  34.221  39.129  1.00  0.00     0.198 A 
ATOM     87  F   UNL A   1      38.324  32.193  37.962  1.00  0.00    -0.203 F 
ATOM     88  F   UNL A   1      40.365  37.244  38.238  1.00  0.00    -0.200 F 
ATOM     89  C   UNL A   1      39.093  35.507  39.206  1.00  0.00     0.200 A 
ATOM     90  F   UNL A   1      37.830  33.738  40.129  1.00  0.00    -0.200 F 
ATOM     91  F   UNL A   1      38.857  36.260  40.289  1.00  0.00    -0.200 F 
ENDBRANCH  57  81
BRANCH  69  92
ATOM     92  C   UNL A   1      44.173  28.986  35.114  1.00  0.00     0.064 A 
ATOM     93  C   UNL A   1      44.023  27.834  35.898  1.00  0.00     0.173 A 
ATOM     94  C   UNL A   1      45.464  29.514  34.957  1.00  0.00     0.173 A 
ATOM     95  F   UNL A   1      42.807  27.301  36.089  1.00  0.00    -0.203 F 
ATOM     96  C   UNL A   1      45.121  27.243  36.515  1.00  0.00     0.198 A 
ATOM     97  C   UNL A   1      46.564  28.900  35.548  1.00  0.00     0.198 A 
ATOM     98  F   UNL A   1      45.661  30.610  34.208  1.00  0.00    -0.203 F 
ATOM     99  F   UNL A   1      44.948  26.165  37.294  1.00  0.00    -0.200 F 
ATOM    100  C   UNL A   1      46.391  27.768  36.330  1.00  0.00     0.200 A 
ATOM    101  F   UNL A   1      47.792  29.399  35.352  1.00  0.00    -0.200 F 
ATOM    102  F   UNL A   1      47.449  27.187  36.911  1.00  0.00    -0.200 F 
ENDBRANCH  69  92
ENDBRANCH  43  44
ENDBRANCH  35  38
ENDBRANCH  33  34
ENDBRANCH  32  33
ENDBRANCH  31  32
ENDBRANCH  30  31
ENDBRANCH  29  30
ENDBRANCH   1  29
TORSDOF 19
ENDMDL
MODEL 3
REMARK VINA RESULT:     -13.8      5.543     11.758
REMARK SMILES Cc1ccc(S(=O)(=O)Nc2ccc(C(=O)CCC(=O)NCCCCCCNC(=O)c3ccc(-c4c5nc(c(-c6c(F)c(F)c(F)c(F)c6F)c6ccc([nH]6)c(-c6c(F)c(F)c(F)c(F)c6F)c6nc(c(-c7c(F)c(F)c(F)c(F)c7F)c7ccc4[nH]7)C=C6)C=C5)cc3)cc2)c(C)c1
REMARK SMILES IDX 21 1 20 2 18 3 19 4 17 6 16 7 14 8 15 9 13 10 10 11 11 12
REMARK SMILES IDX 94 13 12 14 93 15 9 16 6 18 7 19 8 20 5 21 1 22 2 23 3 24
REMARK SMILES IDX 97 25 4 26 95 27 96 28 22 29 23 30 24 31 25 32 26 33 27 34
REMARK SMILES IDX 28 35 29 37 30 38 31 39 92 40 32 41 91 42 33 43 34 44 35 45
REMARK SMILES IDX 85 46 36 47 90 48 84 49 86 50 37 51 89 52 83 53 82 54 38 56
REMARK SMILES IDX 70 57 50 58 69 59 51 60 54 61 68 62 87 63 52 64 53 65 67 67
REMARK SMILES IDX 88 68 55 69 39 70 40 71 48 72 41 73 42 74 46 75 49 76 43 77
REMARK SMILES IDX 44 78 47 79 45 80 71 81 72 82 80 83 73 84 74 85 78 86 81 87
REMARK SMILES IDX 75 88 76 89 79 90 77 91 56 92 57 93 65 94 58 95 59 96 63 97
REMARK SMILES IDX 66 98 60 99 61 100 64 101 62 102
REMARK H PARENT 20 5 9 17 27 36 86 55 54 66
REMARK Flexibility Score: inf
ROOT
ATOM      1  C   UNL A   1      36.458  23.190  24.187  1.00  0.00     0.116 C 
ENDROOT
BRANCH   1   2
ATOM      2  N   UNL A   1      37.029  21.840  23.972  1.00  0.00    -0.356 N 
ATOM      3  C   UNL A   1      36.696  20.679  24.640  1.00  0.00     0.220 C 
ATOM      4  O   UNL A   1      37.533  19.776  24.685  1.00  0.00    -0.275 OA
ATOM      5  H   UNL A   1      37.721  21.763  23.278  1.00  0.00     0.163 HD
BRANCH   3   6
ATOM      6  C   UNL A   1      35.324  20.525  25.321  1.00  0.00     0.108 C 
BRANCH   6   7
ATOM      7  C   UNL A   1      34.369  19.468  24.695  1.00  0.00     0.091 C 
BRANCH   7   8
ATOM      8  C   UNL A   1      32.854  19.613  25.019  1.00  0.00     0.163 C 
ATOM      9  O   UNL A   1      32.154  18.672  25.375  1.00  0.00    -0.294 OA
BRANCH   8  10
ATOM     10  C   UNL A   1      32.176  20.919  24.680  1.00  0.00     0.018 A 
ATOM     11  C   UNL A   1      32.860  24.283  23.446  1.00  0.00     0.049 A 
ATOM     12  C   UNL A   1      32.540  22.918  22.273  1.00  0.00     0.027 A 
ATOM     13  C   UNL A   1      32.791  23.965  25.203  1.00  0.00     0.027 A 
ATOM     14  C   UNL A   1      32.175  21.247  22.884  1.00  0.00     0.014 A 
ATOM     15  C   UNL A   1      32.442  22.283  25.817  1.00  0.00     0.014 A 
BRANCH  11  16
ATOM     16  N   UNL A   1      32.751  25.613  22.899  1.00  0.00    -0.280 N 
ATOM     17  H   UNL A   1      33.535  25.952  22.410  1.00  0.00     0.180 HD
BRANCH  16  18
ATOM     18  S   UNL A   1      31.435  26.637  23.009  1.00  0.00     0.262 S 
ATOM     19  O   UNL A   1      30.437  25.986  23.827  1.00  0.00    -0.201 OA
ATOM     20  O   UNL A   1      31.153  27.012  21.639  1.00  0.00    -0.201 OA
BRANCH  18  21
ATOM     21  C   UNL A   1      32.011  28.081  23.834  1.00  0.00     0.090 A 
ATOM     22  C   UNL A   1      32.970  30.438  27.237  1.00  0.00     0.044 C 
ATOM     23  C   UNL A   1      32.670  29.725  25.956  1.00  0.00    -0.051 A 
ATOM     24  C   UNL A   1      33.654  28.935  25.362  1.00  0.00     0.005 A 
ATOM     25  C   UNL A   1      31.423  29.854  25.328  1.00  0.00     0.008 A 
ATOM     26  C   UNL A   1      33.330  28.131  24.277  1.00  0.00     0.023 A 
ATOM     27  C   UNL A   1      31.081  29.038  24.244  1.00  0.00    -0.030 A 
ATOM     28  C   UNL A   1      29.819  29.298  23.469  1.00  0.00     0.046 C 
ENDBRANCH  18  21
ENDBRANCH  16  18
ENDBRANCH  11  16
ENDBRANCH   8  10
ENDBRANCH   7   8
ENDBRANCH   6   7
ENDBRANCH   3   6
ENDBRANCH   1   2
BRANCH   1  29
ATOM     29  C   UNL A   1      37.151  23.767  25.556  1.00  0.00     0.021 C 
BRANCH  29  30
ATOM     30  C   UNL A   1      39.025  23.774  26.651  1.00  0.00     0.002 C 
BRANCH  30  31
ATOM     31  C   UNL A   1      40.090  22.577  27.266  1.00  0.00     0.002 C 
BRANCH  31  32
ATOM     32  C   UNL A   1      40.119  21.179  26.662  1.00  0.00     0.021 C 
BRANCH  32  33
ATOM     33  C   UNL A   1      41.125  20.318  27.382  1.00  0.00     0.116 C 
BRANCH  33  34
ATOM     34  N   UNL A   1      41.864  19.457  26.453  1.00  0.00    -0.352 N 
ATOM     35  C   UNL A   1      42.855  19.813  25.570  1.00  0.00     0.251 C 
ATOM     36  H   UNL A   1      41.619  18.504  26.463  1.00  0.00     0.163 HD
ATOM     37  O   UNL A   1      43.232  19.060  24.683  1.00  0.00    -0.269 OA
BRANCH  35  38
ATOM     38  C   UNL A   1      43.433  21.155  25.725  1.00  0.00     0.039 A 
ATOM     39  C   UNL A   1      43.096  22.169  24.829  1.00  0.00     0.014 A 
ATOM     40  C   UNL A   1      44.182  21.416  26.873  1.00  0.00     0.014 A 
ATOM     41  C   UNL A   1      43.454  23.479  25.137  1.00  0.00     0.010 A 
ATOM     42  C   UNL A   1      44.392  22.725  27.250  1.00  0.00     0.010 A 
ATOM     43  C   UNL A   1      44.063  23.766  26.369  1.00  0.00    -0.014 A 
BRANCH  43  44
ATOM     44  C   UNL A   1      44.442  25.138  26.760  1.00  0.00     0.031 A 
ATOM     45  C   UNL A   1      43.379  26.043  27.314  1.00  0.00     0.074 A 
ATOM     46  C   UNL A   1      45.685  25.589  26.511  1.00  0.00     0.049 A 
ATOM     47  N   UNL A   1      43.439  27.317  27.597  1.00  0.00    -0.248 NA
ATOM     48  C   UNL A   1      42.048  25.446  27.525  1.00  0.00     0.031 C 
ATOM     49  C   UNL A   1      46.764  24.808  25.903  1.00  0.00     0.029 A 
ATOM     50  N   UNL A   1      46.242  26.823  26.719  1.00  0.00    -0.354 N 
ATOM     51  C   UNL A   1      42.155  27.672  27.983  1.00  0.00     0.074 A 
ATOM     52  C   UNL A   1      41.318  26.507  27.823  1.00  0.00     0.031 C 
ATOM     53  C   UNL A   1      47.860  25.578  25.806  1.00  0.00     0.029 A 
ATOM     54  C   UNL A   1      47.546  26.914  26.302  1.00  0.00     0.049 A 
ATOM     55  H   UNL A   1      45.753  27.572  27.129  1.00  0.00     0.167 HD
ATOM     56  C   UNL A   1      41.722  28.858  28.463  1.00  0.00     0.037 A 
ATOM     57  C   UNL A   1      48.383  27.968  26.307  1.00  0.00     0.037 A 
ATOM     58  C   UNL A   1      42.584  29.991  28.654  1.00  0.00     0.049 A 
ATOM     59  C   UNL A   1      47.887  29.277  26.861  1.00  0.00     0.074 A 
ATOM     60  C   UNL A   1      42.292  31.210  29.234  1.00  0.00     0.029 A 
ATOM     61  N   UNL A   1      43.914  30.039  28.256  1.00  0.00    -0.354 N 
ATOM     62  N   UNL A   1      46.700  29.576  27.332  1.00  0.00    -0.248 NA
ATOM     63  C   UNL A   1      48.843  30.390  26.888  1.00  0.00     0.031 C 
ATOM     64  C   UNL A   1      43.426  32.021  29.126  1.00  0.00     0.029 A 
ATOM     65  C   UNL A   1      44.443  31.287  28.533  1.00  0.00     0.049 A 
ATOM     66  H   UNL A   1      44.407  29.296  27.839  1.00  0.00     0.167 HD
ATOM     67  C   UNL A   1      46.765  30.908  27.716  1.00  0.00     0.074 A 
ATOM     68  C   UNL A   1      48.120  31.350  27.448  1.00  0.00     0.031 C 
ATOM     69  C   UNL A   1      45.794  31.698  28.237  1.00  0.00     0.037 A 
BRANCH  56  70
ATOM     70  C   UNL A   1      40.264  28.981  28.801  1.00  0.00     0.064 A 
ATOM     71  C   UNL A   1      39.295  29.272  27.827  1.00  0.00     0.173 A 
ATOM     72  C   UNL A   1      39.830  28.811  30.124  1.00  0.00     0.173 A 
ATOM     73  F   UNL A   1      39.658  29.463  26.549  1.00  0.00    -0.203 F 
ATOM     74  C   UNL A   1      37.956  29.431  28.172  1.00  0.00     0.198 A 
ATOM     75  C   UNL A   1      38.484  28.932  30.458  1.00  0.00     0.198 A 
ATOM     76  F   UNL A   1      40.711  28.533  31.096  1.00  0.00    -0.203 F 
ATOM     77  F   UNL A   1      37.062  29.780  27.236  1.00  0.00    -0.200 F 
ATOM     78  C   UNL A   1      37.550  29.255  29.485  1.00  0.00     0.200 A 
ATOM     79  F   UNL A   1      38.090  28.750  31.727  1.00  0.00    -0.200 F 
ATOM     80  F   UNL A   1      36.260  29.406  29.815  1.00  0.00    -0.200 F 
ENDBRANCH  56  70
BRANCH  57  81
ATOM     81  C   UNL A   1      49.764  27.814  25.780  1.00  0.00     0.064 A 
ATOM     82  C   UNL A   1      50.015  27.782  24.401  1.00  0.00     0.173 A 
ATOM     83  C   UNL A   1      50.867  27.736  26.643  1.00  0.00     0.173 A 
ATOM     84  F   UNL A   1      48.993  27.838  23.535  1.00  0.00    -0.203 F 
ATOM     85  C   UNL A   1      51.313  27.668  23.907  1.00  0.00     0.198 A 
ATOM     86  C   UNL A   1      52.167  27.652  26.149  1.00  0.00     0.198 A 
ATOM     87  F   UNL A   1      50.685  27.773  27.972  1.00  0.00    -0.203 F 
ATOM     88  F   UNL A   1      51.522  27.609  22.585  1.00  0.00    -0.200 F 
ATOM     89  C   UNL A   1      52.388  27.613  24.780  1.00  0.00     0.200 A 
ATOM     90  F   UNL A   1      53.204  27.620  26.996  1.00  0.00    -0.200 F 
ATOM     91  F   UNL A   1      53.638  27.521  24.305  1.00  0.00    -0.200 F 
ENDBRANCH  57  81
BRANCH  69  92
ATOM     92  C   UNL A   1      46.157  33.121  28.539  1.00  0.00     0.064 A 
ATOM     93  C   UNL A   1      45.952  34.141  27.600  1.00  0.00     0.173 A 
ATOM     94  C   UNL A   1      46.648  33.478  29.805  1.00  0.00     0.173 A 
ATOM     95  F   UNL A   1      45.499  33.847  26.372  1.00  0.00    -0.203 F 
ATOM     96  C   UNL A   1      46.242  35.466  27.910  1.00  0.00     0.198 A 
ATOM     97  C   UNL A   1      46.903  34.808  30.123  1.00  0.00     0.198 A 
ATOM     98  F   UNL A   1      46.851  32.539  30.742  1.00  0.00    -0.203 F 
ATOM     99  F   UNL A   1      46.076  36.420  26.984  1.00  0.00    -0.200 F 
ATOM    100  C   UNL A   1      46.705  35.800  29.175  1.00  0.00     0.200 A 
ATOM    101  F   UNL A   1      47.333  35.131  31.351  1.00  0.00    -0.200 F 
ATOM    102  F   UNL A   1      46.966  37.079  29.477  1.00  0.00    -0.200 F 
ENDBRANCH  69  92
ENDBRANCH  43  44
ENDBRANCH  35  38
ENDBRANCH  33  34
ENDBRANCH  32  33
ENDBRANCH  31  32
ENDBRANCH  30  31
ENDBRANCH  29  30
ENDBRANCH   1  29
TORSDOF 19
ENDMDL
