MODEL 1
REMARK VINA RESULT:      -9.0      0.000      0.000
REMARK SMILES O=C(/C=C/c1ccc(NC(=O)NC2CCCC2)c(F)c1)NCCCCCCNC(=O)c1ccc(-c2c3nc(c(-c4c(F)c(F)c(F)c(F)c4F)c4ccc([nH]4)c(-c4c(F)c(F)c(F)c(F)c4F)c4nc(c(-c5c(F)c(F)c(F)c(F)c5F)c5ccc2[nH]5)C=C4)C=C3)cc1
REMARK SMILES IDX 24 1 23 2 22 3 21 4 1 5 2 6 3 8 4 9 5 10 6 11 20 12 7 13
REMARK SMILES IDX 18 14 8 15 19 16 9 17 10 18 11 20 12 21 13 23 14 24 17 25
REMARK SMILES IDX 15 26 16 27 25 28 26 29 27 30 28 31 29 32 30 34 31 35 32 36
REMARK SMILES IDX 93 37 33 38 92 39 34 40 35 41 36 42 86 43 37 44 91 45 85 46
REMARK SMILES IDX 87 47 38 48 90 49 84 50 83 51 39 53 71 54 51 55 70 56 52 57
REMARK SMILES IDX 55 58 69 59 88 60 53 61 54 62 68 64 89 65 56 66 40 67 41 68
REMARK SMILES IDX 49 69 42 70 43 71 47 72 50 73 44 74 45 75 48 76 46 77 72 78
REMARK SMILES IDX 73 79 81 80 74 81 75 82 79 83 82 84 76 85 77 86 80 87 78 88
REMARK SMILES IDX 57 89 58 90 66 91 59 92 60 93 64 94 67 95 61 96 62 97 65 98
REMARK SMILES IDX 63 99
REMARK H PARENT 21 7 9 19 12 22 28 33 87 52 55 63
REMARK Flexibility Score: inf
ROOT
ATOM      1  C   UNL A   1      40.908  22.005  26.615  1.00  0.00     0.002 C 
ENDROOT
BRANCH   1   2
ATOM      2  C   UNL A   1      39.531  22.672  26.482  1.00  0.00     0.021 C 
BRANCH   2   3
ATOM      3  C   UNL A   1      38.491  21.822  25.752  1.00  0.00     0.116 C 
BRANCH   3   4
ATOM      4  N   UNL A   1      37.487  22.664  25.142  1.00  0.00    -0.353 N 
ATOM      5  O   UNL A   1      35.653  21.716  26.160  1.00  0.00    -0.270 OA
ATOM      6  C   UNL A   1      36.147  22.468  25.328  1.00  0.00     0.243 C 
ATOM      7  H   UNL A   1      37.780  23.411  24.570  1.00  0.00     0.163 HD
BRANCH   6   8
ATOM      8  C   UNL A   1      35.286  23.307  24.466  1.00  0.00     0.072 C 
ATOM      9  C   UNL A   1      33.969  23.474  24.677  1.00  0.00     0.014 C 
BRANCH   9  10
ATOM     10  C   UNL A   1      33.189  24.318  23.773  1.00  0.00    -0.022 A 
ATOM     11  C   UNL A   1      33.848  25.146  22.862  1.00  0.00     0.010 A 
ATOM     12  C   UNL A   1      31.797  24.354  23.838  1.00  0.00     0.049 A 
ATOM     13  C   UNL A   1      33.131  26.100  22.138  1.00  0.00     0.030 A 
ATOM     14  C   UNL A   1      31.110  25.354  23.151  1.00  0.00     0.147 A 
ATOM     15  C   UNL A   1      31.792  26.325  22.409  1.00  0.00     0.078 A 
ATOM     16  F   UNL A   1      29.777  25.435  23.285  1.00  0.00    -0.205 F 
BRANCH  15  17
ATOM     17  N   UNL A   1      31.085  27.467  22.000  1.00  0.00    -0.305 N 
ATOM     18  C   UNL A   1      30.944  28.736  22.439  1.00  0.00     0.319 C 
ATOM     19  H   UNL A   1      30.559  27.300  21.185  1.00  0.00     0.171 HD
ATOM     20  O   UNL A   1      30.287  29.508  21.732  1.00  0.00    -0.248 OA
ATOM     21  N   UNL A   1      31.352  29.217  23.629  1.00  0.00    -0.335 N 
ATOM     22  H   UNL A   1      31.057  30.141  23.790  1.00  0.00     0.165 HD
BRANCH  21  23
ATOM     23  C   UNL A   1      32.124  28.675  24.717  1.00  0.00     0.083 C 
ATOM     24  C   UNL A   1      32.675  29.774  25.627  1.00  0.00     0.025 C 
ATOM     25  C   UNL A   1      31.399  27.816  25.752  1.00  0.00     0.025 C 
ATOM     26  C   UNL A   1      33.303  28.982  26.763  1.00  0.00     0.002 C 
ATOM     27  C   UNL A   1      32.471  27.694  26.849  1.00  0.00     0.002 C 
ENDBRANCH  21  23
ENDBRANCH  15  17
ENDBRANCH   9  10
ENDBRANCH   6   8
ENDBRANCH   3   4
ENDBRANCH   2   3
ENDBRANCH   1   2
BRANCH   1  28
ATOM     28  C   UNL A   1      40.887  20.567  27.142  1.00  0.00     0.002 C 
BRANCH  28  29
ATOM     29  C   UNL A   1      41.306  19.503  26.127  1.00  0.00     0.021 C 
BRANCH  29  30
ATOM     30  C   UNL A   1      42.607  18.779  26.460  1.00  0.00     0.116 C 
BRANCH  30  31
ATOM     31  N   UNL A   1      43.470  18.628  25.300  1.00  0.00    -0.352 N 
ATOM     32  C   UNL A   1      44.146  19.579  24.579  1.00  0.00     0.251 C 
ATOM     33  H   UNL A   1      43.586  17.703  24.984  1.00  0.00     0.163 HD
ATOM     34  O   UNL A   1      44.681  19.276  23.517  1.00  0.00    -0.269 OA
BRANCH  32  35
ATOM     35  C   UNL A   1      44.211  20.977  25.060  1.00  0.00     0.039 A 
ATOM     36  C   UNL A   1      44.695  21.218  26.347  1.00  0.00     0.014 A 
ATOM     37  C   UNL A   1      43.785  22.044  24.262  1.00  0.00     0.014 A 
ATOM     38  C   UNL A   1      44.807  22.529  26.811  1.00  0.00     0.010 A 
ATOM     39  C   UNL A   1      43.972  23.355  24.695  1.00  0.00     0.010 A 
ATOM     40  C   UNL A   1      44.484  23.612  25.974  1.00  0.00    -0.014 A 
BRANCH  40  41
ATOM     41  C   UNL A   1      44.711  25.009  26.428  1.00  0.00     0.031 A 
ATOM     42  C   UNL A   1      46.065  25.649  26.312  1.00  0.00     0.074 A 
ATOM     43  C   UNL A   1      43.690  25.694  26.978  1.00  0.00     0.049 A 
ATOM     44  N   UNL A   1      46.433  26.865  26.636  1.00  0.00    -0.248 NA
ATOM     45  C   UNL A   1      47.154  24.813  25.788  1.00  0.00     0.031 C 
ATOM     46  C   UNL A   1      42.345  25.162  27.199  1.00  0.00     0.029 A 
ATOM     47  N   UNL A   1      43.618  26.984  27.440  1.00  0.00    -0.354 N 
ATOM     48  C   UNL A   1      47.789  26.938  26.349  1.00  0.00     0.074 A 
ATOM     49  C   UNL A   1      48.196  25.627  25.892  1.00  0.00     0.031 C 
ATOM     50  C   UNL A   1      41.569  26.130  27.709  1.00  0.00     0.029 A 
ATOM     51  C   UNL A   1      42.369  27.337  27.888  1.00  0.00     0.049 A 
ATOM     52  H   UNL A   1      44.389  27.596  27.452  1.00  0.00     0.167 HD
ATOM     53  C   UNL A   1      48.615  28.010  26.431  1.00  0.00     0.037 A 
ATOM     54  C   UNL A   1      41.914  28.506  28.381  1.00  0.00     0.037 A 
ATOM     55  C   UNL A   1      48.203  29.316  26.882  1.00  0.00     0.049 A 
ATOM     56  C   UNL A   1      42.849  29.677  28.478  1.00  0.00     0.074 A 
ATOM     57  C   UNL A   1      48.951  30.478  26.952  1.00  0.00     0.029 A 
ATOM     58  N   UNL A   1      46.934  29.631  27.347  1.00  0.00    -0.354 N 
ATOM     59  N   UNL A   1      44.113  29.755  28.138  1.00  0.00    -0.248 NA
ATOM     60  C   UNL A   1      42.295  30.924  29.020  1.00  0.00     0.031 C 
ATOM     61  C   UNL A   1      48.155  31.479  27.516  1.00  0.00     0.029 A 
ATOM     62  C   UNL A   1      46.889  30.962  27.737  1.00  0.00     0.049 A 
ATOM     63  H   UNL A   1      46.177  29.003  27.395  1.00  0.00     0.167 HD
ATOM     64  C   UNL A   1      44.504  31.058  28.415  1.00  0.00     0.074 A 
ATOM     65  C   UNL A   1      43.333  31.743  28.923  1.00  0.00     0.031 C 
ATOM     66  C   UNL A   1      45.724  31.630  28.264  1.00  0.00     0.037 A 
BRANCH  53  67
ATOM     67  C   UNL A   1      50.046  27.821  26.015  1.00  0.00     0.064 A 
ATOM     68  C   UNL A   1      51.059  27.683  26.976  1.00  0.00     0.173 A 
ATOM     69  C   UNL A   1      50.426  27.828  24.663  1.00  0.00     0.173 A 
ATOM     70  F   UNL A   1      50.755  27.677  28.284  1.00  0.00    -0.203 F 
ATOM     71  C   UNL A   1      52.395  27.567  26.601  1.00  0.00     0.198 A 
ATOM     72  C   UNL A   1      51.759  27.676  24.291  1.00  0.00     0.198 A 
ATOM     73  F   UNL A   1      49.498  27.947  23.701  1.00  0.00    -0.203 F 
ATOM     74  F   UNL A   1      53.346  27.467  27.539  1.00  0.00    -0.200 F 
ATOM     75  C   UNL A   1      52.743  27.555  25.259  1.00  0.00     0.200 A 
ATOM     76  F   UNL A   1      52.090  27.636  22.992  1.00  0.00    -0.200 F 
ATOM     77  F   UNL A   1      54.028  27.423  24.899  1.00  0.00    -0.200 F 
ENDBRANCH  53  67
BRANCH  54  78
ATOM     78  C   UNL A   1      40.485  28.619  28.770  1.00  0.00     0.064 A 
ATOM     79  C   UNL A   1      39.512  29.053  27.857  1.00  0.00     0.173 A 
ATOM     80  C   UNL A   1      40.075  28.356  30.084  1.00  0.00     0.173 A 
ATOM     81  F   UNL A   1      39.855  29.325  26.590  1.00  0.00    -0.203 F 
ATOM     82  C   UNL A   1      38.191  29.250  28.252  1.00  0.00     0.198 A 
ATOM     83  C   UNL A   1      38.748  28.525  30.471  1.00  0.00     0.198 A 
ATOM     84  F   UNL A   1      40.965  27.920  30.988  1.00  0.00    -0.203 F 
ATOM     85  F   UNL A   1      37.293  29.714  27.372  1.00  0.00    -0.200 F 
ATOM     86  C   UNL A   1      37.809  28.985  29.558  1.00  0.00     0.200 A 
ATOM     87  F   UNL A   1      38.378  28.248  31.728  1.00  0.00    -0.200 F 
ATOM     88  F   UNL A   1      36.538  29.174  29.938  1.00  0.00    -0.200 F 
ENDBRANCH  54  78
BRANCH  66  89
ATOM     89  C   UNL A   1      45.864  33.074  28.662  1.00  0.00     0.064 A 
ATOM     90  C   UNL A   1      46.246  33.423  29.965  1.00  0.00     0.173 A 
ATOM     91  C   UNL A   1      45.571  34.112  27.765  1.00  0.00     0.173 A 
ATOM     92  F   UNL A   1      46.529  32.470  30.866  1.00  0.00    -0.203 F 
ATOM     93  C   UNL A   1      46.322  34.756  30.359  1.00  0.00     0.198 A 
ATOM     94  C   UNL A   1      45.680  35.446  28.152  1.00  0.00     0.198 A 
ATOM     95  F   UNL A   1      45.212  33.834  26.502  1.00  0.00    -0.203 F 
ATOM     96  F   UNL A   1      46.658  35.064  31.620  1.00  0.00    -0.200 F 
ATOM     97  C   UNL A   1      46.047  35.766  29.450  1.00  0.00     0.200 A 
ATOM     98  F   UNL A   1      45.443  36.420  27.263  1.00  0.00    -0.200 F 
ATOM     99  F   UNL A   1      46.142  37.050  29.824  1.00  0.00    -0.200 F 
ENDBRANCH  66  89
ENDBRANCH  40  41
ENDBRANCH  32  35
ENDBRANCH  30  31
ENDBRANCH  29  30
ENDBRANCH  28  29
ENDBRANCH   1  28
TORSDOF 16
ENDMDL
MODEL 2
REMARK VINA RESULT:      -9.0      4.628     10.828
REMARK SMILES O=C(/C=C/c1ccc(NC(=O)NC2CCCC2)c(F)c1)NCCCCCCNC(=O)c1ccc(-c2c3nc(c(-c4c(F)c(F)c(F)c(F)c4F)c4ccc([nH]4)c(-c4c(F)c(F)c(F)c(F)c4F)c4nc(c(-c5c(F)c(F)c(F)c(F)c5F)c5ccc2[nH]5)C=C4)C=C3)cc1
REMARK SMILES IDX 24 1 23 2 22 3 21 4 1 5 2 6 3 8 4 9 5 10 6 11 20 12 7 13
REMARK SMILES IDX 18 14 8 15 19 16 9 17 10 18 11 20 12 21 13 23 14 24 17 25
REMARK SMILES IDX 15 26 16 27 25 28 26 29 27 30 28 31 29 32 30 34 31 35 32 36
REMARK SMILES IDX 93 37 33 38 92 39 34 40 35 41 36 42 86 43 37 44 91 45 85 46
REMARK SMILES IDX 87 47 38 48 90 49 84 50 83 51 39 53 71 54 51 55 70 56 52 57
REMARK SMILES IDX 55 58 69 59 88 60 53 61 54 62 68 64 89 65 56 66 40 67 41 68
REMARK SMILES IDX 49 69 42 70 43 71 47 72 50 73 44 74 45 75 48 76 46 77 72 78
REMARK SMILES IDX 73 79 81 80 74 81 75 82 79 83 82 84 76 85 77 86 80 87 78 88
REMARK SMILES IDX 57 89 58 90 66 91 59 92 60 93 64 94 67 95 61 96 62 97 65 98
REMARK SMILES IDX 63 99
REMARK H PARENT 21 7 9 19 12 22 28 33 87 52 55 63
REMARK Flexibility Score: inf
ROOT
ATOM      1  C   UNL A   1      35.625  32.599  31.889  1.00  0.00     0.002 C 
ENDROOT
BRANCH   1   2
ATOM      2  C   UNL A   1      36.912  32.626  32.726  1.00  0.00     0.021 C 
BRANCH   2   3
ATOM      3  C   UNL A   1      37.135  31.373  33.574  1.00  0.00     0.116 C 
BRANCH   3   4
ATOM      4  N   UNL A   1      38.339  30.690  33.158  1.00  0.00    -0.353 N 
ATOM      5  O   UNL A   1      37.480  28.554  33.168  1.00  0.00    -0.270 OA
ATOM      6  C   UNL A   1      38.427  29.328  33.089  1.00  0.00     0.243 C 
ATOM      7  H   UNL A   1      39.128  31.227  32.915  1.00  0.00     0.163 HD
BRANCH   6   8
ATOM      8  C   UNL A   1      39.794  28.820  32.837  1.00  0.00     0.072 C 
ATOM      9  C   UNL A   1      40.906  29.488  33.191  1.00  0.00     0.014 C 
BRANCH   9  10
ATOM     10  C   UNL A   1      42.220  28.916  32.900  1.00  0.00    -0.022 A 
ATOM     11  C   UNL A   1      42.329  27.870  31.982  1.00  0.00     0.010 A 
ATOM     12  C   UNL A   1      43.364  29.359  33.563  1.00  0.00     0.049 A 
ATOM     13  C   UNL A   1      43.536  27.182  31.844  1.00  0.00     0.030 A 
ATOM     14  C   UNL A   1      44.541  28.620  33.454  1.00  0.00     0.147 A 
ATOM     15  C   UNL A   1      44.591  27.440  32.703  1.00  0.00     0.078 A 
ATOM     16  F   UNL A   1      45.615  29.003  34.162  1.00  0.00    -0.205 F 
BRANCH  15  17
ATOM     17  N   UNL A   1      45.693  26.587  32.877  1.00  0.00    -0.305 N 
ATOM     18  C   UNL A   1      45.906  25.364  33.406  1.00  0.00     0.319 C 
ATOM     19  H   UNL A   1      46.522  26.983  32.521  1.00  0.00     0.171 HD
ATOM     20  O   UNL A   1      47.040  24.885  33.284  1.00  0.00    -0.248 OA
ATOM     21  N   UNL A   1      45.038  24.659  34.156  1.00  0.00    -0.335 N 
ATOM     22  H   UNL A   1      45.432  23.837  34.528  1.00  0.00     0.165 HD
BRANCH  21  23
ATOM     23  C   UNL A   1      43.660  24.842  34.533  1.00  0.00     0.083 C 
ATOM     24  C   UNL A   1      43.057  23.568  35.125  1.00  0.00     0.025 C 
ATOM     25  C   UNL A   1      43.351  25.827  35.659  1.00  0.00     0.025 C 
ATOM     26  C   UNL A   1      41.685  24.032  35.586  1.00  0.00     0.002 C 
ATOM     27  C   UNL A   1      41.870  25.515  35.937  1.00  0.00     0.002 C 
ENDBRANCH  21  23
ENDBRANCH  15  17
ENDBRANCH   9  10
ENDBRANCH   6   8
ENDBRANCH   3   4
ENDBRANCH   2   3
ENDBRANCH   1   2
BRANCH   1  28
ATOM     28  C   UNL A   1      35.805  32.946  30.408  1.00  0.00     0.002 C 
BRANCH  28  29
ATOM     29  C   UNL A   1      34.508  33.233  29.651  1.00  0.00     0.021 C 
BRANCH  29  30
ATOM     30  C   UNL A   1      34.495  32.759  28.201  1.00  0.00     0.116 C 
BRANCH  30  31
ATOM     31  N   UNL A   1      33.766  31.512  28.032  1.00  0.00    -0.352 N 
ATOM     32  C   UNL A   1      34.236  30.227  27.932  1.00  0.00     0.251 C 
ATOM     33  H   UNL A   1      32.787  31.605  27.983  1.00  0.00     0.163 HD
ATOM     34  O   UNL A   1      33.473  29.321  27.610  1.00  0.00    -0.269 OA
BRANCH  32  35
ATOM     35  C   UNL A   1      35.664  29.930  28.182  1.00  0.00     0.039 A 
ATOM     36  C   UNL A   1      36.568  30.065  27.126  1.00  0.00     0.014 A 
ATOM     37  C   UNL A   1      36.112  29.507  29.437  1.00  0.00     0.014 A 
ATOM     38  C   UNL A   1      37.926  29.833  27.344  1.00  0.00     0.010 A 
ATOM     39  C   UNL A   1      37.477  29.354  29.673  1.00  0.00     0.010 A 
ATOM     40  C   UNL A   1      38.399  29.514  28.630  1.00  0.00    -0.014 A 
BRANCH  40  41
ATOM     41  C   UNL A   1      39.856  29.379  28.884  1.00  0.00     0.031 A 
ATOM     42  C   UNL A   1      40.607  28.152  28.453  1.00  0.00     0.074 A 
ATOM     43  C   UNL A   1      40.502  30.365  29.538  1.00  0.00     0.049 A 
ATOM     44  N   UNL A   1      41.884  27.881  28.572  1.00  0.00    -0.248 NA
ATOM     45  C   UNL A   1      39.823  27.079  27.826  1.00  0.00     0.031 C 
ATOM     46  C   UNL A   1      39.873  31.578  30.060  1.00  0.00     0.029 A 
ATOM     47  N   UNL A   1      41.826  30.508  29.868  1.00  0.00    -0.354 N 
ATOM     48  C   UNL A   1      42.054  26.613  28.032  1.00  0.00     0.074 A 
ATOM     49  C   UNL A   1      40.742  26.139  27.649  1.00  0.00     0.031 C 
ATOM     50  C   UNL A   1      40.815  32.364  30.600  1.00  0.00     0.029 A 
ATOM     51  C   UNL A   1      42.108  31.694  30.499  1.00  0.00     0.049 A 
ATOM     52  H   UNL A   1      42.508  29.826  29.671  1.00  0.00     0.167 HD
ATOM     53  C   UNL A   1      43.203  25.920  27.847  1.00  0.00     0.037 A 
ATOM     54  C   UNL A   1      43.279  32.193  30.943  1.00  0.00     0.037 A 
ATOM     55  C   UNL A   1      44.508  26.400  28.226  1.00  0.00     0.049 A 
ATOM     56  C   UNL A   1      44.540  31.402  30.740  1.00  0.00     0.074 A 
ATOM     57  C   UNL A   1      45.738  25.794  28.033  1.00  0.00     0.029 A 
ATOM     58  N   UNL A   1      44.753  27.598  28.883  1.00  0.00    -0.354 N 
ATOM     59  N   UNL A   1      44.698  30.234  30.165  1.00  0.00    -0.248 NA
ATOM     60  C   UNL A   1      45.784  31.999  31.241  1.00  0.00     0.031 C 
ATOM     61  C   UNL A   1      46.718  26.595  28.626  1.00  0.00     0.029 A 
ATOM     62  C   UNL A   1      46.111  27.732  29.132  1.00  0.00     0.049 A 
ATOM     63  H   UNL A   1      44.064  28.254  29.135  1.00  0.00     0.167 HD
ATOM     64  C   UNL A   1      46.057  29.959  30.226  1.00  0.00     0.074 A 
ATOM     65  C   UNL A   1      46.682  31.097  30.868  1.00  0.00     0.031 C 
ATOM     66  C   UNL A   1      46.723  28.860  29.792  1.00  0.00     0.037 A 
BRANCH  53  67
ATOM     67  C   UNL A   1      43.105  24.570  27.195  1.00  0.00     0.064 A 
ATOM     68  C   UNL A   1      42.784  23.431  27.950  1.00  0.00     0.173 A 
ATOM     69  C   UNL A   1      43.379  24.390  25.829  1.00  0.00     0.173 A 
ATOM     70  F   UNL A   1      42.519  23.542  29.261  1.00  0.00    -0.203 F 
ATOM     71  C   UNL A   1      42.748  22.168  27.366  1.00  0.00     0.198 A 
ATOM     72  C   UNL A   1      43.308  23.131  25.241  1.00  0.00     0.198 A 
ATOM     73  F   UNL A   1      43.681  25.446  25.057  1.00  0.00    -0.203 F 
ATOM     74  F   UNL A   1      42.469  21.092  28.115  1.00  0.00    -0.200 F 
ATOM     75  C   UNL A   1      43.002  22.019  26.011  1.00  0.00     0.200 A 
ATOM     76  F   UNL A   1      43.526  22.993  23.925  1.00  0.00    -0.200 F 
ATOM     77  F   UNL A   1      42.948  20.804  25.446  1.00  0.00    -0.200 F 
ENDBRANCH  53  67
BRANCH  54  78
ATOM     78  C   UNL A   1      43.300  33.537  31.576  1.00  0.00     0.064 A 
ATOM     79  C   UNL A   1      43.032  33.704  32.943  1.00  0.00     0.173 A 
ATOM     80  C   UNL A   1      43.526  34.688  30.810  1.00  0.00     0.173 A 
ATOM     81  F   UNL A   1      42.802  32.634  33.717  1.00  0.00    -0.203 F 
ATOM     82  C   UNL A   1      42.958  34.973  33.512  1.00  0.00     0.198 A 
ATOM     83  C   UNL A   1      43.480  35.956  31.386  1.00  0.00     0.198 A 
ATOM     84  F   UNL A   1      43.806  34.578  29.502  1.00  0.00    -0.203 F 
ATOM     85  F   UNL A   1      42.651  35.106  34.810  1.00  0.00    -0.200 F 
ATOM     86  C   UNL A   1      43.184  36.098  32.734  1.00  0.00     0.200 A 
ATOM     87  F   UNL A   1      43.719  37.039  30.636  1.00  0.00    -0.200 F 
ATOM     88  F   UNL A   1      43.113  37.319  33.281  1.00  0.00    -0.200 F 
ENDBRANCH  54  78
BRANCH  66  89
ATOM     89  C   UNL A   1      48.211  28.827  30.002  1.00  0.00     0.064 A 
ATOM     90  C   UNL A   1      49.088  29.185  28.968  1.00  0.00     0.173 A 
ATOM     91  C   UNL A   1      48.770  28.393  31.215  1.00  0.00     0.173 A 
ATOM     92  F   UNL A   1      48.608  29.599  27.785  1.00  0.00    -0.203 F 
ATOM     93  C   UNL A   1      50.469  29.102  29.136  1.00  0.00     0.198 A 
ATOM     94  C   UNL A   1      50.151  28.344  31.390  1.00  0.00     0.198 A 
ATOM     95  F   UNL A   1      47.977  28.050  32.241  1.00  0.00    -0.203 F 
ATOM     96  F   UNL A   1      51.286  29.419  28.122  1.00  0.00    -0.200 F 
ATOM     97  C   UNL A   1      50.998  28.690  30.349  1.00  0.00     0.200 A 
ATOM     98  F   UNL A   1      50.661  27.974  32.573  1.00  0.00    -0.200 F 
ATOM     99  F   UNL A   1      52.327  28.632  30.516  1.00  0.00    -0.200 F 
ENDBRANCH  66  89
ENDBRANCH  40  41
ENDBRANCH  32  35
ENDBRANCH  30  31
ENDBRANCH  29  30
ENDBRANCH  28  29
ENDBRANCH   1  28
TORSDOF 16
ENDMDL
MODEL 3
REMARK VINA RESULT:      -8.9      1.653      2.843
REMARK SMILES O=C(/C=C/c1ccc(NC(=O)NC2CCCC2)c(F)c1)NCCCCCCNC(=O)c1ccc(-c2c3nc(c(-c4c(F)c(F)c(F)c(F)c4F)c4ccc([nH]4)c(-c4c(F)c(F)c(F)c(F)c4F)c4nc(c(-c5c(F)c(F)c(F)c(F)c5F)c5ccc2[nH]5)C=C4)C=C3)cc1
REMARK SMILES IDX 24 1 23 2 22 3 21 4 1 5 2 6 3 8 4 9 5 10 6 11 20 12 7 13
REMARK SMILES IDX 18 14 8 15 19 16 9 17 10 18 11 20 12 21 13 23 14 24 17 25
REMARK SMILES IDX 15 26 16 27 25 28 26 29 27 30 28 31 29 32 30 34 31 35 32 36
REMARK SMILES IDX 93 37 33 38 92 39 34 40 35 41 36 42 86 43 37 44 91 45 85 46
REMARK SMILES IDX 87 47 38 48 90 49 84 50 83 51 39 53 71 54 51 55 70 56 52 57
REMARK SMILES IDX 55 58 69 59 88 60 53 61 54 62 68 64 89 65 56 66 40 67 41 68
REMARK SMILES IDX 49 69 42 70 43 71 47 72 50 73 44 74 45 75 48 76 46 77 72 78
REMARK SMILES IDX 73 79 81 80 74 81 75 82 79 83 82 84 76 85 77 86 80 87 78 88
REMARK SMILES IDX 57 89 58 90 66 91 59 92 60 93 64 94 67 95 61 96 62 97 65 98
REMARK SMILES IDX 63 99
REMARK H PARENT 21 7 9 19 12 22 28 33 87 52 55 63
REMARK Flexibility Score: inf
ROOT
ATOM      1  C   UNL A   1      38.323  23.415  26.152  1.00  0.00     0.002 C 
ENDROOT
BRANCH   1   2
ATOM      2  C   UNL A   1      37.272  22.850  25.187  1.00  0.00     0.021 C 
BRANCH   2   3
ATOM      3  C   UNL A   1      35.957  22.448  25.856  1.00  0.00     0.116 C 
BRANCH   3   4
ATOM      4  N   UNL A   1      34.914  23.394  25.531  1.00  0.00    -0.353 N 
ATOM      5  O   UNL A   1      33.358  21.869  24.789  1.00  0.00    -0.270 OA
ATOM      6  C   UNL A   1      33.743  23.023  24.932  1.00  0.00     0.243 C 
ATOM      7  H   UNL A   1      35.053  24.344  25.749  1.00  0.00     0.163 HD
BRANCH   6   8
ATOM      8  C   UNL A   1      32.895  24.158  24.504  1.00  0.00     0.072 C 
ATOM      9  C   UNL A   1      31.929  24.048  23.576  1.00  0.00     0.014 C 
BRANCH   9  10
ATOM     10  C   UNL A   1      31.139  25.222  23.208  1.00  0.00    -0.022 A 
ATOM     11  C   UNL A   1      31.655  26.142  22.293  1.00  0.00     0.010 A 
ATOM     12  C   UNL A   1      29.898  25.472  23.794  1.00  0.00     0.049 A 
ATOM     13  C   UNL A   1      31.008  27.361  22.085  1.00  0.00     0.030 A 
ATOM     14  C   UNL A   1      29.302  26.720  23.617  1.00  0.00     0.147 A 
ATOM     15  C   UNL A   1      29.930  27.726  22.874  1.00  0.00     0.078 A 
ATOM     16  F   UNL A   1      28.150  26.984  24.253  1.00  0.00    -0.205 F 
BRANCH  15  17
ATOM     17  N   UNL A   1      29.442  29.037  22.985  1.00  0.00    -0.305 N 
ATOM     18  C   UNL A   1      29.790  30.155  23.659  1.00  0.00     0.319 C 
ATOM     19  H   UNL A   1      28.641  29.179  22.429  1.00  0.00     0.171 HD
ATOM     20  O   UNL A   1      29.148  31.183  23.416  1.00  0.00    -0.248 OA
ATOM     21  N   UNL A   1      30.693  30.235  24.654  1.00  0.00    -0.335 N 
ATOM     22  H   UNL A   1      30.718  31.123  25.078  1.00  0.00     0.165 HD
BRANCH  21  23
ATOM     23  C   UNL A   1      31.630  29.308  25.235  1.00  0.00     0.083 C 
ATOM     24  C   UNL A   1      32.961  29.296  24.482  1.00  0.00     0.025 C 
ATOM     25  C   UNL A   1      32.130  29.588  26.651  1.00  0.00     0.025 C 
ATOM     26  C   UNL A   1      33.823  28.390  25.346  1.00  0.00     0.002 C 
ATOM     27  C   UNL A   1      33.282  28.575  26.771  1.00  0.00     0.002 C 
ENDBRANCH  21  23
ENDBRANCH  15  17
ENDBRANCH   9  10
ENDBRANCH   6   8
ENDBRANCH   3   4
ENDBRANCH   2   3
ENDBRANCH   1   2
BRANCH   1  28
ATOM     28  C   UNL A   1      39.500  22.481  26.455  1.00  0.00     0.002 C 
BRANCH  28  29
ATOM     29  C   UNL A   1      39.463  21.141  25.719  1.00  0.00     0.021 C 
BRANCH  29  30
ATOM     30  C   UNL A   1      39.914  19.944  26.549  1.00  0.00     0.116 C 
BRANCH  30  31
ATOM     31  N   UNL A   1      41.055  19.260  25.962  1.00  0.00    -0.352 N 
ATOM     32  C   UNL A   1      42.329  19.715  25.733  1.00  0.00     0.251 C 
ATOM     33  H   UNL A   1      40.887  18.330  25.686  1.00  0.00     0.163 HD
ATOM     34  O   UNL A   1      43.105  19.046  25.059  1.00  0.00    -0.269 OA
BRANCH  32  35
ATOM     35  C   UNL A   1      42.765  21.023  26.272  1.00  0.00     0.039 A 
ATOM     36  C   UNL A   1      43.151  22.019  25.374  1.00  0.00     0.014 A 
ATOM     37  C   UNL A   1      42.810  21.266  27.648  1.00  0.00     0.014 A 
ATOM     38  C   UNL A   1      43.526  23.275  25.852  1.00  0.00     0.010 A 
ATOM     39  C   UNL A   1      43.107  22.544  28.120  1.00  0.00     0.010 A 
ATOM     40  C   UNL A   1      43.469  23.561  27.227  1.00  0.00    -0.014 A 
BRANCH  40  41
ATOM     41  C   UNL A   1      43.758  24.932  27.724  1.00  0.00     0.031 A 
ATOM     42  C   UNL A   1      45.171  25.406  27.905  1.00  0.00     0.074 A 
ATOM     43  C   UNL A   1      42.731  25.745  28.041  1.00  0.00     0.049 A 
ATOM     44  N   UNL A   1      45.604  26.578  28.303  1.00  0.00    -0.248 NA
ATOM     45  C   UNL A   1      46.240  24.437  27.626  1.00  0.00     0.031 C 
ATOM     46  C   UNL A   1      41.317  25.379  27.965  1.00  0.00     0.029 A 
ATOM     47  N   UNL A   1      42.716  27.045  28.480  1.00  0.00    -0.354 N 
ATOM     48  C   UNL A   1      46.989  26.486  28.317  1.00  0.00     0.074 A 
ATOM     49  C   UNL A   1      47.324  25.126  27.955  1.00  0.00     0.031 C 
ATOM     50  C   UNL A   1      40.570  26.442  28.297  1.00  0.00     0.029 A 
ATOM     51  C   UNL A   1      41.452  27.552  28.648  1.00  0.00     0.049 A 
ATOM     52  H   UNL A   1      43.534  27.563  28.660  1.00  0.00     0.167 HD
ATOM     53  C   UNL A   1      47.899  27.455  28.579  1.00  0.00     0.037 A 
ATOM     54  C   UNL A   1      41.044  28.776  29.034  1.00  0.00     0.037 A 
ATOM     55  C   UNL A   1      47.559  28.810  28.933  1.00  0.00     0.049 A 
ATOM     56  C   UNL A   1      42.069  29.833  29.334  1.00  0.00     0.074 A 
ATOM     57  C   UNL A   1      48.407  29.878  29.167  1.00  0.00     0.029 A 
ATOM     58  N   UNL A   1      46.266  29.282  29.114  1.00  0.00    -0.354 N 
ATOM     59  N   UNL A   1      43.376  29.754  29.276  1.00  0.00    -0.248 NA
ATOM     60  C   UNL A   1      41.564  31.148  29.746  1.00  0.00     0.031 C 
ATOM     61  C   UNL A   1      47.634  30.978  29.547  1.00  0.00     0.029 A 
ATOM     62  C   UNL A   1      46.297  30.618  29.488  1.00  0.00     0.049 A 
ATOM     63  H   UNL A   1      45.448  28.748  28.995  1.00  0.00     0.167 HD
ATOM     64  C   UNL A   1      43.851  31.009  29.634  1.00  0.00     0.074 A 
ATOM     65  C   UNL A   1      42.689  31.837  29.879  1.00  0.00     0.031 C 
ATOM     66  C   UNL A   1      45.135  31.430  29.752  1.00  0.00     0.037 A 
BRANCH  53  67
ATOM     67  C   UNL A   1      49.353  27.090  28.482  1.00  0.00     0.064 A 
ATOM     68  C   UNL A   1      50.022  27.133  27.248  1.00  0.00     0.173 A 
ATOM     69  C   UNL A   1      50.077  26.647  29.600  1.00  0.00     0.173 A 
ATOM     70  F   UNL A   1      49.378  27.542  26.144  1.00  0.00    -0.203 F 
ATOM     71  C   UNL A   1      51.353  26.740  27.139  1.00  0.00     0.198 A 
ATOM     72  C   UNL A   1      51.417  26.288  29.494  1.00  0.00     0.198 A 
ATOM     73  F   UNL A   1      49.490  26.596  30.807  1.00  0.00    -0.203 F 
ATOM     74  F   UNL A   1      51.960  26.761  25.944  1.00  0.00    -0.200 F 
ATOM     75  C   UNL A   1      52.052  26.326  28.262  1.00  0.00     0.200 A 
ATOM     76  F   UNL A   1      52.099  25.915  30.586  1.00  0.00    -0.200 F 
ATOM     77  F   UNL A   1      53.340  25.967  28.158  1.00  0.00    -0.200 F 
ENDBRANCH  53  67
BRANCH  54  78
ATOM     78  C   UNL A   1      39.588  29.066  29.105  1.00  0.00     0.064 A 
ATOM     79  C   UNL A   1      38.878  28.947  30.310  1.00  0.00     0.173 A 
ATOM     80  C   UNL A   1      38.867  29.406  27.953  1.00  0.00     0.173 A 
ATOM     81  F   UNL A   1      39.522  28.617  31.438  1.00  0.00    -0.203 F 
ATOM     82  C   UNL A   1      37.498  29.126  30.351  1.00  0.00     0.198 A 
ATOM     83  C   UNL A   1      37.490  29.613  28.002  1.00  0.00     0.198 A 
ATOM     84  F   UNL A   1      39.505  29.551  26.782  1.00  0.00    -0.203 F 
ATOM     85  F   UNL A   1      36.837  28.957  31.505  1.00  0.00    -0.200 F 
ATOM     86  C   UNL A   1      36.804  29.460  29.199  1.00  0.00     0.200 A 
ATOM     87  F   UNL A   1      36.827  29.956  26.890  1.00  0.00    -0.200 F 
ATOM     88  F   UNL A   1      35.477  29.632  29.239  1.00  0.00    -0.200 F 
ENDBRANCH  54  78
BRANCH  66  89
ATOM     89  C   UNL A   1      45.357  32.856  30.175  1.00  0.00     0.064 A 
ATOM     90  C   UNL A   1      45.442  33.880  29.220  1.00  0.00     0.173 A 
ATOM     91  C   UNL A   1      45.533  33.202  31.523  1.00  0.00     0.173 A 
ATOM     92  F   UNL A   1      45.289  33.605  27.915  1.00  0.00    -0.203 F 
ATOM     93  C   UNL A   1      45.704  35.195  29.597  1.00  0.00     0.198 A 
ATOM     94  C   UNL A   1      45.762  34.523  31.901  1.00  0.00     0.198 A 
ATOM     95  F   UNL A   1      45.450  32.263  32.478  1.00  0.00    -0.203 F 
ATOM     96  F   UNL A   1      45.813  36.150  28.664  1.00  0.00    -0.200 F 
ATOM     97  C   UNL A   1      45.855  35.516  30.938  1.00  0.00     0.200 A 
ATOM     98  F   UNL A   1      45.878  34.836  33.198  1.00  0.00    -0.200 F 
ATOM     99  F   UNL A   1      46.086  36.785  31.301  1.00  0.00    -0.200 F 
ENDBRANCH  66  89
ENDBRANCH  40  41
ENDBRANCH  32  35
ENDBRANCH  30  31
ENDBRANCH  29  30
ENDBRANCH  28  29
ENDBRANCH   1  28
TORSDOF 16
ENDMDL
