MODEL 1
REMARK VINA RESULT:     -11.5      0.000      0.000
REMARK SMILES CC[C@@H]1CC[C@](O)([C@H](F)C(=O)NCCCCCCNC(=O)c2ccc(-c3c4nc(c(-c5c(F)c(F)c(F)c(F)c5F)c5ccc([nH]5)c(-c5c(F)c(F)c(F)c(F)c5F)c5nc(c(-c6c(F)c(F)c(F)c(F)c6F)c6ccc3[nH]6)C=C5)C=C4)cc2)C1
REMARK SMILES IDX 15 1 14 2 13 3 12 4 10 5 11 6 8 8 9 9 6 10 3 11 4 12 85 13
REMARK SMILES IDX 5 14 2 15 1 16 7 17 16 19 17 20 18 21 19 22 20 23 21 25
REMARK SMILES IDX 22 26 23 27 84 28 24 29 83 30 25 31 26 32 27 33 77 34 28 35
REMARK SMILES IDX 82 36 76 37 78 38 29 39 81 40 75 41 74 42 30 44 62 45 42 46
REMARK SMILES IDX 61 47 43 48 46 49 60 50 79 51 44 52 45 53 59 55 80 56 47 57
REMARK SMILES IDX 31 58 32 59 40 60 33 61 34 62 38 63 41 64 35 65 36 66 39 67
REMARK SMILES IDX 37 68 63 69 64 70 72 71 65 72 66 73 70 74 73 75 67 76 68 77
REMARK SMILES IDX 71 78 69 79 48 80 49 81 57 82 50 83 51 84 55 85 58 86 52 87
REMARK SMILES IDX 53 88 56 89 54 90
REMARK H PARENT 12 7 7 18 19 24 78 43 46 54
REMARK Flexibility Score: inf
ROOT
ATOM      1  C   UNL A   1      32.516  29.885  27.033  1.00  0.00     0.002 C 
ENDROOT
BRANCH   1   2
ATOM      2  C   UNL A   1      32.500  28.366  26.818  1.00  0.00     0.021 C 
BRANCH   2   3
ATOM      3  C   UNL A   1      33.725  27.794  26.112  1.00  0.00     0.116 C 
BRANCH   3   4
ATOM      4  N   UNL A   1      33.400  26.705  25.212  1.00  0.00    -0.353 N 
ATOM      5  C   UNL A   1      33.008  26.761  23.903  1.00  0.00     0.257 C 
ATOM      6  O   UNL A   1      32.950  25.695  23.284  1.00  0.00    -0.272 OA
ATOM      7  H   UNL A   1      33.473  25.802  25.597  1.00  0.00     0.163 HD
BRANCH   5   8
ATOM      8  C   UNL A   1      32.702  28.098  23.227  1.00  0.00     0.286 C 
ATOM      9  F   UNL A   1      33.611  28.382  22.238  1.00  0.00    -0.234 F 
BRANCH   8  10
ATOM     10  C   UNL A   1      31.261  28.262  22.678  1.00  0.00     0.105 C 
ATOM     11  C   UNL A   1      29.339  29.794  22.377  1.00  0.00    -0.008 C 
ATOM     12  C   UNL A   1      28.907  28.542  23.153  1.00  0.00     0.007 C 
ATOM     13  C   UNL A   1      30.857  29.644  22.136  1.00  0.00     0.042 C 
ATOM     14  C   UNL A   1      30.190  27.967  23.735  1.00  0.00     0.039 C 
BRANCH  11  15
ATOM     15  C   UNL A   1      28.953  31.074  23.142  1.00  0.00     0.000 C 
ATOM     16  C   UNL A   1      27.515  31.091  23.638  1.00  0.00     0.004 C 
ENDBRANCH  11  15
BRANCH  10  17
ATOM     17  O   UNL A   1      31.088  27.305  21.608  1.00  0.00    -0.386 OA
ATOM     18  H   UNL A   1      30.350  26.713  21.820  1.00  0.00     0.211 HD
ENDBRANCH  10  17
ENDBRANCH   8  10
ENDBRANCH   5   8
ENDBRANCH   3   4
ENDBRANCH   2   3
ENDBRANCH   1   2
BRANCH   1  19
ATOM     19  C   UNL A   1      31.603  30.704  26.115  1.00  0.00     0.002 C 
BRANCH  19  20
ATOM     20  C   UNL A   1      31.400  32.167  26.513  1.00  0.00     0.021 C 
BRANCH  20  21
ATOM     21  C   UNL A   1      32.551  32.795  27.289  1.00  0.00     0.116 C 
BRANCH  21  22
ATOM     22  N   UNL A   1      32.317  34.189  27.624  1.00  0.00    -0.352 N 
ATOM     23  C   UNL A   1      32.946  34.980  28.553  1.00  0.00     0.251 C 
ATOM     24  H   UNL A   1      31.602  34.630  27.111  1.00  0.00     0.163 HD
ATOM     25  O   UNL A   1      32.522  36.102  28.799  1.00  0.00    -0.269 OA
BRANCH  23  26
ATOM     26  C   UNL A   1      34.125  34.463  29.282  1.00  0.00     0.039 A 
ATOM     27  C   UNL A   1      33.933  33.863  30.529  1.00  0.00     0.014 A 
ATOM     28  C   UNL A   1      35.410  34.566  28.745  1.00  0.00     0.014 A 
ATOM     29  C   UNL A   1      35.021  33.310  31.207  1.00  0.00     0.010 A 
ATOM     30  C   UNL A   1      36.481  33.944  29.381  1.00  0.00     0.010 A 
ATOM     31  C   UNL A   1      36.298  33.313  30.621  1.00  0.00    -0.014 A 
BRANCH  31  32
ATOM     32  C   UNL A   1      37.450  32.659  31.291  1.00  0.00     0.031 A 
ATOM     33  C   UNL A   1      38.161  31.513  30.629  1.00  0.00     0.074 A 
ATOM     34  C   UNL A   1      37.814  33.056  32.525  1.00  0.00     0.049 A 
ATOM     35  N   UNL A   1      39.147  30.778  31.080  1.00  0.00    -0.248 NA
ATOM     36  C   UNL A   1      37.680  31.120  29.297  1.00  0.00     0.031 C 
ATOM     37  C   UNL A   1      37.168  34.121  33.294  1.00  0.00     0.029 A 
ATOM     38  N   UNL A   1      38.808  32.602  33.356  1.00  0.00    -0.354 N 
ATOM     39  C   UNL A   1      39.397  29.835  30.091  1.00  0.00     0.074 A 
ATOM     40  C   UNL A   1      38.417  30.048  29.049  1.00  0.00     0.031 C 
ATOM     41  C   UNL A   1      37.795  34.252  34.473  1.00  0.00     0.029 A 
ATOM     42  C   UNL A   1      38.857  33.255  34.563  1.00  0.00     0.049 A 
ATOM     43  H   UNL A   1      39.427  31.877  33.109  1.00  0.00     0.167 HD
ATOM     44  C   UNL A   1      40.373  28.896  30.044  1.00  0.00     0.037 A 
ATOM     45  C   UNL A   1      39.661  33.065  35.626  1.00  0.00     0.037 A 
ATOM     46  C   UNL A   1      41.349  28.693  31.083  1.00  0.00     0.049 A 
ATOM     47  C   UNL A   1      40.725  32.004  35.561  1.00  0.00     0.074 A 
ATOM     48  C   UNL A   1      42.409  27.805  31.111  1.00  0.00     0.029 A 
ATOM     49  N   UNL A   1      41.375  29.384  32.287  1.00  0.00    -0.354 N 
ATOM     50  N   UNL A   1      41.001  31.167  34.591  1.00  0.00    -0.248 NA
ATOM     51  C   UNL A   1      41.596  31.868  36.737  1.00  0.00     0.031 C 
ATOM     52  C   UNL A   1      43.040  27.915  32.355  1.00  0.00     0.029 A 
ATOM     53  C   UNL A   1      42.416  28.919  33.078  1.00  0.00     0.049 A 
ATOM     54  H   UNL A   1      40.748  30.098  32.543  1.00  0.00     0.167 HD
ATOM     55  C   UNL A   1      42.090  30.423  35.025  1.00  0.00     0.074 A 
ATOM     56  C   UNL A   1      42.433  30.920  36.342  1.00  0.00     0.031 C 
ATOM     57  C   UNL A   1      42.745  29.420  34.390  1.00  0.00     0.037 A 
BRANCH  44  58
ATOM     58  C   UNL A   1      40.418  28.011  28.829  1.00  0.00     0.064 A 
ATOM     59  C   UNL A   1      39.733  26.787  28.779  1.00  0.00     0.173 A 
ATOM     60  C   UNL A   1      41.152  28.394  27.695  1.00  0.00     0.173 A 
ATOM     61  F   UNL A   1      39.023  26.366  29.837  1.00  0.00    -0.203 F 
ATOM     62  C   UNL A   1      39.820  25.958  27.662  1.00  0.00     0.198 A 
ATOM     63  C   UNL A   1      41.204  27.581  26.565  1.00  0.00     0.198 A 
ATOM     64  F   UNL A   1      41.819  29.558  27.681  1.00  0.00    -0.203 F 
ATOM     65  F   UNL A   1      39.215  24.763  27.669  1.00  0.00    -0.200 F 
ATOM     66  C   UNL A   1      40.550  26.359  26.555  1.00  0.00     0.200 A 
ATOM     67  F   UNL A   1      41.899  27.977  25.489  1.00  0.00    -0.200 F 
ATOM     68  F   UNL A   1      40.635  25.561  25.482  1.00  0.00    -0.200 F 
ENDBRANCH  44  58
BRANCH  45  69
ATOM     69  C   UNL A   1      39.495  33.918  36.831  1.00  0.00     0.064 A 
ATOM     70  C   UNL A   1      38.745  33.478  37.930  1.00  0.00     0.173 A 
ATOM     71  C   UNL A   1      40.103  35.180  36.920  1.00  0.00     0.173 A 
ATOM     72  F   UNL A   1      38.129  32.287  37.887  1.00  0.00    -0.203 F 
ATOM     73  C   UNL A   1      38.598  34.272  39.067  1.00  0.00     0.198 A 
ATOM     74  C   UNL A   1      39.980  35.960  38.068  1.00  0.00     0.198 A 
ATOM     75  F   UNL A   1      40.837  35.645  35.898  1.00  0.00    -0.203 F 
ATOM     76  F   UNL A   1      37.845  33.842  40.088  1.00  0.00    -0.200 F 
ATOM     77  C   UNL A   1      39.223  35.508  39.137  1.00  0.00     0.200 A 
ATOM     78  F   UNL A   1      40.601  37.145  38.140  1.00  0.00    -0.200 F 
ATOM     79  F   UNL A   1      39.093  36.265  40.236  1.00  0.00    -0.200 F 
ENDBRANCH  45  69
BRANCH  57  80
ATOM     80  C   UNL A   1      43.923  28.810  35.097  1.00  0.00     0.064 A 
ATOM     81  C   UNL A   1      43.788  27.690  35.931  1.00  0.00     0.173 A 
ATOM     82  C   UNL A   1      45.213  29.330  34.903  1.00  0.00     0.173 A 
ATOM     83  F   UNL A   1      42.576  27.163  36.162  1.00  0.00    -0.203 F 
ATOM     84  C   UNL A   1      44.894  27.132  36.567  1.00  0.00     0.198 A 
ATOM     85  C   UNL A   1      46.321  28.748  35.512  1.00  0.00     0.198 A 
ATOM     86  F   UNL A   1      45.400  30.396  34.110  1.00  0.00    -0.203 F 
ATOM     87  F   UNL A   1      44.733  26.095  37.400  1.00  0.00    -0.200 F 
ATOM     88  C   UNL A   1      46.160  27.656  36.350  1.00  0.00     0.200 A 
ATOM     89  F   UNL A   1      47.545  29.246  35.288  1.00  0.00    -0.200 F 
ATOM     90  F   UNL A   1      47.224  27.111  36.955  1.00  0.00    -0.200 F 
ENDBRANCH  57  80
ENDBRANCH  31  32
ENDBRANCH  23  26
ENDBRANCH  21  22
ENDBRANCH  20  21
ENDBRANCH  19  20
ENDBRANCH   1  19
TORSDOF 16
ENDMDL
MODEL 2
REMARK VINA RESULT:     -11.4      0.443      7.582
REMARK SMILES CC[C@@H]1CC[C@](O)([C@H](F)C(=O)NCCCCCCNC(=O)c2ccc(-c3c4nc(c(-c5c(F)c(F)c(F)c(F)c5F)c5ccc([nH]5)c(-c5c(F)c(F)c(F)c(F)c5F)c5nc(c(-c6c(F)c(F)c(F)c(F)c6F)c6ccc3[nH]6)C=C5)C=C4)cc2)C1
REMARK SMILES IDX 15 1 14 2 13 3 12 4 10 5 11 6 8 8 9 9 6 10 3 11 4 12 85 13
REMARK SMILES IDX 5 14 2 15 1 16 7 17 16 19 17 20 18 21 19 22 20 23 21 25
REMARK SMILES IDX 22 26 23 27 84 28 24 29 83 30 25 31 26 32 27 33 77 34 28 35
REMARK SMILES IDX 82 36 76 37 78 38 29 39 81 40 75 41 74 42 30 44 62 45 42 46
REMARK SMILES IDX 61 47 43 48 46 49 60 50 79 51 44 52 45 53 59 55 80 56 47 57
REMARK SMILES IDX 31 58 32 59 40 60 33 61 34 62 38 63 41 64 35 65 36 66 39 67
REMARK SMILES IDX 37 68 63 69 64 70 72 71 65 72 66 73 70 74 73 75 67 76 68 77
REMARK SMILES IDX 71 78 69 79 48 80 49 81 57 82 50 83 51 84 55 85 58 86 52 87
REMARK SMILES IDX 53 88 56 89 54 90
REMARK H PARENT 12 7 7 18 19 24 78 43 46 54
REMARK Flexibility Score: inf
ROOT
ATOM      1  C   UNL A   1      32.469  29.935  27.036  1.00  0.00     0.002 C 
ENDROOT
BRANCH   1   2
ATOM      2  C   UNL A   1      32.502  28.424  26.773  1.00  0.00     0.021 C 
BRANCH   2   3
ATOM      3  C   UNL A   1      33.756  27.911  26.075  1.00  0.00     0.116 C 
BRANCH   3   4
ATOM      4  N   UNL A   1      33.482  26.842  25.134  1.00  0.00    -0.353 N 
ATOM      5  C   UNL A   1      33.078  26.929  23.831  1.00  0.00     0.257 C 
ATOM      6  O   UNL A   1      33.071  25.886  23.170  1.00  0.00    -0.272 OA
ATOM      7  H   UNL A   1      33.604  25.930  25.482  1.00  0.00     0.163 HD
BRANCH   5   8
ATOM      8  C   UNL A   1      32.698  28.273  23.209  1.00  0.00     0.286 C 
ATOM      9  F   UNL A   1      33.594  28.652  22.241  1.00  0.00    -0.234 F 
BRANCH   8  10
ATOM     10  C   UNL A   1      31.252  28.377  22.656  1.00  0.00     0.105 C 
ATOM     11  C   UNL A   1      29.295  29.848  22.287  1.00  0.00    -0.008 C 
ATOM     12  C   UNL A   1      28.893  28.625  23.123  1.00  0.00     0.007 C 
ATOM     13  C   UNL A   1      30.816  29.722  22.050  1.00  0.00     0.042 C 
ATOM     14  C   UNL A   1      30.191  28.109  23.730  1.00  0.00     0.039 C 
BRANCH  11  15
ATOM     15  C   UNL A   1      28.881  31.154  22.989  1.00  0.00     0.000 C 
ATOM     16  C   UNL A   1      27.512  31.095  23.653  1.00  0.00     0.004 C 
ENDBRANCH  11  15
BRANCH  10  17
ATOM     17  O   UNL A   1      31.101  27.366  21.635  1.00  0.00    -0.386 OA
ATOM     18  H   UNL A   1      30.377  26.768  21.877  1.00  0.00     0.211 HD
ENDBRANCH  10  17
ENDBRANCH   8  10
ENDBRANCH   5   8
ENDBRANCH   3   4
ENDBRANCH   2   3
ENDBRANCH   1   2
BRANCH   1  19
ATOM     19  C   UNL A   1      31.509  30.750  26.163  1.00  0.00     0.002 C 
BRANCH  19  20
ATOM     20  C   UNL A   1      31.377  32.231  26.524  1.00  0.00     0.021 C 
BRANCH  20  21
ATOM     21  C   UNL A   1      32.608  32.853  27.172  1.00  0.00     0.116 C 
BRANCH  21  22
ATOM     22  N   UNL A   1      32.381  34.213  27.631  1.00  0.00    -0.352 N 
ATOM     23  C   UNL A   1      33.009  34.911  28.632  1.00  0.00     0.251 C 
ATOM     24  H   UNL A   1      31.674  34.705  27.155  1.00  0.00     0.163 HD
ATOM     25  O   UNL A   1      32.590  36.009  28.976  1.00  0.00    -0.269 OA
BRANCH  23  26
ATOM     26  C   UNL A   1      34.178  34.320  29.320  1.00  0.00     0.039 A 
ATOM     27  C   UNL A   1      33.966  33.576  30.482  1.00  0.00     0.014 A 
ATOM     28  C   UNL A   1      35.472  34.496  28.825  1.00  0.00     0.014 A 
ATOM     29  C   UNL A   1      35.046  32.955  31.113  1.00  0.00     0.010 A 
ATOM     30  C   UNL A   1      36.536  33.811  29.407  1.00  0.00     0.010 A 
ATOM     31  C   UNL A   1      36.334  33.036  30.559  1.00  0.00    -0.014 A 
BRANCH  31  32
ATOM     32  C   UNL A   1      37.479  32.316  31.171  1.00  0.00     0.031 A 
ATOM     33  C   UNL A   1      37.978  32.705  32.534  1.00  0.00     0.074 A 
ATOM     34  C   UNL A   1      38.110  31.355  30.472  1.00  0.00     0.049 A 
ATOM     35  N   UNL A   1      38.999  32.236  33.208  1.00  0.00    -0.248 NA
ATOM     36  C   UNL A   1      37.254  33.787  33.217  1.00  0.00     0.031 C 
ATOM     37  C   UNL A   1      37.754  30.923  29.119  1.00  0.00     0.029 A 
ATOM     38  N   UNL A   1      39.192  30.574  30.796  1.00  0.00    -0.354 N 
ATOM     39  C   UNL A   1      39.041  32.969  34.387  1.00  0.00     0.074 A 
ATOM     40  C   UNL A   1      37.988  33.958  34.306  1.00  0.00     0.031 C 
ATOM     41  C   UNL A   1      38.587  29.944  28.738  1.00  0.00     0.029 A 
ATOM     42  C   UNL A   1      39.562  29.706  29.798  1.00  0.00     0.049 A 
ATOM     43  H   UNL A   1      39.658  30.632  31.661  1.00  0.00     0.167 HD
ATOM     44  C   UNL A   1      39.864  32.813  35.452  1.00  0.00     0.037 A 
ATOM     45  C   UNL A   1      40.578  28.823  29.740  1.00  0.00     0.037 A 
ATOM     46  C   UNL A   1      40.906  31.823  35.529  1.00  0.00     0.049 A 
ATOM     47  C   UNL A   1      41.493  28.680  30.926  1.00  0.00     0.074 A 
ATOM     48  C   UNL A   1      41.762  31.548  36.580  1.00  0.00     0.029 A 
ATOM     49  N   UNL A   1      41.244  30.951  34.502  1.00  0.00    -0.354 N 
ATOM     50  N   UNL A   1      41.478  29.327  32.066  1.00  0.00    -0.248 NA
ATOM     51  C   UNL A   1      42.561  27.676  30.819  1.00  0.00     0.031 C 
ATOM     52  C   UNL A   1      42.655  30.552  36.170  1.00  0.00     0.029 A 
ATOM     53  C   UNL A   1      42.315  30.157  34.886  1.00  0.00     0.049 A 
ATOM     54  H   UNL A   1      40.789  30.902  33.630  1.00  0.00     0.167 HD
ATOM     55  C   UNL A   1      42.514  28.794  32.822  1.00  0.00     0.074 A 
ATOM     56  C   UNL A   1      43.126  27.759  32.014  1.00  0.00     0.031 C 
ATOM     57  C   UNL A   1      42.919  29.132  34.071  1.00  0.00     0.037 A 
BRANCH  44  58
ATOM     58  C   UNL A   1      39.670  33.748  36.614  1.00  0.00     0.064 A 
ATOM     59  C   UNL A   1      40.300  35.002  36.667  1.00  0.00     0.173 A 
ATOM     60  C   UNL A   1      38.839  33.390  37.687  1.00  0.00     0.173 A 
ATOM     61  F   UNL A   1      41.113  35.393  35.674  1.00  0.00    -0.203 F 
ATOM     62  C   UNL A   1      40.146  35.839  37.770  1.00  0.00     0.198 A 
ATOM     63  C   UNL A   1      38.656  34.246  38.770  1.00  0.00     0.198 A 
ATOM     64  F   UNL A   1      38.204  32.209  37.687  1.00  0.00    -0.203 F 
ATOM     65  F   UNL A   1      40.815  36.998  37.828  1.00  0.00    -0.200 F 
ATOM     66  C   UNL A   1      39.320  35.463  38.817  1.00  0.00     0.200 A 
ATOM     67  F   UNL A   1      37.845  33.887  39.775  1.00  0.00    -0.200 F 
ATOM     68  F   UNL A   1      39.172  36.267  39.879  1.00  0.00    -0.200 F 
ENDBRANCH  44  58
BRANCH  45  69
ATOM     69  C   UNL A   1      40.763  27.998  28.519  1.00  0.00     0.064 A 
ATOM     70  C   UNL A   1      40.139  26.751  28.388  1.00  0.00     0.173 A 
ATOM     71  C   UNL A   1      41.547  28.451  27.447  1.00  0.00     0.173 A 
ATOM     72  F   UNL A   1      39.394  26.266  29.392  1.00  0.00    -0.203 F 
ATOM     73  C   UNL A   1      40.302  25.981  27.237  1.00  0.00     0.198 A 
ATOM     74  C   UNL A   1      41.685  27.694  26.285  1.00  0.00     0.198 A 
ATOM     75  F   UNL A   1      42.161  29.642  27.519  1.00  0.00    -0.203 F 
ATOM     76  F   UNL A   1      39.723  24.775  27.153  1.00  0.00    -0.200 F 
ATOM     77  C   UNL A   1      41.067  26.458  26.184  1.00  0.00     0.200 A 
ATOM     78  F   UNL A   1      42.410  28.167  25.262  1.00  0.00    -0.200 F 
ATOM     79  F   UNL A   1      41.213  25.723  25.072  1.00  0.00    -0.200 F 
ENDBRANCH  45  69
BRANCH  57  80
ATOM     80  C   UNL A   1      44.063  28.354  34.659  1.00  0.00     0.064 A 
ATOM     81  C   UNL A   1      45.390  28.792  34.549  1.00  0.00     0.173 A 
ATOM     82  C   UNL A   1      43.821  27.173  35.379  1.00  0.00     0.173 A 
ATOM     83  F   UNL A   1      45.679  29.907  33.859  1.00  0.00    -0.203 F 
ATOM     84  C   UNL A   1      46.435  28.064  35.111  1.00  0.00     0.198 A 
ATOM     85  C   UNL A   1      44.863  26.465  35.970  1.00  0.00     0.198 A 
ATOM     86  F   UNL A   1      42.569  26.712  35.520  1.00  0.00    -0.203 F 
ATOM     87  F   UNL A   1      47.700  28.474  34.948  1.00  0.00    -0.200 F 
ATOM     88  C   UNL A   1      46.170  26.906  35.829  1.00  0.00     0.200 A 
ATOM     89  F   UNL A   1      44.603  25.357  36.676  1.00  0.00    -0.200 F 
ATOM     90  F   UNL A   1      47.176  26.212  36.377  1.00  0.00    -0.200 F 
ENDBRANCH  57  80
ENDBRANCH  31  32
ENDBRANCH  23  26
ENDBRANCH  21  22
ENDBRANCH  20  21
ENDBRANCH  19  20
ENDBRANCH   1  19
TORSDOF 16
ENDMDL
MODEL 3
REMARK VINA RESULT:     -11.2      6.186     10.348
REMARK SMILES CC[C@@H]1CC[C@](O)([C@H](F)C(=O)NCCCCCCNC(=O)c2ccc(-c3c4nc(c(-c5c(F)c(F)c(F)c(F)c5F)c5ccc([nH]5)c(-c5c(F)c(F)c(F)c(F)c5F)c5nc(c(-c6c(F)c(F)c(F)c(F)c6F)c6ccc3[nH]6)C=C5)C=C4)cc2)C1
REMARK SMILES IDX 15 1 14 2 13 3 12 4 10 5 11 6 8 8 9 9 6 10 3 11 4 12 85 13
REMARK SMILES IDX 5 14 2 15 1 16 7 17 16 19 17 20 18 21 19 22 20 23 21 25
REMARK SMILES IDX 22 26 23 27 84 28 24 29 83 30 25 31 26 32 27 33 77 34 28 35
REMARK SMILES IDX 82 36 76 37 78 38 29 39 81 40 75 41 74 42 30 44 62 45 42 46
REMARK SMILES IDX 61 47 43 48 46 49 60 50 79 51 44 52 45 53 59 55 80 56 47 57
REMARK SMILES IDX 31 58 32 59 40 60 33 61 34 62 38 63 41 64 35 65 36 66 39 67
REMARK SMILES IDX 37 68 63 69 64 70 72 71 65 72 66 73 70 74 73 75 67 76 68 77
REMARK SMILES IDX 71 78 69 79 48 80 49 81 57 82 50 83 51 84 55 85 58 86 52 87
REMARK SMILES IDX 53 88 56 89 54 90
REMARK H PARENT 12 7 7 18 19 24 78 43 46 54
REMARK Flexibility Score: inf
ROOT
ATOM      1  C   UNL A   1      37.198  21.991  24.434  1.00  0.00     0.002 C 
ENDROOT
BRANCH   1   2
ATOM      2  C   UNL A   1      36.051  23.008  24.392  1.00  0.00     0.021 C 
BRANCH   2   3
ATOM      3  C   UNL A   1      35.790  23.753  25.696  1.00  0.00     0.116 C 
BRANCH   3   4
ATOM      4  N   UNL A   1      34.381  23.987  25.941  1.00  0.00    -0.353 N 
ATOM      5  C   UNL A   1      33.410  23.091  26.295  1.00  0.00     0.257 C 
ATOM      6  O   UNL A   1      32.310  23.547  26.618  1.00  0.00    -0.272 OA
ATOM      7  H   UNL A   1      34.082  24.919  25.839  1.00  0.00     0.163 HD
BRANCH   5   8
ATOM      8  C   UNL A   1      33.699  21.590  26.335  1.00  0.00     0.286 C 
ATOM      9  F   UNL A   1      33.691  21.109  27.621  1.00  0.00    -0.234 F 
BRANCH   8  10
ATOM     10  C   UNL A   1      32.793  20.705  25.439  1.00  0.00     0.105 C 
ATOM     11  C   UNL A   1      32.617  18.613  24.126  1.00  0.00    -0.008 C 
ATOM     12  C   UNL A   1      32.320  19.828  23.236  1.00  0.00     0.007 C 
ATOM     13  C   UNL A   1      32.987  19.181  25.514  1.00  0.00     0.042 C 
ATOM     14  C   UNL A   1      32.961  21.012  23.946  1.00  0.00     0.039 C 
BRANCH  11  15
ATOM     15  C   UNL A   1      33.715  17.730  23.502  1.00  0.00     0.000 C 
ATOM     16  C   UNL A   1      34.561  16.980  24.521  1.00  0.00     0.004 C 
ENDBRANCH  11  15
BRANCH  10  17
ATOM     17  O   UNL A   1      31.420  20.989  25.788  1.00  0.00    -0.386 OA
ATOM     18  H   UNL A   1      30.828  20.462  25.229  1.00  0.00     0.211 HD
ENDBRANCH  10  17
ENDBRANCH   8  10
ENDBRANCH   5   8
ENDBRANCH   3   4
ENDBRANCH   2   3
ENDBRANCH   1   2
BRANCH   1  19
ATOM     19  C   UNL A   1      36.829  20.578  24.898  1.00  0.00     0.002 C 
BRANCH  19  20
ATOM     20  C   UNL A   1      37.990  19.588  25.004  1.00  0.00     0.021 C 
BRANCH  20  21
ATOM     21  C   UNL A   1      39.199  20.087  25.785  1.00  0.00     0.116 C 
BRANCH  21  22
ATOM     22  N   UNL A   1      40.261  19.100  25.878  1.00  0.00    -0.352 N 
ATOM     23  C   UNL A   1      41.598  19.280  26.135  1.00  0.00     0.251 C 
ATOM     24  H   UNL A   1      39.981  18.167  25.737  1.00  0.00     0.163 HD
ATOM     25  O   UNL A   1      42.378  18.341  26.038  1.00  0.00    -0.269 OA
BRANCH  23  26
ATOM     26  C   UNL A   1      42.104  20.621  26.500  1.00  0.00     0.039 A 
ATOM     27  C   UNL A   1      42.486  21.494  25.479  1.00  0.00     0.014 A 
ATOM     28  C   UNL A   1      42.201  21.019  27.835  1.00  0.00     0.014 A 
ATOM     29  C   UNL A   1      42.905  22.788  25.794  1.00  0.00     0.010 A 
ATOM     30  C   UNL A   1      42.541  22.333  28.145  1.00  0.00     0.010 A 
ATOM     31  C   UNL A   1      42.900  23.230  27.128  1.00  0.00    -0.014 A 
BRANCH  31  32
ATOM     32  C   UNL A   1      43.266  24.627  27.474  1.00  0.00     0.031 A 
ATOM     33  C   UNL A   1      44.708  25.047  27.507  1.00  0.00     0.074 A 
ATOM     34  C   UNL A   1      42.302  25.499  27.822  1.00  0.00     0.049 A 
ATOM     35  N   UNL A   1      45.228  26.202  27.843  1.00  0.00    -0.248 NA
ATOM     36  C   UNL A   1      45.701  24.024  27.146  1.00  0.00     0.031 C 
ATOM     37  C   UNL A   1      40.871  25.197  27.880  1.00  0.00     0.029 A 
ATOM     38  N   UNL A   1      42.379  26.815  28.205  1.00  0.00    -0.354 N 
ATOM     39  C   UNL A   1      46.603  26.040  27.739  1.00  0.00     0.074 A 
ATOM     40  C   UNL A   1      46.839  24.660  27.377  1.00  0.00     0.031 C 
ATOM     41  C   UNL A   1      40.204  26.300  28.254  1.00  0.00     0.029 A 
ATOM     42  C   UNL A   1      41.161  27.374  28.504  1.00  0.00     0.049 A 
ATOM     43  H   UNL A   1      43.228  27.311  28.260  1.00  0.00     0.167 HD
ATOM     44  C   UNL A   1      47.579  26.966  27.904  1.00  0.00     0.037 A 
ATOM     45  C   UNL A   1      40.850  28.610  28.940  1.00  0.00     0.037 A 
ATOM     46  C   UNL A   1      47.337  28.340  28.259  1.00  0.00     0.049 A 
ATOM     47  C   UNL A   1      41.950  29.617  29.136  1.00  0.00     0.074 A 
ATOM     48  C   UNL A   1      48.249  29.370  28.401  1.00  0.00     0.029 A 
ATOM     49  N   UNL A   1      46.086  28.874  28.542  1.00  0.00    -0.354 N 
ATOM     50  N   UNL A   1      43.242  29.476  28.963  1.00  0.00    -0.248 NA
ATOM     51  C   UNL A   1      41.547  30.959  29.577  1.00  0.00     0.031 C 
ATOM     52  C   UNL A   1      47.559  30.510  28.827  1.00  0.00     0.029 A 
ATOM     53  C   UNL A   1      46.208  30.212  28.887  1.00  0.00     0.049 A 
ATOM     54  H   UNL A   1      45.237  28.376  28.503  1.00  0.00     0.167 HD
ATOM     55  C   UNL A   1      43.804  30.712  29.250  1.00  0.00     0.074 A 
ATOM     56  C   UNL A   1      42.709  31.596  29.592  1.00  0.00     0.031 C 
ATOM     57  C   UNL A   1      45.109  31.081  29.230  1.00  0.00     0.037 A 
BRANCH  44  58
ATOM     58  C   UNL A   1      48.999  26.511  27.710  1.00  0.00     0.064 A 
ATOM     59  C   UNL A   1      49.840  26.228  28.799  1.00  0.00     0.173 A 
ATOM     60  C   UNL A   1      49.526  26.348  26.420  1.00  0.00     0.173 A 
ATOM     61  F   UNL A   1      49.392  26.374  30.055  1.00  0.00    -0.203 F 
ATOM     62  C   UNL A   1      51.167  25.849  28.604  1.00  0.00     0.198 A 
ATOM     63  C   UNL A   1      50.842  25.931  26.229  1.00  0.00     0.198 A 
ATOM     64  F   UNL A   1      48.767  26.595  25.342  1.00  0.00    -0.203 F 
ATOM     65  F   UNL A   1      51.967  25.655  29.660  1.00  0.00    -0.200 F 
ATOM     66  C   UNL A   1      51.664  25.696  27.320  1.00  0.00     0.200 A 
ATOM     67  F   UNL A   1      51.317  25.769  24.985  1.00  0.00    -0.200 F 
ATOM     68  F   UNL A   1      52.940  25.333  27.132  1.00  0.00    -0.200 F 
ENDBRANCH  44  58
BRANCH  45  69
ATOM     69  C   UNL A   1      39.430  28.959  29.200  1.00  0.00     0.064 A 
ATOM     70  C   UNL A   1      38.883  28.852  30.486  1.00  0.00     0.173 A 
ATOM     71  C   UNL A   1      38.597  29.430  28.175  1.00  0.00     0.173 A 
ATOM     72  F   UNL A   1      39.634  28.389  31.497  1.00  0.00    -0.203 F 
ATOM     73  C   UNL A   1      37.554  29.191  30.734  1.00  0.00     0.198 A 
ATOM     74  C   UNL A   1      37.277  29.797  28.430  1.00  0.00     0.198 A 
ATOM     75  F   UNL A   1      39.072  29.557  26.927  1.00  0.00    -0.203 F 
ATOM     76  F   UNL A   1      37.047  29.044  31.966  1.00  0.00    -0.200 F 
ATOM     77  C   UNL A   1      36.755  29.671  29.708  1.00  0.00     0.200 A 
ATOM     78  F   UNL A   1      36.514  30.278  27.439  1.00  0.00    -0.200 F 
ATOM     79  F   UNL A   1      35.481  30.010  29.950  1.00  0.00    -0.200 F 
ENDBRANCH  45  69
BRANCH  57  80
ATOM     80  C   UNL A   1      45.426  32.513  29.559  1.00  0.00     0.064 A 
ATOM     81  C   UNL A   1      45.753  32.919  30.861  1.00  0.00     0.173 A 
ATOM     82  C   UNL A   1      45.443  33.486  28.546  1.00  0.00     0.173 A 
ATOM     83  F   UNL A   1      45.737  32.032  31.869  1.00  0.00    -0.203 F 
ATOM     84  C   UNL A   1      46.055  34.248  31.143  1.00  0.00     0.198 A 
ATOM     85  C   UNL A   1      45.780  34.807  28.825  1.00  0.00     0.198 A 
ATOM     86  F   UNL A   1      45.144  33.151  27.282  1.00  0.00    -0.203 F 
ATOM     87  F   UNL A   1      46.313  34.622  32.404  1.00  0.00    -0.200 F 
ATOM     88  C   UNL A   1      46.078  35.189  30.123  1.00  0.00     0.200 A 
ATOM     89  F   UNL A   1      45.816  35.710  27.835  1.00  0.00    -0.200 F 
ATOM     90  F   UNL A   1      46.379  36.466  30.395  1.00  0.00    -0.200 F 
ENDBRANCH  57  80
ENDBRANCH  31  32
ENDBRANCH  23  26
ENDBRANCH  21  22
ENDBRANCH  20  21
ENDBRANCH  19  20
ENDBRANCH   1  19
TORSDOF 16
ENDMDL
