MODEL 1
REMARK VINA RESULT:     -11.1      0.000      0.000
REMARK SMILES O=C(CSC(=S)NC(=O)c1ccc([N+](=O)[O-])cc1)NCCCCCCNC(=O)c1ccc(-c2c3nc(c(-c4c(F)c(F)c(F)c(F)c4F)c4ccc([nH]4)c(-c4c(F)c(F)c(F)c(F)c4F)c4nc(c(-c5c(F)c(F)c(F)c(F)c5F)c5ccc2[nH]5)C=C4)C=C3)cc1
REMARK SMILES IDX 21 1 20 2 19 3 1 4 2 5 3 7 4 8 5 9 6 10 7 11 8 12 9 14 10 15
REMARK SMILES IDX 11 16 18 17 12 18 17 19 13 20 14 21 15 22 16 23 22 24 23 25
REMARK SMILES IDX 24 26 25 27 26 28 27 29 28 31 29 32 30 33 91 34 31 35 90 36
REMARK SMILES IDX 32 37 33 38 34 39 84 40 35 41 89 42 83 43 85 44 36 45 88 46
REMARK SMILES IDX 82 47 81 48 37 50 69 51 49 52 68 53 50 54 53 55 67 56 86 57
REMARK SMILES IDX 51 58 52 59 66 61 87 62 54 63 38 64 39 65 47 66 40 67 41 68
REMARK SMILES IDX 45 69 48 70 42 71 43 72 46 73 44 74 70 75 71 76 79 77 72 78
REMARK SMILES IDX 73 79 77 80 80 81 74 82 75 83 78 84 76 85 55 86 56 87 64 88
REMARK SMILES IDX 57 89 58 90 62 91 65 92 59 93 60 94 63 95 61 96
REMARK H PARENT 19 6 7 13 26 30 85 49 53 60
REMARK Flexibility Score: inf
ROOT
ATOM      1  C   UNL A   1      35.164  31.861  28.244  1.00  0.00     0.021 C 
ENDROOT
BRANCH   1   2
ATOM      2  C   UNL A   1      33.851  31.518  27.545  1.00  0.00     0.116 C 
BRANCH   2   3
ATOM      3  N   UNL A   1      33.980  30.342  26.721  1.00  0.00    -0.355 N 
ATOM      4  O   UNL A   1      31.858  30.326  25.843  1.00  0.00    -0.274 OA
ATOM      5  C   UNL A   1      32.989  29.853  25.899  1.00  0.00     0.230 C 
ATOM      6  H   UNL A   1      34.835  29.854  26.748  1.00  0.00     0.163 HD
BRANCH   5   7
ATOM      7  C   UNL A   1      33.378  28.594  25.137  1.00  0.00     0.177 C 
BRANCH   7   8
ATOM      8  S   UNL A   1      33.536  28.916  23.353  1.00  0.00    -0.087 SA
BRANCH   8   9
ATOM      9  C   UNL A   1      32.136  28.157  22.637  1.00  0.00     0.141 C 
ATOM     10  S   UNL A   1      30.559  28.697  22.772  1.00  0.00    -0.052 S 
BRANCH   9  11
ATOM     11  N   UNL A   1      32.369  27.081  21.776  1.00  0.00    -0.307 N 
ATOM     12  C   UNL A   1      32.723  25.733  21.888  1.00  0.00     0.256 C 
ATOM     13  H   UNL A   1      32.253  27.342  20.834  1.00  0.00     0.171 HD
ATOM     14  O   UNL A   1      33.312  25.161  20.976  1.00  0.00    -0.269 OA
BRANCH  12  15
ATOM     15  C   UNL A   1      32.426  24.997  23.132  1.00  0.00     0.040 A 
ATOM     16  C   UNL A   1      33.335  25.072  24.193  1.00  0.00     0.021 A 
ATOM     17  C   UNL A   1      31.221  24.294  23.264  1.00  0.00     0.021 A 
ATOM     18  C   UNL A   1      32.991  24.533  25.436  1.00  0.00     0.086 A 
ATOM     19  C   UNL A   1      30.868  23.762  24.506  1.00  0.00     0.086 A 
ATOM     20  C   UNL A   1      31.743  23.910  25.594  1.00  0.00     0.269 A 
BRANCH  20  21
ATOM     21  N   UNL A   1      31.323  23.457  26.924  1.00  0.00     0.062 N 
ATOM     22  O   UNL A   1      32.177  22.925  27.647  1.00  0.00    -0.258 OA
ATOM     23  O   UNL A   1      30.145  23.658  27.252  1.00  0.00    -0.258 OA
ENDBRANCH  20  21
ENDBRANCH  12  15
ENDBRANCH   9  11
ENDBRANCH   8   9
ENDBRANCH   7   8
ENDBRANCH   5   7
ENDBRANCH   2   3
ENDBRANCH   1   2
BRANCH   1  24
ATOM     24  C   UNL A   1      35.076  32.980  29.294  1.00  0.00     0.002 C 
BRANCH  24  25
ATOM     25  C   UNL A   1      35.307  34.405  28.781  1.00  0.00     0.002 C 
BRANCH  25  26
ATOM     26  C   UNL A   1      34.123  35.360  28.929  1.00  0.00     0.021 C 
BRANCH  26  27
ATOM     27  C   UNL A   1      32.934  34.803  29.701  1.00  0.00     0.116 C 
BRANCH  27  28
ATOM     28  N   UNL A   1      32.422  35.728  30.699  1.00  0.00    -0.352 N 
ATOM     29  C   UNL A   1      32.813  35.886  32.008  1.00  0.00     0.251 C 
ATOM     30  H   UNL A   1      31.697  36.322  30.398  1.00  0.00     0.163 HD
ATOM     31  O   UNL A   1      32.183  36.621  32.762  1.00  0.00    -0.269 OA
BRANCH  29  32
ATOM     32  C   UNL A   1      33.983  35.137  32.516  1.00  0.00     0.039 A 
ATOM     33  C   UNL A   1      33.789  33.862  33.055  1.00  0.00     0.014 A 
ATOM     34  C   UNL A   1      35.268  35.681  32.443  1.00  0.00     0.014 A 
ATOM     35  C   UNL A   1      34.893  33.102  33.451  1.00  0.00     0.010 A 
ATOM     36  C   UNL A   1      36.370  34.896  32.772  1.00  0.00     0.010 A 
ATOM     37  C   UNL A   1      36.196  33.598  33.277  1.00  0.00    -0.014 A 
BRANCH  37  38
ATOM     38  C   UNL A   1      37.392  32.782  33.612  1.00  0.00     0.031 A 
ATOM     39  C   UNL A   1      38.159  33.061  34.875  1.00  0.00     0.074 A 
ATOM     40  C   UNL A   1      37.839  31.855  32.740  1.00  0.00     0.049 A 
ATOM     41  N   UNL A   1      39.294  32.551  35.285  1.00  0.00    -0.248 NA
ATOM     42  C   UNL A   1      37.591  34.067  35.786  1.00  0.00     0.031 C 
ATOM     43  C   UNL A   1      37.207  31.515  31.465  1.00  0.00     0.029 A 
ATOM     44  N   UNL A   1      38.943  31.039  32.788  1.00  0.00    -0.354 N 
ATOM     45  C   UNL A   1      39.586  33.194  36.481  1.00  0.00     0.074 A 
ATOM     46  C   UNL A   1      38.532  34.155  36.716  1.00  0.00     0.031 C 
ATOM     47  C   UNL A   1      37.925  30.557  30.857  1.00  0.00     0.029 A 
ATOM     48  C   UNL A   1      39.092  30.245  31.676  1.00  0.00     0.049 A 
ATOM     49  H   UNL A   1      39.570  31.025  33.547  1.00  0.00     0.167 HD
ATOM     50  C   UNL A   1      40.633  32.987  37.315  1.00  0.00     0.037 A 
ATOM     51  C   UNL A   1      40.071  29.379  31.346  1.00  0.00     0.037 A 
ATOM     52  C   UNL A   1      41.654  31.996  37.103  1.00  0.00     0.049 A 
ATOM     53  C   UNL A   1      41.224  29.176  32.294  1.00  0.00     0.074 A 
ATOM     54  C   UNL A   1      42.705  31.653  37.937  1.00  0.00     0.029 A 
ATOM     55  N   UNL A   1      41.754  31.191  35.980  1.00  0.00    -0.354 N 
ATOM     56  N   UNL A   1      41.445  29.731  33.461  1.00  0.00    -0.248 NA
ATOM     57  C   UNL A   1      42.264  28.222  31.881  1.00  0.00     0.031 C 
ATOM     58  C   UNL A   1      43.471  30.677  37.293  1.00  0.00     0.029 A 
ATOM     59  C   UNL A   1      42.865  30.371  36.085  1.00  0.00     0.049 A 
ATOM     60  H   UNL A   1      41.127  31.200  35.220  1.00  0.00     0.167 HD
ATOM     61  C   UNL A   1      42.621  29.165  33.937  1.00  0.00     0.074 A 
ATOM     62  C   UNL A   1      43.063  28.216  32.937  1.00  0.00     0.031 C 
ATOM     63  C   UNL A   1      43.276  29.409  35.098  1.00  0.00     0.037 A 
BRANCH  50  64
ATOM     64  C   UNL A   1      40.738  33.843  38.543  1.00  0.00     0.064 A 
ATOM     65  C   UNL A   1      41.490  35.026  38.555  1.00  0.00     0.173 A 
ATOM     66  C   UNL A   1      40.006  33.517  39.696  1.00  0.00     0.173 A 
ATOM     67  F   UNL A   1      42.213  35.378  37.482  1.00  0.00    -0.203 F 
ATOM     68  C   UNL A   1      41.517  35.845  39.682  1.00  0.00     0.198 A 
ATOM     69  C   UNL A   1      40.013  34.352  40.810  1.00  0.00     0.198 A 
ATOM     70  F   UNL A   1      39.266  32.399  39.734  1.00  0.00    -0.203 F 
ATOM     71  F   UNL A   1      42.266  36.956  39.681  1.00  0.00    -0.200 F 
ATOM     72  C   UNL A   1      40.770  35.514  40.802  1.00  0.00     0.200 A 
ATOM     73  F   UNL A   1      39.280  34.038  41.886  1.00  0.00    -0.200 F 
ATOM     74  F   UNL A   1      40.781  36.314  41.878  1.00  0.00    -0.200 F 
ENDBRANCH  50  64
BRANCH  51  75
ATOM     75  C   UNL A   1      40.014  28.627  30.062  1.00  0.00     0.064 A 
ATOM     76  C   UNL A   1      39.378  27.380  29.987  1.00  0.00     0.173 A 
ATOM     77  C   UNL A   1      40.637  29.111  28.902  1.00  0.00     0.173 A 
ATOM     78  F   UNL A   1      38.787  26.863  31.075  1.00  0.00    -0.203 F 
ATOM     79  C   UNL A   1      39.399  26.629  28.814  1.00  0.00     0.198 A 
ATOM     80  C   UNL A   1      40.628  28.374  27.720  1.00  0.00     0.198 A 
ATOM     81  F   UNL A   1      41.257  30.300  28.918  1.00  0.00    -0.203 F 
ATOM     82  F   UNL A   1      38.842  25.410  28.791  1.00  0.00    -0.200 F 
ATOM     83  C   UNL A   1      40.022  27.127  27.680  1.00  0.00     0.200 A 
ATOM     84  F   UNL A   1      41.221  28.865  26.622  1.00  0.00    -0.200 F 
ATOM     85  F   UNL A   1      40.051  26.402  26.554  1.00  0.00    -0.200 F 
ENDBRANCH  51  75
BRANCH  63  86
ATOM     86  C   UNL A   1      44.505  28.598  35.386  1.00  0.00     0.064 A 
ATOM     87  C   UNL A   1      45.784  29.038  35.020  1.00  0.00     0.173 A 
ATOM     88  C   UNL A   1      44.402  27.389  36.092  1.00  0.00     0.173 A 
ATOM     89  F   UNL A   1      45.935  30.179  34.331  1.00  0.00    -0.203 F 
ATOM     90  C   UNL A   1      46.914  28.286  35.330  1.00  0.00     0.198 A 
ATOM     91  C   UNL A   1      45.536  26.656  36.429  1.00  0.00     0.198 A 
ATOM     92  F   UNL A   1      43.201  26.928  36.473  1.00  0.00    -0.203 F 
ATOM     93  F   UNL A   1      48.124  28.703  34.931  1.00  0.00    -0.200 F 
ATOM     94  C   UNL A   1      46.790  27.102  36.042  1.00  0.00     0.200 A 
ATOM     95  F   UNL A   1      45.415  25.522  37.131  1.00  0.00    -0.200 F 
ATOM     96  F   UNL A   1      47.880  26.388  36.353  1.00  0.00    -0.200 F 
ENDBRANCH  63  86
ENDBRANCH  37  38
ENDBRANCH  29  32
ENDBRANCH  27  28
ENDBRANCH  26  27
ENDBRANCH  25  26
ENDBRANCH  24  25
ENDBRANCH   1  24
TORSDOF 18
ENDMDL
MODEL 2
REMARK VINA RESULT:     -11.0      2.051      7.914
REMARK SMILES O=C(CSC(=S)NC(=O)c1ccc([N+](=O)[O-])cc1)NCCCCCCNC(=O)c1ccc(-c2c3nc(c(-c4c(F)c(F)c(F)c(F)c4F)c4ccc([nH]4)c(-c4c(F)c(F)c(F)c(F)c4F)c4nc(c(-c5c(F)c(F)c(F)c(F)c5F)c5ccc2[nH]5)C=C4)C=C3)cc1
REMARK SMILES IDX 21 1 20 2 19 3 1 4 2 5 3 7 4 8 5 9 6 10 7 11 8 12 9 14 10 15
REMARK SMILES IDX 11 16 18 17 12 18 17 19 13 20 14 21 15 22 16 23 22 24 23 25
REMARK SMILES IDX 24 26 25 27 26 28 27 29 28 31 29 32 30 33 91 34 31 35 90 36
REMARK SMILES IDX 32 37 33 38 34 39 84 40 35 41 89 42 83 43 85 44 36 45 88 46
REMARK SMILES IDX 82 47 81 48 37 50 69 51 49 52 68 53 50 54 53 55 67 56 86 57
REMARK SMILES IDX 51 58 52 59 66 61 87 62 54 63 38 64 39 65 47 66 40 67 41 68
REMARK SMILES IDX 45 69 48 70 42 71 43 72 46 73 44 74 70 75 71 76 79 77 72 78
REMARK SMILES IDX 73 79 77 80 80 81 74 82 75 83 78 84 76 85 55 86 56 87 64 88
REMARK SMILES IDX 57 89 58 90 62 91 65 92 59 93 60 94 63 95 61 96
REMARK H PARENT 19 6 7 13 26 30 85 49 53 60
REMARK Flexibility Score: inf
ROOT
ATOM      1  C   UNL A   1      33.413  28.147  26.490  1.00  0.00     0.021 C 
ENDROOT
BRANCH   1   2
ATOM      2  C   UNL A   1      33.686  27.310  25.242  1.00  0.00     0.116 C 
BRANCH   2   3
ATOM      3  N   UNL A   1      34.287  26.042  25.575  1.00  0.00    -0.355 N 
ATOM      4  O   UNL A   1      33.962  24.989  23.560  1.00  0.00    -0.274 OA
ATOM      5  C   UNL A   1      34.419  24.988  24.699  1.00  0.00     0.230 C 
ATOM      6  H   UNL A   1      34.627  25.922  26.492  1.00  0.00     0.163 HD
BRANCH   5   7
ATOM      7  C   UNL A   1      35.086  23.759  25.301  1.00  0.00     0.177 C 
BRANCH   7   8
ATOM      8  S   UNL A   1      34.130  23.100  26.702  1.00  0.00    -0.087 SA
BRANCH   8   9
ATOM      9  C   UNL A   1      32.904  22.094  25.972  1.00  0.00     0.141 C 
ATOM     10  S   UNL A   1      33.173  20.910  24.822  1.00  0.00    -0.052 S 
BRANCH   9  11
ATOM     11  N   UNL A   1      31.608  22.202  26.483  1.00  0.00    -0.307 N 
ATOM     12  C   UNL A   1      30.626  23.192  26.591  1.00  0.00     0.256 C 
ATOM     13  H   UNL A   1      31.303  21.352  26.874  1.00  0.00     0.171 HD
ATOM     14  O   UNL A   1      29.790  23.149  27.489  1.00  0.00    -0.269 OA
BRANCH  12  15
ATOM     15  C   UNL A   1      30.615  24.323  25.645  1.00  0.00     0.040 A 
ATOM     16  C   UNL A   1      30.654  24.054  24.272  1.00  0.00     0.021 A 
ATOM     17  C   UNL A   1      30.496  25.637  26.117  1.00  0.00     0.021 A 
ATOM     18  C   UNL A   1      30.465  25.095  23.359  1.00  0.00     0.086 A 
ATOM     19  C   UNL A   1      30.297  26.679  25.210  1.00  0.00     0.086 A 
ATOM     20  C   UNL A   1      30.254  26.397  23.835  1.00  0.00     0.269 A 
BRANCH  20  21
ATOM     21  N   UNL A   1      29.928  27.470  22.889  1.00  0.00     0.062 N 
ATOM     22  O   UNL A   1      28.963  28.199  23.157  1.00  0.00    -0.258 OA
ATOM     23  O   UNL A   1      30.655  27.597  21.894  1.00  0.00    -0.258 OA
ENDBRANCH  20  21
ENDBRANCH  12  15
ENDBRANCH   9  11
ENDBRANCH   8   9
ENDBRANCH   7   8
ENDBRANCH   5   7
ENDBRANCH   2   3
ENDBRANCH   1   2
BRANCH   1  24
ATOM     24  C   UNL A   1      33.165  29.642  26.235  1.00  0.00     0.002 C 
BRANCH  24  25
ATOM     25  C   UNL A   1      31.792  30.179  26.651  1.00  0.00     0.002 C 
BRANCH  25  26
ATOM     26  C   UNL A   1      31.646  31.701  26.635  1.00  0.00     0.021 C 
BRANCH  26  27
ATOM     27  C   UNL A   1      32.805  32.469  27.257  1.00  0.00     0.116 C 
BRANCH  27  28
ATOM     28  N   UNL A   1      32.466  33.847  27.575  1.00  0.00    -0.352 N 
ATOM     29  C   UNL A   1      33.022  34.675  28.522  1.00  0.00     0.251 C 
ATOM     30  H   UNL A   1      31.739  34.241  27.041  1.00  0.00     0.163 HD
ATOM     31  O   UNL A   1      32.527  35.771  28.760  1.00  0.00    -0.269 OA
BRANCH  29  32
ATOM     32  C   UNL A   1      34.209  34.222  29.281  1.00  0.00     0.039 A 
ATOM     33  C   UNL A   1      34.022  33.511  30.470  1.00  0.00     0.014 A 
ATOM     34  C   UNL A   1      35.499  34.479  28.812  1.00  0.00     0.014 A 
ATOM     35  C   UNL A   1      35.128  32.993  31.148  1.00  0.00     0.010 A 
ATOM     36  C   UNL A   1      36.595  33.902  29.450  1.00  0.00     0.010 A 
ATOM     37  C   UNL A   1      36.421  33.151  30.623  1.00  0.00    -0.014 A 
BRANCH  37  38
ATOM     38  C   UNL A   1      37.609  32.542  31.278  1.00  0.00     0.031 A 
ATOM     39  C   UNL A   1      38.325  31.398  30.616  1.00  0.00     0.074 A 
ATOM     40  C   UNL A   1      37.986  32.957  32.505  1.00  0.00     0.049 A 
ATOM     41  N   UNL A   1      39.297  30.651  31.076  1.00  0.00    -0.248 NA
ATOM     42  C   UNL A   1      37.870  31.024  29.267  1.00  0.00     0.031 C 
ATOM     43  C   UNL A   1      37.352  34.031  33.270  1.00  0.00     0.029 A 
ATOM     44  N   UNL A   1      38.987  32.509  33.333  1.00  0.00    -0.354 N 
ATOM     45  C   UNL A   1      39.547  29.706  30.088  1.00  0.00     0.074 A 
ATOM     46  C   UNL A   1      38.605  29.948  29.019  1.00  0.00     0.031 C 
ATOM     47  C   UNL A   1      37.983  34.167  34.447  1.00  0.00     0.029 A 
ATOM     48  C   UNL A   1      39.037  33.161  34.542  1.00  0.00     0.049 A 
ATOM     49  H   UNL A   1      39.609  31.788  33.085  1.00  0.00     0.167 HD
ATOM     50  C   UNL A   1      40.490  28.734  30.072  1.00  0.00     0.037 A 
ATOM     51  C   UNL A   1      39.830  32.956  35.612  1.00  0.00     0.037 A 
ATOM     52  C   UNL A   1      41.458  28.526  31.115  1.00  0.00     0.049 A 
ATOM     53  C   UNL A   1      40.865  31.863  35.562  1.00  0.00     0.074 A 
ATOM     54  C   UNL A   1      42.508  27.624  31.147  1.00  0.00     0.029 A 
ATOM     55  N   UNL A   1      41.495  29.227  32.311  1.00  0.00    -0.354 N 
ATOM     56  N   UNL A   1      41.146  31.031  34.590  1.00  0.00    -0.248 NA
ATOM     57  C   UNL A   1      41.700  31.684  36.760  1.00  0.00     0.031 C 
ATOM     58  C   UNL A   1      43.148  27.742  32.384  1.00  0.00     0.029 A 
ATOM     59  C   UNL A   1      42.532  28.757  33.099  1.00  0.00     0.049 A 
ATOM     60  H   UNL A   1      40.876  29.951  32.561  1.00  0.00     0.167 HD
ATOM     61  C   UNL A   1      42.210  30.261  35.040  1.00  0.00     0.074 A 
ATOM     62  C   UNL A   1      42.533  30.730  36.371  1.00  0.00     0.031 C 
ATOM     63  C   UNL A   1      42.862  29.255  34.408  1.00  0.00     0.037 A 
BRANCH  50  64
ATOM     64  C   UNL A   1      40.534  27.813  28.887  1.00  0.00     0.064 A 
ATOM     65  C   UNL A   1      39.762  26.644  28.834  1.00  0.00     0.173 A 
ATOM     66  C   UNL A   1      41.296  28.151  27.758  1.00  0.00     0.173 A 
ATOM     67  F   UNL A   1      39.024  26.273  29.890  1.00  0.00    -0.203 F 
ATOM     68  C   UNL A   1      39.761  25.839  27.697  1.00  0.00     0.198 A 
ATOM     69  C   UNL A   1      41.271  27.359  26.613  1.00  0.00     0.198 A 
ATOM     70  F   UNL A   1      42.048  29.262  27.757  1.00  0.00    -0.203 F 
ATOM     71  F   UNL A   1      39.039  24.711  27.678  1.00  0.00    -0.200 F 
ATOM     72  C   UNL A   1      40.506  26.203  26.585  1.00  0.00     0.200 A 
ATOM     73  F   UNL A   1      41.980  27.720  25.535  1.00  0.00    -0.200 F 
ATOM     74  F   UNL A   1      40.487  25.438  25.484  1.00  0.00    -0.200 F 
ENDBRANCH  50  64
BRANCH  51  75
ATOM     75  C   UNL A   1      39.688  33.801  36.830  1.00  0.00     0.064 A 
ATOM     76  C   UNL A   1      38.875  33.393  37.897  1.00  0.00     0.173 A 
ATOM     77  C   UNL A   1      40.317  35.051  36.931  1.00  0.00     0.173 A 
ATOM     78  F   UNL A   1      38.234  32.216  37.839  1.00  0.00    -0.203 F 
ATOM     79  C   UNL A   1      38.665  34.218  39.001  1.00  0.00     0.198 A 
ATOM     80  C   UNL A   1      40.132  35.860  38.051  1.00  0.00     0.198 A 
ATOM     81  F   UNL A   1      41.108  35.488  35.941  1.00  0.00    -0.203 F 
ATOM     82  F   UNL A   1      37.828  33.832  39.974  1.00  0.00    -0.200 F 
ATOM     83  C   UNL A   1      39.296  35.450  39.078  1.00  0.00     0.200 A 
ATOM     84  F   UNL A   1      40.755  37.045  38.127  1.00  0.00    -0.200 F 
ATOM     85  F   UNL A   1      39.088  36.248  40.134  1.00  0.00    -0.200 F 
ENDBRANCH  51  75
BRANCH  63  86
ATOM     86  C   UNL A   1      44.030  28.632  35.115  1.00  0.00     0.064 A 
ATOM     87  C   UNL A   1      45.323  29.164  35.019  1.00  0.00     0.173 A 
ATOM     88  C   UNL A   1      43.837  27.518  35.948  1.00  0.00     0.173 A 
ATOM     89  F   UNL A   1      45.562  30.219  34.225  1.00  0.00    -0.203 F 
ATOM     90  C   UNL A   1      46.385  28.591  35.713  1.00  0.00     0.198 A 
ATOM     91  C   UNL A   1      44.895  26.968  36.666  1.00  0.00     0.198 A 
ATOM     92  F   UNL A   1      42.617  26.976  36.081  1.00  0.00    -0.203 F 
ATOM     93  F   UNL A   1      47.622  29.089  35.572  1.00  0.00    -0.200 F 
ATOM     94  C   UNL A   1      46.169  27.500  36.542  1.00  0.00     0.200 A 
ATOM     95  F   UNL A   1      44.680  25.925  37.478  1.00  0.00    -0.200 F 
ATOM     96  F   UNL A   1      47.189  26.959  37.221  1.00  0.00    -0.200 F 
ENDBRANCH  63  86
ENDBRANCH  37  38
ENDBRANCH  29  32
ENDBRANCH  27  28
ENDBRANCH  26  27
ENDBRANCH  25  26
ENDBRANCH  24  25
ENDBRANCH   1  24
TORSDOF 18
ENDMDL
MODEL 3
REMARK VINA RESULT:     -10.9      7.204     12.489
REMARK SMILES O=C(CSC(=S)NC(=O)c1ccc([N+](=O)[O-])cc1)NCCCCCCNC(=O)c1ccc(-c2c3nc(c(-c4c(F)c(F)c(F)c(F)c4F)c4ccc([nH]4)c(-c4c(F)c(F)c(F)c(F)c4F)c4nc(c(-c5c(F)c(F)c(F)c(F)c5F)c5ccc2[nH]5)C=C4)C=C3)cc1
REMARK SMILES IDX 21 1 20 2 19 3 1 4 2 5 3 7 4 8 5 9 6 10 7 11 8 12 9 14 10 15
REMARK SMILES IDX 11 16 18 17 12 18 17 19 13 20 14 21 15 22 16 23 22 24 23 25
REMARK SMILES IDX 24 26 25 27 26 28 27 29 28 31 29 32 30 33 91 34 31 35 90 36
REMARK SMILES IDX 32 37 33 38 34 39 84 40 35 41 89 42 83 43 85 44 36 45 88 46
REMARK SMILES IDX 82 47 81 48 37 50 69 51 49 52 68 53 50 54 53 55 67 56 86 57
REMARK SMILES IDX 51 58 52 59 66 61 87 62 54 63 38 64 39 65 47 66 40 67 41 68
REMARK SMILES IDX 45 69 48 70 42 71 43 72 46 73 44 74 70 75 71 76 79 77 72 78
REMARK SMILES IDX 73 79 77 80 80 81 74 82 75 83 78 84 76 85 55 86 56 87 64 88
REMARK SMILES IDX 57 89 58 90 62 91 65 92 59 93 60 94 63 95 61 96
REMARK H PARENT 19 6 7 13 26 30 85 49 53 60
REMARK Flexibility Score: inf
ROOT
ATOM      1  C   UNL A   1      40.681  22.553  27.498  1.00  0.00     0.021 C 
ENDROOT
BRANCH   1   2
ATOM      2  C   UNL A   1      39.698  22.028  26.454  1.00  0.00     0.116 C 
BRANCH   2   3
ATOM      3  N   UNL A   1      38.446  22.744  26.498  1.00  0.00    -0.355 N 
ATOM      4  O   UNL A   1      37.434  21.738  24.699  1.00  0.00    -0.274 OA
ATOM      5  C   UNL A   1      37.389  22.520  25.644  1.00  0.00     0.230 C 
ATOM      6  H   UNL A   1      38.340  23.441  27.186  1.00  0.00     0.163 HD
BRANCH   5   7
ATOM      7  C   UNL A   1      36.183  23.413  25.899  1.00  0.00     0.177 C 
BRANCH   7   8
ATOM      8  S   UNL A   1      34.952  23.266  24.568  1.00  0.00    -0.087 SA
BRANCH   8   9
ATOM      9  C   UNL A   1      33.695  22.253  25.232  1.00  0.00     0.141 C 
ATOM     10  S   UNL A   1      33.424  21.977  26.859  1.00  0.00    -0.052 S 
BRANCH   9  11
ATOM     11  N   UNL A   1      32.760  21.730  24.333  1.00  0.00    -0.307 N 
ATOM     12  C   UNL A   1      32.539  20.519  23.670  1.00  0.00     0.256 C 
ATOM     13  H   UNL A   1      32.071  22.395  24.104  1.00  0.00     0.171 HD
ATOM     14  O   UNL A   1      31.936  20.491  22.602  1.00  0.00    -0.269 OA
BRANCH  12  15
ATOM     15  C   UNL A   1      33.069  19.265  24.235  1.00  0.00     0.040 A 
ATOM     16  C   UNL A   1      32.168  18.289  24.676  1.00  0.00     0.021 A 
ATOM     17  C   UNL A   1      34.451  19.032  24.263  1.00  0.00     0.021 A 
ATOM     18  C   UNL A   1      32.642  17.028  25.047  1.00  0.00     0.086 A 
ATOM     19  C   UNL A   1      34.929  17.771  24.623  1.00  0.00     0.086 A 
ATOM     20  C   UNL A   1      34.018  16.765  24.985  1.00  0.00     0.269 A 
BRANCH  20  21
ATOM     21  N   UNL A   1      34.510  15.408  25.250  1.00  0.00     0.062 N 
ATOM     22  O   UNL A   1      35.733  15.250  25.355  1.00  0.00    -0.258 OA
ATOM     23  O   UNL A   1      33.667  14.509  25.377  1.00  0.00    -0.258 OA
ENDBRANCH  20  21
ENDBRANCH  12  15
ENDBRANCH   9  11
ENDBRANCH   8   9
ENDBRANCH   7   8
ENDBRANCH   5   7
ENDBRANCH   2   3
ENDBRANCH   1   2
BRANCH   1  24
ATOM     24  C   UNL A   1      41.767  21.556  27.934  1.00  0.00     0.002 C 
BRANCH  24  25
ATOM     25  C   UNL A   1      41.413  20.071  27.799  1.00  0.00     0.002 C 
BRANCH  25  26
ATOM     26  C   UNL A   1      42.387  19.234  26.970  1.00  0.00     0.021 C 
BRANCH  26  27
ATOM     27  C   UNL A   1      42.452  19.592  25.491  1.00  0.00     0.116 C 
BRANCH  27  28
ATOM     28  N   UNL A   1      43.583  18.983  24.809  1.00  0.00    -0.352 N 
ATOM     29  C   UNL A   1      44.756  19.569  24.394  1.00  0.00     0.251 C 
ATOM     30  H   UNL A   1      43.498  18.022  24.619  1.00  0.00     0.163 HD
ATOM     31  O   UNL A   1      45.556  18.943  23.706  1.00  0.00    -0.269 OA
BRANCH  29  32
ATOM     32  C   UNL A   1      45.036  20.977  24.752  1.00  0.00     0.039 A 
ATOM     33  C   UNL A   1      44.787  21.979  23.811  1.00  0.00     0.014 A 
ATOM     34  C   UNL A   1      45.523  21.309  26.019  1.00  0.00     0.014 A 
ATOM     35  C   UNL A   1      44.954  23.320  24.165  1.00  0.00     0.010 A 
ATOM     36  C   UNL A   1      45.621  22.647  26.393  1.00  0.00     0.010 A 
ATOM     37  C   UNL A   1      45.336  23.667  25.471  1.00  0.00    -0.014 A 
BRANCH  37  38
ATOM     38  C   UNL A   1      45.443  25.086  25.902  1.00  0.00     0.031 A 
ATOM     39  C   UNL A   1      46.778  25.778  25.876  1.00  0.00     0.074 A 
ATOM     40  C   UNL A   1      44.362  25.721  26.399  1.00  0.00     0.049 A 
ATOM     41  N   UNL A   1      47.106  26.964  26.324  1.00  0.00    -0.248 NA
ATOM     42  C   UNL A   1      47.902  25.027  25.293  1.00  0.00     0.031 C 
ATOM     43  C   UNL A   1      43.020  25.149  26.512  1.00  0.00     0.029 A 
ATOM     44  N   UNL A   1      44.227  26.985  26.920  1.00  0.00    -0.354 N 
ATOM     45  C   UNL A   1      48.472  27.086  26.105  1.00  0.00     0.074 A 
ATOM     46  C   UNL A   1      48.921  25.844  25.516  1.00  0.00     0.031 C 
ATOM     47  C   UNL A   1      42.197  26.059  27.057  1.00  0.00     0.029 A 
ATOM     48  C   UNL A   1      42.959  27.263  27.373  1.00  0.00     0.049 A 
ATOM     49  H   UNL A   1      44.968  27.631  26.966  1.00  0.00     0.167 HD
ATOM     50  C   UNL A   1      49.274  28.147  26.358  1.00  0.00     0.037 A 
ATOM     51  C   UNL A   1      42.473  28.358  27.991  1.00  0.00     0.037 A 
ATOM     52  C   UNL A   1      48.816  29.398  26.899  1.00  0.00     0.049 A 
ATOM     53  C   UNL A   1      43.394  29.518  28.262  1.00  0.00     0.074 A 
ATOM     54  C   UNL A   1      49.538  30.561  27.109  1.00  0.00     0.029 A 
ATOM     55  N   UNL A   1      47.519  29.652  27.318  1.00  0.00    -0.354 N 
ATOM     56  N   UNL A   1      44.666  29.653  27.975  1.00  0.00    -0.248 NA
ATOM     57  C   UNL A   1      42.810  30.685  28.943  1.00  0.00     0.031 C 
ATOM     58  C   UNL A   1      48.691  31.501  27.703  1.00  0.00     0.029 A 
ATOM     59  C   UNL A   1      47.427  30.943  27.811  1.00  0.00     0.049 A 
ATOM     60  H   UNL A   1      46.774  29.009  27.270  1.00  0.00     0.167 HD
ATOM     61  C   UNL A   1      45.021  30.927  28.399  1.00  0.00     0.074 A 
ATOM     62  C   UNL A   1      43.830  31.530  28.956  1.00  0.00     0.031 C 
ATOM     63  C   UNL A   1      46.227  31.542  28.333  1.00  0.00     0.037 A 
BRANCH  50  64
ATOM     64  C   UNL A   1      50.738  28.015  26.054  1.00  0.00     0.064 A 
ATOM     65  C   UNL A   1      51.245  28.223  24.764  1.00  0.00     0.173 A 
ATOM     66  C   UNL A   1      51.653  27.759  27.088  1.00  0.00     0.173 A 
ATOM     67  F   UNL A   1      50.412  28.461  23.741  1.00  0.00    -0.203 F 
ATOM     68  C   UNL A   1      52.615  28.166  24.516  1.00  0.00     0.198 A 
ATOM     69  C   UNL A   1      53.023  27.731  26.841  1.00  0.00     0.198 A 
ATOM     70  F   UNL A   1      51.220  27.559  28.341  1.00  0.00    -0.203 F 
ATOM     71  F   UNL A   1      53.075  28.338  23.269  1.00  0.00    -0.200 F 
ATOM     72  C   UNL A   1      53.502  27.932  25.556  1.00  0.00     0.200 A 
ATOM     73  F   UNL A   1      53.880  27.520  27.849  1.00  0.00    -0.200 F 
ATOM     74  F   UNL A   1      54.821  27.899  25.318  1.00  0.00    -0.200 F 
ENDBRANCH  50  64
BRANCH  51  75
ATOM     75  C   UNL A   1      41.043  28.423  28.399  1.00  0.00     0.064 A 
ATOM     76  C   UNL A   1      40.076  28.972  27.544  1.00  0.00     0.173 A 
ATOM     77  C   UNL A   1      40.622  27.991  29.665  1.00  0.00     0.173 A 
ATOM     78  F   UNL A   1      40.433  29.421  26.331  1.00  0.00    -0.203 F 
ATOM     79  C   UNL A   1      38.752  29.120  27.953  1.00  0.00     0.198 A 
ATOM     80  C   UNL A   1      39.291  28.109  30.060  1.00  0.00     0.198 A 
ATOM     81  F   UNL A   1      41.505  27.455  30.521  1.00  0.00    -0.203 F 
ATOM     82  F   UNL A   1      37.864  29.711  27.141  1.00  0.00    -0.200 F 
ATOM     83  C   UNL A   1      38.360  28.687  29.210  1.00  0.00     0.200 A 
ATOM     84  F   UNL A   1      38.913  27.677  31.272  1.00  0.00    -0.200 F 
ATOM     85  F   UNL A   1      37.089  28.838  29.608  1.00  0.00    -0.200 F 
ENDBRANCH  51  75
BRANCH  63  86
ATOM     86  C   UNL A   1      46.311  32.960  28.816  1.00  0.00     0.064 A 
ATOM     87  C   UNL A   1      46.633  33.271  30.143  1.00  0.00     0.173 A 
ATOM     88  C   UNL A   1      46.123  34.023  27.918  1.00  0.00     0.173 A 
ATOM     89  F   UNL A   1      46.807  32.292  31.044  1.00  0.00    -0.203 F 
ATOM     90  C   UNL A   1      46.741  34.595  30.561  1.00  0.00     0.198 A 
ATOM     91  C   UNL A   1      46.265  35.344  28.330  1.00  0.00     0.198 A 
ATOM     92  F   UNL A   1      45.822  33.777  26.633  1.00  0.00    -0.203 F 
ATOM     93  F   UNL A   1      47.006  34.871  31.846  1.00  0.00    -0.200 F 
ATOM     94  C   UNL A   1      46.567  35.629  29.653  1.00  0.00     0.200 A 
ATOM     95  F   UNL A   1      46.111  36.340  27.447  1.00  0.00    -0.200 F 
ATOM     96  F   UNL A   1      46.686  36.902  30.053  1.00  0.00    -0.200 F 
ENDBRANCH  63  86
ENDBRANCH  37  38
ENDBRANCH  29  32
ENDBRANCH  27  28
ENDBRANCH  26  27
ENDBRANCH  25  26
ENDBRANCH  24  25
ENDBRANCH   1  24
TORSDOF 18
ENDMDL
