MODEL 1
REMARK VINA RESULT:     -12.1      0.000      0.000
REMARK SMILES CCc1ccccc1NC(=O)CCN1C[C@H](C(=O)NCCCCCCNC(=O)c2ccc(-c3c4nc(c(-c5c(F)c(F)c(F)c(F)c5F)c5ccc([nH]5)c(-c5c(F)c(F)c(F)c(F)c5F)c5nc(c(-c6c(F)c(F)c(F)c(F)c6F)c6ccc3[nH]6)C=C5)C=C4)cc2)CC1=O
REMARK SMILES IDX 21 1 20 2 19 3 17 4 18 5 16 7 14 8 15 9 93 10 92 11 94 12
REMARK SMILES IDX 13 13 12 14 10 15 9 16 11 18 8 19 3 20 4 21 5 22 7 23 6 24
REMARK SMILES IDX 2 25 1 26 22 27 23 28 24 29 25 30 26 31 27 32 28 34 29 35
REMARK SMILES IDX 30 36 91 37 31 38 90 39 32 40 33 41 34 42 84 43 35 44 89 45
REMARK SMILES IDX 83 46 85 47 36 48 88 49 82 50 81 51 37 53 69 54 49 55 68 56
REMARK SMILES IDX 50 57 53 58 67 59 86 60 51 61 52 62 66 64 87 65 54 66 38 67
REMARK SMILES IDX 39 68 47 69 40 70 41 71 45 72 48 73 42 74 43 75 46 76 44 77
REMARK SMILES IDX 70 78 71 79 79 80 72 81 73 82 77 83 80 84 74 85 75 86 78 87
REMARK SMILES IDX 76 88 55 89 56 90 64 91 57 92 58 93 62 94 65 95 59 96 60 97
REMARK SMILES IDX 63 98 61 99
REMARK H PARENT 19 6 9 17 26 33 85 52 53 63
REMARK Flexibility Score: inf
ROOT
ATOM      1  C   UNL A   1      35.173  31.521  28.546  1.00  0.00     0.021 C 
ENDROOT
BRANCH   1   2
ATOM      2  C   UNL A   1      33.986  31.510  27.600  1.00  0.00     0.116 C 
BRANCH   2   3
ATOM      3  N   UNL A   1      33.239  30.226  27.604  1.00  0.00    -0.356 N 
ATOM      4  C   UNL A   1      32.539  29.310  26.700  1.00  0.00     0.225 C 
ATOM      5  O   UNL A   1      32.401  28.410  27.613  1.00  0.00    -0.275 OA
ATOM      6  H   UNL A   1      33.202  29.872  28.521  1.00  0.00     0.163 HD
BRANCH   4   7
ATOM      7  C   UNL A   1      31.835  29.369  24.630  1.00  0.00     0.107 C 
ATOM      8  N   UNL A   1      30.940  27.752  22.939  1.00  0.00    -0.341 N 
ATOM      9  C   UNL A   1      32.169  28.418  23.269  1.00  0.00     0.133 C 
ATOM     10  C   UNL A   1      29.821  28.486  23.273  1.00  0.00     0.223 C 
ATOM     11  C   UNL A   1      30.283  29.752  23.925  1.00  0.00     0.115 C 
ATOM     12  O   UNL A   1      28.655  28.171  23.099  1.00  0.00    -0.275 OA
BRANCH   8  13
ATOM     13  C   UNL A   1      30.892  26.343  22.634  1.00  0.00     0.129 C 
BRANCH  13  14
ATOM     14  C   UNL A   1      32.186  25.608  22.977  1.00  0.00     0.122 C 
BRANCH  14  15
ATOM     15  C   UNL A   1      32.904  24.994  21.790  1.00  0.00     0.226 C 
ATOM     16  N   UNL A   1      33.352  23.701  21.759  1.00  0.00    -0.326 N 
ATOM     17  H   UNL A   1      33.792  23.451  20.914  1.00  0.00     0.169 HD
ATOM     18  O   UNL A   1      33.051  25.670  20.764  1.00  0.00    -0.275 OA
BRANCH  16  19
ATOM     19  C   UNL A   1      33.302  22.660  22.704  1.00  0.00     0.044 A 
ATOM     20  C   UNL A   1      34.571  22.586  23.976  1.00  0.00    -0.025 A 
ATOM     21  C   UNL A   1      34.846  21.019  24.865  1.00  0.00     0.006 A 
ATOM     22  C   UNL A   1      33.686  19.611  24.628  1.00  0.00     0.000 A 
ATOM     23  C   UNL A   1      32.143  21.305  22.535  1.00  0.00     0.026 A 
ATOM     24  C   UNL A   1      32.324  19.799  23.490  1.00  0.00     0.002 A 
BRANCH  20  25
ATOM     25  C   UNL A   1      35.387  23.782  24.437  1.00  0.00     0.034 C 
ATOM     26  C   UNL A   1      34.812  24.680  25.525  1.00  0.00     0.009 C 
ENDBRANCH  20  25
ENDBRANCH  16  19
ENDBRANCH  14  15
ENDBRANCH  13  14
ENDBRANCH   8  13
ENDBRANCH   4   7
ENDBRANCH   2   3
ENDBRANCH   1   2
BRANCH   1  27
ATOM     27  C   UNL A   1      35.192  32.716  29.489  1.00  0.00     0.002 C 
BRANCH  27  28
ATOM     28  C   UNL A   1      35.495  34.057  28.807  1.00  0.00     0.002 C 
BRANCH  28  29
ATOM     29  C   UNL A   1      34.409  35.130  28.964  1.00  0.00     0.021 C 
BRANCH  29  30
ATOM     30  C   UNL A   1      33.114  34.615  29.582  1.00  0.00     0.116 C 
BRANCH  30  31
ATOM     31  N   UNL A   1      32.582  35.560  30.549  1.00  0.00    -0.352 N 
ATOM     32  C   UNL A   1      32.851  35.670  31.885  1.00  0.00     0.251 C 
ATOM     33  H   UNL A   1      31.936  36.213  30.191  1.00  0.00     0.163 HD
ATOM     34  O   UNL A   1      32.111  36.315  32.621  1.00  0.00    -0.269 OA
BRANCH  32  35
ATOM     35  C   UNL A   1      34.038  34.993  32.430  1.00  0.00     0.039 A 
ATOM     36  C   UNL A   1      33.903  33.706  32.949  1.00  0.00     0.014 A 
ATOM     37  C   UNL A   1      35.285  35.628  32.408  1.00  0.00     0.014 A 
ATOM     38  C   UNL A   1      35.035  33.027  33.394  1.00  0.00     0.010 A 
ATOM     39  C   UNL A   1      36.423  34.919  32.772  1.00  0.00     0.010 A 
ATOM     40  C   UNL A   1      36.307  33.612  33.266  1.00  0.00    -0.014 A 
BRANCH  40  41
ATOM     41  C   UNL A   1      37.529  32.847  33.611  1.00  0.00     0.031 A 
ATOM     42  C   UNL A   1      38.281  33.146  34.875  1.00  0.00     0.074 A 
ATOM     43  C   UNL A   1      37.986  31.921  32.747  1.00  0.00     0.049 A 
ATOM     44  N   UNL A   1      39.392  32.615  35.318  1.00  0.00    -0.248 NA
ATOM     45  C   UNL A   1      37.727  34.195  35.745  1.00  0.00     0.031 C 
ATOM     46  C   UNL A   1      37.360  31.579  31.467  1.00  0.00     0.029 A 
ATOM     47  N   UNL A   1      39.084  31.101  32.808  1.00  0.00    -0.354 N 
ATOM     48  C   UNL A   1      39.670  33.265  36.513  1.00  0.00     0.074 A 
ATOM     49  C   UNL A   1      38.646  34.270  36.697  1.00  0.00     0.031 C 
ATOM     50  C   UNL A   1      38.065  30.602  30.880  1.00  0.00     0.029 A 
ATOM     51  C   UNL A   1      39.224  30.288  31.710  1.00  0.00     0.049 A 
ATOM     52  H   UNL A   1      39.711  31.096  33.566  1.00  0.00     0.167 HD
ATOM     53  C   UNL A   1      40.679  33.027  37.384  1.00  0.00     0.037 A 
ATOM     54  C   UNL A   1      40.190  29.404  31.397  1.00  0.00     0.037 A 
ATOM     55  C   UNL A   1      41.691  32.021  37.190  1.00  0.00     0.049 A 
ATOM     56  C   UNL A   1      41.325  29.195  32.363  1.00  0.00     0.074 A 
ATOM     57  C   UNL A   1      42.721  31.661  38.041  1.00  0.00     0.029 A 
ATOM     58  N   UNL A   1      41.810  31.224  36.059  1.00  0.00    -0.354 N 
ATOM     59  N   UNL A   1      41.532  29.753  33.531  1.00  0.00    -0.248 NA
ATOM     60  C   UNL A   1      42.361  28.232  31.967  1.00  0.00     0.031 C 
ATOM     61  C   UNL A   1      43.510  30.708  37.391  1.00  0.00     0.029 A 
ATOM     62  C   UNL A   1      42.927  30.411  36.169  1.00  0.00     0.049 A 
ATOM     63  H   UNL A   1      41.192  31.235  35.292  1.00  0.00     0.167 HD
ATOM     64  C   UNL A   1      42.706  29.197  34.018  1.00  0.00     0.074 A 
ATOM     65  C   UNL A   1      43.151  28.234  33.032  1.00  0.00     0.031 C 
ATOM     66  C   UNL A   1      43.361  29.462  35.176  1.00  0.00     0.037 A 
BRANCH  53  67
ATOM     67  C   UNL A   1      40.753  33.879  38.620  1.00  0.00     0.064 A 
ATOM     68  C   UNL A   1      40.064  33.542  39.796  1.00  0.00     0.173 A 
ATOM     69  C   UNL A   1      41.565  35.024  38.643  1.00  0.00     0.173 A 
ATOM     70  F   UNL A   1      39.268  32.462  39.827  1.00  0.00    -0.203 F 
ATOM     71  C   UNL A   1      40.163  34.335  40.937  1.00  0.00     0.198 A 
ATOM     72  C   UNL A   1      41.690  35.793  39.797  1.00  0.00     0.198 A 
ATOM     73  F   UNL A   1      42.250  35.391  37.550  1.00  0.00    -0.203 F 
ATOM     74  F   UNL A   1      39.454  34.021  42.030  1.00  0.00    -0.200 F 
ATOM     75  C   UNL A   1      40.981  35.453  40.940  1.00  0.00     0.200 A 
ATOM     76  F   UNL A   1      42.497  36.862  39.803  1.00  0.00    -0.200 F 
ATOM     77  F   UNL A   1      41.084  36.208  42.042  1.00  0.00    -0.200 F 
ENDBRANCH  53  67
BRANCH  54  78
ATOM     78  C   UNL A   1      40.131  28.662  30.109  1.00  0.00     0.064 A 
ATOM     79  C   UNL A   1      39.488  27.420  30.017  1.00  0.00     0.173 A 
ATOM     80  C   UNL A   1      40.732  29.171  28.947  1.00  0.00     0.173 A 
ATOM     81  F   UNL A   1      38.913  26.882  31.103  1.00  0.00    -0.203 F 
ATOM     82  C   UNL A   1      39.474  26.703  28.822  1.00  0.00     0.198 A 
ATOM     83  C   UNL A   1      40.683  28.472  27.744  1.00  0.00     0.198 A 
ATOM     84  F   UNL A   1      41.356  30.358  28.977  1.00  0.00    -0.203 F 
ATOM     85  F   UNL A   1      38.904  25.491  28.779  1.00  0.00    -0.200 F 
ATOM     86  C   UNL A   1      40.066  27.232  27.685  1.00  0.00     0.200 A 
ATOM     87  F   UNL A   1      41.238  28.998  26.644  1.00  0.00    -0.200 F 
ATOM     88  F   UNL A   1      40.049  26.544  26.536  1.00  0.00    -0.200 F 
ENDBRANCH  54  78
BRANCH  66  89
ATOM     89  C   UNL A   1      44.619  28.688  35.449  1.00  0.00     0.064 A 
ATOM     90  C   UNL A   1      44.594  27.445  36.100  1.00  0.00     0.173 A 
ATOM     91  C   UNL A   1      45.863  29.172  35.012  1.00  0.00     0.173 A 
ATOM     92  F   UNL A   1      43.434  26.942  36.551  1.00  0.00    -0.203 F 
ATOM     93  C   UNL A   1      45.767  26.731  36.329  1.00  0.00     0.198 A 
ATOM     94  C   UNL A   1      47.028  28.436  35.206  1.00  0.00     0.198 A 
ATOM     95  F   UNL A   1      45.945  30.351  34.377  1.00  0.00    -0.203 F 
ATOM     96  F   UNL A   1      45.723  25.573  37.002  1.00  0.00    -0.200 F 
ATOM     97  C   UNL A   1      46.981  27.221  35.872  1.00  0.00     0.200 A 
ATOM     98  F   UNL A   1      48.197  28.902  34.746  1.00  0.00    -0.200 F 
ATOM     99  F   UNL A   1      48.107  26.525  36.081  1.00  0.00    -0.200 F 
ENDBRANCH  66  89
ENDBRANCH  40  41
ENDBRANCH  32  35
ENDBRANCH  30  31
ENDBRANCH  29  30
ENDBRANCH  28  29
ENDBRANCH  27  28
ENDBRANCH   1  27
TORSDOF 18
ENDMDL
MODEL 2
REMARK VINA RESULT:     -12.0      1.159      2.089
REMARK SMILES CCc1ccccc1NC(=O)CCN1C[C@H](C(=O)NCCCCCCNC(=O)c2ccc(-c3c4nc(c(-c5c(F)c(F)c(F)c(F)c5F)c5ccc([nH]5)c(-c5c(F)c(F)c(F)c(F)c5F)c5nc(c(-c6c(F)c(F)c(F)c(F)c6F)c6ccc3[nH]6)C=C5)C=C4)cc2)CC1=O
REMARK SMILES IDX 21 1 20 2 19 3 17 4 18 5 16 7 14 8 15 9 93 10 92 11 94 12
REMARK SMILES IDX 13 13 12 14 10 15 9 16 11 18 8 19 3 20 4 21 5 22 7 23 6 24
REMARK SMILES IDX 2 25 1 26 22 27 23 28 24 29 25 30 26 31 27 32 28 34 29 35
REMARK SMILES IDX 30 36 91 37 31 38 90 39 32 40 33 41 34 42 84 43 35 44 89 45
REMARK SMILES IDX 83 46 85 47 36 48 88 49 82 50 81 51 37 53 69 54 49 55 68 56
REMARK SMILES IDX 50 57 53 58 67 59 86 60 51 61 52 62 66 64 87 65 54 66 38 67
REMARK SMILES IDX 39 68 47 69 40 70 41 71 45 72 48 73 42 74 43 75 46 76 44 77
REMARK SMILES IDX 70 78 71 79 79 80 72 81 73 82 77 83 80 84 74 85 75 86 78 87
REMARK SMILES IDX 76 88 55 89 56 90 64 91 57 92 58 93 62 94 65 95 59 96 60 97
REMARK SMILES IDX 63 98 61 99
REMARK H PARENT 19 6 9 17 26 33 85 52 53 63
REMARK Flexibility Score: inf
ROOT
ATOM      1  C   UNL A   1      35.309  30.911  28.225  1.00  0.00     0.021 C 
ENDROOT
BRANCH   1   2
ATOM      2  C   UNL A   1      34.441  29.972  27.406  1.00  0.00     0.116 C 
BRANCH   2   3
ATOM      3  N   UNL A   1      33.183  30.600  26.925  1.00  0.00    -0.356 N 
ATOM      4  C   UNL A   1      32.070  30.364  26.002  1.00  0.00     0.225 C 
ATOM      5  O   UNL A   1      31.408  31.382  26.436  1.00  0.00    -0.275 OA
ATOM      6  H   UNL A   1      33.054  31.464  27.379  1.00  0.00     0.163 HD
BRANCH   4   7
ATOM      7  C   UNL A   1      31.631  28.953  24.390  1.00  0.00     0.107 C 
ATOM      8  N   UNL A   1      30.656  26.657  24.163  1.00  0.00    -0.341 N 
ATOM      9  C   UNL A   1      31.940  27.300  24.186  1.00  0.00     0.133 C 
ATOM     10  C   UNL A   1      29.659  27.458  23.646  1.00  0.00     0.223 C 
ATOM     11  C   UNL A   1      30.267  28.785  23.311  1.00  0.00     0.115 C 
ATOM     12  O   UNL A   1      28.484  27.168  23.499  1.00  0.00    -0.275 OA
BRANCH   8  13
ATOM     13  C   UNL A   1      30.386  25.460  24.922  1.00  0.00     0.129 C 
BRANCH  13  14
ATOM     14  C   UNL A   1      31.581  24.511  24.994  1.00  0.00     0.122 C 
BRANCH  14  15
ATOM     15  C   UNL A   1      31.826  23.898  26.360  1.00  0.00     0.226 C 
ATOM     16  N   UNL A   1      32.962  23.212  26.694  1.00  0.00    -0.326 N 
ATOM     17  H   UNL A   1      32.971  22.882  27.621  1.00  0.00     0.169 HD
ATOM     18  O   UNL A   1      30.983  24.067  27.251  1.00  0.00    -0.275 OA
BRANCH  16  19
ATOM     19  C   UNL A   1      34.120  22.890  25.962  1.00  0.00     0.044 A 
ATOM     20  C   UNL A   1      34.384  21.182  25.469  1.00  0.00    -0.025 A 
ATOM     21  C   UNL A   1      36.061  20.642  25.001  1.00  0.00     0.006 A 
ATOM     22  C   UNL A   1      37.406  21.882  24.809  1.00  0.00     0.000 A 
ATOM     23  C   UNL A   1      35.422  24.093  25.706  1.00  0.00     0.026 A 
ATOM     24  C   UNL A   1      37.046  23.600  25.129  1.00  0.00     0.002 A 
BRANCH  20  25
ATOM     25  C   UNL A   1      33.274  20.154  25.325  1.00  0.00     0.034 C 
ATOM     26  C   UNL A   1      32.425  20.173  24.060  1.00  0.00     0.009 C 
ENDBRANCH  20  25
ENDBRANCH  16  19
ENDBRANCH  14  15
ENDBRANCH  13  14
ENDBRANCH   8  13
ENDBRANCH   4   7
ENDBRANCH   2   3
ENDBRANCH   1   2
BRANCH   1  27
ATOM     27  C   UNL A   1      35.009  32.384  27.985  1.00  0.00     0.002 C 
BRANCH  27  28
ATOM     28  C   UNL A   1      34.398  33.111  29.190  1.00  0.00     0.002 C 
BRANCH  28  29
ATOM     29  C   UNL A   1      33.305  34.132  28.851  1.00  0.00     0.021 C 
BRANCH  29  30
ATOM     30  C   UNL A   1      33.635  35.558  29.275  1.00  0.00     0.116 C 
BRANCH  30  31
ATOM     31  N   UNL A   1      32.751  36.008  30.337  1.00  0.00    -0.352 N 
ATOM     32  C   UNL A   1      32.744  35.659  31.660  1.00  0.00     0.251 C 
ATOM     33  H   UNL A   1      32.060  36.656  30.066  1.00  0.00     0.163 HD
ATOM     34  O   UNL A   1      31.766  35.889  32.362  1.00  0.00    -0.269 OA
BRANCH  32  35
ATOM     35  C   UNL A   1      33.928  34.991  32.226  1.00  0.00     0.039 A 
ATOM     36  C   UNL A   1      33.775  33.742  32.827  1.00  0.00     0.014 A 
ATOM     37  C   UNL A   1      35.187  35.597  32.142  1.00  0.00     0.014 A 
ATOM     38  C   UNL A   1      34.902  33.069  33.293  1.00  0.00     0.010 A 
ATOM     39  C   UNL A   1      36.316  34.887  32.530  1.00  0.00     0.010 A 
ATOM     40  C   UNL A   1      36.183  33.617  33.107  1.00  0.00    -0.014 A 
BRANCH  40  41
ATOM     41  C   UNL A   1      37.395  32.849  33.477  1.00  0.00     0.031 A 
ATOM     42  C   UNL A   1      38.124  33.149  34.755  1.00  0.00     0.074 A 
ATOM     43  C   UNL A   1      37.865  31.917  32.626  1.00  0.00     0.049 A 
ATOM     44  N   UNL A   1      39.224  32.615  35.221  1.00  0.00    -0.248 NA
ATOM     45  C   UNL A   1      37.558  34.203  35.611  1.00  0.00     0.031 C 
ATOM     46  C   UNL A   1      37.262  31.574  31.336  1.00  0.00     0.029 A 
ATOM     47  N   UNL A   1      38.958  31.094  32.711  1.00  0.00    -0.354 N 
ATOM     48  C   UNL A   1      39.482  33.269  36.419  1.00  0.00     0.074 A 
ATOM     49  C   UNL A   1      38.458  34.278  36.580  1.00  0.00     0.031 C 
ATOM     50  C   UNL A   1      37.975  30.592  30.766  1.00  0.00     0.029 A 
ATOM     51  C   UNL A   1      39.116  30.276  31.619  1.00  0.00     0.049 A 
ATOM     52  H   UNL A   1      39.571  31.089  33.481  1.00  0.00     0.167 HD
ATOM     53  C   UNL A   1      40.473  33.030  37.310  1.00  0.00     0.037 A 
ATOM     54  C   UNL A   1      40.085  29.387  31.327  1.00  0.00     0.037 A 
ATOM     55  C   UNL A   1      41.485  32.019  37.139  1.00  0.00     0.049 A 
ATOM     56  C   UNL A   1      41.200  29.177  32.316  1.00  0.00     0.074 A 
ATOM     57  C   UNL A   1      42.497  31.659  38.010  1.00  0.00     0.029 A 
ATOM     58  N   UNL A   1      41.622  31.219  36.013  1.00  0.00    -0.354 N 
ATOM     59  N   UNL A   1      41.387  29.739  33.486  1.00  0.00    -0.248 NA
ATOM     60  C   UNL A   1      42.240  28.210  31.943  1.00  0.00     0.031 C 
ATOM     61  C   UNL A   1      43.294  30.700  37.379  1.00  0.00     0.029 A 
ATOM     62  C   UNL A   1      42.734  30.402  36.148  1.00  0.00     0.049 A 
ATOM     63  H   UNL A   1      41.019  31.229  35.235  1.00  0.00     0.167 HD
ATOM     64  C   UNL A   1      42.549  29.180  33.997  1.00  0.00     0.074 A 
ATOM     65  C   UNL A   1      43.009  28.213  33.023  1.00  0.00     0.031 C 
ATOM     66  C   UNL A   1      43.183  29.447  35.166  1.00  0.00     0.037 A 
BRANCH  53  67
ATOM     67  C   UNL A   1      40.527  33.886  38.544  1.00  0.00     0.064 A 
ATOM     68  C   UNL A   1      41.305  35.053  38.604  1.00  0.00     0.173 A 
ATOM     69  C   UNL A   1      39.750  33.560  39.667  1.00  0.00     0.173 A 
ATOM     70  F   UNL A   1      42.073  35.407  37.563  1.00  0.00    -0.203 F 
ATOM     71  C   UNL A   1      41.326  35.842  39.752  1.00  0.00     0.198 A 
ATOM     72  C   UNL A   1      39.744  34.373  40.797  1.00  0.00     0.198 A 
ATOM     73  F   UNL A   1      38.982  32.460  39.663  1.00  0.00    -0.203 F 
ATOM     74  F   UNL A   1      42.118  36.923  39.804  1.00  0.00    -0.200 F 
ATOM     75  C   UNL A   1      40.540  35.507  40.842  1.00  0.00     0.200 A 
ATOM     76  F   UNL A   1      38.968  34.057  41.842  1.00  0.00    -0.200 F 
ATOM     77  F   UNL A   1      40.551  36.275  41.941  1.00  0.00    -0.200 F 
ENDBRANCH  53  67
BRANCH  54  78
ATOM     78  C   UNL A   1      40.048  28.640  30.041  1.00  0.00     0.064 A 
ATOM     79  C   UNL A   1      39.437  27.382  29.952  1.00  0.00     0.173 A 
ATOM     80  C   UNL A   1      40.638  29.162  28.880  1.00  0.00     0.173 A 
ATOM     81  F   UNL A   1      38.874  26.832  31.037  1.00  0.00    -0.203 F 
ATOM     82  C   UNL A   1      39.445  26.662  28.758  1.00  0.00     0.198 A 
ATOM     83  C   UNL A   1      40.609  28.459  27.678  1.00  0.00     0.198 A 
ATOM     84  F   UNL A   1      41.230  30.366  28.907  1.00  0.00    -0.203 F 
ATOM     85  F   UNL A   1      38.906  25.436  28.716  1.00  0.00    -0.200 F 
ATOM     86  C   UNL A   1      40.025  27.204  27.621  1.00  0.00     0.200 A 
ATOM     87  F   UNL A   1      41.152  28.997  26.577  1.00  0.00    -0.200 F 
ATOM     88  F   UNL A   1      40.027  26.512  26.473  1.00  0.00    -0.200 F 
ENDBRANCH  54  78
BRANCH  66  89
ATOM     89  C   UNL A   1      44.433  28.669  35.466  1.00  0.00     0.064 A 
ATOM     90  C   UNL A   1      44.390  27.427  36.118  1.00  0.00     0.173 A 
ATOM     91  C   UNL A   1      45.687  29.149  35.054  1.00  0.00     0.173 A 
ATOM     92  F   UNL A   1      43.220  26.929  36.545  1.00  0.00    -0.203 F 
ATOM     93  C   UNL A   1      45.556  26.710  36.371  1.00  0.00     0.198 A 
ATOM     94  C   UNL A   1      46.845  28.410  35.273  1.00  0.00     0.198 A 
ATOM     95  F   UNL A   1      45.786  30.327  34.421  1.00  0.00    -0.203 F 
ATOM     96  F   UNL A   1      45.494  25.552  37.044  1.00  0.00    -0.200 F 
ATOM     97  C   UNL A   1      46.781  27.195  35.939  1.00  0.00     0.200 A 
ATOM     98  F   UNL A   1      48.026  28.872  34.838  1.00  0.00    -0.200 F 
ATOM     99  F   UNL A   1      47.900  26.497  36.172  1.00  0.00    -0.200 F 
ENDBRANCH  66  89
ENDBRANCH  40  41
ENDBRANCH  32  35
ENDBRANCH  30  31
ENDBRANCH  29  30
ENDBRANCH  28  29
ENDBRANCH  27  28
ENDBRANCH   1  27
TORSDOF 18
ENDMDL
MODEL 3
REMARK VINA RESULT:     -11.8      6.617     12.236
REMARK SMILES CCc1ccccc1NC(=O)CCN1C[C@H](C(=O)NCCCCCCNC(=O)c2ccc(-c3c4nc(c(-c5c(F)c(F)c(F)c(F)c5F)c5ccc([nH]5)c(-c5c(F)c(F)c(F)c(F)c5F)c5nc(c(-c6c(F)c(F)c(F)c(F)c6F)c6ccc3[nH]6)C=C5)C=C4)cc2)CC1=O
REMARK SMILES IDX 21 1 20 2 19 3 17 4 18 5 16 7 14 8 15 9 93 10 92 11 94 12
REMARK SMILES IDX 13 13 12 14 10 15 9 16 11 18 8 19 3 20 4 21 5 22 7 23 6 24
REMARK SMILES IDX 2 25 1 26 22 27 23 28 24 29 25 30 26 31 27 32 28 34 29 35
REMARK SMILES IDX 30 36 91 37 31 38 90 39 32 40 33 41 34 42 84 43 35 44 89 45
REMARK SMILES IDX 83 46 85 47 36 48 88 49 82 50 81 51 37 53 69 54 49 55 68 56
REMARK SMILES IDX 50 57 53 58 67 59 86 60 51 61 52 62 66 64 87 65 54 66 38 67
REMARK SMILES IDX 39 68 47 69 40 70 41 71 45 72 48 73 42 74 43 75 46 76 44 77
REMARK SMILES IDX 70 78 71 79 79 80 72 81 73 82 77 83 80 84 74 85 75 86 78 87
REMARK SMILES IDX 76 88 55 89 56 90 64 91 57 92 58 93 62 94 65 95 59 96 60 97
REMARK SMILES IDX 63 98 61 99
REMARK H PARENT 19 6 9 17 26 33 85 52 53 63
REMARK Flexibility Score: inf
ROOT
ATOM      1  C   UNL A   1      39.465  22.337  26.623  1.00  0.00     0.021 C 
ENDROOT
BRANCH   1   2
ATOM      2  C   UNL A   1      38.503  23.449  26.242  1.00  0.00     0.116 C 
BRANCH   2   3
ATOM      3  N   UNL A   1      37.776  23.191  24.973  1.00  0.00    -0.356 N 
ATOM      4  C   UNL A   1      36.557  22.558  24.464  1.00  0.00     0.225 C 
ATOM      5  O   UNL A   1      36.733  23.022  23.274  1.00  0.00    -0.275 OA
ATOM      6  H   UNL A   1      38.282  23.575  24.221  1.00  0.00     0.163 HD
BRANCH   4   7
ATOM      7  C   UNL A   1      35.019  21.225  25.266  1.00  0.00     0.107 C 
ATOM      8  N   UNL A   1      32.518  21.096  25.288  1.00  0.00    -0.341 N 
ATOM      9  C   UNL A   1      33.597  21.499  26.145  1.00  0.00     0.133 C 
ATOM     10  C   UNL A   1      32.862  20.076  24.427  1.00  0.00     0.223 C 
ATOM     11  C   UNL A   1      34.305  19.751  24.658  1.00  0.00     0.115 C 
ATOM     12  O   UNL A   1      32.145  19.535  23.602  1.00  0.00    -0.275 OA
BRANCH   8  13
ATOM     13  C   UNL A   1      31.340  21.910  25.109  1.00  0.00     0.129 C 
BRANCH  13  14
ATOM     14  C   UNL A   1      31.602  23.401  25.309  1.00  0.00     0.122 C 
BRANCH  14  15
ATOM     15  C   UNL A   1      30.857  24.028  26.473  1.00  0.00     0.226 C 
ATOM     16  N   UNL A   1      30.378  25.310  26.467  1.00  0.00    -0.326 N 
ATOM     17  H   UNL A   1      29.911  25.566  27.295  1.00  0.00     0.169 HD
ATOM     18  O   UNL A   1      30.612  23.335  27.469  1.00  0.00    -0.275 OA
BRANCH  16  19
ATOM     19  C   UNL A   1      30.426  26.332  25.501  1.00  0.00     0.044 A 
ATOM     20  C   UNL A   1      31.497  27.746  25.791  1.00  0.00    -0.025 A 
ATOM     21  C   UNL A   1      31.205  29.287  24.862  1.00  0.00     0.006 A 
ATOM     22  C   UNL A   1      29.986  29.313  23.484  1.00  0.00     0.000 A 
ATOM     23  C   UNL A   1      29.291  26.354  24.115  1.00  0.00     0.026 A 
ATOM     24  C   UNL A   1      29.077  27.823  23.110  1.00  0.00     0.002 A 
BRANCH  20  25
ATOM     25  C   UNL A   1      32.710  27.724  26.706  1.00  0.00     0.034 C 
ATOM     26  C   UNL A   1      34.064  27.356  26.112  1.00  0.00     0.009 C 
ENDBRANCH  20  25
ENDBRANCH  16  19
ENDBRANCH  14  15
ENDBRANCH  13  14
ENDBRANCH   8  13
ENDBRANCH   4   7
ENDBRANCH   2   3
ENDBRANCH   1   2
BRANCH   1  27
ATOM     27  C   UNL A   1      40.906  22.613  26.219  1.00  0.00     0.002 C 
BRANCH  27  28
ATOM     28  C   UNL A   1      41.920  21.588  26.743  1.00  0.00     0.002 C 
BRANCH  28  29
ATOM     29  C   UNL A   1      41.861  20.209  26.073  1.00  0.00     0.021 C 
BRANCH  29  30
ATOM     30  C   UNL A   1      43.045  19.309  26.402  1.00  0.00     0.116 C 
BRANCH  30  31
ATOM     31  N   UNL A   1      43.746  18.900  25.196  1.00  0.00    -0.352 N 
ATOM     32  C   UNL A   1      44.415  19.669  24.284  1.00  0.00     0.251 C 
ATOM     33  H   UNL A   1      43.738  17.932  25.010  1.00  0.00     0.163 HD
ATOM     34  O   UNL A   1      44.696  19.223  23.177  1.00  0.00    -0.269 OA
BRANCH  32  35
ATOM     35  C   UNL A   1      44.783  21.047  24.649  1.00  0.00     0.039 A 
ATOM     36  C   UNL A   1      44.289  22.103  23.883  1.00  0.00     0.014 A 
ATOM     37  C   UNL A   1      45.600  21.288  25.759  1.00  0.00     0.014 A 
ATOM     38  C   UNL A   1      44.568  23.412  24.269  1.00  0.00     0.010 A 
ATOM     39  C   UNL A   1      45.804  22.593  26.189  1.00  0.00     0.010 A 
ATOM     40  C   UNL A   1      45.289  23.665  25.449  1.00  0.00    -0.014 A 
BRANCH  40  41
ATOM     41  C   UNL A   1      45.474  25.052  25.939  1.00  0.00     0.031 A 
ATOM     42  C   UNL A   1      46.831  25.694  25.906  1.00  0.00     0.074 A 
ATOM     43  C   UNL A   1      44.422  25.706  26.465  1.00  0.00     0.049 A 
ATOM     44  N   UNL A   1      47.193  26.877  26.333  1.00  0.00    -0.248 NA
ATOM     45  C   UNL A   1      47.930  24.895  25.343  1.00  0.00     0.031 C 
ATOM     46  C   UNL A   1      43.067  25.162  26.588  1.00  0.00     0.029 A 
ATOM     47  N   UNL A   1      44.323  26.965  27.000  1.00  0.00    -0.354 N 
ATOM     48  C   UNL A   1      48.558  26.962  26.093  1.00  0.00     0.074 A 
ATOM     49  C   UNL A   1      48.971  25.692  25.538  1.00  0.00     0.031 C 
ATOM     50  C   UNL A   1      42.269  26.092  27.133  1.00  0.00     0.029 A 
ATOM     51  C   UNL A   1      43.064  27.273  27.451  1.00  0.00     0.049 A 
ATOM     52  H   UNL A   1      45.083  27.588  27.055  1.00  0.00     0.167 HD
ATOM     53  C   UNL A   1      49.383  28.016  26.300  1.00  0.00     0.037 A 
ATOM     54  C   UNL A   1      42.605  28.376  28.074  1.00  0.00     0.037 A 
ATOM     55  C   UNL A   1      48.958  29.277  26.850  1.00  0.00     0.049 A 
ATOM     56  C   UNL A   1      43.557  29.513  28.333  1.00  0.00     0.074 A 
ATOM     57  C   UNL A   1      49.703  30.426  27.044  1.00  0.00     0.029 A 
ATOM     58  N   UNL A   1      47.676  29.549  27.310  1.00  0.00    -0.354 N 
ATOM     59  N   UNL A   1      44.827  29.617  28.023  1.00  0.00    -0.248 NA
ATOM     60  C   UNL A   1      43.012  30.685  29.028  1.00  0.00     0.031 C 
ATOM     61  C   UNL A   1      48.896  31.363  27.696  1.00  0.00     0.029 A 
ATOM     62  C   UNL A   1      47.625  30.831  27.834  1.00  0.00     0.049 A 
ATOM     63  H   UNL A   1      46.916  28.924  27.269  1.00  0.00     0.167 HD
ATOM     64  C   UNL A   1      45.227  30.870  28.465  1.00  0.00     0.074 A 
ATOM     65  C   UNL A   1      44.057  31.501  29.039  1.00  0.00     0.031 C 
ATOM     66  C   UNL A   1      46.453  31.445  28.407  1.00  0.00     0.037 A 
BRANCH  53  67
ATOM     67  C   UNL A   1      50.834  27.849  25.947  1.00  0.00     0.064 A 
ATOM     68  C   UNL A   1      51.308  28.048  24.640  1.00  0.00     0.173 A 
ATOM     69  C   UNL A   1      51.773  27.533  26.942  1.00  0.00     0.173 A 
ATOM     70  F   UNL A   1      50.453  28.343  23.650  1.00  0.00    -0.203 F 
ATOM     71  C   UNL A   1      52.661  27.906  24.339  1.00  0.00     0.198 A 
ATOM     72  C   UNL A   1      53.129  27.430  26.644  1.00  0.00     0.198 A 
ATOM     73  F   UNL A   1      51.377  27.337  28.209  1.00  0.00    -0.203 F 
ATOM     74  F   UNL A   1      53.081  28.049  23.074  1.00  0.00    -0.200 F 
ATOM     75  C   UNL A   1      53.570  27.607  25.341  1.00  0.00     0.200 A 
ATOM     76  F   UNL A   1      54.008  27.160  27.617  1.00  0.00    -0.200 F 
ATOM     77  F   UNL A   1      54.873  27.484  25.052  1.00  0.00    -0.200 F 
ENDBRANCH  53  67
BRANCH  54  78
ATOM     78  C   UNL A   1      41.183  28.453  28.503  1.00  0.00     0.064 A 
ATOM     79  C   UNL A   1      40.786  28.018  29.774  1.00  0.00     0.173 A 
ATOM     80  C   UNL A   1      40.189  28.947  27.644  1.00  0.00     0.173 A 
ATOM     81  F   UNL A   1      41.694  27.522  30.627  1.00  0.00    -0.203 F 
ATOM     82  C   UNL A   1      39.446  28.046  30.159  1.00  0.00     0.198 A 
ATOM     83  C   UNL A   1      38.857  29.011  28.044  1.00  0.00     0.198 A 
ATOM     84  F   UNL A   1      40.515  29.382  26.417  1.00  0.00    -0.203 F 
ATOM     85  F   UNL A   1      39.086  27.569  31.358  1.00  0.00    -0.200 F 
ATOM     86  C   UNL A   1      38.484  28.549  29.296  1.00  0.00     0.200 A 
ATOM     87  F   UNL A   1      37.935  29.518  27.213  1.00  0.00    -0.200 F 
ATOM     88  F   UNL A   1      37.197  28.579  29.668  1.00  0.00    -0.200 F 
ENDBRANCH  54  78
BRANCH  66  89
ATOM     89  C   UNL A   1      46.591  32.834  28.962  1.00  0.00     0.064 A 
ATOM     90  C   UNL A   1      46.954  33.062  30.298  1.00  0.00     0.173 A 
ATOM     91  C   UNL A   1      46.406  33.954  28.134  1.00  0.00     0.173 A 
ATOM     92  F   UNL A   1      47.130  32.029  31.136  1.00  0.00    -0.203 F 
ATOM     93  C   UNL A   1      47.097  34.357  30.791  1.00  0.00     0.198 A 
ATOM     94  C   UNL A   1      46.590  35.244  28.621  1.00  0.00     0.198 A 
ATOM     95  F   UNL A   1      46.065  33.794  26.846  1.00  0.00    -0.203 F 
ATOM     96  F   UNL A   1      47.389  34.549  32.085  1.00  0.00    -0.200 F 
ATOM     97  C   UNL A   1      46.926  35.446  29.950  1.00  0.00     0.200 A 
ATOM     98  F   UNL A   1      46.443  36.295  27.801  1.00  0.00    -0.200 F 
ATOM     99  F   UNL A   1      47.077  36.689  30.424  1.00  0.00    -0.200 F 
ENDBRANCH  66  89
ENDBRANCH  40  41
ENDBRANCH  32  35
ENDBRANCH  30  31
ENDBRANCH  29  30
ENDBRANCH  28  29
ENDBRANCH  27  28
ENDBRANCH   1  27
TORSDOF 18
ENDMDL
