MODEL 1
REMARK VINA RESULT:     -12.3      0.000      0.000
REMARK SMILES CN(c1ccc(C(N)=O)nn1)[C@H]1COC[C@@H]1C(=O)NCCCCCCNC(=O)c1ccc(-c2c3nc(c(-c4c(F)c(F)c(F)c(F)c4F)c4ccc([nH]4)c(-c4c(F)c(F)c(F)c(F)c4F)c4nc(c(-c5c(F)c(F)c(F)c(F)c5F)c5ccc2[nH]5)C=C4)C=C3)cc1
REMARK SMILES IDX 22 1 21 2 20 3 19 4 17 5 18 6 16 8 12 9 13 10 14 11 15 12
REMARK SMILES IDX 2 13 1 14 3 15 4 16 11 17 5 18 10 19 6 20 7 21 8 22 9 23
REMARK SMILES IDX 23 26 24 27 25 28 26 29 27 30 28 32 29 33 30 34 91 35 31 36
REMARK SMILES IDX 90 37 32 38 33 39 34 40 84 41 35 42 89 43 83 44 85 45 36 46
REMARK SMILES IDX 88 47 82 48 81 49 37 51 69 52 49 53 68 54 50 55 53 56 67 57
REMARK SMILES IDX 86 58 51 59 52 60 66 62 87 63 54 64 38 65 39 66 47 67 40 68
REMARK SMILES IDX 41 69 45 70 48 71 42 72 43 73 46 74 44 75 70 76 71 77 79 78
REMARK SMILES IDX 72 79 73 80 77 81 80 82 74 83 75 84 78 85 76 86 55 87 56 88
REMARK SMILES IDX 64 89 57 90 58 91 62 92 65 93 59 94 60 95 63 96 61 97
REMARK H PARENT 19 7 8 24 8 25 26 31 85 50 53 61
REMARK Flexibility Score: inf
ROOT
ATOM      1  C   UNL A   1      37.595  21.978  25.385  1.00  0.00     0.002 C 
ENDROOT
BRANCH   1   2
ATOM      2  C   UNL A   1      36.335  22.779  25.736  1.00  0.00     0.021 C 
BRANCH   2   3
ATOM      3  C   UNL A   1      35.205  21.961  26.358  1.00  0.00     0.116 C 
BRANCH   3   4
ATOM      4  N   UNL A   1      34.289  22.809  27.097  1.00  0.00    -0.356 N 
ATOM      5  C   UNL A   1      32.932  22.908  27.049  1.00  0.00     0.227 C 
ATOM      6  O   UNL A   1      32.412  23.774  27.754  1.00  0.00    -0.275 OA
ATOM      7  H   UNL A   1      34.722  23.414  27.742  1.00  0.00     0.163 HD
BRANCH   5   8
ATOM      8  C   UNL A   1      32.126  21.993  26.138  1.00  0.00     0.129 C 
ATOM      9  C   UNL A   1      32.697  22.020  24.724  1.00  0.00     0.124 C 
ATOM     10  C   UNL A   1      31.984  23.279  24.183  1.00  0.00     0.186 C 
ATOM     11  O   UNL A   1      30.668  23.296  24.751  1.00  0.00    -0.378 OA
ATOM     12  C   UNL A   1      30.715  22.528  25.962  1.00  0.00     0.176 C 
BRANCH   9  13
ATOM     13  N   UNL A   1      32.431  20.809  23.878  1.00  0.00    -0.352 N 
ATOM     14  C   UNL A   1      32.158  20.999  22.455  1.00  0.00     0.145 C 
BRANCH  13  15
ATOM     15  C   UNL A   1      32.809  19.539  24.290  1.00  0.00     0.151 A 
ATOM     16  C   UNL A   1      34.130  19.092  24.218  1.00  0.00     0.051 A 
ATOM     17  N   UNL A   1      31.872  18.665  24.713  1.00  0.00    -0.132 NA
ATOM     18  C   UNL A   1      34.458  17.771  24.536  1.00  0.00     0.040 A 
ATOM     19  N   UNL A   1      32.172  17.358  25.049  1.00  0.00    -0.143 NA
ATOM     20  C   UNL A   1      33.443  16.928  24.938  1.00  0.00     0.150 A 
BRANCH  20  21
ATOM     21  C   UNL A   1      33.703  15.502  25.267  1.00  0.00     0.269 C 
ATOM     22  N   UNL A   1      32.608  14.744  25.587  1.00  0.00    -0.364 N 
ATOM     23  O   UNL A   1      34.833  15.025  25.254  1.00  0.00    -0.268 OA
ATOM     24  H   UNL A   1      31.712  15.151  25.590  1.00  0.00     0.160 HD
ATOM     25  H   UNL A   1      32.718  13.792  25.813  1.00  0.00     0.160 HD
ENDBRANCH  20  21
ENDBRANCH  13  15
ENDBRANCH   9  13
ENDBRANCH   5   8
ENDBRANCH   3   4
ENDBRANCH   2   3
ENDBRANCH   1   2
BRANCH   1  26
ATOM     26  C   UNL A   1      37.350  20.667  24.632  1.00  0.00     0.002 C 
BRANCH  26  27
ATOM     27  C   UNL A   1      38.304  19.524  24.985  1.00  0.00     0.021 C 
BRANCH  27  28
ATOM     28  C   UNL A   1      39.447  19.911  25.917  1.00  0.00     0.116 C 
BRANCH  28  29
ATOM     29  N   UNL A   1      40.508  18.917  25.933  1.00  0.00    -0.352 N 
ATOM     30  C   UNL A   1      41.864  19.092  26.059  1.00  0.00     0.251 C 
ATOM     31  H   UNL A   1      40.211  17.983  25.842  1.00  0.00     0.163 HD
ATOM     32  O   UNL A   1      42.629  18.151  25.873  1.00  0.00    -0.269 OA
BRANCH  30  33
ATOM     33  C   UNL A   1      42.408  20.426  26.397  1.00  0.00     0.039 A 
ATOM     34  C   UNL A   1      42.938  21.216  25.373  1.00  0.00     0.014 A 
ATOM     35  C   UNL A   1      42.401  20.895  27.714  1.00  0.00     0.014 A 
ATOM     36  C   UNL A   1      43.404  22.500  25.661  1.00  0.00     0.010 A 
ATOM     37  C   UNL A   1      42.797  22.202  27.986  1.00  0.00     0.010 A 
ATOM     38  C   UNL A   1      43.305  23.018  26.963  1.00  0.00    -0.014 A 
BRANCH  38  39
ATOM     39  C   UNL A   1      43.722  24.411  27.270  1.00  0.00     0.031 A 
ATOM     40  C   UNL A   1      42.710  25.420  27.736  1.00  0.00     0.074 A 
ATOM     41  C   UNL A   1      45.002  24.783  27.064  1.00  0.00     0.049 A 
ATOM     42  N   UNL A   1      42.867  26.697  27.985  1.00  0.00    -0.248 NA
ATOM     43  C   UNL A   1      41.332  24.940  27.925  1.00  0.00     0.031 C 
ATOM     44  C   UNL A   1      46.066  23.911  26.563  1.00  0.00     0.029 A 
ATOM     45  N   UNL A   1      45.622  25.997  27.233  1.00  0.00    -0.354 N 
ATOM     46  C   UNL A   1      41.611  27.171  28.340  1.00  0.00     0.074 A 
ATOM     47  C   UNL A   1      40.692  26.060  28.231  1.00  0.00     0.031 C 
ATOM     48  C   UNL A   1      47.208  24.612  26.481  1.00  0.00     0.029 A 
ATOM     49  C   UNL A   1      46.949  25.992  26.880  1.00  0.00     0.049 A 
ATOM     50  H   UNL A   1      45.158  26.795  27.577  1.00  0.00     0.167 HD
ATOM     51  C   UNL A   1      41.261  28.418  28.738  1.00  0.00     0.037 A 
ATOM     52  C   UNL A   1      47.853  26.992  26.864  1.00  0.00     0.037 A 
ATOM     53  C   UNL A   1      42.186  29.513  28.876  1.00  0.00     0.049 A 
ATOM     54  C   UNL A   1      47.435  28.366  27.315  1.00  0.00     0.074 A 
ATOM     55  C   UNL A   1      41.941  30.790  29.349  1.00  0.00     0.029 A 
ATOM     56  N   UNL A   1      43.529  29.462  28.536  1.00  0.00    -0.354 N 
ATOM     57  N   UNL A   1      46.263  28.781  27.731  1.00  0.00    -0.248 NA
ATOM     58  C   UNL A   1      48.467  29.411  27.305  1.00  0.00     0.031 C 
ATOM     59  C   UNL A   1      43.122  31.530  29.239  1.00  0.00     0.029 A 
ATOM     60  C   UNL A   1      44.118  30.696  28.761  1.00  0.00     0.049 A 
ATOM     61  H   UNL A   1      43.995  28.668  28.188  1.00  0.00     0.167 HD
ATOM     62  C   UNL A   1      46.424  30.119  28.060  1.00  0.00     0.074 A 
ATOM     63  C   UNL A   1      47.813  30.445  27.814  1.00  0.00     0.031 C 
ATOM     64  C   UNL A   1      45.506  31.001  28.524  1.00  0.00     0.037 A 
BRANCH  51  65
ATOM     65  C   UNL A   1      39.817  28.678  29.056  1.00  0.00     0.064 A 
ATOM     66  C   UNL A   1      39.294  28.462  30.341  1.00  0.00     0.173 A 
ATOM     67  C   UNL A   1      38.964  29.221  28.084  1.00  0.00     0.173 A 
ATOM     68  F   UNL A   1      40.064  27.935  31.304  1.00  0.00    -0.203 F 
ATOM     69  C   UNL A   1      37.966  28.766  30.633  1.00  0.00     0.198 A 
ATOM     70  C   UNL A   1      37.647  29.553  28.389  1.00  0.00     0.198 A 
ATOM     71  F   UNL A   1      39.415  29.453  26.842  1.00  0.00    -0.203 F 
ATOM     72  F   UNL A   1      37.478  28.518  31.857  1.00  0.00    -0.200 F 
ATOM     73  C   UNL A   1      37.148  29.321  29.662  1.00  0.00     0.200 A 
ATOM     74  F   UNL A   1      36.862  30.105  27.452  1.00  0.00    -0.200 F 
ATOM     75  F   UNL A   1      35.876  29.631  29.950  1.00  0.00    -0.200 F 
ENDBRANCH  51  65
BRANCH  52  76
ATOM     76  C   UNL A   1      49.245  26.736  26.403  1.00  0.00     0.064 A 
ATOM     77  C   UNL A   1      49.613  26.934  25.064  1.00  0.00     0.173 A 
ATOM     78  C   UNL A   1      50.225  26.255  27.283  1.00  0.00     0.173 A 
ATOM     79  F   UNL A   1      48.707  27.373  24.178  1.00  0.00    -0.203 F 
ATOM     80  C   UNL A   1      50.896  26.626  24.616  1.00  0.00     0.198 A 
ATOM     81  C   UNL A   1      51.518  25.981  26.841  1.00  0.00     0.198 A 
ATOM     82  F   UNL A   1      49.930  26.054  28.575  1.00  0.00    -0.203 F 
ATOM     83  F   UNL A   1      51.201  26.763  23.319  1.00  0.00    -0.200 F 
ATOM     84  C   UNL A   1      51.849  26.154  25.505  1.00  0.00     0.200 A 
ATOM     85  F   UNL A   1      52.441  25.542  27.708  1.00  0.00    -0.200 F 
ATOM     86  F   UNL A   1      53.082  25.855  25.075  1.00  0.00    -0.200 F 
ENDBRANCH  52  76
BRANCH  64  87
ATOM     87  C   UNL A   1      45.979  32.392  28.840  1.00  0.00     0.064 A 
ATOM     88  C   UNL A   1      45.935  33.423  27.891  1.00  0.00     0.173 A 
ATOM     89  C   UNL A   1      46.443  32.703  30.128  1.00  0.00     0.173 A 
ATOM     90  F   UNL A   1      45.513  33.173  26.642  1.00  0.00    -0.203 F 
ATOM     91  C   UNL A   1      46.366  34.708  28.210  1.00  0.00     0.198 A 
ATOM     92  C   UNL A   1      46.840  33.998  30.453  1.00  0.00     0.198 A 
ATOM     93  F   UNL A   1      46.498  31.756  31.076  1.00  0.00    -0.203 F 
ATOM     94  F   UNL A   1      46.365  35.664  27.271  1.00  0.00    -0.200 F 
ATOM     95  C   UNL A   1      46.809  34.996  29.492  1.00  0.00     0.200 A 
ATOM     96  F   UNL A   1      47.251  34.278  31.697  1.00  0.00    -0.200 F 
ATOM     97  F   UNL A   1      47.214  36.236  29.799  1.00  0.00    -0.200 F 
ENDBRANCH  64  87
ENDBRANCH  38  39
ENDBRANCH  30  33
ENDBRANCH  28  29
ENDBRANCH  27  28
ENDBRANCH  26  27
ENDBRANCH   1  26
TORSDOF 16
ENDMDL
MODEL 2
REMARK VINA RESULT:     -12.2      5.389     10.544
REMARK SMILES CN(c1ccc(C(N)=O)nn1)[C@H]1COC[C@@H]1C(=O)NCCCCCCNC(=O)c1ccc(-c2c3nc(c(-c4c(F)c(F)c(F)c(F)c4F)c4ccc([nH]4)c(-c4c(F)c(F)c(F)c(F)c4F)c4nc(c(-c5c(F)c(F)c(F)c(F)c5F)c5ccc2[nH]5)C=C4)C=C3)cc1
REMARK SMILES IDX 22 1 21 2 20 3 19 4 17 5 18 6 16 8 12 9 13 10 14 11 15 12
REMARK SMILES IDX 2 13 1 14 3 15 4 16 11 17 5 18 10 19 6 20 7 21 8 22 9 23
REMARK SMILES IDX 23 26 24 27 25 28 26 29 27 30 28 32 29 33 30 34 91 35 31 36
REMARK SMILES IDX 90 37 32 38 33 39 34 40 84 41 35 42 89 43 83 44 85 45 36 46
REMARK SMILES IDX 88 47 82 48 81 49 37 51 69 52 49 53 68 54 50 55 53 56 67 57
REMARK SMILES IDX 86 58 51 59 52 60 66 62 87 63 54 64 38 65 39 66 47 67 40 68
REMARK SMILES IDX 41 69 45 70 48 71 42 72 43 73 46 74 44 75 70 76 71 77 79 78
REMARK SMILES IDX 72 79 73 80 77 81 80 82 74 83 75 84 78 85 76 86 55 87 56 88
REMARK SMILES IDX 64 89 57 90 58 91 62 92 65 93 59 94 60 95 63 96 61 97
REMARK H PARENT 19 7 8 24 8 25 26 31 85 50 53 61
REMARK Flexibility Score: inf
ROOT
ATOM      1  C   UNL A   1      31.902  29.089  26.578  1.00  0.00     0.002 C 
ENDROOT
BRANCH   1   2
ATOM      2  C   UNL A   1      32.581  27.925  25.844  1.00  0.00     0.021 C 
BRANCH   2   3
ATOM      3  C   UNL A   1      31.623  26.917  25.212  1.00  0.00     0.116 C 
BRANCH   3   4
ATOM      4  N   UNL A   1      31.108  25.991  26.203  1.00  0.00    -0.356 N 
ATOM      5  C   UNL A   1      31.396  24.680  26.430  1.00  0.00     0.227 C 
ATOM      6  O   UNL A   1      30.750  24.114  27.312  1.00  0.00    -0.275 OA
ATOM      7  H   UNL A   1      30.437  26.375  26.812  1.00  0.00     0.163 HD
BRANCH   5   8
ATOM      8  C   UNL A   1      32.458  23.971  25.601  1.00  0.00     0.129 C 
ATOM      9  C   UNL A   1      32.335  22.460  25.765  1.00  0.00     0.124 C 
ATOM     10  C   UNL A   1      33.147  22.276  27.066  1.00  0.00     0.186 C 
ATOM     11  O   UNL A   1      34.234  23.211  27.020  1.00  0.00    -0.378 OA
ATOM     12  C   UNL A   1      33.844  24.276  26.141  1.00  0.00     0.176 C 
BRANCH   9  13
ATOM     13  N   UNL A   1      32.868  21.624  24.638  1.00  0.00    -0.352 N 
ATOM     14  C   UNL A   1      33.570  22.294  23.545  1.00  0.00     0.145 C 
BRANCH  13  15
ATOM     15  C   UNL A   1      33.065  20.258  24.780  1.00  0.00     0.151 A 
ATOM     16  C   UNL A   1      34.312  19.659  24.595  1.00  0.00     0.051 A 
ATOM     17  N   UNL A   1      32.012  19.452  25.034  1.00  0.00    -0.132 NA
ATOM     18  C   UNL A   1      34.453  18.269  24.635  1.00  0.00     0.040 A 
ATOM     19  N   UNL A   1      32.127  18.076  25.095  1.00  0.00    -0.143 NA
ATOM     20  C   UNL A   1      33.329  17.508  24.877  1.00  0.00     0.150 A 
BRANCH  20  21
ATOM     21  C   UNL A   1      33.387  16.023  24.907  1.00  0.00     0.269 C 
ATOM     22  N   UNL A   1      32.235  15.378  25.267  1.00  0.00    -0.364 N 
ATOM     23  O   UNL A   1      34.409  15.405  24.626  1.00  0.00    -0.268 OA
ATOM     24  H   UNL A   1      31.428  15.897  25.489  1.00  0.00     0.160 HD
ATOM     25  H   UNL A   1      32.213  14.394  25.305  1.00  0.00     0.160 HD
ENDBRANCH  20  21
ENDBRANCH  13  15
ENDBRANCH   9  13
ENDBRANCH   5   8
ENDBRANCH   3   4
ENDBRANCH   2   3
ENDBRANCH   1   2
BRANCH   1  26
ATOM     26  C   UNL A   1      31.633  30.334  25.727  1.00  0.00     0.002 C 
BRANCH  26  27
ATOM     27  C   UNL A   1      31.378  31.620  26.515  1.00  0.00     0.021 C 
BRANCH  27  28
ATOM     28  C   UNL A   1      32.630  32.285  27.077  1.00  0.00     0.116 C 
BRANCH  28  29
ATOM     29  N   UNL A   1      32.412  33.684  27.407  1.00  0.00    -0.352 N 
ATOM     30  C   UNL A   1      33.030  34.461  28.355  1.00  0.00     0.251 C 
ATOM     31  H   UNL A   1      31.723  34.140  26.873  1.00  0.00     0.163 HD
ATOM     32  O   UNL A   1      32.595  35.577  28.620  1.00  0.00    -0.269 OA
BRANCH  30  33
ATOM     33  C   UNL A   1      34.211  33.942  29.081  1.00  0.00     0.039 A 
ATOM     34  C   UNL A   1      34.020  32.979  30.076  1.00  0.00     0.014 A 
ATOM     35  C   UNL A   1      35.498  34.402  28.787  1.00  0.00     0.014 A 
ATOM     36  C   UNL A   1      35.125  32.436  30.733  1.00  0.00     0.010 A 
ATOM     37  C   UNL A   1      36.602  33.805  29.389  1.00  0.00     0.010 A 
ATOM     38  C   UNL A   1      36.428  32.817  30.371  1.00  0.00    -0.014 A 
BRANCH  38  39
ATOM     39  C   UNL A   1      37.617  32.189  31.004  1.00  0.00     0.031 A 
ATOM     40  C   UNL A   1      38.399  31.135  30.269  1.00  0.00     0.074 A 
ATOM     41  C   UNL A   1      37.952  32.522  32.266  1.00  0.00     0.049 A 
ATOM     42  N   UNL A   1      39.419  30.424  30.680  1.00  0.00    -0.248 NA
ATOM     43  C   UNL A   1      37.963  30.818  28.900  1.00  0.00     0.031 C 
ATOM     44  C   UNL A   1      37.242  33.491  33.103  1.00  0.00     0.029 A 
ATOM     45  N   UNL A   1      38.967  32.069  33.075  1.00  0.00    -0.354 N 
ATOM     46  C   UNL A   1      39.732  29.568  29.632  1.00  0.00     0.074 A 
ATOM     47  C   UNL A   1      38.768  29.814  28.582  1.00  0.00     0.031 C 
ATOM     48  C   UNL A   1      37.849  33.571  34.297  1.00  0.00     0.029 A 
ATOM     49  C   UNL A   1      38.964  32.630  34.329  1.00  0.00     0.049 A 
ATOM     50  H   UNL A   1      39.634  31.406  32.782  1.00  0.00     0.167 HD
ATOM     51  C   UNL A   1      40.744  28.672  29.548  1.00  0.00     0.037 A 
ATOM     52  C   UNL A   1      39.761  32.398  35.391  1.00  0.00     0.037 A 
ATOM     53  C   UNL A   1      41.721  28.454  30.582  1.00  0.00     0.049 A 
ATOM     54  C   UNL A   1      40.879  31.398  35.265  1.00  0.00     0.074 A 
ATOM     55  C   UNL A   1      42.829  27.626  30.557  1.00  0.00     0.029 A 
ATOM     56  N   UNL A   1      41.703  29.062  31.828  1.00  0.00    -0.354 N 
ATOM     57  N   UNL A   1      41.218  30.658  34.237  1.00  0.00    -0.248 NA
ATOM     58  C   UNL A   1      41.735  31.207  36.444  1.00  0.00     0.031 C 
ATOM     59  C   UNL A   1      43.448  27.687  31.809  1.00  0.00     0.029 A 
ATOM     60  C   UNL A   1      42.765  28.603  32.591  1.00  0.00     0.049 A 
ATOM     61  H   UNL A   1      41.036  29.721  32.126  1.00  0.00     0.167 HD
ATOM     62  C   UNL A   1      42.338  29.942  34.632  1.00  0.00     0.074 A 
ATOM     63  C   UNL A   1      42.636  30.348  35.989  1.00  0.00     0.031 C 
ATOM     64  C   UNL A   1      43.056  29.027  33.936  1.00  0.00     0.037 A 
BRANCH  51  65
ATOM     65  C   UNL A   1      40.857  27.851  28.295  1.00  0.00     0.064 A 
ATOM     66  C   UNL A   1      41.618  28.281  27.197  1.00  0.00     0.173 A 
ATOM     67  C   UNL A   1      40.259  26.584  28.222  1.00  0.00     0.173 A 
ATOM     68  F   UNL A   1      42.201  29.489  27.211  1.00  0.00    -0.203 F 
ATOM     69  C   UNL A   1      41.760  27.480  26.067  1.00  0.00     0.198 A 
ATOM     70  C   UNL A   1      40.430  25.772  27.104  1.00  0.00     0.198 A 
ATOM     71  F   UNL A   1      39.527  26.122  29.247  1.00  0.00    -0.203 F 
ATOM     72  F   UNL A   1      42.461  27.926  25.015  1.00  0.00    -0.200 F 
ATOM     73  C   UNL A   1      41.176  26.223  26.026  1.00  0.00     0.200 A 
ATOM     74  F   UNL A   1      39.878  24.551  27.073  1.00  0.00    -0.200 F 
ATOM     75  F   UNL A   1      41.331  25.445  24.945  1.00  0.00    -0.200 F 
ENDBRANCH  51  65
BRANCH  52  76
ATOM     76  C   UNL A   1      39.533  33.124  36.670  1.00  0.00     0.064 A 
ATOM     77  C   UNL A   1      38.608  32.655  37.614  1.00  0.00     0.173 A 
ATOM     78  C   UNL A   1      40.208  34.319  36.959  1.00  0.00     0.173 A 
ATOM     79  F   UNL A   1      37.921  31.527  37.376  1.00  0.00    -0.203 F 
ATOM     80  C   UNL A   1      38.341  33.371  38.780  1.00  0.00     0.198 A 
ATOM     81  C   UNL A   1      39.966  35.015  38.141  1.00  0.00     0.198 A 
ATOM     82  F   UNL A   1      41.108  34.809  36.095  1.00  0.00    -0.203 F 
ATOM     83  F   UNL A   1      37.406  32.933  39.633  1.00  0.00    -0.200 F 
ATOM     84  C   UNL A   1      39.023  34.548  39.044  1.00  0.00     0.200 A 
ATOM     85  F   UNL A   1      40.641  36.144  38.401  1.00  0.00    -0.200 F 
ATOM     86  F   UNL A   1      38.764  35.239  40.163  1.00  0.00    -0.200 F 
ENDBRANCH  52  76
BRANCH  64  87
ATOM     87  C   UNL A   1      44.262  28.436  34.609  1.00  0.00     0.064 A 
ATOM     88  C   UNL A   1      44.192  27.238  35.335  1.00  0.00     0.173 A 
ATOM     89  C   UNL A   1      45.515  29.058  34.488  1.00  0.00     0.173 A 
ATOM     90  F   UNL A   1      43.016  26.612  35.493  1.00  0.00    -0.203 F 
ATOM     91  C   UNL A   1      45.326  26.701  35.939  1.00  0.00     0.198 A 
ATOM     92  C   UNL A   1      46.652  28.498  35.064  1.00  0.00     0.198 A 
ATOM     93  F   UNL A   1      45.640  30.201  33.798  1.00  0.00    -0.203 F 
ATOM     94  F   UNL A   1      45.225  25.583  36.673  1.00  0.00    -0.200 F 
ATOM     95  C   UNL A   1      46.555  27.326  35.796  1.00  0.00     0.200 A 
ATOM     96  F   UNL A   1      47.843  29.095  34.909  1.00  0.00    -0.200 F 
ATOM     97  F   UNL A   1      47.646  26.800  36.370  1.00  0.00    -0.200 F 
ENDBRANCH  64  87
ENDBRANCH  38  39
ENDBRANCH  30  33
ENDBRANCH  28  29
ENDBRANCH  27  28
ENDBRANCH  26  27
ENDBRANCH   1  26
TORSDOF 16
ENDMDL
MODEL 3
REMARK VINA RESULT:     -12.0      5.901     11.020
REMARK SMILES CN(c1ccc(C(N)=O)nn1)[C@H]1COC[C@@H]1C(=O)NCCCCCCNC(=O)c1ccc(-c2c3nc(c(-c4c(F)c(F)c(F)c(F)c4F)c4ccc([nH]4)c(-c4c(F)c(F)c(F)c(F)c4F)c4nc(c(-c5c(F)c(F)c(F)c(F)c5F)c5ccc2[nH]5)C=C4)C=C3)cc1
REMARK SMILES IDX 22 1 21 2 20 3 19 4 17 5 18 6 16 8 12 9 13 10 14 11 15 12
REMARK SMILES IDX 2 13 1 14 3 15 4 16 11 17 5 18 10 19 6 20 7 21 8 22 9 23
REMARK SMILES IDX 23 26 24 27 25 28 26 29 27 30 28 32 29 33 30 34 91 35 31 36
REMARK SMILES IDX 90 37 32 38 33 39 34 40 84 41 35 42 89 43 83 44 85 45 36 46
REMARK SMILES IDX 88 47 82 48 81 49 37 51 69 52 49 53 68 54 50 55 53 56 67 57
REMARK SMILES IDX 86 58 51 59 52 60 66 62 87 63 54 64 38 65 39 66 47 67 40 68
REMARK SMILES IDX 41 69 45 70 48 71 42 72 43 73 46 74 44 75 70 76 71 77 79 78
REMARK SMILES IDX 72 79 73 80 77 81 80 82 74 83 75 84 78 85 76 86 55 87 56 88
REMARK SMILES IDX 64 89 57 90 58 91 62 92 65 93 59 94 60 95 63 96 61 97
REMARK H PARENT 19 7 8 24 8 25 26 31 85 50 53 61
REMARK Flexibility Score: inf
ROOT
ATOM      1  C   UNL A   1      32.658  30.047  27.067  1.00  0.00     0.002 C 
ENDROOT
BRANCH   1   2
ATOM      2  C   UNL A   1      33.875  29.573  26.262  1.00  0.00     0.021 C 
BRANCH   2   3
ATOM      3  C   UNL A   1      33.655  28.293  25.457  1.00  0.00     0.116 C 
BRANCH   3   4
ATOM      4  N   UNL A   1      34.031  28.476  24.068  1.00  0.00    -0.356 N 
ATOM      5  C   UNL A   1      33.658  27.799  22.948  1.00  0.00     0.227 C 
ATOM      6  O   UNL A   1      34.193  28.134  21.891  1.00  0.00    -0.275 OA
ATOM      7  H   UNL A   1      34.663  29.215  23.909  1.00  0.00     0.163 HD
BRANCH   5   8
ATOM      8  C   UNL A   1      32.642  26.669  23.036  1.00  0.00     0.129 C 
ATOM      9  C   UNL A   1      33.146  25.577  23.975  1.00  0.00     0.124 C 
ATOM     10  C   UNL A   1      34.031  24.780  22.992  1.00  0.00     0.186 C 
ATOM     11  O   UNL A   1      33.374  24.805  21.718  1.00  0.00    -0.378 OA
ATOM     12  C   UNL A   1      32.521  25.958  21.698  1.00  0.00     0.176 C 
BRANCH   9  13
ATOM     13  N   UNL A   1      32.096  24.719  24.618  1.00  0.00    -0.352 N 
ATOM     14  C   UNL A   1      30.709  25.177  24.592  1.00  0.00     0.145 C 
BRANCH  13  15
ATOM     15  C   UNL A   1      32.318  23.373  24.877  1.00  0.00     0.151 A 
ATOM     16  C   UNL A   1      33.032  22.934  25.993  1.00  0.00     0.051 A 
ATOM     17  N   UNL A   1      31.899  22.443  23.993  1.00  0.00    -0.132 NA
ATOM     18  C   UNL A   1      33.333  21.581  26.165  1.00  0.00     0.040 A 
ATOM     19  N   UNL A   1      32.169  21.097  24.147  1.00  0.00    -0.143 NA
ATOM     20  C   UNL A   1      32.892  20.691  25.208  1.00  0.00     0.150 A 
BRANCH  20  21
ATOM     21  C   UNL A   1      33.194  19.238  25.301  1.00  0.00     0.269 C 
ATOM     22  N   UNL A   1      32.821  18.613  26.460  1.00  0.00    -0.364 N 
ATOM     23  O   UNL A   1      33.745  18.628  24.390  1.00  0.00    -0.268 OA
ATOM     24  H   UNL A   1      32.380  19.126  27.176  1.00  0.00     0.160 HD
ATOM     25  H   UNL A   1      32.995  17.650  26.579  1.00  0.00     0.160 HD
ENDBRANCH  20  21
ENDBRANCH  13  15
ENDBRANCH   9  13
ENDBRANCH   5   8
ENDBRANCH   3   4
ENDBRANCH   2   3
ENDBRANCH   1   2
BRANCH   1  26
ATOM     26  C   UNL A   1      31.591  30.798  26.264  1.00  0.00     0.002 C 
BRANCH  26  27
ATOM     27  C   UNL A   1      31.446  32.282  26.604  1.00  0.00     0.021 C 
BRANCH  27  28
ATOM     28  C   UNL A   1      32.620  32.882  27.369  1.00  0.00     0.116 C 
BRANCH  28  29
ATOM     29  N   UNL A   1      32.404  34.279  27.709  1.00  0.00    -0.352 N 
ATOM     30  C   UNL A   1      33.017  35.047  28.667  1.00  0.00     0.251 C 
ATOM     31  H   UNL A   1      31.720  34.741  27.173  1.00  0.00     0.163 HD
ATOM     32  O   UNL A   1      32.584  36.163  28.936  1.00  0.00    -0.269 OA
BRANCH  30  33
ATOM     33  C   UNL A   1      34.191  34.519  29.397  1.00  0.00     0.039 A 
ATOM     34  C   UNL A   1      33.994  33.918  30.644  1.00  0.00     0.014 A 
ATOM     35  C   UNL A   1      35.478  34.617  28.861  1.00  0.00     0.014 A 
ATOM     36  C   UNL A   1      35.080  33.364  31.324  1.00  0.00     0.010 A 
ATOM     37  C   UNL A   1      36.546  33.998  29.504  1.00  0.00     0.010 A 
ATOM     38  C   UNL A   1      36.360  33.366  30.744  1.00  0.00    -0.014 A 
BRANCH  38  39
ATOM     39  C   UNL A   1      37.510  32.709  31.417  1.00  0.00     0.031 A 
ATOM     40  C   UNL A   1      38.204  31.543  30.767  1.00  0.00     0.074 A 
ATOM     41  C   UNL A   1      37.887  33.121  32.644  1.00  0.00     0.049 A 
ATOM     42  N   UNL A   1      39.177  30.797  31.228  1.00  0.00    -0.248 NA
ATOM     43  C   UNL A   1      37.726  31.146  29.433  1.00  0.00     0.031 C 
ATOM     44  C   UNL A   1      37.260  34.205  33.402  1.00  0.00     0.029 A 
ATOM     45  N   UNL A   1      38.878  32.665  33.479  1.00  0.00    -0.354 N 
ATOM     46  C   UNL A   1      39.412  29.836  30.253  1.00  0.00     0.074 A 
ATOM     47  C   UNL A   1      38.452  30.063  29.195  1.00  0.00     0.031 C 
ATOM     48  C   UNL A   1      37.889  34.341  34.580  1.00  0.00     0.029 A 
ATOM     49  C   UNL A   1      38.934  33.327  34.681  1.00  0.00     0.049 A 
ATOM     50  H   UNL A   1      39.491  31.933  33.238  1.00  0.00     0.167 HD
ATOM     51  C   UNL A   1      40.356  28.865  30.236  1.00  0.00     0.037 A 
ATOM     52  C   UNL A   1      39.727  33.128  35.753  1.00  0.00     0.037 A 
ATOM     53  C   UNL A   1      41.330  28.664  31.277  1.00  0.00     0.049 A 
ATOM     54  C   UNL A   1      40.769  32.042  35.702  1.00  0.00     0.074 A 
ATOM     55  C   UNL A   1      42.376  27.759  31.312  1.00  0.00     0.029 A 
ATOM     56  N   UNL A   1      41.373  29.374  32.467  1.00  0.00    -0.354 N 
ATOM     57  N   UNL A   1      41.039  31.197  34.737  1.00  0.00    -0.248 NA
ATOM     58  C   UNL A   1      41.627  31.888  36.885  1.00  0.00     0.031 C 
ATOM     59  C   UNL A   1      43.016  27.880  32.549  1.00  0.00     0.029 A 
ATOM     60  C   UNL A   1      42.411  28.904  33.257  1.00  0.00     0.049 A 
ATOM     61  H   UNL A   1      40.759  30.102  32.714  1.00  0.00     0.167 HD
ATOM     62  C   UNL A   1      42.111  30.436  35.182  1.00  0.00     0.074 A 
ATOM     63  C   UNL A   1      42.457  30.931  36.497  1.00  0.00     0.031 C 
ATOM     64  C   UNL A   1      42.752  29.417  34.559  1.00  0.00     0.037 A 
BRANCH  51  65
ATOM     65  C   UNL A   1      40.392  27.937  29.056  1.00  0.00     0.064 A 
ATOM     66  C   UNL A   1      39.622  26.764  29.016  1.00  0.00     0.173 A 
ATOM     67  C   UNL A   1      41.148  28.265  27.921  1.00  0.00     0.173 A 
ATOM     68  F   UNL A   1      38.890  26.399  30.079  1.00  0.00    -0.203 F 
ATOM     69  C   UNL A   1      39.623  25.946  27.888  1.00  0.00     0.198 A 
ATOM     70  C   UNL A   1      41.121  27.461  26.784  1.00  0.00     0.198 A 
ATOM     71  F   UNL A   1      41.896  29.378  27.904  1.00  0.00    -0.203 F 
ATOM     72  F   UNL A   1      38.909  24.812  27.886  1.00  0.00    -0.200 F 
ATOM     73  C   UNL A   1      40.362  26.301  26.770  1.00  0.00     0.200 A 
ATOM     74  F   UNL A   1      41.824  27.814  25.698  1.00  0.00    -0.200 F 
ATOM     75  F   UNL A   1      40.346  25.523  25.679  1.00  0.00    -0.200 F 
ENDBRANCH  51  65
BRANCH  52  76
ATOM     76  C   UNL A   1      39.570  33.972  36.968  1.00  0.00     0.064 A 
ATOM     77  C   UNL A   1      38.808  33.534  38.061  1.00  0.00     0.173 A 
ATOM     78  C   UNL A   1      40.149  35.247  37.048  1.00  0.00     0.173 A 
ATOM     79  F   UNL A   1      38.217  32.331  38.026  1.00  0.00    -0.203 F 
ATOM     80  C   UNL A   1      38.601  34.352  39.170  1.00  0.00     0.198 A 
ATOM     81  C   UNL A   1      39.970  36.051  38.172  1.00  0.00     0.198 A 
ATOM     82  F   UNL A   1      40.893  35.713  36.034  1.00  0.00    -0.203 F 
ATOM     83  F   UNL A   1      37.815  33.935  40.171  1.00  0.00    -0.200 F 
ATOM     84  C   UNL A   1      39.185  35.609  39.226  1.00  0.00     0.200 A 
ATOM     85  F   UNL A   1      40.552  37.257  38.229  1.00  0.00    -0.200 F 
ATOM     86  F   UNL A   1      38.984  36.397  40.291  1.00  0.00    -0.200 F 
ENDBRANCH  52  76
BRANCH  64  87
ATOM     87  C   UNL A   1      43.922  28.798  35.269  1.00  0.00     0.064 A 
ATOM     88  C   UNL A   1      43.769  27.708  36.138  1.00  0.00     0.173 A 
ATOM     89  C   UNL A   1      45.221  29.279  35.042  1.00  0.00     0.173 A 
ATOM     90  F   UNL A   1      42.547  27.220  36.400  1.00  0.00    -0.203 F 
ATOM     91  C   UNL A   1      44.870  27.141  36.775  1.00  0.00     0.198 A 
ATOM     92  C   UNL A   1      46.322  28.686  35.653  1.00  0.00     0.198 A 
ATOM     93  F   UNL A   1      45.425  30.315  34.214  1.00  0.00    -0.203 F 
ATOM     94  F   UNL A   1      44.693  26.134  37.642  1.00  0.00    -0.200 F 
ATOM     95  C   UNL A   1      46.145  27.624  36.526  1.00  0.00     0.200 A 
ATOM     96  F   UNL A   1      47.556  29.144  35.397  1.00  0.00    -0.200 F 
ATOM     97  F   UNL A   1      47.203  27.069  37.132  1.00  0.00    -0.200 F 
ENDBRANCH  64  87
ENDBRANCH  38  39
ENDBRANCH  30  33
ENDBRANCH  28  29
ENDBRANCH  27  28
ENDBRANCH  26  27
ENDBRANCH   1  26
TORSDOF 16
ENDMDL
