MODEL 1
REMARK VINA RESULT:     -12.9      0.000      0.000
REMARK SMILES CC(C)[C@H](NC(=O)c1cc2cc(Cl)ccc2n1C)C(=O)N[C@@H](C(=O)NCCCCCCNC(=O)c1ccc(-c2c3nc(c(-c4c(F)c(F)c(F)c(F)c4F)c4ccc([nH]4)c(-c4c(F)c(F)c(F)c(F)c4F)c4nc(c(-c5c(F)c(F)c(F)c(F)c5F)c5ccc2[nH]5)C=C4)C=C3)cc1)c1ccccc1
REMARK SMILES IDX 27 1 26 2 25 3 23 4 24 5 22 7 21 8 19 9 20 10 4 12 2 13 1 14
REMARK SMILES IDX 3 15 5 16 6 17 7 19 8 20 9 21 17 22 10 23 16 24 18 25 11 26
REMARK SMILES IDX 15 27 12 28 14 29 13 30 98 31 99 32 103 33 100 34 102 35
REMARK SMILES IDX 101 36 28 37 29 38 30 39 31 40 32 41 33 42 34 44 35 45 36 46
REMARK SMILES IDX 97 47 37 48 96 49 38 50 39 51 40 52 90 53 41 54 95 55 89 56
REMARK SMILES IDX 91 57 42 58 94 59 88 60 87 61 43 63 75 64 55 65 74 66 56 67
REMARK SMILES IDX 59 68 73 69 92 70 57 71 58 72 72 74 93 75 60 76 44 77 45 78
REMARK SMILES IDX 53 79 46 80 47 81 51 82 54 83 48 84 49 85 52 86 50 87 76 88
REMARK SMILES IDX 77 89 85 90 78 91 79 92 83 93 86 94 80 95 81 96 84 97 82 98
REMARK SMILES IDX 61 99 62 100 70 101 63 102 64 103 68 104 71 105 65 106
REMARK SMILES IDX 66 107 69 108 67 109
REMARK H PARENT 25 6 21 11 5 18 32 43 91 62 59 73
REMARK Flexibility Score: inf
ROOT
ATOM      1  C   UNL A   1      32.865  29.156  26.902  1.00  0.00     0.021 C 
ENDROOT
BRANCH   1   2
ATOM      2  C   UNL A   1      32.367  28.465  25.641  1.00  0.00     0.116 C 
BRANCH   2   3
ATOM      3  N   UNL A   1      31.364  27.463  25.922  1.00  0.00    -0.354 N 
ATOM      4  C   UNL A   1      30.652  26.629  25.110  1.00  0.00     0.247 C 
ATOM      5  O   UNL A   1      30.058  25.715  25.694  1.00  0.00    -0.272 OA
ATOM      6  H   UNL A   1      31.157  27.362  26.880  1.00  0.00     0.163 HD
BRANCH   4   7
ATOM      7  C   UNL A   1      30.714  26.708  23.544  1.00  0.00     0.202 C 
BRANCH   7   8
ATOM      8  N   UNL A   1      32.080  26.743  22.992  1.00  0.00    -0.339 N 
ATOM      9  C   UNL A   1      33.052  25.804  22.808  1.00  0.00     0.243 C 
ATOM     10  O   UNL A   1      34.029  26.144  22.132  1.00  0.00    -0.273 OA
ATOM     11  H   UNL A   1      32.350  27.640  22.689  1.00  0.00     0.164 HD
BRANCH   9  12
ATOM     12  C   UNL A   1      32.957  24.348  23.340  1.00  0.00     0.174 C 
BRANCH  12  13
ATOM     13  C   UNL A   1      32.001  23.431  22.526  1.00  0.00     0.015 C 
ATOM     14  C   UNL A   1      32.518  22.013  22.255  1.00  0.00     0.010 C 
ATOM     15  C   UNL A   1      30.675  23.232  23.281  1.00  0.00     0.010 C 
ENDBRANCH  12  13
BRANCH  12  16
ATOM     16  N   UNL A   1      32.766  24.402  24.798  1.00  0.00    -0.339 N 
ATOM     17  C   UNL A   1      33.108  23.584  25.834  1.00  0.00     0.268 C 
ATOM     18  H   UNL A   1      32.283  25.209  25.091  1.00  0.00     0.164 HD
ATOM     19  O   UNL A   1      33.069  24.069  26.961  1.00  0.00    -0.268 OA
BRANCH  17  20
ATOM     20  C   UNL A   1      33.424  22.211  25.583  1.00  0.00     0.107 A 
ATOM     21  C   UNL A   1      32.535  21.153  25.628  1.00  0.00     0.042 A 
ATOM     22  N   UNL A   1      34.676  21.665  25.395  1.00  0.00    -0.340 N 
ATOM     23  C   UNL A   1      33.226  19.973  25.265  1.00  0.00     0.002 A 
ATOM     24  C   UNL A   1      34.564  20.323  25.070  1.00  0.00     0.048 A 
ATOM     25  C   UNL A   1      35.924  22.389  25.511  1.00  0.00     0.150 C 
ATOM     26  C   UNL A   1      32.824  18.639  25.069  1.00  0.00     0.030 A 
ATOM     27  C   UNL A   1      35.515  19.392  24.626  1.00  0.00     0.028 A 
ATOM     28  C   UNL A   1      33.766  17.709  24.626  1.00  0.00     0.041 A 
ATOM     29  C   UNL A   1      35.087  18.079  24.394  1.00  0.00     0.023 A 
ATOM     30  Cl  UNL A   1      33.275  16.082  24.344  1.00  0.00    -0.084 Cl
ENDBRANCH  17  20
ENDBRANCH  12  16
ENDBRANCH   9  12
ENDBRANCH   7   8
BRANCH   7  31
ATOM     31  C   UNL A   1      29.950  27.935  23.047  1.00  0.00    -0.016 A 
ATOM     32  C   UNL A   1      30.611  28.980  22.377  1.00  0.00     0.006 A 
ATOM     33  C   UNL A   1      28.563  28.039  23.249  1.00  0.00     0.006 A 
ATOM     34  C   UNL A   1      29.899  30.079  21.893  1.00  0.00     0.000 A 
ATOM     35  C   UNL A   1      27.853  29.134  22.753  1.00  0.00     0.000 A 
ATOM     36  C   UNL A   1      28.520  30.150  22.072  1.00  0.00     0.000 A 
ENDBRANCH   7  31
ENDBRANCH   4   7
ENDBRANCH   2   3
ENDBRANCH   1   2
BRANCH   1  37
ATOM     37  C   UNL A   1      34.346  28.945  27.223  1.00  0.00     0.002 C 
BRANCH  37  38
ATOM     38  C   UNL A   1      35.145  30.195  27.605  1.00  0.00     0.002 C 
BRANCH  38  39
ATOM     39  C   UNL A   1      34.378  31.520  27.684  1.00  0.00     0.021 C 
BRANCH  39  40
ATOM     40  C   UNL A   1      35.011  32.629  28.525  1.00  0.00     0.116 C 
BRANCH  40  41
ATOM     41  N   UNL A   1      34.783  32.521  29.949  1.00  0.00    -0.352 N 
ATOM     42  C   UNL A   1      35.419  31.912  30.992  1.00  0.00     0.251 C 
ATOM     43  H   UNL A   1      33.973  33.003  30.236  1.00  0.00     0.163 HD
ATOM     44  O   UNL A   1      34.915  32.082  32.105  1.00  0.00    -0.269 OA
BRANCH  42  45
ATOM     45  C   UNL A   1      36.637  31.059  30.881  1.00  0.00     0.039 A 
ATOM     46  C   UNL A   1      36.666  29.665  30.896  1.00  0.00     0.014 A 
ATOM     47  C   UNL A   1      37.860  31.742  30.737  1.00  0.00     0.014 A 
ATOM     48  C   UNL A   1      37.878  28.970  30.828  1.00  0.00     0.010 A 
ATOM     49  C   UNL A   1      39.071  31.051  30.641  1.00  0.00     0.010 A 
ATOM     50  C   UNL A   1      39.087  29.658  30.717  1.00  0.00    -0.014 A 
BRANCH  50  51
ATOM     51  C   UNL A   1      40.331  28.877  30.686  1.00  0.00     0.031 A 
ATOM     52  C   UNL A   1      41.071  28.620  31.961  1.00  0.00     0.074 A 
ATOM     53  C   UNL A   1      40.767  28.220  29.591  1.00  0.00     0.049 A 
ATOM     54  N   UNL A   1      42.341  28.757  32.202  1.00  0.00    -0.248 NA
ATOM     55  C   UNL A   1      40.306  28.073  33.091  1.00  0.00     0.031 C 
ATOM     56  C   UNL A   1      40.054  28.008  28.332  1.00  0.00     0.029 A 
ATOM     57  N   UNL A   1      41.916  27.491  29.438  1.00  0.00    -0.354 N 
ATOM     58  C   UNL A   1      42.561  28.219  33.467  1.00  0.00     0.074 A 
ATOM     59  C   UNL A   1      41.270  27.825  33.979  1.00  0.00     0.031 C 
ATOM     60  C   UNL A   1      40.676  27.028  27.641  1.00  0.00     0.029 A 
ATOM     61  C   UNL A   1      41.893  26.650  28.346  1.00  0.00     0.049 A 
ATOM     62  H   UNL A   1      42.685  27.560  30.050  1.00  0.00     0.167 HD
ATOM     63  C   UNL A   1      43.794  28.027  34.010  1.00  0.00     0.037 A 
ATOM     64  C   UNL A   1      42.763  25.656  28.064  1.00  0.00     0.037 A 
ATOM     65  C   UNL A   1      44.851  28.699  33.318  1.00  0.00     0.049 A 
ATOM     66  C   UNL A   1      44.037  25.881  28.788  1.00  0.00     0.074 A 
ATOM     67  C   UNL A   1      45.219  30.014  33.128  1.00  0.00     0.029 A 
ATOM     68  N   UNL A   1      45.660  27.952  32.503  1.00  0.00    -0.354 N 
ATOM     69  N   UNL A   1      44.886  26.836  28.528  1.00  0.00    -0.248 NA
ATOM     70  C   UNL A   1      44.331  25.106  29.989  1.00  0.00     0.031 C 
ATOM     71  C   UNL A   1      46.002  30.036  31.937  1.00  0.00     0.029 A 
ATOM     72  C   UNL A   1      46.005  28.737  31.430  1.00  0.00     0.049 A 
ATOM     73  H   UNL A   1      45.942  27.022  32.659  1.00  0.00     0.167 HD
ATOM     74  C   UNL A   1      45.590  27.017  29.705  1.00  0.00     0.074 A 
ATOM     75  C   UNL A   1      45.348  25.815  30.482  1.00  0.00     0.031 C 
ATOM     76  C   UNL A   1      46.038  28.250  30.070  1.00  0.00     0.037 A 
BRANCH  63  77
ATOM     77  C   UNL A   1      44.085  27.058  35.114  1.00  0.00     0.064 A 
ATOM     78  C   UNL A   1      43.997  25.670  34.902  1.00  0.00     0.173 A 
ATOM     79  C   UNL A   1      44.240  27.479  36.449  1.00  0.00     0.173 A 
ATOM     80  F   UNL A   1      43.783  25.182  33.672  1.00  0.00    -0.203 F 
ATOM     81  C   UNL A   1      44.086  24.761  35.959  1.00  0.00     0.198 A 
ATOM     82  C   UNL A   1      44.363  26.569  37.499  1.00  0.00     0.198 A 
ATOM     83  F   UNL A   1      44.205  28.782  36.766  1.00  0.00    -0.203 F 
ATOM     84  F   UNL A   1      43.950  23.448  35.724  1.00  0.00    -0.200 F 
ATOM     85  C   UNL A   1      44.280  25.209  37.254  1.00  0.00     0.200 A 
ATOM     86  F   UNL A   1      44.519  27.017  38.752  1.00  0.00    -0.200 F 
ATOM     87  F   UNL A   1      44.354  24.338  38.269  1.00  0.00    -0.200 F 
ENDBRANCH  63  77
BRANCH  64  88
ATOM     88  C   UNL A   1      42.492  24.418  27.302  1.00  0.00     0.064 A 
ATOM     89  C   UNL A   1      42.975  24.238  25.998  1.00  0.00     0.173 A 
ATOM     90  C   UNL A   1      41.921  23.289  27.923  1.00  0.00     0.173 A 
ATOM     91  F   UNL A   1      43.586  25.245  25.359  1.00  0.00    -0.203 F 
ATOM     92  C   UNL A   1      42.886  23.002  25.350  1.00  0.00     0.198 A 
ATOM     93  C   UNL A   1      41.815  22.062  27.269  1.00  0.00     0.198 A 
ATOM     94  F   UNL A   1      41.529  23.335  29.204  1.00  0.00    -0.203 F 
ATOM     95  F   UNL A   1      43.402  22.853  24.123  1.00  0.00    -0.200 F 
ATOM     96  C   UNL A   1      42.304  21.916  25.985  1.00  0.00     0.200 A 
ATOM     97  F   UNL A   1      41.282  21.011  27.910  1.00  0.00    -0.200 F 
ATOM     98  F   UNL A   1      42.249  20.724  25.376  1.00  0.00    -0.200 F 
ENDBRANCH  64  88
BRANCH  76  99
ATOM     99  C   UNL A   1      46.207  29.261  28.980  1.00  0.00     0.064 A 
ATOM    100  C   UNL A   1      45.151  30.051  28.499  1.00  0.00     0.173 A 
ATOM    101  C   UNL A   1      47.493  29.516  28.487  1.00  0.00     0.173 A 
ATOM    102  F   UNL A   1      43.917  29.926  29.005  1.00  0.00    -0.203 F 
ATOM    103  C   UNL A   1      45.368  31.019  27.522  1.00  0.00     0.198 A 
ATOM    104  C   UNL A   1      47.712  30.507  27.534  1.00  0.00     0.198 A 
ATOM    105  F   UNL A   1      48.546  28.832  28.964  1.00  0.00    -0.203 F 
ATOM    106  F   UNL A   1      44.343  31.753  27.063  1.00  0.00    -0.200 F 
ATOM    107  C   UNL A   1      46.648  31.248  27.042  1.00  0.00     0.200 A 
ATOM    108  F   UNL A   1      48.958  30.760  27.107  1.00  0.00    -0.200 F 
ATOM    109  F   UNL A   1      46.863  32.203  26.126  1.00  0.00    -0.200 F 
ENDBRANCH  76  99
ENDBRANCH  50  51
ENDBRANCH  42  45
ENDBRANCH  40  41
ENDBRANCH  39  40
ENDBRANCH  38  39
ENDBRANCH  37  38
ENDBRANCH   1  37
TORSDOF 19
ENDMDL
MODEL 2
REMARK VINA RESULT:     -12.8      3.558      9.393
REMARK SMILES CC(C)[C@H](NC(=O)c1cc2cc(Cl)ccc2n1C)C(=O)N[C@@H](C(=O)NCCCCCCNC(=O)c1ccc(-c2c3nc(c(-c4c(F)c(F)c(F)c(F)c4F)c4ccc([nH]4)c(-c4c(F)c(F)c(F)c(F)c4F)c4nc(c(-c5c(F)c(F)c(F)c(F)c5F)c5ccc2[nH]5)C=C4)C=C3)cc1)c1ccccc1
REMARK SMILES IDX 27 1 26 2 25 3 23 4 24 5 22 7 21 8 19 9 20 10 4 12 2 13 1 14
REMARK SMILES IDX 3 15 5 16 6 17 7 19 8 20 9 21 17 22 10 23 16 24 18 25 11 26
REMARK SMILES IDX 15 27 12 28 14 29 13 30 98 31 99 32 103 33 100 34 102 35
REMARK SMILES IDX 101 36 28 37 29 38 30 39 31 40 32 41 33 42 34 44 35 45 36 46
REMARK SMILES IDX 97 47 37 48 96 49 38 50 39 51 40 52 90 53 41 54 95 55 89 56
REMARK SMILES IDX 91 57 42 58 94 59 88 60 87 61 43 63 75 64 55 65 74 66 56 67
REMARK SMILES IDX 59 68 73 69 92 70 57 71 58 72 72 74 93 75 60 76 44 77 45 78
REMARK SMILES IDX 53 79 46 80 47 81 51 82 54 83 48 84 49 85 52 86 50 87 76 88
REMARK SMILES IDX 77 89 85 90 78 91 79 92 83 93 86 94 80 95 81 96 84 97 82 98
REMARK SMILES IDX 61 99 62 100 70 101 63 102 64 103 68 104 71 105 65 106
REMARK SMILES IDX 66 107 69 108 67 109
REMARK H PARENT 25 6 21 11 5 18 32 43 91 62 59 73
REMARK Flexibility Score: inf
ROOT
ATOM      1  C   UNL A   1      36.556  21.500  25.635  1.00  0.00     0.021 C 
ENDROOT
BRANCH   1   2
ATOM      2  C   UNL A   1      35.478  22.573  25.653  1.00  0.00     0.116 C 
BRANCH   2   3
ATOM      3  N   UNL A   1      35.171  23.067  24.330  1.00  0.00    -0.354 N 
ATOM      4  C   UNL A   1      33.991  23.212  23.659  1.00  0.00     0.247 C 
ATOM      5  O   UNL A   1      34.056  23.902  22.634  1.00  0.00    -0.272 OA
ATOM      6  H   UNL A   1      35.961  23.352  23.816  1.00  0.00     0.163 HD
BRANCH   4   7
ATOM      7  C   UNL A   1      32.621  22.696  24.224  1.00  0.00     0.202 C 
BRANCH   7   8
ATOM      8  N   UNL A   1      32.284  23.212  25.563  1.00  0.00    -0.339 N 
ATOM      9  C   UNL A   1      31.702  24.359  26.017  1.00  0.00     0.243 C 
ATOM     10  O   UNL A   1      31.393  24.387  27.213  1.00  0.00    -0.273 OA
ATOM     11  H   UNL A   1      32.533  22.594  26.288  1.00  0.00     0.164 HD
BRANCH   9  12
ATOM     12  C   UNL A   1      31.358  25.571  25.108  1.00  0.00     0.174 C 
BRANCH  12  13
ATOM     13  C   UNL A   1      30.232  25.294  24.071  1.00  0.00     0.015 C 
ATOM     14  C   UNL A   1      29.157  26.381  23.960  1.00  0.00     0.010 C 
ATOM     15  C   UNL A   1      30.824  25.175  22.656  1.00  0.00     0.010 C 
ENDBRANCH  12  13
BRANCH  12  16
ATOM     16  N   UNL A   1      32.619  26.140  24.605  1.00  0.00    -0.339 N 
ATOM     17  C   UNL A   1      33.003  27.380  24.186  1.00  0.00     0.268 C 
ATOM     18  H   UNL A   1      33.346  25.478  24.560  1.00  0.00     0.164 HD
ATOM     19  O   UNL A   1      34.210  27.593  24.118  1.00  0.00    -0.268 OA
BRANCH  17  20
ATOM     20  C   UNL A   1      32.015  28.336  23.789  1.00  0.00     0.107 A 
ATOM     21  C   UNL A   1      31.615  28.597  22.491  1.00  0.00     0.042 A 
ATOM     22  N   UNL A   1      31.387  29.266  24.589  1.00  0.00    -0.340 N 
ATOM     23  C   UNL A   1      30.583  29.564  22.528  1.00  0.00     0.002 A 
ATOM     24  C   UNL A   1      30.415  29.936  23.863  1.00  0.00     0.048 A 
ATOM     25  C   UNL A   1      31.691  29.504  25.984  1.00  0.00     0.150 C 
ATOM     26  C   UNL A   1      29.765  30.142  21.540  1.00  0.00     0.030 A 
ATOM     27  C   UNL A   1      29.412  30.833  24.261  1.00  0.00     0.028 A 
ATOM     28  C   UNL A   1      28.764  31.033  21.930  1.00  0.00     0.041 A 
ATOM     29  C   UNL A   1      28.578  31.364  23.269  1.00  0.00     0.023 A 
ATOM     30  Cl  UNL A   1      27.730  31.716  20.733  1.00  0.00    -0.084 Cl
ENDBRANCH  17  20
ENDBRANCH  12  16
ENDBRANCH   9  12
ENDBRANCH   7   8
BRANCH   7  31
ATOM     31  C   UNL A   1      32.612  21.168  24.268  1.00  0.00    -0.016 A 
ATOM     32  C   UNL A   1      32.851  20.475  25.469  1.00  0.00     0.006 A 
ATOM     33  C   UNL A   1      32.357  20.424  23.103  1.00  0.00     0.006 A 
ATOM     34  C   UNL A   1      32.801  19.080  25.507  1.00  0.00     0.000 A 
ATOM     35  C   UNL A   1      32.297  19.031  23.149  1.00  0.00     0.000 A 
ATOM     36  C   UNL A   1      32.514  18.360  24.350  1.00  0.00     0.000 A 
ENDBRANCH   7  31
ENDBRANCH   4   7
ENDBRANCH   2   3
ENDBRANCH   1   2
BRANCH   1  37
ATOM     37  C   UNL A   1      37.967  21.993  25.311  1.00  0.00     0.002 C 
BRANCH  37  38
ATOM     38  C   UNL A   1      38.512  23.125  26.188  1.00  0.00     0.002 C 
BRANCH  38  39
ATOM     39  C   UNL A   1      39.708  22.800  27.089  1.00  0.00     0.021 C 
BRANCH  39  40
ATOM     40  C   UNL A   1      40.606  21.643  26.647  1.00  0.00     0.116 C 
BRANCH  40  41
ATOM     41  N   UNL A   1      41.630  21.996  25.689  1.00  0.00    -0.352 N 
ATOM     42  C   UNL A   1      42.414  23.090  25.464  1.00  0.00     0.251 C 
ATOM     43  H   UNL A   1      41.802  21.273  25.042  1.00  0.00     0.163 HD
ATOM     44  O   UNL A   1      43.219  22.994  24.533  1.00  0.00    -0.269 OA
BRANCH  42  45
ATOM     45  C   UNL A   1      42.355  24.368  26.230  1.00  0.00     0.039 A 
ATOM     46  C   UNL A   1      42.875  24.584  27.506  1.00  0.00     0.014 A 
ATOM     47  C   UNL A   1      41.722  25.447  25.585  1.00  0.00     0.014 A 
ATOM     48  C   UNL A   1      42.720  25.818  28.146  1.00  0.00     0.010 A 
ATOM     49  C   UNL A   1      41.590  26.690  26.209  1.00  0.00     0.010 A 
ATOM     50  C   UNL A   1      42.064  26.872  27.509  1.00  0.00    -0.014 A 
BRANCH  50  51
ATOM     51  C   UNL A   1      41.900  28.134  28.243  1.00  0.00     0.031 A 
ATOM     52  C   UNL A   1      42.913  29.222  28.073  1.00  0.00     0.074 A 
ATOM     53  C   UNL A   1      40.788  28.447  28.939  1.00  0.00     0.049 A 
ATOM     54  N   UNL A   1      43.506  29.927  28.990  1.00  0.00    -0.248 NA
ATOM     55  C   UNL A   1      43.255  29.622  26.700  1.00  0.00     0.031 C 
ATOM     56  C   UNL A   1      39.516  27.726  28.966  1.00  0.00     0.029 A 
ATOM     57  N   UNL A   1      40.537  29.572  29.680  1.00  0.00    -0.354 N 
ATOM     58  C   UNL A   1      44.212  30.926  28.323  1.00  0.00     0.074 A 
ATOM     59  C   UNL A   1      44.036  30.683  26.911  1.00  0.00     0.031 C 
ATOM     60  C   UNL A   1      38.570  28.534  29.491  1.00  0.00     0.029 A 
ATOM     61  C   UNL A   1      39.199  29.763  29.953  1.00  0.00     0.049 A 
ATOM     62  H   UNL A   1      41.243  30.185  29.986  1.00  0.00     0.167 HD
ATOM     63  C   UNL A   1      44.830  31.966  28.944  1.00  0.00     0.037 A 
ATOM     64  C   UNL A   1      38.620  30.876  30.454  1.00  0.00     0.037 A 
ATOM     65  C   UNL A   1      44.973  31.805  30.358  1.00  0.00     0.049 A 
ATOM     66  C   UNL A   1      39.636  31.702  31.151  1.00  0.00     0.074 A 
ATOM     67  C   UNL A   1      45.700  30.974  31.184  1.00  0.00     0.029 A 
ATOM     68  N   UNL A   1      44.117  32.501  31.172  1.00  0.00    -0.354 N 
ATOM     69  N   UNL A   1      40.221  31.379  32.271  1.00  0.00    -0.248 NA
ATOM     70  C   UNL A   1      40.170  32.892  30.497  1.00  0.00     0.031 C 
ATOM     71  C   UNL A   1      45.006  30.947  32.428  1.00  0.00     0.029 A 
ATOM     72  C   UNL A   1      43.851  31.711  32.264  1.00  0.00     0.049 A 
ATOM     73  H   UNL A   1      43.759  33.402  31.004  1.00  0.00     0.167 HD
ATOM     74  C   UNL A   1      41.408  32.088  32.268  1.00  0.00     0.074 A 
ATOM     75  C   UNL A   1      41.229  33.129  31.273  1.00  0.00     0.031 C 
ATOM     76  C   UNL A   1      42.532  31.572  32.839  1.00  0.00     0.037 A 
BRANCH  63  77
ATOM     77  C   UNL A   1      45.176  33.260  28.274  1.00  0.00     0.064 A 
ATOM     78  C   UNL A   1      44.185  34.219  27.994  1.00  0.00     0.173 A 
ATOM     79  C   UNL A   1      46.443  33.484  27.701  1.00  0.00     0.173 A 
ATOM     80  F   UNL A   1      42.932  34.053  28.443  1.00  0.00    -0.203 F 
ATOM     81  C   UNL A   1      44.455  35.344  27.212  1.00  0.00     0.198 A 
ATOM     82  C   UNL A   1      46.720  34.626  26.950  1.00  0.00     0.198 A 
ATOM     83  F   UNL A   1      47.415  32.565  27.804  1.00  0.00    -0.203 F 
ATOM     84  F   UNL A   1      43.472  36.211  26.927  1.00  0.00    -0.200 F 
ATOM     85  C   UNL A   1      45.724  35.553  26.700  1.00  0.00     0.200 A 
ATOM     86  F   UNL A   1      47.944  34.800  26.433  1.00  0.00    -0.200 F 
ATOM     87  F   UNL A   1      45.980  36.626  25.941  1.00  0.00    -0.200 F 
ENDBRANCH  63  77
BRANCH  64  88
ATOM     88  C   UNL A   1      37.236  31.345  30.228  1.00  0.00     0.064 A 
ATOM     89  C   UNL A   1      36.401  31.708  31.294  1.00  0.00     0.173 A 
ATOM     90  C   UNL A   1      36.769  31.646  28.933  1.00  0.00     0.173 A 
ATOM     91  F   UNL A   1      36.797  31.511  32.560  1.00  0.00    -0.203 F 
ATOM     92  C   UNL A   1      35.167  32.329  31.077  1.00  0.00     0.198 A 
ATOM     93  C   UNL A   1      35.530  32.248  28.716  1.00  0.00     0.198 A 
ATOM     94  F   UNL A   1      37.542  31.434  27.858  1.00  0.00    -0.203 F 
ATOM     95  F   UNL A   1      34.417  32.706  32.122  1.00  0.00    -0.200 F 
ATOM     96  C   UNL A   1      34.732  32.596  29.789  1.00  0.00     0.200 A 
ATOM     97  F   UNL A   1      35.139  32.533  27.466  1.00  0.00    -0.200 F 
ATOM     98  F   UNL A   1      33.565  33.222  29.584  1.00  0.00    -0.200 F 
ENDBRANCH  64  88
BRANCH  76  99
ATOM     99  C   UNL A   1      42.341  30.512  33.877  1.00  0.00     0.064 A 
ATOM    100  C   UNL A   1      42.097  29.166  33.559  1.00  0.00     0.173 A 
ATOM    101  C   UNL A   1      42.522  30.844  35.225  1.00  0.00     0.173 A 
ATOM    102  F   UNL A   1      42.017  28.767  32.283  1.00  0.00    -0.203 F 
ATOM    103  C   UNL A   1      41.981  28.204  34.559  1.00  0.00     0.198 A 
ATOM    104  C   UNL A   1      42.438  29.874  36.220  1.00  0.00     0.198 A 
ATOM    105  F   UNL A   1      42.823  32.105  35.575  1.00  0.00    -0.203 F 
ATOM    106  F   UNL A   1      41.731  26.926  34.237  1.00  0.00    -0.200 F 
ATOM    107  C   UNL A   1      42.155  28.558  35.888  1.00  0.00     0.200 A 
ATOM    108  F   UNL A   1      42.654  30.209  37.501  1.00  0.00    -0.200 F 
ATOM    109  F   UNL A   1      42.078  27.626  36.848  1.00  0.00    -0.200 F 
ENDBRANCH  76  99
ENDBRANCH  50  51
ENDBRANCH  42  45
ENDBRANCH  40  41
ENDBRANCH  39  40
ENDBRANCH  38  39
ENDBRANCH  37  38
ENDBRANCH   1  37
TORSDOF 19
ENDMDL
MODEL 3
REMARK VINA RESULT:     -12.8      3.760      9.516
REMARK SMILES CC(C)[C@H](NC(=O)c1cc2cc(Cl)ccc2n1C)C(=O)N[C@@H](C(=O)NCCCCCCNC(=O)c1ccc(-c2c3nc(c(-c4c(F)c(F)c(F)c(F)c4F)c4ccc([nH]4)c(-c4c(F)c(F)c(F)c(F)c4F)c4nc(c(-c5c(F)c(F)c(F)c(F)c5F)c5ccc2[nH]5)C=C4)C=C3)cc1)c1ccccc1
REMARK SMILES IDX 27 1 26 2 25 3 23 4 24 5 22 7 21 8 19 9 20 10 4 12 2 13 1 14
REMARK SMILES IDX 3 15 5 16 6 17 7 19 8 20 9 21 17 22 10 23 16 24 18 25 11 26
REMARK SMILES IDX 15 27 12 28 14 29 13 30 98 31 99 32 103 33 100 34 102 35
REMARK SMILES IDX 101 36 28 37 29 38 30 39 31 40 32 41 33 42 34 44 35 45 36 46
REMARK SMILES IDX 97 47 37 48 96 49 38 50 39 51 40 52 90 53 41 54 95 55 89 56
REMARK SMILES IDX 91 57 42 58 94 59 88 60 87 61 43 63 75 64 55 65 74 66 56 67
REMARK SMILES IDX 59 68 73 69 92 70 57 71 58 72 72 74 93 75 60 76 44 77 45 78
REMARK SMILES IDX 53 79 46 80 47 81 51 82 54 83 48 84 49 85 52 86 50 87 76 88
REMARK SMILES IDX 77 89 85 90 78 91 79 92 83 93 86 94 80 95 81 96 84 97 82 98
REMARK SMILES IDX 61 99 62 100 70 101 63 102 64 103 68 104 71 105 65 106
REMARK SMILES IDX 66 107 69 108 67 109
REMARK H PARENT 25 6 21 11 5 18 32 43 91 62 59 73
REMARK Flexibility Score: inf
ROOT
ATOM      1  C   UNL A   1      36.542  23.617  25.795  1.00  0.00     0.021 C 
ENDROOT
BRANCH   1   2
ATOM      2  C   UNL A   1      36.322  22.115  25.707  1.00  0.00     0.116 C 
BRANCH   2   3
ATOM      3  N   UNL A   1      35.128  21.692  26.404  1.00  0.00    -0.354 N 
ATOM      4  C   UNL A   1      33.984  21.086  25.973  1.00  0.00     0.247 C 
ATOM      5  O   UNL A   1      33.264  20.633  26.871  1.00  0.00    -0.272 OA
ATOM      6  H   UNL A   1      35.144  21.876  27.372  1.00  0.00     0.163 HD
BRANCH   4   7
ATOM      7  C   UNL A   1      33.679  20.824  24.456  1.00  0.00     0.202 C 
BRANCH   7   8
ATOM      8  N   UNL A   1      32.393  21.374  23.991  1.00  0.00    -0.339 N 
ATOM      9  C   UNL A   1      31.946  22.632  23.714  1.00  0.00     0.243 C 
ATOM     10  O   UNL A   1      30.848  22.719  23.154  1.00  0.00    -0.273 OA
ATOM     11  H   UNL A   1      31.707  20.683  23.849  1.00  0.00     0.164 HD
BRANCH   9  12
ATOM     12  C   UNL A   1      32.763  23.922  24.001  1.00  0.00     0.174 C 
BRANCH  12  13
ATOM     13  C   UNL A   1      32.238  24.757  25.204  1.00  0.00     0.015 C 
ATOM     14  C   UNL A   1      30.739  24.622  25.496  1.00  0.00     0.010 C 
ATOM     15  C   UNL A   1      32.936  24.323  26.505  1.00  0.00     0.010 C 
ENDBRANCH  12  13
BRANCH  12  16
ATOM     16  N   UNL A   1      32.972  24.627  22.726  1.00  0.00    -0.339 N 
ATOM     17  C   UNL A   1      33.228  25.922  22.386  1.00  0.00     0.268 C 
ATOM     18  H   UNL A   1      32.914  24.030  21.945  1.00  0.00     0.164 HD
ATOM     19  O   UNL A   1      33.653  26.125  21.252  1.00  0.00    -0.268 OA
BRANCH  17  20
ATOM     20  C   UNL A   1      32.937  26.973  23.312  1.00  0.00     0.107 A 
ATOM     21  C   UNL A   1      33.765  27.408  24.331  1.00  0.00     0.042 A 
ATOM     22  N   UNL A   1      31.743  27.646  23.462  1.00  0.00    -0.340 N 
ATOM     23  C   UNL A   1      33.139  28.497  24.982  1.00  0.00     0.002 A 
ATOM     24  C   UNL A   1      31.888  28.668  24.386  1.00  0.00     0.048 A 
ATOM     25  C   UNL A   1      30.520  27.337  22.753  1.00  0.00     0.150 C 
ATOM     26  C   UNL A   1      33.538  29.364  26.016  1.00  0.00     0.030 A 
ATOM     27  C   UNL A   1      31.032  29.719  24.751  1.00  0.00     0.028 A 
ATOM     28  C   UNL A   1      32.692  30.413  26.381  1.00  0.00     0.041 A 
ATOM     29  C   UNL A   1      31.466  30.599  25.750  1.00  0.00     0.023 A 
ATOM     30  Cl  UNL A   1      33.188  31.504  27.618  1.00  0.00    -0.084 Cl
ENDBRANCH  17  20
ENDBRANCH  12  16
ENDBRANCH   9  12
ENDBRANCH   7   8
BRANCH   7  31
ATOM     31  C   UNL A   1      33.707  19.324  24.165  1.00  0.00    -0.016 A 
ATOM     32  C   UNL A   1      32.679  18.707  23.428  1.00  0.00     0.006 A 
ATOM     33  C   UNL A   1      34.770  18.529  24.627  1.00  0.00     0.006 A 
ATOM     34  C   UNL A   1      32.733  17.344  23.134  1.00  0.00     0.000 A 
ATOM     35  C   UNL A   1      34.826  17.169  24.320  1.00  0.00     0.000 A 
ATOM     36  C   UNL A   1      33.811  16.578  23.571  1.00  0.00     0.000 A 
ENDBRANCH   7  31
ENDBRANCH   4   7
ENDBRANCH   2   3
ENDBRANCH   1   2
BRANCH   1  37
ATOM     37  C   UNL A   1      38.004  24.068  25.788  1.00  0.00     0.002 C 
BRANCH  37  38
ATOM     38  C   UNL A   1      38.912  23.453  26.857  1.00  0.00     0.002 C 
BRANCH  38  39
ATOM     39  C   UNL A   1      39.628  22.145  26.501  1.00  0.00     0.021 C 
BRANCH  39  40
ATOM     40  C   UNL A   1      41.107  22.048  26.879  1.00  0.00     0.116 C 
BRANCH  40  41
ATOM     41  N   UNL A   1      42.029  22.488  25.855  1.00  0.00    -0.352 N 
ATOM     42  C   UNL A   1      42.615  23.674  25.520  1.00  0.00     0.251 C 
ATOM     43  H   UNL A   1      42.298  21.755  25.254  1.00  0.00     0.163 HD
ATOM     44  O   UNL A   1      43.396  23.639  24.565  1.00  0.00    -0.269 OA
BRANCH  42  45
ATOM     45  C   UNL A   1      42.370  24.980  26.196  1.00  0.00     0.039 A 
ATOM     46  C   UNL A   1      41.498  25.977  25.760  1.00  0.00     0.014 A 
ATOM     47  C   UNL A   1      43.083  25.204  27.388  1.00  0.00     0.014 A 
ATOM     48  C   UNL A   1      41.382  27.186  26.455  1.00  0.00     0.010 A 
ATOM     49  C   UNL A   1      42.950  26.398  28.101  1.00  0.00     0.010 A 
ATOM     50  C   UNL A   1      42.117  27.409  27.620  1.00  0.00    -0.014 A 
BRANCH  50  51
ATOM     51  C   UNL A   1      41.982  28.710  28.288  1.00  0.00     0.031 A 
ATOM     52  C   UNL A   1      42.990  29.784  28.021  1.00  0.00     0.074 A 
ATOM     53  C   UNL A   1      40.897  29.065  29.007  1.00  0.00     0.049 A 
ATOM     54  N   UNL A   1      43.617  30.536  28.876  1.00  0.00    -0.248 NA
ATOM     55  C   UNL A   1      43.282  30.106  26.617  1.00  0.00     0.031 C 
ATOM     56  C   UNL A   1      39.626  28.350  29.120  1.00  0.00     0.029 A 
ATOM     57  N   UNL A   1      40.675  30.230  29.693  1.00  0.00    -0.354 N 
ATOM     58  C   UNL A   1      44.299  31.494  28.129  1.00  0.00     0.074 A 
ATOM     59  C   UNL A   1      44.071  31.175  26.740  1.00  0.00     0.031 C 
ATOM     60  C   UNL A   1      38.701  29.189  29.634  1.00  0.00     0.029 A 
ATOM     61  C   UNL A   1      39.348  30.440  30.004  1.00  0.00     0.049 A 
ATOM     62  H   UNL A   1      41.393  30.856  29.939  1.00  0.00     0.167 HD
ATOM     63  C   UNL A   1      44.942  32.565  28.669  1.00  0.00     0.037 A 
ATOM     64  C   UNL A   1      38.790  31.581  30.464  1.00  0.00     0.037 A 
ATOM     65  C   UNL A   1      45.136  32.481  30.084  1.00  0.00     0.049 A 
ATOM     66  C   UNL A   1      39.831  32.440  31.076  1.00  0.00     0.074 A 
ATOM     67  C   UNL A   1      45.892  31.695  30.927  1.00  0.00     0.029 A 
ATOM     68  N   UNL A   1      44.311  33.224  30.889  1.00  0.00    -0.354 N 
ATOM     69  N   UNL A   1      40.457  32.177  32.190  1.00  0.00    -0.248 NA
ATOM     70  C   UNL A   1      40.343  33.591  30.338  1.00  0.00     0.031 C 
ATOM     71  C   UNL A   1      45.244  31.739  32.195  1.00  0.00     0.029 A 
ATOM     72  C   UNL A   1      44.085  32.496  32.032  1.00  0.00     0.049 A 
ATOM     73  H   UNL A   1      43.948  34.115  30.684  1.00  0.00     0.167 HD
ATOM     74  C   UNL A   1      41.644  32.882  32.105  1.00  0.00     0.074 A 
ATOM     75  C   UNL A   1      41.430  33.867  31.061  1.00  0.00     0.031 C 
ATOM     76  C   UNL A   1      42.788  32.394  32.661  1.00  0.00     0.037 A 
BRANCH  63  77
ATOM     77  C   UNL A   1      45.264  33.819  27.916  1.00  0.00     0.064 A 
ATOM     78  C   UNL A   1      46.596  34.168  27.626  1.00  0.00     0.173 A 
ATOM     79  C   UNL A   1      44.290  34.803  27.661  1.00  0.00     0.173 A 
ATOM     80  F   UNL A   1      47.597  33.318  27.899  1.00  0.00    -0.203 F 
ATOM     81  C   UNL A   1      46.926  35.415  27.089  1.00  0.00     0.198 A 
ATOM     82  C   UNL A   1      44.616  36.034  27.092  1.00  0.00     0.198 A 
ATOM     83  F   UNL A   1      43.012  34.613  28.023  1.00  0.00    -0.203 F 
ATOM     84  F   UNL A   1      48.211  35.729  26.871  1.00  0.00    -0.200 F 
ATOM     85  C   UNL A   1      45.936  36.342  26.812  1.00  0.00     0.200 A 
ATOM     86  F   UNL A   1      43.653  36.935  26.859  1.00  0.00    -0.200 F 
ATOM     87  F   UNL A   1      46.253  37.542  26.308  1.00  0.00    -0.200 F 
ENDBRANCH  63  77
BRANCH  64  88
ATOM     88  C   UNL A   1      37.399  32.041  30.263  1.00  0.00     0.064 A 
ATOM     89  C   UNL A   1      36.420  31.871  31.252  1.00  0.00     0.173 A 
ATOM     90  C   UNL A   1      37.049  32.853  29.165  1.00  0.00     0.173 A 
ATOM     91  F   UNL A   1      36.692  31.164  32.358  1.00  0.00    -0.203 F 
ATOM     92  C   UNL A   1      35.162  32.471  31.145  1.00  0.00     0.198 A 
ATOM     93  C   UNL A   1      35.787  33.435  29.049  1.00  0.00     0.198 A 
ATOM     94  F   UNL A   1      37.953  33.160  28.223  1.00  0.00    -0.203 F 
ATOM     95  F   UNL A   1      34.267  32.327  32.133  1.00  0.00    -0.200 F 
ATOM     96  C   UNL A   1      34.846  33.251  30.044  1.00  0.00     0.200 A 
ATOM     97  F   UNL A   1      35.510  34.216  27.996  1.00  0.00    -0.200 F 
ATOM     98  F   UNL A   1      33.652  33.852  29.959  1.00  0.00    -0.200 F 
ENDBRANCH  64  88
BRANCH  76  99
ATOM     99  C   UNL A   1      42.634  31.393  33.762  1.00  0.00     0.064 A 
ATOM    100  C   UNL A   1      42.520  31.755  35.114  1.00  0.00     0.173 A 
ATOM    101  C   UNL A   1      42.485  30.040  33.431  1.00  0.00     0.173 A 
ATOM    102  F   UNL A   1      42.551  33.041  35.484  1.00  0.00    -0.203 F 
ATOM    103  C   UNL A   1      42.323  30.790  36.099  1.00  0.00     0.198 A 
ATOM    104  C   UNL A   1      42.256  29.082  34.415  1.00  0.00     0.198 A 
ATOM    105  F   UNL A   1      42.521  29.652  32.146  1.00  0.00    -0.203 F 
ATOM    106  F   UNL A   1      42.233  31.153  37.387  1.00  0.00    -0.200 F 
ATOM    107  C   UNL A   1      42.188  29.456  35.749  1.00  0.00     0.200 A 
ATOM    108  F   UNL A   1      42.077  27.799  34.070  1.00  0.00    -0.200 F 
ATOM    109  F   UNL A   1      41.963  28.532  36.693  1.00  0.00    -0.200 F 
ENDBRANCH  76  99
ENDBRANCH  50  51
ENDBRANCH  42  45
ENDBRANCH  40  41
ENDBRANCH  39  40
ENDBRANCH  38  39
ENDBRANCH  37  38
ENDBRANCH   1  37
TORSDOF 19
ENDMDL
