MODEL 1
REMARK VINA RESULT:     -13.1      0.000      0.000
REMARK SMILES Cc1ccc(-c2cc3cccnc3n2CCC(=O)NCCCCCCNC(=O)c2ccc(-c3c4nc(c(-c5c(F)c(F)c(F)c(F)c5F)c5ccc([nH]5)c(-c5c(F)c(F)c(F)c(F)c5F)c5nc(c(-c6c(F)c(F)c(F)c(F)c6F)c6ccc3[nH]6)C=C5)C=C4)cc2)cn1
REMARK SMILES IDX 22 1 21 2 20 3 19 4 17 5 18 6 16 8 15 9 14 10 6 11 7 12 8 13
REMARK SMILES IDX 13 14 9 15 12 16 10 17 11 18 5 19 1 20 2 21 3 22 93 23 4 24
REMARK SMILES IDX 92 25 23 26 24 27 25 28 26 29 27 30 28 32 29 33 30 34 91 35
REMARK SMILES IDX 31 36 90 37 32 38 33 39 34 40 84 41 35 42 89 43 83 44 85 45
REMARK SMILES IDX 36 46 88 47 82 48 81 49 37 51 69 52 49 53 68 54 50 55 53 56
REMARK SMILES IDX 67 57 86 58 51 59 52 60 66 62 87 63 54 64 38 65 39 66 47 67
REMARK SMILES IDX 40 68 41 69 45 70 48 71 42 72 43 73 46 74 44 75 70 76 71 77
REMARK SMILES IDX 79 78 72 79 73 80 77 81 80 82 74 83 75 84 78 85 76 86 55 87
REMARK SMILES IDX 56 88 64 89 57 90 58 91 62 92 65 93 59 94 60 95 63 96 61 97
REMARK H PARENT 19 7 26 31 85 50 53 61
REMARK Flexibility Score: inf
ROOT
ATOM      1  C   UNL A   1      36.701  22.227  24.031  1.00  0.00     0.002 C 
ENDROOT
BRANCH   1   2
ATOM      2  C   UNL A   1      36.201  23.647  24.270  1.00  0.00     0.021 C 
BRANCH   2   3
ATOM      3  C   UNL A   1      35.953  24.109  25.703  1.00  0.00     0.116 C 
BRANCH   3   4
ATOM      4  N   UNL A   1      34.564  24.465  25.932  1.00  0.00    -0.356 N 
ATOM      5  C   UNL A   1      33.463  23.689  26.136  1.00  0.00     0.221 C 
ATOM      6  O   UNL A   1      32.385  24.263  26.320  1.00  0.00    -0.275 OA
ATOM      7  H   UNL A   1      34.387  25.433  25.941  1.00  0.00     0.163 HD
BRANCH   5   8
ATOM      8  C   UNL A   1      33.520  22.175  26.127  1.00  0.00     0.122 C 
BRANCH   8   9
ATOM      9  C   UNL A   1      32.196  21.462  25.811  1.00  0.00     0.134 C 
BRANCH   9  10
ATOM     10  N   UNL A   1      32.168  20.776  24.527  1.00  0.00    -0.325 N 
ATOM     11  C   UNL A   1      32.048  21.287  23.231  1.00  0.00     0.052 A 
ATOM     12  C   UNL A   1      32.153  20.161  22.395  1.00  0.00     0.039 A 
ATOM     13  C   UNL A   1      32.472  19.018  23.170  1.00  0.00     0.020 A 
ATOM     14  C   UNL A   1      32.369  19.407  24.491  1.00  0.00     0.140 A 
ATOM     15  C   UNL A   1      32.905  17.705  22.911  1.00  0.00     0.013 A 
ATOM     16  N   UNL A   1      32.553  18.625  25.577  1.00  0.00    -0.238 NA
ATOM     17  C   UNL A   1      33.150  16.873  24.005  1.00  0.00     0.021 A 
ATOM     18  C   UNL A   1      32.930  17.365  25.282  1.00  0.00     0.113 A 
BRANCH  11  19
ATOM     19  C   UNL A   1      32.156  22.712  22.774  1.00  0.00     0.017 A 
ATOM     20  C   UNL A   1      33.134  26.881  22.337  1.00  0.00     0.066 C 
ATOM     21  C   UNL A   1      32.769  25.431  22.453  1.00  0.00     0.037 A 
ATOM     22  C   UNL A   1      31.549  25.068  22.986  1.00  0.00     0.024 A 
ATOM     23  N   UNL A   1      33.651  24.509  22.008  1.00  0.00    -0.261 NA
ATOM     24  C   UNL A   1      31.249  23.711  23.122  1.00  0.00     0.014 A 
ATOM     25  C   UNL A   1      33.325  23.195  22.177  1.00  0.00     0.121 A 
ENDBRANCH  11  19
ENDBRANCH   9  10
ENDBRANCH   8   9
ENDBRANCH   5   8
ENDBRANCH   3   4
ENDBRANCH   2   3
ENDBRANCH   1   2
BRANCH   1  26
ATOM     26  C   UNL A   1      37.030  21.426  25.288  1.00  0.00     0.002 C 
BRANCH  26  27
ATOM     27  C   UNL A   1      38.512  21.101  25.497  1.00  0.00     0.021 C 
BRANCH  27  28
ATOM     28  C   UNL A   1      39.283  22.202  26.206  1.00  0.00     0.116 C 
BRANCH  28  29
ATOM     29  N   UNL A   1      40.721  22.018  26.081  1.00  0.00    -0.352 N 
ATOM     30  C   UNL A   1      41.711  22.973  26.126  1.00  0.00     0.251 C 
ATOM     31  H   UNL A   1      41.026  21.091  25.949  1.00  0.00     0.163 HD
ATOM     32  O   UNL A   1      42.822  22.743  25.682  1.00  0.00    -0.269 OA
BRANCH  30  33
ATOM     33  C   UNL A   1      41.427  24.264  26.782  1.00  0.00     0.039 A 
ATOM     34  C   UNL A   1      40.701  25.253  26.107  1.00  0.00     0.014 A 
ATOM     35  C   UNL A   1      42.004  24.524  28.028  1.00  0.00     0.014 A 
ATOM     36  C   UNL A   1      40.588  26.513  26.682  1.00  0.00     0.010 A 
ATOM     37  C   UNL A   1      41.807  25.728  28.643  1.00  0.00     0.010 A 
ATOM     38  C   UNL A   1      41.178  26.739  27.929  1.00  0.00    -0.014 A 
BRANCH  38  39
ATOM     39  C   UNL A   1      41.148  28.042  28.559  1.00  0.00     0.031 A 
ATOM     40  C   UNL A   1      42.213  28.963  28.097  1.00  0.00     0.074 A 
ATOM     41  C   UNL A   1      40.070  28.434  29.267  1.00  0.00     0.049 A 
ATOM     42  N   UNL A   1      43.192  29.448  28.784  1.00  0.00    -0.248 NA
ATOM     43  C   UNL A   1      42.284  29.267  26.658  1.00  0.00     0.031 C 
ATOM     44  C   UNL A   1      38.804  27.721  29.475  1.00  0.00     0.029 A 
ATOM     45  N   UNL A   1      39.843  29.627  29.876  1.00  0.00    -0.354 N 
ATOM     46  C   UNL A   1      43.893  30.273  27.910  1.00  0.00     0.074 A 
ATOM     47  C   UNL A   1      43.425  29.954  26.588  1.00  0.00     0.031 C 
ATOM     48  C   UNL A   1      37.882  28.571  29.981  1.00  0.00     0.029 A 
ATOM     49  C   UNL A   1      38.526  29.841  30.265  1.00  0.00     0.049 A 
ATOM     50  H   UNL A   1      40.557  30.288  30.030  1.00  0.00     0.167 HD
ATOM     51  C   UNL A   1      44.608  31.337  28.367  1.00  0.00     0.037 A 
ATOM     52  C   UNL A   1      38.020  31.010  30.732  1.00  0.00     0.037 A 
ATOM     53  C   UNL A   1      44.832  31.235  29.787  1.00  0.00     0.049 A 
ATOM     54  C   UNL A   1      39.176  31.838  31.171  1.00  0.00     0.074 A 
ATOM     55  C   UNL A   1      45.488  30.330  30.599  1.00  0.00     0.029 A 
ATOM     56  N   UNL A   1      43.998  31.943  30.618  1.00  0.00    -0.354 N 
ATOM     57  N   UNL A   1      39.938  31.536  32.185  1.00  0.00    -0.248 NA
ATOM     58  C   UNL A   1      39.768  32.734  30.189  1.00  0.00     0.031 C 
ATOM     59  C   UNL A   1      44.667  30.214  31.762  1.00  0.00     0.029 A 
ATOM     60  C   UNL A   1      43.600  31.102  31.628  1.00  0.00     0.049 A 
ATOM     61  H   UNL A   1      43.733  32.884  30.509  1.00  0.00     0.167 HD
ATOM     62  C   UNL A   1      41.225  31.844  31.766  1.00  0.00     0.074 A 
ATOM     63  C   UNL A   1      41.049  32.647  30.558  1.00  0.00     0.031 C 
ATOM     64  C   UNL A   1      42.305  31.173  32.267  1.00  0.00     0.037 A 
BRANCH  51  65
ATOM     65  C   UNL A   1      44.788  32.630  27.608  1.00  0.00     0.064 A 
ATOM     66  C   UNL A   1      45.958  32.821  26.847  1.00  0.00     0.173 A 
ATOM     67  C   UNL A   1      44.000  33.786  27.806  1.00  0.00     0.173 A 
ATOM     68  F   UNL A   1      46.797  31.800  26.617  1.00  0.00    -0.203 F 
ATOM     69  C   UNL A   1      46.335  34.081  26.375  1.00  0.00     0.198 A 
ATOM     70  C   UNL A   1      44.348  35.029  27.283  1.00  0.00     0.198 A 
ATOM     71  F   UNL A   1      42.924  33.793  28.601  1.00  0.00    -0.203 F 
ATOM     72  F   UNL A   1      47.516  34.234  25.760  1.00  0.00    -0.200 F 
ATOM     73  C   UNL A   1      45.531  35.185  26.594  1.00  0.00     0.200 A 
ATOM     74  F   UNL A   1      43.563  36.088  27.525  1.00  0.00    -0.200 F 
ATOM     75  F   UNL A   1      45.916  36.402  26.189  1.00  0.00    -0.200 F 
ENDBRANCH  51  65
BRANCH  52  76
ATOM     76  C   UNL A   1      36.681  31.603  30.488  1.00  0.00     0.064 A 
ATOM     77  C   UNL A   1      35.852  31.975  31.561  1.00  0.00     0.173 A 
ATOM     78  C   UNL A   1      36.318  32.095  29.219  1.00  0.00     0.173 A 
ATOM     79  F   UNL A   1      36.150  31.584  32.808  1.00  0.00    -0.203 F 
ATOM     80  C   UNL A   1      34.753  32.822  31.381  1.00  0.00     0.198 A 
ATOM     81  C   UNL A   1      35.218  32.936  29.041  1.00  0.00     0.198 A 
ATOM     82  F   UNL A   1      37.083  31.856  28.144  1.00  0.00    -0.203 F 
ATOM     83  F   UNL A   1      34.030  33.213  32.440  1.00  0.00    -0.200 F 
ATOM     84  C   UNL A   1      34.445  33.313  30.123  1.00  0.00     0.200 A 
ATOM     85  F   UNL A   1      34.955  33.436  27.825  1.00  0.00    -0.200 F 
ATOM     86  F   UNL A   1      33.438  34.182  29.961  1.00  0.00    -0.200 F 
ENDBRANCH  52  76
BRANCH  64  87
ATOM     87  C   UNL A   1      42.071  30.264  33.447  1.00  0.00     0.064 A 
ATOM     88  C   UNL A   1      41.735  28.902  33.340  1.00  0.00     0.173 A 
ATOM     89  C   UNL A   1      42.322  30.758  34.733  1.00  0.00     0.173 A 
ATOM     90  F   UNL A   1      41.581  28.322  32.146  1.00  0.00    -0.203 F 
ATOM     91  C   UNL A   1      41.606  28.092  34.468  1.00  0.00     0.198 A 
ATOM     92  C   UNL A   1      42.231  29.938  35.855  1.00  0.00     0.198 A 
ATOM     93  F   UNL A   1      42.703  32.034  34.897  1.00  0.00    -0.203 F 
ATOM     94  F   UNL A   1      41.267  26.800  34.334  1.00  0.00    -0.200 F 
ATOM     95  C   UNL A   1      41.860  28.610  35.725  1.00  0.00     0.200 A 
ATOM     96  F   UNL A   1      42.527  30.433  37.064  1.00  0.00    -0.200 F 
ATOM     97  F   UNL A   1      41.775  27.824  36.808  1.00  0.00    -0.200 F 
ENDBRANCH  64  87
ENDBRANCH  38  39
ENDBRANCH  30  33
ENDBRANCH  28  29
ENDBRANCH  27  28
ENDBRANCH  26  27
ENDBRANCH   1  26
TORSDOF 16
ENDMDL
MODEL 2
REMARK VINA RESULT:     -13.0      0.881      2.740
REMARK SMILES Cc1ccc(-c2cc3cccnc3n2CCC(=O)NCCCCCCNC(=O)c2ccc(-c3c4nc(c(-c5c(F)c(F)c(F)c(F)c5F)c5ccc([nH]5)c(-c5c(F)c(F)c(F)c(F)c5F)c5nc(c(-c6c(F)c(F)c(F)c(F)c6F)c6ccc3[nH]6)C=C5)C=C4)cc2)cn1
REMARK SMILES IDX 22 1 21 2 20 3 19 4 17 5 18 6 16 8 15 9 14 10 6 11 7 12 8 13
REMARK SMILES IDX 13 14 9 15 12 16 10 17 11 18 5 19 1 20 2 21 3 22 93 23 4 24
REMARK SMILES IDX 92 25 23 26 24 27 25 28 26 29 27 30 28 32 29 33 30 34 91 35
REMARK SMILES IDX 31 36 90 37 32 38 33 39 34 40 84 41 35 42 89 43 83 44 85 45
REMARK SMILES IDX 36 46 88 47 82 48 81 49 37 51 69 52 49 53 68 54 50 55 53 56
REMARK SMILES IDX 67 57 86 58 51 59 52 60 66 62 87 63 54 64 38 65 39 66 47 67
REMARK SMILES IDX 40 68 41 69 45 70 48 71 42 72 43 73 46 74 44 75 70 76 71 77
REMARK SMILES IDX 79 78 72 79 73 80 77 81 80 82 74 83 75 84 78 85 76 86 55 87
REMARK SMILES IDX 56 88 64 89 57 90 58 91 62 92 65 93 59 94 60 95 63 96 61 97
REMARK H PARENT 19 7 26 31 85 50 53 61
REMARK Flexibility Score: inf
ROOT
ATOM      1  C   UNL A   1      37.117  21.895  24.666  1.00  0.00     0.002 C 
ENDROOT
BRANCH   1   2
ATOM      2  C   UNL A   1      36.843  23.392  24.748  1.00  0.00     0.021 C 
BRANCH   2   3
ATOM      3  C   UNL A   1      35.791  23.895  25.731  1.00  0.00     0.116 C 
BRANCH   3   4
ATOM      4  N   UNL A   1      35.323  22.844  26.618  1.00  0.00    -0.356 N 
ATOM      5  C   UNL A   1      34.096  22.614  27.164  1.00  0.00     0.221 C 
ATOM      6  O   UNL A   1      33.969  21.621  27.888  1.00  0.00    -0.275 OA
ATOM      7  H   UNL A   1      36.009  22.184  26.866  1.00  0.00     0.163 HD
BRANCH   5   8
ATOM      8  C   UNL A   1      32.915  23.533  26.929  1.00  0.00     0.122 C 
BRANCH   8   9
ATOM      9  C   UNL A   1      31.956  23.108  25.805  1.00  0.00     0.134 C 
BRANCH   9  10
ATOM     10  N   UNL A   1      32.518  23.193  24.465  1.00  0.00    -0.325 N 
ATOM     11  C   UNL A   1      33.065  22.199  23.648  1.00  0.00     0.052 A 
ATOM     12  C   UNL A   1      33.377  22.858  22.447  1.00  0.00     0.039 A 
ATOM     13  C   UNL A   1      32.894  24.190  22.492  1.00  0.00     0.020 A 
ATOM     14  C   UNL A   1      32.465  24.400  23.789  1.00  0.00     0.140 A 
ATOM     15  C   UNL A   1      32.704  25.233  21.568  1.00  0.00     0.013 A 
ATOM     16  N   UNL A   1      31.960  25.546  24.294  1.00  0.00    -0.238 NA
ATOM     17  C   UNL A   1      32.144  26.424  22.036  1.00  0.00     0.021 A 
ATOM     18  C   UNL A   1      31.830  26.531  23.382  1.00  0.00     0.113 A 
BRANCH  11  19
ATOM     19  C   UNL A   1      33.011  20.710  23.825  1.00  0.00     0.017 A 
ATOM     20  C   UNL A   1      33.742  16.470  23.672  1.00  0.00     0.066 C 
ATOM     21  C   UNL A   1      33.454  17.939  23.753  1.00  0.00     0.037 A 
ATOM     22  C   UNL A   1      32.439  18.486  22.993  1.00  0.00     0.024 A 
ATOM     23  N   UNL A   1      34.196  18.694  24.593  1.00  0.00    -0.261 NA
ATOM     24  C   UNL A   1      32.217  19.863  23.054  1.00  0.00     0.014 A 
ATOM     25  C   UNL A   1      33.958  20.038  24.606  1.00  0.00     0.121 A 
ENDBRANCH  11  19
ENDBRANCH   9  10
ENDBRANCH   8   9
ENDBRANCH   5   8
ENDBRANCH   3   4
ENDBRANCH   2   3
ENDBRANCH   1   2
BRANCH   1  26
ATOM     26  C   UNL A   1      38.335  21.406  25.445  1.00  0.00     0.002 C 
BRANCH  26  27
ATOM     27  C   UNL A   1      39.049  22.466  26.291  1.00  0.00     0.021 C 
BRANCH  27  28
ATOM     28  C   UNL A   1      40.231  21.924  27.076  1.00  0.00     0.116 C 
BRANCH  28  29
ATOM     29  N   UNL A   1      41.480  22.086  26.349  1.00  0.00    -0.352 N 
ATOM     30  C   UNL A   1      42.104  23.253  25.972  1.00  0.00     0.251 C 
ATOM     31  H   UNL A   1      41.939  21.253  26.093  1.00  0.00     0.163 HD
ATOM     32  O   UNL A   1      42.950  23.256  25.095  1.00  0.00    -0.269 OA
BRANCH  30  33
ATOM     33  C   UNL A   1      41.782  24.498  26.696  1.00  0.00     0.039 A 
ATOM     34  C   UNL A   1      40.976  25.474  26.096  1.00  0.00     0.014 A 
ATOM     35  C   UNL A   1      42.400  24.738  27.926  1.00  0.00     0.014 A 
ATOM     36  C   UNL A   1      40.823  26.701  26.729  1.00  0.00     0.010 A 
ATOM     37  C   UNL A   1      42.168  25.903  28.602  1.00  0.00     0.010 A 
ATOM     38  C   UNL A   1      41.455  26.907  27.959  1.00  0.00    -0.014 A 
BRANCH  38  39
ATOM     39  C   UNL A   1      41.385  28.179  28.646  1.00  0.00     0.031 A 
ATOM     40  C   UNL A   1      42.446  29.137  28.257  1.00  0.00     0.074 A 
ATOM     41  C   UNL A   1      40.281  28.521  29.340  1.00  0.00     0.049 A 
ATOM     42  N   UNL A   1      43.397  29.607  28.993  1.00  0.00    -0.248 NA
ATOM     43  C   UNL A   1      42.552  29.508  26.835  1.00  0.00     0.031 C 
ATOM     44  C   UNL A   1      39.022  27.779  29.480  1.00  0.00     0.029 A 
ATOM     45  N   UNL A   1      40.016  29.681  29.996  1.00  0.00    -0.354 N 
ATOM     46  C   UNL A   1      44.107  30.482  28.177  1.00  0.00     0.074 A 
ATOM     47  C   UNL A   1      43.682  30.216  26.829  1.00  0.00     0.031 C 
ATOM     48  C   UNL A   1      38.072  28.590  29.997  1.00  0.00     0.029 A 
ATOM     49  C   UNL A   1      38.685  29.856  30.356  1.00  0.00     0.049 A 
ATOM     50  H   UNL A   1      40.714  30.346  30.200  1.00  0.00     0.167 HD
ATOM     51  C   UNL A   1      44.791  31.536  28.702  1.00  0.00     0.037 A 
ATOM     52  C   UNL A   1      38.146  30.994  30.861  1.00  0.00     0.037 A 
ATOM     53  C   UNL A   1      44.977  31.373  30.122  1.00  0.00     0.049 A 
ATOM     54  C   UNL A   1      39.275  31.819  31.370  1.00  0.00     0.074 A 
ATOM     55  C   UNL A   1      45.626  30.443  30.911  1.00  0.00     0.029 A 
ATOM     56  N   UNL A   1      44.108  32.028  30.960  1.00  0.00    -0.354 N 
ATOM     57  N   UNL A   1      40.014  31.484  32.391  1.00  0.00    -0.248 NA
ATOM     58  C   UNL A   1      39.879  32.769  30.446  1.00  0.00     0.031 C 
ATOM     59  C   UNL A   1      44.775  30.260  32.043  1.00  0.00     0.029 A 
ATOM     60  C   UNL A   1      43.697  31.136  31.919  1.00  0.00     0.049 A 
ATOM     61  H   UNL A   1      43.829  32.969  30.885  1.00  0.00     0.167 HD
ATOM     62  C   UNL A   1      41.307  31.832  32.023  1.00  0.00     0.074 A 
ATOM     63  C   UNL A   1      41.150  32.686  30.848  1.00  0.00     0.031 C 
ATOM     64  C   UNL A   1      42.384  31.157  32.523  1.00  0.00     0.037 A 
BRANCH  51  65
ATOM     65  C   UNL A   1      44.969  32.864  28.008  1.00  0.00     0.064 A 
ATOM     66  C   UNL A   1      46.251  33.237  27.559  1.00  0.00     0.173 A 
ATOM     67  C   UNL A   1      44.003  33.895  28.000  1.00  0.00     0.173 A 
ATOM     68  F   UNL A   1      47.256  32.348  27.547  1.00  0.00    -0.203 F 
ATOM     69  C   UNL A   1      46.553  34.552  27.192  1.00  0.00     0.198 A 
ATOM     70  C   UNL A   1      44.292  35.190  27.576  1.00  0.00     0.198 A 
ATOM     71  F   UNL A   1      42.774  33.731  28.505  1.00  0.00    -0.203 F 
ATOM     72  F   UNL A   1      47.815  34.883  26.888  1.00  0.00    -0.200 F 
ATOM     73  C   UNL A   1      45.574  35.527  27.202  1.00  0.00     0.200 A 
ATOM     74  F   UNL A   1      43.331  36.125  27.613  1.00  0.00    -0.200 F 
ATOM     75  F   UNL A   1      45.872  36.798  26.901  1.00  0.00    -0.200 F 
ENDBRANCH  51  65
BRANCH  52  76
ATOM     76  C   UNL A   1      36.804  31.575  30.606  1.00  0.00     0.064 A 
ATOM     77  C   UNL A   1      35.946  31.899  31.671  1.00  0.00     0.173 A 
ATOM     78  C   UNL A   1      36.464  32.105  29.346  1.00  0.00     0.173 A 
ATOM     79  F   UNL A   1      36.221  31.469  32.911  1.00  0.00    -0.203 F 
ATOM     80  C   UNL A   1      34.838  32.735  31.495  1.00  0.00     0.198 A 
ATOM     81  C   UNL A   1      35.355  32.936  29.171  1.00  0.00     0.198 A 
ATOM     82  F   UNL A   1      37.256  31.915  28.282  1.00  0.00    -0.203 F 
ATOM     83  F   UNL A   1      34.085  33.080  32.549  1.00  0.00    -0.200 F 
ATOM     84  C   UNL A   1      34.552  33.264  30.247  1.00  0.00     0.200 A 
ATOM     85  F   UNL A   1      35.112  33.473  27.967  1.00  0.00    -0.200 F 
ATOM     86  F   UNL A   1      33.535  34.124  30.091  1.00  0.00    -0.200 F 
ENDBRANCH  52  76
BRANCH  64  87
ATOM     87  C   UNL A   1      42.133  30.191  33.654  1.00  0.00     0.064 A 
ATOM     88  C   UNL A   1      41.790  28.838  33.476  1.00  0.00     0.173 A 
ATOM     89  C   UNL A   1      42.376  30.618  34.965  1.00  0.00     0.173 A 
ATOM     90  F   UNL A   1      41.642  28.320  32.252  1.00  0.00    -0.203 F 
ATOM     91  C   UNL A   1      41.644  27.973  34.560  1.00  0.00     0.198 A 
ATOM     92  C   UNL A   1      42.269  29.744  36.044  1.00  0.00     0.198 A 
ATOM     93  F   UNL A   1      42.763  31.882  35.197  1.00  0.00    -0.203 F 
ATOM     94  F   UNL A   1      41.298  26.693  34.359  1.00  0.00    -0.200 F 
ATOM     95  C   UNL A   1      41.891  28.426  35.843  1.00  0.00     0.200 A 
ATOM     96  F   UNL A   1      42.557  30.175  37.279  1.00  0.00    -0.200 F 
ATOM     97  F   UNL A   1      41.790  27.588  36.885  1.00  0.00    -0.200 F 
ENDBRANCH  64  87
ENDBRANCH  38  39
ENDBRANCH  30  33
ENDBRANCH  28  29
ENDBRANCH  27  28
ENDBRANCH  26  27
ENDBRANCH   1  26
TORSDOF 16
ENDMDL
MODEL 3
REMARK VINA RESULT:     -13.0      1.797      3.714
REMARK SMILES Cc1ccc(-c2cc3cccnc3n2CCC(=O)NCCCCCCNC(=O)c2ccc(-c3c4nc(c(-c5c(F)c(F)c(F)c(F)c5F)c5ccc([nH]5)c(-c5c(F)c(F)c(F)c(F)c5F)c5nc(c(-c6c(F)c(F)c(F)c(F)c6F)c6ccc3[nH]6)C=C5)C=C4)cc2)cn1
REMARK SMILES IDX 22 1 21 2 20 3 19 4 17 5 18 6 16 8 15 9 14 10 6 11 7 12 8 13
REMARK SMILES IDX 13 14 9 15 12 16 10 17 11 18 5 19 1 20 2 21 3 22 93 23 4 24
REMARK SMILES IDX 92 25 23 26 24 27 25 28 26 29 27 30 28 32 29 33 30 34 91 35
REMARK SMILES IDX 31 36 90 37 32 38 33 39 34 40 84 41 35 42 89 43 83 44 85 45
REMARK SMILES IDX 36 46 88 47 82 48 81 49 37 51 69 52 49 53 68 54 50 55 53 56
REMARK SMILES IDX 67 57 86 58 51 59 52 60 66 62 87 63 54 64 38 65 39 66 47 67
REMARK SMILES IDX 40 68 41 69 45 70 48 71 42 72 43 73 46 74 44 75 70 76 71 77
REMARK SMILES IDX 79 78 72 79 73 80 77 81 80 82 74 83 75 84 78 85 76 86 55 87
REMARK SMILES IDX 56 88 64 89 57 90 58 91 62 92 65 93 59 94 60 95 63 96 61 97
REMARK H PARENT 19 7 26 31 85 50 53 61
REMARK Flexibility Score: inf
ROOT
ATOM      1  C   UNL A   1      36.471  23.017  24.010  1.00  0.00     0.002 C 
ENDROOT
BRANCH   1   2
ATOM      2  C   UNL A   1      35.079  23.136  23.400  1.00  0.00     0.021 C 
BRANCH   2   3
ATOM      3  C   UNL A   1      34.367  24.484  23.448  1.00  0.00     0.116 C 
BRANCH   3   4
ATOM      4  N   UNL A   1      33.464  24.668  22.324  1.00  0.00    -0.356 N 
ATOM      5  C   UNL A   1      32.915  25.795  21.792  1.00  0.00     0.221 C 
ATOM      6  O   UNL A   1      32.177  25.663  20.811  1.00  0.00    -0.275 OA
ATOM      7  H   UNL A   1      33.206  23.834  21.869  1.00  0.00     0.163 HD
BRANCH   5   8
ATOM      8  C   UNL A   1      33.165  27.173  22.369  1.00  0.00     0.122 C 
BRANCH   8   9
ATOM      9  C   UNL A   1      32.381  27.511  23.647  1.00  0.00     0.134 C 
BRANCH   9  10
ATOM     10  N   UNL A   1      30.951  27.246  23.568  1.00  0.00    -0.325 N 
ATOM     11  C   UNL A   1      30.202  26.168  24.050  1.00  0.00     0.052 A 
ATOM     12  C   UNL A   1      28.871  26.494  23.738  1.00  0.00     0.039 A 
ATOM     13  C   UNL A   1      28.810  27.807  23.208  1.00  0.00     0.020 A 
ATOM     14  C   UNL A   1      30.119  28.204  23.014  1.00  0.00     0.140 A 
ATOM     15  C   UNL A   1      27.798  28.742  22.927  1.00  0.00     0.013 A 
ATOM     16  N   UNL A   1      30.535  29.378  22.491  1.00  0.00    -0.238 NA
ATOM     17  C   UNL A   1      28.184  29.987  22.424  1.00  0.00     0.021 A 
ATOM     18  C   UNL A   1      29.531  30.230  22.201  1.00  0.00     0.113 A 
BRANCH  11  19
ATOM     19  C   UNL A   1      30.625  25.088  25.001  1.00  0.00     0.017 A 
ATOM     20  C   UNL A   1      32.837  22.427  27.563  1.00  0.00     0.066 C 
ATOM     21  C   UNL A   1      32.029  23.334  26.683  1.00  0.00     0.037 A 
ATOM     22  C   UNL A   1      31.628  22.903  25.434  1.00  0.00     0.024 A 
ATOM     23  N   UNL A   1      31.697  24.556  27.151  1.00  0.00    -0.261 NA
ATOM     24  C   UNL A   1      30.913  23.780  24.616  1.00  0.00     0.014 A 
ATOM     25  C   UNL A   1      31.014  25.387  26.311  1.00  0.00     0.121 A 
ENDBRANCH  11  19
ENDBRANCH   9  10
ENDBRANCH   8   9
ENDBRANCH   5   8
ENDBRANCH   3   4
ENDBRANCH   2   3
ENDBRANCH   1   2
BRANCH   1  26
ATOM     26  C   UNL A   1      36.646  21.897  25.033  1.00  0.00     0.002 C 
BRANCH  26  27
ATOM     27  C   UNL A   1      38.082  21.405  25.236  1.00  0.00     0.021 C 
BRANCH  27  28
ATOM     28  C   UNL A   1      38.900  22.280  26.171  1.00  0.00     0.116 C 
BRANCH  28  29
ATOM     29  N   UNL A   1      40.326  22.034  26.028  1.00  0.00    -0.352 N 
ATOM     30  C   UNL A   1      41.359  22.941  26.093  1.00  0.00     0.251 C 
ATOM     31  H   UNL A   1      40.587  21.099  25.864  1.00  0.00     0.163 HD
ATOM     32  O   UNL A   1      42.456  22.675  25.632  1.00  0.00    -0.269 OA
BRANCH  30  33
ATOM     33  C   UNL A   1      41.140  24.222  26.792  1.00  0.00     0.039 A 
ATOM     34  C   UNL A   1      40.325  25.207  26.220  1.00  0.00     0.014 A 
ATOM     35  C   UNL A   1      41.860  24.480  27.962  1.00  0.00     0.014 A 
ATOM     36  C   UNL A   1      40.267  26.461  26.816  1.00  0.00     0.010 A 
ATOM     37  C   UNL A   1      41.724  25.676  28.609  1.00  0.00     0.010 A 
ATOM     38  C   UNL A   1      41.000  26.684  27.986  1.00  0.00    -0.014 A 
BRANCH  38  39
ATOM     39  C   UNL A   1      41.030  27.981  28.628  1.00  0.00     0.031 A 
ATOM     40  C   UNL A   1      42.114  28.869  28.150  1.00  0.00     0.074 A 
ATOM     41  C   UNL A   1      39.982  28.403  29.365  1.00  0.00     0.049 A 
ATOM     42  N   UNL A   1      43.126  29.314  28.818  1.00  0.00    -0.248 NA
ATOM     43  C   UNL A   1      42.163  29.185  26.712  1.00  0.00     0.031 C 
ATOM     44  C   UNL A   1      38.698  27.731  29.597  1.00  0.00     0.029 A 
ATOM     45  N   UNL A   1      39.811  29.596  29.990  1.00  0.00    -0.354 N 
ATOM     46  C   UNL A   1      43.833  30.123  27.935  1.00  0.00     0.074 A 
ATOM     47  C   UNL A   1      43.325  29.833  26.622  1.00  0.00     0.031 C 
ATOM     48  C   UNL A   1      37.818  28.608  30.132  1.00  0.00     0.029 A 
ATOM     49  C   UNL A   1      38.511  29.851  30.412  1.00  0.00     0.049 A 
ATOM     50  H   UNL A   1      40.550  30.231  30.134  1.00  0.00     0.167 HD
ATOM     51  C   UNL A   1      44.595  31.158  28.385  1.00  0.00     0.037 A 
ATOM     52  C   UNL A   1      38.056  31.033  30.901  1.00  0.00     0.037 A 
ATOM     53  C   UNL A   1      44.848  31.034  29.798  1.00  0.00     0.049 A 
ATOM     54  C   UNL A   1      39.251  31.816  31.321  1.00  0.00     0.074 A 
ATOM     55  C   UNL A   1      45.492  30.099  30.587  1.00  0.00     0.029 A 
ATOM     56  N   UNL A   1      44.059  31.762  30.656  1.00  0.00    -0.354 N 
ATOM     57  N   UNL A   1      40.025  31.478  32.314  1.00  0.00    -0.248 NA
ATOM     58  C   UNL A   1      39.850  32.701  30.333  1.00  0.00     0.031 C 
ATOM     59  C   UNL A   1      44.695  29.999  31.768  1.00  0.00     0.029 A 
ATOM     60  C   UNL A   1      43.656  30.925  31.667  1.00  0.00     0.049 A 
ATOM     61  H   UNL A   1      43.824  32.712  30.561  1.00  0.00     0.167 HD
ATOM     62  C   UNL A   1      41.312  31.746  31.868  1.00  0.00     0.074 A 
ATOM     63  C   UNL A   1      41.136  32.567  30.671  1.00  0.00     0.031 C 
ATOM     64  C   UNL A   1      42.379  31.034  32.336  1.00  0.00     0.037 A 
BRANCH  51  65
ATOM     65  C   UNL A   1      44.802  32.450  27.634  1.00  0.00     0.064 A 
ATOM     66  C   UNL A   1      45.982  32.627  26.885  1.00  0.00     0.173 A 
ATOM     67  C   UNL A   1      44.030  33.618  27.830  1.00  0.00     0.173 A 
ATOM     68  F   UNL A   1      46.808  31.595  26.658  1.00  0.00    -0.203 F 
ATOM     69  C   UNL A   1      46.383  33.884  26.423  1.00  0.00     0.198 A 
ATOM     70  C   UNL A   1      44.402  34.858  27.316  1.00  0.00     0.198 A 
ATOM     71  F   UNL A   1      42.947  33.638  28.615  1.00  0.00    -0.203 F 
ATOM     72  F   UNL A   1      47.571  34.022  25.819  1.00  0.00    -0.200 F 
ATOM     73  C   UNL A   1      45.594  34.999  26.639  1.00  0.00     0.200 A 
ATOM     74  F   UNL A   1      43.631  35.928  27.555  1.00  0.00    -0.200 F 
ATOM     75  F   UNL A   1      46.000  36.211  26.243  1.00  0.00    -0.200 F 
ENDBRANCH  51  65
BRANCH  52  76
ATOM     76  C   UNL A   1      36.734  31.673  30.694  1.00  0.00     0.064 A 
ATOM     77  C   UNL A   1      35.889  31.948  31.784  1.00  0.00     0.173 A 
ATOM     78  C   UNL A   1      36.407  32.301  29.477  1.00  0.00     0.173 A 
ATOM     79  F   UNL A   1      36.153  31.424  32.989  1.00  0.00    -0.203 F 
ATOM     80  C   UNL A   1      34.808  32.830  31.672  1.00  0.00     0.198 A 
ATOM     81  C   UNL A   1      35.325  33.177  29.365  1.00  0.00     0.198 A 
ATOM     82  F   UNL A   1      37.190  32.161  28.398  1.00  0.00    -0.203 F 
ATOM     83  F   UNL A   1      34.070  33.124  32.752  1.00  0.00    -0.200 F 
ATOM     84  C   UNL A   1      34.536  33.455  30.466  1.00  0.00     0.200 A 
ATOM     85  F   UNL A   1      35.096  33.805  28.203  1.00  0.00    -0.200 F 
ATOM     86  F   UNL A   1      33.547  34.355  30.376  1.00  0.00    -0.200 F 
ENDBRANCH  52  76
BRANCH  64  87
ATOM     87  C   UNL A   1      42.142  30.122  33.513  1.00  0.00     0.064 A 
ATOM     88  C   UNL A   1      41.776  28.767  33.402  1.00  0.00     0.173 A 
ATOM     89  C   UNL A   1      42.420  30.601  34.799  1.00  0.00     0.173 A 
ATOM     90  F   UNL A   1      41.593  28.199  32.206  1.00  0.00    -0.203 F 
ATOM     91  C   UNL A   1      41.643  27.952  34.526  1.00  0.00     0.198 A 
ATOM     92  C   UNL A   1      42.327  29.775  35.917  1.00  0.00     0.198 A 
ATOM     93  F   UNL A   1      42.831  31.867  34.967  1.00  0.00    -0.203 F 
ATOM     94  F   UNL A   1      41.275  26.669  34.388  1.00  0.00    -0.200 F 
ATOM     95  C   UNL A   1      41.926  28.456  35.782  1.00  0.00     0.200 A 
ATOM     96  F   UNL A   1      42.649  30.255  37.125  1.00  0.00    -0.200 F 
ATOM     97  F   UNL A   1      41.838  27.665  36.861  1.00  0.00    -0.200 F 
ENDBRANCH  64  87
ENDBRANCH  38  39
ENDBRANCH  30  33
ENDBRANCH  28  29
ENDBRANCH  27  28
ENDBRANCH  26  27
ENDBRANCH   1  26
TORSDOF 16
ENDMDL
