MODEL 1
REMARK VINA RESULT:     -13.5      0.000      0.000
REMARK SMILES Cc1cccc(-c2ccccc2C(=O)N2CC[C@H](O)C[C@@H]2C(=O)NCCCCCCNC(=O)c2ccc(-c3c4nc(c(-c5c(F)c(F)c(F)c(F)c5F)c5ccc([nH]5)c(-c5c(F)c(F)c(F)c(F)c5F)c5nc(c(-c6c(F)c(F)c(F)c(F)c6F)c6ccc3[nH]6)C=C5)C=C4)cc2)c1
REMARK SMILES IDX 27 1 26 2 25 3 24 4 22 5 23 6 21 8 15 9 16 10 17 11 20 12
REMARK SMILES IDX 18 13 13 14 14 15 12 16 7 17 8 18 9 19 11 20 10 21 6 22 1 23
REMARK SMILES IDX 2 24 3 25 97 26 4 27 5 28 19 29 28 31 29 32 30 33 31 34
REMARK SMILES IDX 32 35 33 37 34 38 35 39 96 40 36 41 95 42 37 43 38 44 39 45
REMARK SMILES IDX 89 46 40 47 94 48 88 49 90 50 41 51 93 52 87 53 86 54 42 56
REMARK SMILES IDX 74 57 54 58 73 59 55 60 58 61 72 62 91 63 56 64 57 65 71 67
REMARK SMILES IDX 92 68 59 69 43 70 44 71 52 72 45 73 46 74 50 75 53 76 47 77
REMARK SMILES IDX 48 78 51 79 49 80 75 81 76 82 84 83 77 84 78 85 82 86 85 87
REMARK SMILES IDX 79 88 80 89 83 90 81 91 60 92 61 93 69 94 62 95 63 96 67 97
REMARK SMILES IDX 70 98 64 99 65 100 68 101 66 102
REMARK H PARENT 24 7 19 30 31 36 90 55 58 66
REMARK Flexibility Score: inf
ROOT
ATOM      1  C   UNL A   1      34.868  22.896  24.593  1.00  0.00     0.002 C 
ENDROOT
BRANCH   1   2
ATOM      2  C   UNL A   1      34.725  23.050  23.073  1.00  0.00     0.021 C 
BRANCH   2   3
ATOM      3  C   UNL A   1      33.320  22.827  22.511  1.00  0.00     0.116 C 
BRANCH   3   4
ATOM      4  N   UNL A   1      32.962  23.838  21.538  1.00  0.00    -0.354 N 
ATOM      5  C   UNL A   1      32.703  25.164  21.698  1.00  0.00     0.242 C 
ATOM      6  O   UNL A   1      32.423  25.800  20.675  1.00  0.00    -0.273 OA
ATOM      7  H   UNL A   1      32.896  23.513  20.611  1.00  0.00     0.163 HD
BRANCH   5   8
ATOM      8  C   UNL A   1      32.674  25.821  23.098  1.00  0.00     0.177 C 
ATOM      9  N   UNL A   1      31.383  26.502  23.310  1.00  0.00    -0.326 N 
ATOM     10  C   UNL A   1      31.181  27.748  22.569  1.00  0.00     0.123 C 
ATOM     11  C   UNL A   1      32.295  28.747  22.865  1.00  0.00     0.053 C 
ATOM     12  C   UNL A   1      33.856  26.784  23.300  1.00  0.00     0.067 C 
ATOM     13  C   UNL A   1      33.682  28.156  22.639  1.00  0.00     0.118 C 
BRANCH   9  14
ATOM     14  C   UNL A   1      30.477  25.930  24.207  1.00  0.00     0.255 C 
ATOM     15  O   UNL A   1      29.321  26.343  24.289  1.00  0.00    -0.269 OA
BRANCH  14  16
ATOM     16  C   UNL A   1      30.932  24.918  25.214  1.00  0.00     0.047 A 
ATOM     17  C   UNL A   1      31.798  25.268  26.276  1.00  0.00    -0.006 A 
ATOM     18  C   UNL A   1      32.384  24.225  27.028  1.00  0.00     0.009 A 
ATOM     19  C   UNL A   1      32.127  22.883  26.747  1.00  0.00     0.001 A 
ATOM     20  C   UNL A   1      30.679  23.557  24.946  1.00  0.00     0.014 A 
ATOM     21  C   UNL A   1      31.266  22.548  25.711  1.00  0.00     0.001 A 
BRANCH  17  22
ATOM     22  C   UNL A   1      32.135  26.653  26.651  1.00  0.00    -0.017 A 
ATOM     23  C   UNL A   1      35.172  28.975  26.720  1.00  0.00     0.044 C 
ATOM     24  C   UNL A   1      33.765  28.467  26.841  1.00  0.00    -0.051 A 
ATOM     25  C   UNL A   1      32.752  29.328  27.274  1.00  0.00     0.003 A 
ATOM     26  C   UNL A   1      33.450  27.134  26.534  1.00  0.00     0.012 A 
ATOM     27  C   UNL A   1      31.443  28.867  27.399  1.00  0.00     0.001 A 
ATOM     28  C   UNL A   1      31.138  27.541  27.089  1.00  0.00     0.009 A 
ENDBRANCH  17  22
ENDBRANCH  14  16
ENDBRANCH   9  14
BRANCH  13  29
ATOM     29  O   UNL A   1      33.980  28.148  21.246  1.00  0.00    -0.393 OA
ATOM     30  H   UNL A   1      34.540  27.384  21.039  1.00  0.00     0.210 HD
ENDBRANCH  13  29
ENDBRANCH   5   8
ENDBRANCH   3   4
ENDBRANCH   2   3
ENDBRANCH   1   2
BRANCH   1  31
ATOM     31  C   UNL A   1      35.749  23.929  25.308  1.00  0.00     0.002 C 
BRANCH  31  32
ATOM     32  C   UNL A   1      36.881  23.367  26.171  1.00  0.00     0.021 C 
BRANCH  32  33
ATOM     33  C   UNL A   1      38.240  23.331  25.487  1.00  0.00     0.116 C 
BRANCH  33  34
ATOM     34  N   UNL A   1      39.347  22.999  26.369  1.00  0.00    -0.352 N 
ATOM     35  C   UNL A   1      40.098  23.811  27.204  1.00  0.00     0.251 C 
ATOM     36  H   UNL A   1      39.603  22.048  26.376  1.00  0.00     0.163 HD
ATOM     37  O   UNL A   1      41.066  23.350  27.783  1.00  0.00    -0.269 OA
BRANCH  35  38
ATOM     38  C   UNL A   1      39.637  25.193  27.519  1.00  0.00     0.039 A 
ATOM     39  C   UNL A   1      40.079  26.227  26.678  1.00  0.00     0.014 A 
ATOM     40  C   UNL A   1      38.984  25.503  28.705  1.00  0.00     0.014 A 
ATOM     41  C   UNL A   1      40.116  27.534  27.158  1.00  0.00     0.010 A 
ATOM     42  C   UNL A   1      39.121  26.771  29.228  1.00  0.00     0.010 A 
ATOM     43  C   UNL A   1      39.764  27.764  28.484  1.00  0.00    -0.014 A 
BRANCH  43  44
ATOM     44  C   UNL A   1      40.176  28.942  29.239  1.00  0.00     0.031 A 
ATOM     45  C   UNL A   1      39.220  30.021  29.546  1.00  0.00     0.074 A 
ATOM     46  C   UNL A   1      41.395  28.923  29.822  1.00  0.00     0.049 A 
ATOM     47  N   UNL A   1      39.551  31.192  29.977  1.00  0.00    -0.248 NA
ATOM     48  C   UNL A   1      37.786  29.877  29.336  1.00  0.00     0.031 C 
ATOM     49  C   UNL A   1      41.871  29.759  30.920  1.00  0.00     0.029 A 
ATOM     50  N   UNL A   1      42.539  28.230  29.392  1.00  0.00    -0.354 N 
ATOM     51  C   UNL A   1      38.403  31.831  30.389  1.00  0.00     0.074 A 
ATOM     52  C   UNL A   1      37.334  31.017  29.865  1.00  0.00     0.031 C 
ATOM     53  C   UNL A   1      43.214  29.768  30.908  1.00  0.00     0.029 A 
ATOM     54  C   UNL A   1      43.629  29.077  29.701  1.00  0.00     0.049 A 
ATOM     55  H   UNL A   1      42.574  27.343  28.965  1.00  0.00     0.167 HD
ATOM     56  C   UNL A   1      38.519  32.883  31.255  1.00  0.00     0.037 A 
ATOM     57  C   UNL A   1      44.395  29.632  28.716  1.00  0.00     0.037 A 
ATOM     58  C   UNL A   1      39.925  33.278  31.403  1.00  0.00     0.049 A 
ATOM     59  C   UNL A   1      44.413  31.142  28.729  1.00  0.00     0.074 A 
ATOM     60  C   UNL A   1      40.868  33.063  32.396  1.00  0.00     0.029 A 
ATOM     61  N   UNL A   1      40.627  33.751  30.295  1.00  0.00    -0.354 N 
ATOM     62  N   UNL A   1      43.504  31.874  29.310  1.00  0.00    -0.248 NA
ATOM     63  C   UNL A   1      45.432  31.943  28.057  1.00  0.00     0.031 C 
ATOM     64  C   UNL A   1      42.147  33.354  31.861  1.00  0.00     0.029 A 
ATOM     65  C   UNL A   1      41.984  33.762  30.549  1.00  0.00     0.049 A 
ATOM     66  H   UNL A   1      40.212  34.038  29.451  1.00  0.00     0.167 HD
ATOM     67  C   UNL A   1      43.770  33.199  29.081  1.00  0.00     0.074 A 
ATOM     68  C   UNL A   1      44.999  33.191  28.310  1.00  0.00     0.031 C 
ATOM     69  C   UNL A   1      42.938  34.184  29.532  1.00  0.00     0.037 A 
BRANCH  56  70
ATOM     70  C   UNL A   1      37.423  33.362  32.203  1.00  0.00     0.064 A 
ATOM     71  C   UNL A   1      36.330  34.116  31.712  1.00  0.00     0.173 A 
ATOM     72  C   UNL A   1      37.422  33.211  33.604  1.00  0.00     0.173 A 
ATOM     73  F   UNL A   1      36.109  34.260  30.399  1.00  0.00    -0.203 F 
ATOM     74  C   UNL A   1      35.410  34.759  32.550  1.00  0.00     0.198 A 
ATOM     75  C   UNL A   1      36.523  33.877  34.444  1.00  0.00     0.198 A 
ATOM     76  F   UNL A   1      38.248  32.370  34.226  1.00  0.00    -0.203 F 
ATOM     77  F   UNL A   1      34.417  35.484  32.015  1.00  0.00    -0.200 F 
ATOM     78  C   UNL A   1      35.527  34.667  33.918  1.00  0.00     0.200 A 
ATOM     79  F   UNL A   1      36.637  33.741  35.773  1.00  0.00    -0.200 F 
ATOM     80  F   UNL A   1      34.670  35.309  34.724  1.00  0.00    -0.200 F 
ENDBRANCH  56  70
BRANCH  57  81
ATOM     81  C   UNL A   1      44.460  28.800  27.485  1.00  0.00     0.064 A 
ATOM     82  C   UNL A   1      45.275  27.651  27.492  1.00  0.00     0.173 A 
ATOM     83  C   UNL A   1      43.481  28.893  26.488  1.00  0.00     0.173 A 
ATOM     84  F   UNL A   1      46.226  27.513  28.430  1.00  0.00    -0.203 F 
ATOM     85  C   UNL A   1      45.042  26.592  26.620  1.00  0.00     0.198 A 
ATOM     86  C   UNL A   1      43.262  27.834  25.605  1.00  0.00     0.198 A 
ATOM     87  F   UNL A   1      42.661  29.952  26.438  1.00  0.00    -0.203 F 
ATOM     88  F   UNL A   1      45.761  25.465  26.729  1.00  0.00    -0.200 F 
ATOM     89  C   UNL A   1      44.016  26.673  25.694  1.00  0.00     0.200 A 
ATOM     90  F   UNL A   1      42.247  27.898  24.729  1.00  0.00    -0.200 F 
ATOM     91  F   UNL A   1      43.726  25.620  24.918  1.00  0.00    -0.200 F 
ENDBRANCH  57  81
BRANCH  69  92
ATOM     92  C   UNL A   1      42.999  35.641  29.139  1.00  0.00     0.064 A 
ATOM     93  C   UNL A   1      42.244  36.205  28.097  1.00  0.00     0.173 A 
ATOM     94  C   UNL A   1      43.737  36.561  29.924  1.00  0.00     0.173 A 
ATOM     95  F   UNL A   1      41.409  35.463  27.360  1.00  0.00    -0.203 F 
ATOM     96  C   UNL A   1      42.280  37.575  27.816  1.00  0.00     0.198 A 
ATOM     97  C   UNL A   1      43.722  37.934  29.677  1.00  0.00     0.198 A 
ATOM     98  F   UNL A   1      44.472  36.158  30.970  1.00  0.00    -0.203 F 
ATOM     99  F   UNL A   1      41.575  38.056  26.783  1.00  0.00    -0.200 F 
ATOM    100  C   UNL A   1      43.009  38.439  28.611  1.00  0.00     0.200 A 
ATOM    101  F   UNL A   1      44.391  38.763  30.491  1.00  0.00    -0.200 F 
ATOM    102  F   UNL A   1      43.002  39.755  28.365  1.00  0.00    -0.200 F 
ENDBRANCH  69  92
ENDBRANCH  43  44
ENDBRANCH  35  38
ENDBRANCH  33  34
ENDBRANCH  32  33
ENDBRANCH  31  32
ENDBRANCH   1  31
TORSDOF 17
ENDMDL
MODEL 2
REMARK VINA RESULT:     -13.3      3.811      9.827
REMARK SMILES Cc1cccc(-c2ccccc2C(=O)N2CC[C@H](O)C[C@@H]2C(=O)NCCCCCCNC(=O)c2ccc(-c3c4nc(c(-c5c(F)c(F)c(F)c(F)c5F)c5ccc([nH]5)c(-c5c(F)c(F)c(F)c(F)c5F)c5nc(c(-c6c(F)c(F)c(F)c(F)c6F)c6ccc3[nH]6)C=C5)C=C4)cc2)c1
REMARK SMILES IDX 27 1 26 2 25 3 24 4 22 5 23 6 21 8 15 9 16 10 17 11 20 12
REMARK SMILES IDX 18 13 13 14 14 15 12 16 7 17 8 18 9 19 11 20 10 21 6 22 1 23
REMARK SMILES IDX 2 24 3 25 97 26 4 27 5 28 19 29 28 31 29 32 30 33 31 34
REMARK SMILES IDX 32 35 33 37 34 38 35 39 96 40 36 41 95 42 37 43 38 44 39 45
REMARK SMILES IDX 89 46 40 47 94 48 88 49 90 50 41 51 93 52 87 53 86 54 42 56
REMARK SMILES IDX 74 57 54 58 73 59 55 60 58 61 72 62 91 63 56 64 57 65 71 67
REMARK SMILES IDX 92 68 59 69 43 70 44 71 52 72 45 73 46 74 50 75 53 76 47 77
REMARK SMILES IDX 48 78 51 79 49 80 75 81 76 82 84 83 77 84 78 85 82 86 85 87
REMARK SMILES IDX 79 88 80 89 83 90 81 91 60 92 61 93 69 94 62 95 63 96 67 97
REMARK SMILES IDX 70 98 64 99 65 100 68 101 66 102
REMARK H PARENT 24 7 19 30 31 36 90 55 58 66
REMARK Flexibility Score: inf
ROOT
ATOM      1  C   UNL A   1      31.654  28.435  26.051  1.00  0.00     0.002 C 
ENDROOT
BRANCH   1   2
ATOM      2  C   UNL A   1      31.481  26.953  26.410  1.00  0.00     0.021 C 
BRANCH   2   3
ATOM      3  C   UNL A   1      30.274  26.253  25.782  1.00  0.00     0.116 C 
BRANCH   3   4
ATOM      4  N   UNL A   1      29.991  24.986  26.424  1.00  0.00    -0.354 N 
ATOM      5  C   UNL A   1      30.754  23.865  26.536  1.00  0.00     0.242 C 
ATOM      6  O   UNL A   1      30.255  22.916  27.152  1.00  0.00    -0.273 OA
ATOM      7  H   UNL A   1      29.105  24.926  26.847  1.00  0.00     0.163 HD
BRANCH   5   8
ATOM      8  C   UNL A   1      32.137  23.753  25.852  1.00  0.00     0.177 C 
ATOM      9  N   UNL A   1      32.127  22.657  24.865  1.00  0.00    -0.326 N 
ATOM     10  C   UNL A   1      32.132  21.298  25.410  1.00  0.00     0.123 C 
ATOM     11  C   UNL A   1      33.324  21.086  26.337  1.00  0.00     0.053 C 
ATOM     12  C   UNL A   1      33.268  23.573  26.879  1.00  0.00     0.067 C 
ATOM     13  C   UNL A   1      33.410  22.149  27.428  1.00  0.00     0.118 C 
BRANCH   9  14
ATOM     14  C   UNL A   1      32.139  22.994  23.509  1.00  0.00     0.255 C 
ATOM     15  O   UNL A   1      32.003  22.131  22.642  1.00  0.00    -0.269 OA
BRANCH  14  16
ATOM     16  C   UNL A   1      32.489  24.381  23.067  1.00  0.00     0.047 A 
ATOM     17  C   UNL A   1      33.776  24.926  23.288  1.00  0.00    -0.006 A 
ATOM     18  C   UNL A   1      33.957  26.311  23.079  1.00  0.00     0.009 A 
ATOM     19  C   UNL A   1      32.910  27.135  22.665  1.00  0.00     0.001 A 
ATOM     20  C   UNL A   1      31.443  25.227  22.645  1.00  0.00     0.014 A 
ATOM     21  C   UNL A   1      31.654  26.590  22.438  1.00  0.00     0.001 A 
BRANCH  17  22
ATOM     22  C   UNL A   1      34.946  24.143  23.727  1.00  0.00    -0.017 A 
ATOM     23  C   UNL A   1      37.469  24.074  26.599  1.00  0.00     0.044 C 
ATOM     24  C   UNL A   1      36.725  23.706  25.349  1.00  0.00    -0.051 A 
ATOM     25  C   UNL A   1      37.115  22.583  24.613  1.00  0.00     0.003 A 
ATOM     26  C   UNL A   1      35.643  24.479  24.900  1.00  0.00     0.012 A 
ATOM     27  C   UNL A   1      36.437  22.235  23.447  1.00  0.00     0.001 A 
ATOM     28  C   UNL A   1      35.361  23.008  23.009  1.00  0.00     0.009 A 
ENDBRANCH  17  22
ENDBRANCH  14  16
ENDBRANCH   9  14
BRANCH  13  29
ATOM     29  O   UNL A   1      32.478  21.851  28.463  1.00  0.00    -0.393 OA
ATOM     30  H   UNL A   1      32.251  20.909  28.433  1.00  0.00     0.210 HD
ENDBRANCH  13  29
ENDBRANCH   5   8
ENDBRANCH   3   4
ENDBRANCH   2   3
ENDBRANCH   1   2
BRANCH   1  31
ATOM     31  C   UNL A   1      32.060  29.375  27.194  1.00  0.00     0.002 C 
BRANCH  31  32
ATOM     32  C   UNL A   1      33.527  29.318  27.624  1.00  0.00     0.021 C 
BRANCH  32  33
ATOM     33  C   UNL A   1      34.393  30.442  27.073  1.00  0.00     0.116 C 
BRANCH  33  34
ATOM     34  N   UNL A   1      34.971  31.306  28.088  1.00  0.00    -0.352 N 
ATOM     35  C   UNL A   1      36.048  31.094  28.934  1.00  0.00     0.251 C 
ATOM     36  H   UNL A   1      34.529  32.180  28.190  1.00  0.00     0.163 HD
ATOM     37  O   UNL A   1      36.304  31.912  29.800  1.00  0.00    -0.269 OA
BRANCH  35  38
ATOM     38  C   UNL A   1      36.982  29.960  28.688  1.00  0.00     0.039 A 
ATOM     39  C   UNL A   1      37.050  28.957  29.667  1.00  0.00     0.014 A 
ATOM     40  C   UNL A   1      37.913  29.978  27.656  1.00  0.00     0.014 A 
ATOM     41  C   UNL A   1      38.194  28.168  29.765  1.00  0.00     0.010 A 
ATOM     42  C   UNL A   1      39.093  29.282  27.813  1.00  0.00     0.010 A 
ATOM     43  C   UNL A   1      39.262  28.440  28.916  1.00  0.00    -0.014 A 
BRANCH  43  44
ATOM     44  C   UNL A   1      40.636  28.036  29.188  1.00  0.00     0.031 A 
ATOM     45  C   UNL A   1      41.179  26.776  28.650  1.00  0.00     0.074 A 
ATOM     46  C   UNL A   1      41.456  28.940  29.770  1.00  0.00     0.049 A 
ATOM     47  N   UNL A   1      42.279  26.227  29.044  1.00  0.00    -0.248 NA
ATOM     48  C   UNL A   1      40.481  25.993  27.641  1.00  0.00     0.031 C 
ATOM     49  C   UNL A   1      42.915  28.942  29.783  1.00  0.00     0.029 A 
ATOM     50  N   UNL A   1      41.099  29.979  30.647  1.00  0.00    -0.354 N 
ATOM     51  C   UNL A   1      42.590  25.221  28.155  1.00  0.00     0.074 A 
ATOM     52  C   UNL A   1      41.388  25.048  27.377  1.00  0.00     0.031 C 
ATOM     53  C   UNL A   1      43.340  29.702  30.805  1.00  0.00     0.029 A 
ATOM     54  C   UNL A   1      42.164  30.069  31.574  1.00  0.00     0.049 A 
ATOM     55  H   UNL A   1      40.282  30.527  30.622  1.00  0.00     0.167 HD
ATOM     56  C   UNL A   1      43.883  24.778  28.100  1.00  0.00     0.037 A 
ATOM     57  C   UNL A   1      41.980  29.772  32.894  1.00  0.00     0.037 A 
ATOM     58  C   UNL A   1      44.669  25.336  29.207  1.00  0.00     0.049 A 
ATOM     59  C   UNL A   1      42.858  28.651  33.401  1.00  0.00     0.074 A 
ATOM     60  C   UNL A   1      45.598  26.362  29.283  1.00  0.00     0.029 A 
ATOM     61  N   UNL A   1      44.324  25.025  30.521  1.00  0.00    -0.354 N 
ATOM     62  N   UNL A   1      43.424  27.768  32.628  1.00  0.00    -0.248 NA
ATOM     63  C   UNL A   1      43.131  28.416  34.815  1.00  0.00     0.031 C 
ATOM     64  C   UNL A   1      45.767  26.704  30.648  1.00  0.00     0.029 A 
ATOM     65  C   UNL A   1      44.955  25.878  31.405  1.00  0.00     0.049 A 
ATOM     66  H   UNL A   1      43.716  24.297  30.783  1.00  0.00     0.167 HD
ATOM     67  C   UNL A   1      44.092  26.850  33.397  1.00  0.00     0.074 A 
ATOM     68  C   UNL A   1      43.896  27.312  34.758  1.00  0.00     0.031 C 
ATOM     69  C   UNL A   1      44.730  25.779  32.840  1.00  0.00     0.037 A 
BRANCH  56  70
ATOM     70  C   UNL A   1      44.524  24.096  26.895  1.00  0.00     0.064 A 
ATOM     71  C   UNL A   1      44.251  22.736  26.612  1.00  0.00     0.173 A 
ATOM     72  C   UNL A   1      45.481  24.672  26.036  1.00  0.00     0.173 A 
ATOM     73  F   UNL A   1      43.285  22.065  27.252  1.00  0.00    -0.203 F 
ATOM     74  C   UNL A   1      44.962  21.999  25.655  1.00  0.00     0.198 A 
ATOM     75  C   UNL A   1      46.214  23.931  25.101  1.00  0.00     0.198 A 
ATOM     76  F   UNL A   1      45.716  25.984  26.015  1.00  0.00    -0.203 F 
ATOM     77  F   UNL A   1      44.672  20.705  25.464  1.00  0.00    -0.200 F 
ATOM     78  C   UNL A   1      45.968  22.589  24.923  1.00  0.00     0.200 A 
ATOM     79  F   UNL A   1      47.164  24.538  24.376  1.00  0.00    -0.200 F 
ATOM     80  F   UNL A   1      46.674  21.880  24.032  1.00  0.00    -0.200 F 
ENDBRANCH  56  70
BRANCH  57  81
ATOM     81  C   UNL A   1      40.594  30.034  33.366  1.00  0.00     0.064 A 
ATOM     82  C   UNL A   1      40.218  31.364  33.640  1.00  0.00     0.173 A 
ATOM     83  C   UNL A   1      39.571  29.096  33.185  1.00  0.00     0.173 A 
ATOM     84  F   UNL A   1      41.162  32.302  33.818  1.00  0.00    -0.203 F 
ATOM     85  C   UNL A   1      38.884  31.760  33.613  1.00  0.00     0.198 A 
ATOM     86  C   UNL A   1      38.233  29.495  33.175  1.00  0.00     0.198 A 
ATOM     87  F   UNL A   1      39.862  27.818  32.904  1.00  0.00    -0.203 F 
ATOM     88  F   UNL A   1      38.568  33.054  33.762  1.00  0.00    -0.200 F 
ATOM     89  C   UNL A   1      37.893  30.829  33.352  1.00  0.00     0.200 A 
ATOM     90  F   UNL A   1      37.274  28.601  32.891  1.00  0.00    -0.200 F 
ATOM     91  F   UNL A   1      36.618  31.221  33.230  1.00  0.00    -0.200 F 
ENDBRANCH  57  81
BRANCH  69  92
ATOM     92  C   UNL A   1      45.284  24.591  33.591  1.00  0.00     0.064 A 
ATOM     93  C   UNL A   1      44.565  23.407  33.827  1.00  0.00     0.173 A 
ATOM     94  C   UNL A   1      46.646  24.564  33.979  1.00  0.00     0.173 A 
ATOM     95  F   UNL A   1      43.306  23.258  33.397  1.00  0.00    -0.203 F 
ATOM     96  C   UNL A   1      45.144  22.306  34.465  1.00  0.00     0.198 A 
ATOM     97  C   UNL A   1      47.235  23.442  34.561  1.00  0.00     0.198 A 
ATOM     98  F   UNL A   1      47.453  25.616  33.779  1.00  0.00    -0.203 F 
ATOM     99  F   UNL A   1      44.402  21.215  34.706  1.00  0.00    -0.200 F 
ATOM    100  C   UNL A   1      46.479  22.319  34.821  1.00  0.00     0.200 A 
ATOM    101  F   UNL A   1      48.544  23.452  34.850  1.00  0.00    -0.200 F 
ATOM    102  F   UNL A   1      47.040  21.244  35.391  1.00  0.00    -0.200 F 
ENDBRANCH  69  92
ENDBRANCH  43  44
ENDBRANCH  35  38
ENDBRANCH  33  34
ENDBRANCH  32  33
ENDBRANCH  31  32
ENDBRANCH   1  31
TORSDOF 17
ENDMDL
MODEL 3
REMARK VINA RESULT:     -13.1      3.817      9.876
REMARK SMILES Cc1cccc(-c2ccccc2C(=O)N2CC[C@H](O)C[C@@H]2C(=O)NCCCCCCNC(=O)c2ccc(-c3c4nc(c(-c5c(F)c(F)c(F)c(F)c5F)c5ccc([nH]5)c(-c5c(F)c(F)c(F)c(F)c5F)c5nc(c(-c6c(F)c(F)c(F)c(F)c6F)c6ccc3[nH]6)C=C5)C=C4)cc2)c1
REMARK SMILES IDX 27 1 26 2 25 3 24 4 22 5 23 6 21 8 15 9 16 10 17 11 20 12
REMARK SMILES IDX 18 13 13 14 14 15 12 16 7 17 8 18 9 19 11 20 10 21 6 22 1 23
REMARK SMILES IDX 2 24 3 25 97 26 4 27 5 28 19 29 28 31 29 32 30 33 31 34
REMARK SMILES IDX 32 35 33 37 34 38 35 39 96 40 36 41 95 42 37 43 38 44 39 45
REMARK SMILES IDX 89 46 40 47 94 48 88 49 90 50 41 51 93 52 87 53 86 54 42 56
REMARK SMILES IDX 74 57 54 58 73 59 55 60 58 61 72 62 91 63 56 64 57 65 71 67
REMARK SMILES IDX 92 68 59 69 43 70 44 71 52 72 45 73 46 74 50 75 53 76 47 77
REMARK SMILES IDX 48 78 51 79 49 80 75 81 76 82 84 83 77 84 78 85 82 86 85 87
REMARK SMILES IDX 79 88 80 89 83 90 81 91 60 92 61 93 69 94 62 95 63 96 67 97
REMARK SMILES IDX 70 98 64 99 65 100 68 101 66 102
REMARK H PARENT 24 7 19 30 31 36 90 55 58 66
REMARK Flexibility Score: inf
ROOT
ATOM      1  C   UNL A   1      34.323  28.458  25.916  1.00  0.00     0.002 C 
ENDROOT
BRANCH   1   2
ATOM      2  C   UNL A   1      33.455  28.595  24.658  1.00  0.00     0.021 C 
BRANCH   2   3
ATOM      3  C   UNL A   1      33.471  27.399  23.705  1.00  0.00     0.116 C 
BRANCH   3   4
ATOM      4  N   UNL A   1      32.152  26.824  23.538  1.00  0.00    -0.354 N 
ATOM      5  C   UNL A   1      31.632  25.658  24.008  1.00  0.00     0.242 C 
ATOM      6  O   UNL A   1      30.457  25.417  23.711  1.00  0.00    -0.273 OA
ATOM      7  H   UNL A   1      31.532  27.364  22.997  1.00  0.00     0.163 HD
BRANCH   5   8
ATOM      8  C   UNL A   1      32.495  24.646  24.799  1.00  0.00     0.177 C 
ATOM      9  N   UNL A   1      32.290  23.285  24.271  1.00  0.00    -0.326 N 
ATOM     10  C   UNL A   1      31.008  22.654  24.592  1.00  0.00     0.123 C 
ATOM     11  C   UNL A   1      30.782  22.613  26.099  1.00  0.00     0.053 C 
ATOM     12  C   UNL A   1      32.209  24.711  26.309  1.00  0.00     0.067 C 
ATOM     13  C   UNL A   1      30.932  23.986  26.748  1.00  0.00     0.118 C 
BRANCH   9  14
ATOM     14  C   UNL A   1      33.327  22.701  23.539  1.00  0.00     0.255 C 
ATOM     15  O   UNL A   1      33.111  22.168  22.450  1.00  0.00    -0.269 OA
BRANCH  14  16
ATOM     16  C   UNL A   1      34.694  22.551  24.132  1.00  0.00     0.047 A 
ATOM     17  C   UNL A   1      35.058  21.403  24.873  1.00  0.00    -0.006 A 
ATOM     18  C   UNL A   1      36.262  21.441  25.612  1.00  0.00     0.009 A 
ATOM     19  C   UNL A   1      37.082  22.569  25.621  1.00  0.00     0.001 A 
ATOM     20  C   UNL A   1      35.537  23.682  24.149  1.00  0.00     0.014 A 
ATOM     21  C   UNL A   1      36.724  23.688  24.881  1.00  0.00     0.001 A 
BRANCH  17  22
ATOM     22  C   UNL A   1      34.261  20.163  24.930  1.00  0.00    -0.017 A 
ATOM     23  C   UNL A   1      34.191  16.691  23.332  1.00  0.00     0.044 C 
ATOM     24  C   UNL A   1      33.853  17.863  24.206  1.00  0.00    -0.051 A 
ATOM     25  C   UNL A   1      32.797  17.767  25.118  1.00  0.00     0.003 A 
ATOM     26  C   UNL A   1      34.578  19.062  24.118  1.00  0.00     0.012 A 
ATOM     27  C   UNL A   1      32.468  18.850  25.930  1.00  0.00     0.001 A 
ATOM     28  C   UNL A   1      33.195  20.038  25.837  1.00  0.00     0.009 A 
ENDBRANCH  17  22
ENDBRANCH  14  16
ENDBRANCH   9  14
BRANCH  13  29
ATOM     29  O   UNL A   1      29.750  24.750  26.532  1.00  0.00    -0.393 OA
ATOM     30  H   UNL A   1      28.977  24.167  26.565  1.00  0.00     0.210 HD
ENDBRANCH  13  29
ENDBRANCH   5   8
ENDBRANCH   3   4
ENDBRANCH   2   3
ENDBRANCH   1   2
BRANCH   1  31
ATOM     31  C   UNL A   1      33.606  28.610  27.264  1.00  0.00     0.002 C 
BRANCH  31  32
ATOM     32  C   UNL A   1      33.228  30.036  27.669  1.00  0.00     0.021 C 
BRANCH  32  33
ATOM     33  C   UNL A   1      34.249  31.096  27.283  1.00  0.00     0.116 C 
BRANCH  33  34
ATOM     34  N   UNL A   1      34.830  31.808  28.410  1.00  0.00    -0.352 N 
ATOM     35  C   UNL A   1      35.791  31.404  29.322  1.00  0.00     0.251 C 
ATOM     36  H   UNL A   1      34.486  32.721  28.546  1.00  0.00     0.163 HD
ATOM     37  O   UNL A   1      36.062  32.119  30.270  1.00  0.00    -0.269 OA
BRANCH  35  38
ATOM     38  C   UNL A   1      36.604  30.182  29.063  1.00  0.00     0.039 A 
ATOM     39  C   UNL A   1      36.744  29.265  30.117  1.00  0.00     0.014 A 
ATOM     40  C   UNL A   1      37.377  30.036  27.918  1.00  0.00     0.014 A 
ATOM     41  C   UNL A   1      37.835  28.400  30.134  1.00  0.00     0.010 A 
ATOM     42  C   UNL A   1      38.518  29.265  27.980  1.00  0.00     0.010 A 
ATOM     43  C   UNL A   1      38.787  28.512  29.125  1.00  0.00    -0.014 A 
BRANCH  43  44
ATOM     44  C   UNL A   1      40.157  28.026  29.246  1.00  0.00     0.031 A 
ATOM     45  C   UNL A   1      40.530  26.680  28.774  1.00  0.00     0.074 A 
ATOM     46  C   UNL A   1      41.110  28.912  29.610  1.00  0.00     0.049 A 
ATOM     47  N   UNL A   1      41.637  26.084  29.067  1.00  0.00    -0.248 NA
ATOM     48  C   UNL A   1      39.642  25.865  27.959  1.00  0.00     0.031 C 
ATOM     49  C   UNL A   1      42.553  28.796  29.421  1.00  0.00     0.029 A 
ATOM     50  N   UNL A   1      40.955  30.054  30.414  1.00  0.00    -0.354 N 
ATOM     51  C   UNL A   1      41.747  24.976  28.256  1.00  0.00     0.074 A 
ATOM     52  C   UNL A   1      40.436  24.828  27.674  1.00  0.00     0.031 C 
ATOM     53  C   UNL A   1      43.172  29.613  30.289  1.00  0.00     0.029 A 
ATOM     54  C   UNL A   1      42.148  30.145  31.171  1.00  0.00     0.049 A 
ATOM     55  H   UNL A   1      40.182  30.661  30.445  1.00  0.00     0.167 HD
ATOM     56  C   UNL A   1      42.985  24.427  28.069  1.00  0.00     0.037 A 
ATOM     57  C   UNL A   1      42.138  29.991  32.527  1.00  0.00     0.037 A 
ATOM     58  C   UNL A   1      43.960  25.022  28.992  1.00  0.00     0.049 A 
ATOM     59  C   UNL A   1      43.004  28.856  33.023  1.00  0.00     0.074 A 
ATOM     60  C   UNL A   1      44.957  25.971  28.830  1.00  0.00     0.029 A 
ATOM     61  N   UNL A   1      43.790  24.865  30.367  1.00  0.00    -0.354 N 
ATOM     62  N   UNL A   1      43.392  27.860  32.277  1.00  0.00    -0.248 NA
ATOM     63  C   UNL A   1      43.464  28.735  34.402  1.00  0.00     0.031 C 
ATOM     64  C   UNL A   1      45.345  26.427  30.115  1.00  0.00     0.029 A 
ATOM     65  C   UNL A   1      44.598  25.745  31.060  1.00  0.00     0.049 A 
ATOM     66  H   UNL A   1      43.180  24.217  30.785  1.00  0.00     0.167 HD
ATOM     67  C   UNL A   1      44.101  26.969  33.038  1.00  0.00     0.074 A 
ATOM     68  C   UNL A   1      44.138  27.572  34.357  1.00  0.00     0.031 C 
ATOM     69  C   UNL A   1      44.579  25.801  32.515  1.00  0.00     0.037 A 
BRANCH  56  70
ATOM     70  C   UNL A   1      43.397  23.584  26.866  1.00  0.00     0.064 A 
ATOM     71  C   UNL A   1      43.027  22.220  26.785  1.00  0.00     0.173 A 
ATOM     72  C   UNL A   1      44.228  24.008  25.810  1.00  0.00     0.173 A 
ATOM     73  F   UNL A   1      42.149  21.679  27.639  1.00  0.00    -0.203 F 
ATOM     74  C   UNL A   1      43.545  21.345  25.822  1.00  0.00     0.198 A 
ATOM     75  C   UNL A   1      44.771  23.130  24.864  1.00  0.00     0.198 A 
ATOM     76  F   UNL A   1      44.510  25.294  25.602  1.00  0.00    -0.203 F 
ATOM     77  F   UNL A   1      43.175  20.057  25.826  1.00  0.00    -0.200 F 
ATOM     78  C   UNL A   1      44.444  21.794  24.880  1.00  0.00     0.200 A 
ATOM     79  F   UNL A   1      45.617  23.600  23.936  1.00  0.00    -0.200 F 
ATOM     80  F   UNL A   1      44.969  20.953  23.978  1.00  0.00    -0.200 F 
ENDBRANCH  56  70
BRANCH  57  81
ATOM     81  C   UNL A   1      40.857  30.408  33.156  1.00  0.00     0.064 A 
ATOM     82  C   UNL A   1      40.600  31.785  33.309  1.00  0.00     0.173 A 
ATOM     83  C   UNL A   1      39.767  29.533  33.245  1.00  0.00     0.173 A 
ATOM     84  F   UNL A   1      41.611  32.665  33.228  1.00  0.00    -0.203 F 
ATOM     85  C   UNL A   1      39.301  32.272  33.423  1.00  0.00     0.198 A 
ATOM     86  C   UNL A   1      38.467  30.025  33.376  1.00  0.00     0.198 A 
ATOM     87  F   UNL A   1      39.942  28.213  33.090  1.00  0.00    -0.203 F 
ATOM     88  F   UNL A   1      39.083  33.594  33.450  1.00  0.00    -0.200 F 
ATOM     89  C   UNL A   1      38.233  31.392  33.429  1.00  0.00     0.200 A 
ATOM     90  F   UNL A   1      37.429  29.176  33.349  1.00  0.00    -0.200 F 
ATOM     91  F   UNL A   1      36.977  31.859  33.442  1.00  0.00    -0.200 F 
ENDBRANCH  57  81
BRANCH  69  92
ATOM     92  C   UNL A   1      45.156  24.649  33.303  1.00  0.00     0.064 A 
ATOM     93  C   UNL A   1      44.445  23.479  33.618  1.00  0.00     0.173 A 
ATOM     94  C   UNL A   1      46.530  24.637  33.647  1.00  0.00     0.173 A 
ATOM     95  F   UNL A   1      43.172  23.312  33.237  1.00  0.00    -0.203 F 
ATOM     96  C   UNL A   1      45.043  22.408  34.288  1.00  0.00     0.198 A 
ATOM     97  C   UNL A   1      47.137  23.542  34.263  1.00  0.00     0.198 A 
ATOM     98  F   UNL A   1      47.331  25.677  33.372  1.00  0.00    -0.203 F 
ATOM     99  F   UNL A   1      44.308  21.332  34.604  1.00  0.00    -0.200 F 
ATOM    100  C   UNL A   1      46.389  22.435  34.600  1.00  0.00     0.200 A 
ATOM    101  F   UNL A   1      48.454  23.564  34.509  1.00  0.00    -0.200 F 
ATOM    102  F   UNL A   1      46.967  21.387  35.202  1.00  0.00    -0.200 F 
ENDBRANCH  69  92
ENDBRANCH  43  44
ENDBRANCH  35  38
ENDBRANCH  33  34
ENDBRANCH  32  33
ENDBRANCH  31  32
ENDBRANCH   1  31
TORSDOF 17
ENDMDL
