MODEL 1
REMARK VINA RESULT:     -11.5      0.000      0.000
REMARK SMILES C[C@@H]1CC[N@@H+]1CC1(CC(=O)NCCCCCCNC(=O)c2ccc(-c3c4nc(c(-c5c(F)c(F)c(F)c(F)c5F)c5ccc([nH]5)c(-c5c(F)c(F)c(F)c(F)c5F)c5nc(c(-c6c(F)c(F)c(F)c(F)c6F)c6ccc3[nH]6)C=C5)C=C4)cc2)CCCCC1
REMARK SMILES IDX 14 1 13 2 12 3 11 4 9 5 10 6 8 8 7 9 84 10 88 11 85 12 87 13
REMARK SMILES IDX 86 14 6 15 5 16 1 17 2 18 3 19 4 20 15 22 16 23 17 24 18 25
REMARK SMILES IDX 19 26 20 28 21 29 22 30 83 31 23 32 82 33 24 34 25 35 26 36
REMARK SMILES IDX 76 37 27 38 81 39 75 40 77 41 28 42 80 43 74 44 73 45 29 47
REMARK SMILES IDX 61 48 41 49 60 50 42 51 45 52 59 53 78 54 43 55 44 56 58 58
REMARK SMILES IDX 79 59 46 60 30 61 31 62 39 63 32 64 33 65 37 66 40 67 34 68
REMARK SMILES IDX 35 69 38 70 36 71 62 72 63 73 71 74 64 75 65 76 69 77 72 78
REMARK SMILES IDX 66 79 67 80 70 81 68 82 47 83 48 84 56 85 49 86 50 87 54 88
REMARK SMILES IDX 57 89 51 90 52 91 55 92 53 93
REMARK H PARENT 11 7 5 21 18 27 77 46 45 57
REMARK Flexibility Score: inf
ROOT
ATOM      1  C   UNL A   1      32.451  30.176  26.552  1.00  0.00     0.002 C 
ENDROOT
BRANCH   1   2
ATOM      2  C   UNL A   1      32.012  29.075  27.518  1.00  0.00     0.021 C 
BRANCH   2   3
ATOM      3  C   UNL A   1      32.318  27.653  27.035  1.00  0.00     0.116 C 
BRANCH   3   4
ATOM      4  N   UNL A   1      31.105  26.862  26.958  1.00  0.00    -0.356 N 
ATOM      5  C   UNL A   1      30.555  26.158  25.935  1.00  0.00     0.220 C 
ATOM      6  O   UNL A   1      29.475  25.599  26.145  1.00  0.00    -0.275 OA
ATOM      7  H   UNL A   1      30.588  26.831  27.795  1.00  0.00     0.163 HD
BRANCH   5   8
ATOM      8  C   UNL A   1      31.236  26.026  24.574  1.00  0.00     0.112 C 
BRANCH   8   9
ATOM      9  C   UNL A   1      31.064  27.197  23.521  1.00  0.00     0.028 C 
ATOM     10  C   UNL A   1      31.172  26.567  22.105  1.00  0.00     0.013 C 
ATOM     11  C   UNL A   1      32.230  28.201  23.653  1.00  0.00     0.013 C 
ATOM     12  C   UNL A   1      32.549  25.982  21.775  1.00  0.00     0.001 C 
ATOM     13  C   UNL A   1      33.618  27.640  23.332  1.00  0.00     0.001 C 
ATOM     14  C   UNL A   1      33.645  27.028  21.939  1.00  0.00     0.000 C 
BRANCH   9  15
ATOM     15  C   UNL A   1      29.634  27.851  23.750  1.00  0.00     0.269 C 
BRANCH  15  16
ATOM     16  N   UNL A   1      28.563  28.216  22.817  1.00  0.00    -0.332 N 
ATOM     17  C   UNL A   1      29.733  30.301  21.830  1.00  0.00     0.075 C 
ATOM     18  C   UNL A   1      28.478  29.505  22.111  1.00  0.00     0.186 C 
ATOM     19  C   UNL A   1      27.438  29.961  23.161  1.00  0.00     0.126 C 
ATOM     20  C   UNL A   1      27.242  28.447  23.416  1.00  0.00     0.268 C 
ATOM     21  H   UNL A   1      28.796  27.410  22.237  1.00  0.00     0.348 HD
ENDBRANCH  15  16
ENDBRANCH   9  15
ENDBRANCH   8   9
ENDBRANCH   5   8
ENDBRANCH   3   4
ENDBRANCH   2   3
ENDBRANCH   1   2
BRANCH   1  22
ATOM     22  C   UNL A   1      31.300  31.019  25.992  1.00  0.00     0.002 C 
BRANCH  22  23
ATOM     23  C   UNL A   1      31.278  32.490  26.426  1.00  0.00     0.021 C 
BRANCH  23  24
ATOM     24  C   UNL A   1      32.465  32.937  27.277  1.00  0.00     0.116 C 
BRANCH  24  25
ATOM     25  N   UNL A   1      32.357  34.331  27.671  1.00  0.00    -0.352 N 
ATOM     26  C   UNL A   1      32.995  35.017  28.673  1.00  0.00     0.251 C 
ATOM     27  H   UNL A   1      31.728  34.868  27.135  1.00  0.00     0.163 HD
ATOM     28  O   UNL A   1      32.597  36.127  29.010  1.00  0.00    -0.269 OA
BRANCH  26  29
ATOM     29  C   UNL A   1      34.163  34.422  29.356  1.00  0.00     0.039 A 
ATOM     30  C   UNL A   1      33.970  33.759  30.571  1.00  0.00     0.014 A 
ATOM     31  C   UNL A   1      35.451  34.561  28.829  1.00  0.00     0.014 A 
ATOM     32  C   UNL A   1      35.061  33.191  31.233  1.00  0.00     0.010 A 
ATOM     33  C   UNL A   1      36.528  33.942  29.457  1.00  0.00     0.010 A 
ATOM     34  C   UNL A   1      36.345  33.257  30.669  1.00  0.00    -0.014 A 
BRANCH  34  35
ATOM     35  C   UNL A   1      37.511  32.625  31.336  1.00  0.00     0.031 A 
ATOM     36  C   UNL A   1      38.238  31.490  30.668  1.00  0.00     0.074 A 
ATOM     37  C   UNL A   1      37.874  33.030  32.567  1.00  0.00     0.049 A 
ATOM     38  N   UNL A   1      39.221  30.754  31.122  1.00  0.00    -0.248 NA
ATOM     39  C   UNL A   1      37.784  31.117  29.319  1.00  0.00     0.031 C 
ATOM     40  C   UNL A   1      37.224  34.094  33.333  1.00  0.00     0.029 A 
ATOM     41  N   UNL A   1      38.874  32.587  33.397  1.00  0.00    -0.354 N 
ATOM     42  C   UNL A   1      39.492  29.826  30.125  1.00  0.00     0.074 A 
ATOM     43  C   UNL A   1      38.540  30.060  29.061  1.00  0.00     0.031 C 
ATOM     44  C   UNL A   1      37.848  34.231  34.513  1.00  0.00     0.029 A 
ATOM     45  C   UNL A   1      38.919  33.243  34.604  1.00  0.00     0.049 A 
ATOM     46  H   UNL A   1      39.499  31.866  33.153  1.00  0.00     0.167 HD
ATOM     47  C   UNL A   1      40.462  28.881  30.091  1.00  0.00     0.037 A 
ATOM     48  C   UNL A   1      39.728  33.060  35.665  1.00  0.00     0.037 A 
ATOM     49  C   UNL A   1      41.425  28.671  31.140  1.00  0.00     0.049 A 
ATOM     50  C   UNL A   1      40.793  31.999  35.601  1.00  0.00     0.074 A 
ATOM     51  C   UNL A   1      42.476  27.772  31.179  1.00  0.00     0.029 A 
ATOM     52  N   UNL A   1      41.453  29.373  32.336  1.00  0.00    -0.354 N 
ATOM     53  N   UNL A   1      41.075  31.166  34.629  1.00  0.00    -0.248 NA
ATOM     54  C   UNL A   1      41.657  31.857  36.781  1.00  0.00     0.031 C 
ATOM     55  C   UNL A   1      43.118  27.903  32.414  1.00  0.00     0.029 A 
ATOM     56  C   UNL A   1      42.496  28.915  33.126  1.00  0.00     0.049 A 
ATOM     57  H   UNL A   1      40.826  30.089  32.587  1.00  0.00     0.167 HD
ATOM     58  C   UNL A   1      42.165  30.426  35.066  1.00  0.00     0.074 A 
ATOM     59  C   UNL A   1      42.503  30.917  36.385  1.00  0.00     0.031 C 
ATOM     60  C   UNL A   1      42.826  29.427  34.431  1.00  0.00     0.037 A 
BRANCH  47  61
ATOM     61  C   UNL A   1      40.538  28.006  28.874  1.00  0.00     0.064 A 
ATOM     62  C   UNL A   1      39.799  26.817  28.778  1.00  0.00     0.173 A 
ATOM     63  C   UNL A   1      41.317  28.384  27.769  1.00  0.00     0.173 A 
ATOM     64  F   UNL A   1      39.047  26.406  29.811  1.00  0.00    -0.203 F 
ATOM     65  C   UNL A   1      39.855  26.028  27.633  1.00  0.00     0.198 A 
ATOM     66  C   UNL A   1      41.348  27.608  26.615  1.00  0.00     0.198 A 
ATOM     67  F   UNL A   1      42.038  29.515  27.806  1.00  0.00    -0.203 F 
ATOM     68  F   UNL A   1      39.173  24.875  27.581  1.00  0.00    -0.200 F 
ATOM     69  C   UNL A   1      40.623  26.427  26.549  1.00  0.00     0.200 A 
ATOM     70  F   UNL A   1      42.080  28.002  25.564  1.00  0.00    -0.200 F 
ATOM     71  F   UNL A   1      40.668  25.673  25.443  1.00  0.00    -0.200 F 
ENDBRANCH  47  61
BRANCH  48  72
ATOM     72  C   UNL A   1      39.577  33.913  36.873  1.00  0.00     0.064 A 
ATOM     73  C   UNL A   1      38.810  33.483  37.965  1.00  0.00     0.173 A 
ATOM     74  C   UNL A   1      40.179  35.176  36.956  1.00  0.00     0.173 A 
ATOM     75  F   UNL A   1      38.198  32.290  37.925  1.00  0.00    -0.203 F 
ATOM     76  C   UNL A   1      38.630  34.295  39.083  1.00  0.00     0.198 A 
ATOM     77  C   UNL A   1      40.022  35.975  38.086  1.00  0.00     0.198 A 
ATOM     78  F   UNL A   1      40.927  35.632  35.940  1.00  0.00    -0.203 F 
ATOM     79  F   UNL A   1      37.850  33.880  40.091  1.00  0.00    -0.200 F 
ATOM     80  C   UNL A   1      39.240  35.539  39.144  1.00  0.00     0.200 A 
ATOM     81  F   UNL A   1      40.624  37.170  38.148  1.00  0.00    -0.200 F 
ATOM     82  F   UNL A   1      39.066  36.320  40.220  1.00  0.00    -0.200 F 
ENDBRANCH  48  72
BRANCH  60  83
ATOM     83  C   UNL A   1      44.007  28.827  35.137  1.00  0.00     0.064 A 
ATOM     84  C   UNL A   1      45.304  29.328  34.959  1.00  0.00     0.173 A 
ATOM     85  C   UNL A   1      43.829  27.763  36.034  1.00  0.00     0.173 A 
ATOM     86  F   UNL A   1      45.526  30.335  34.100  1.00  0.00    -0.203 F 
ATOM     87  C   UNL A   1      46.384  28.770  35.635  1.00  0.00     0.198 A 
ATOM     88  C   UNL A   1      44.908  27.225  36.730  1.00  0.00     0.198 A 
ATOM     89  F   UNL A   1      42.607  27.252  36.244  1.00  0.00    -0.203 F 
ATOM     90  F   UNL A   1      47.623  29.233  35.416  1.00  0.00    -0.200 F 
ATOM     91  C   UNL A   1      46.185  27.724  36.525  1.00  0.00     0.200 A 
ATOM     92  F   UNL A   1      44.711  26.224  37.599  1.00  0.00    -0.200 F 
ATOM     93  F   UNL A   1      47.226  27.192  37.180  1.00  0.00    -0.200 F 
ENDBRANCH  60  83
ENDBRANCH  34  35
ENDBRANCH  26  29
ENDBRANCH  24  25
ENDBRANCH  23  24
ENDBRANCH  22  23
ENDBRANCH   1  22
TORSDOF 16
ENDMDL
MODEL 2
REMARK VINA RESULT:     -11.4      4.308      8.096
REMARK SMILES C[C@@H]1CC[N@@H+]1CC1(CC(=O)NCCCCCCNC(=O)c2ccc(-c3c4nc(c(-c5c(F)c(F)c(F)c(F)c5F)c5ccc([nH]5)c(-c5c(F)c(F)c(F)c(F)c5F)c5nc(c(-c6c(F)c(F)c(F)c(F)c6F)c6ccc3[nH]6)C=C5)C=C4)cc2)CCCCC1
REMARK SMILES IDX 14 1 13 2 12 3 11 4 9 5 10 6 8 8 7 9 84 10 88 11 85 12 87 13
REMARK SMILES IDX 86 14 6 15 5 16 1 17 2 18 3 19 4 20 15 22 16 23 17 24 18 25
REMARK SMILES IDX 19 26 20 28 21 29 22 30 83 31 23 32 82 33 24 34 25 35 26 36
REMARK SMILES IDX 76 37 27 38 81 39 75 40 77 41 28 42 80 43 74 44 73 45 29 47
REMARK SMILES IDX 61 48 41 49 60 50 42 51 45 52 59 53 78 54 43 55 44 56 58 58
REMARK SMILES IDX 79 59 46 60 30 61 31 62 39 63 32 64 33 65 37 66 40 67 34 68
REMARK SMILES IDX 35 69 38 70 36 71 62 72 63 73 71 74 64 75 65 76 69 77 72 78
REMARK SMILES IDX 66 79 67 80 70 81 68 82 47 83 48 84 56 85 49 86 50 87 54 88
REMARK SMILES IDX 57 89 51 90 52 91 55 92 53 93
REMARK H PARENT 11 7 5 21 18 27 77 46 45 57
REMARK Flexibility Score: inf
ROOT
ATOM      1  C   UNL A   1      33.887  22.170  24.094  1.00  0.00     0.002 C 
ENDROOT
BRANCH   1   2
ATOM      2  C   UNL A   1      33.521  21.141  25.164  1.00  0.00     0.021 C 
BRANCH   2   3
ATOM      3  C   UNL A   1      33.439  21.711  26.585  1.00  0.00     0.116 C 
BRANCH   3   4
ATOM      4  N   UNL A   1      32.106  22.208  26.865  1.00  0.00    -0.356 N 
ATOM      5  C   UNL A   1      31.626  23.473  26.987  1.00  0.00     0.220 C 
ATOM      6  O   UNL A   1      30.433  23.603  27.271  1.00  0.00    -0.275 OA
ATOM      7  H   UNL A   1      31.430  21.505  26.991  1.00  0.00     0.163 HD
BRANCH   5   8
ATOM      8  C   UNL A   1      32.501  24.704  26.761  1.00  0.00     0.112 C 
BRANCH   8   9
ATOM      9  C   UNL A   1      32.074  25.747  25.648  1.00  0.00     0.028 C 
ATOM     10  C   UNL A   1      33.354  26.514  25.216  1.00  0.00     0.013 C 
ATOM     11  C   UNL A   1      31.107  26.792  26.246  1.00  0.00     0.013 C 
ATOM     12  C   UNL A   1      33.969  27.388  26.314  1.00  0.00     0.001 C 
ATOM     13  C   UNL A   1      31.698  27.676  27.348  1.00  0.00     0.001 C 
ATOM     14  C   UNL A   1      32.953  28.384  26.860  1.00  0.00     0.000 C 
BRANCH   9  15
ATOM     15  C   UNL A   1      31.456  24.933  24.431  1.00  0.00     0.269 C 
BRANCH  15  16
ATOM     16  N   UNL A   1      30.842  25.368  23.172  1.00  0.00    -0.332 N 
ATOM     17  C   UNL A   1      33.023  25.403  21.781  1.00  0.00     0.075 C 
ATOM     18  C   UNL A   1      31.596  25.852  22.003  1.00  0.00     0.186 C 
ATOM     19  C   UNL A   1      31.249  27.297  22.432  1.00  0.00     0.126 C 
ATOM     20  C   UNL A   1      30.097  26.633  23.226  1.00  0.00     0.268 C 
ATOM     21  H   UNL A   1      30.408  24.451  23.069  1.00  0.00     0.348 HD
ENDBRANCH  15  16
ENDBRANCH   9  15
ENDBRANCH   8   9
ENDBRANCH   5   8
ENDBRANCH   3   4
ENDBRANCH   2   3
ENDBRANCH   1   2
BRANCH   1  22
ATOM     22  C   UNL A   1      35.392  22.424  23.953  1.00  0.00     0.002 C 
BRANCH  22  23
ATOM     23  C   UNL A   1      35.905  23.742  24.544  1.00  0.00     0.021 C 
BRANCH  23  24
ATOM     24  C   UNL A   1      36.461  23.648  25.964  1.00  0.00     0.116 C 
BRANCH  24  25
ATOM     25  N   UNL A   1      37.536  22.675  26.063  1.00  0.00    -0.352 N 
ATOM     26  C   UNL A   1      38.864  22.856  26.353  1.00  0.00     0.251 C 
ATOM     27  H   UNL A   1      37.270  21.742  25.896  1.00  0.00     0.163 HD
ATOM     28  O   UNL A   1      39.667  21.951  26.152  1.00  0.00    -0.269 OA
BRANCH  26  29
ATOM     29  C   UNL A   1      39.338  24.143  26.905  1.00  0.00     0.039 A 
ATOM     30  C   UNL A   1      39.973  25.051  26.052  1.00  0.00     0.014 A 
ATOM     31  C   UNL A   1      39.205  24.433  28.266  1.00  0.00     0.014 A 
ATOM     32  C   UNL A   1      40.429  26.272  26.554  1.00  0.00     0.010 A 
ATOM     33  C   UNL A   1      39.604  25.676  28.752  1.00  0.00     0.010 A 
ATOM     34  C   UNL A   1      40.226  26.604  27.903  1.00  0.00    -0.014 A 
BRANCH  34  35
ATOM     35  C   UNL A   1      40.666  27.913  28.447  1.00  0.00     0.031 A 
ATOM     36  C   UNL A   1      42.113  28.140  28.789  1.00  0.00     0.074 A 
ATOM     37  C   UNL A   1      39.755  28.874  28.691  1.00  0.00     0.049 A 
ATOM     38  N   UNL A   1      42.679  29.178  29.351  1.00  0.00    -0.248 NA
ATOM     39  C   UNL A   1      43.044  27.044  28.481  1.00  0.00     0.031 C 
ATOM     40  C   UNL A   1      38.318  28.759  28.437  1.00  0.00     0.029 A 
ATOM     41  N   UNL A   1      39.900  30.133  29.218  1.00  0.00    -0.354 N 
ATOM     42  C   UNL A   1      44.024  28.855  29.475  1.00  0.00     0.074 A 
ATOM     43  C   UNL A   1      44.183  27.507  28.976  1.00  0.00     0.031 C 
ATOM     44  C   UNL A   1      37.715  29.904  28.794  1.00  0.00     0.029 A 
ATOM     45  C   UNL A   1      38.716  30.820  29.336  1.00  0.00     0.049 A 
ATOM     46  H   UNL A   1      40.769  30.508  29.488  1.00  0.00     0.167 HD
ATOM     47  C   UNL A   1      45.037  29.623  29.943  1.00  0.00     0.037 A 
ATOM     48  C   UNL A   1      38.465  32.046  29.834  1.00  0.00     0.037 A 
ATOM     49  C   UNL A   1      44.879  30.974  30.414  1.00  0.00     0.049 A 
ATOM     50  C   UNL A   1      39.610  32.874  30.352  1.00  0.00     0.074 A 
ATOM     51  C   UNL A   1      45.851  31.851  30.862  1.00  0.00     0.029 A 
ATOM     52  N   UNL A   1      43.668  31.644  30.494  1.00  0.00    -0.354 N 
ATOM     53  N   UNL A   1      40.886  32.579  30.411  1.00  0.00    -0.248 NA
ATOM     54  C   UNL A   1      39.281  34.211  30.866  1.00  0.00     0.031 C 
ATOM     55  C   UNL A   1      45.224  33.039  31.250  1.00  0.00     0.029 A 
ATOM     56  C   UNL A   1      43.867  32.919  31.000  1.00  0.00     0.049 A 
ATOM     57  H   UNL A   1      42.796  31.270  30.232  1.00  0.00     0.167 HD
ATOM     58  C   UNL A   1      41.513  33.700  30.938  1.00  0.00     0.074 A 
ATOM     59  C   UNL A   1      40.479  34.688  31.168  1.00  0.00     0.031 C 
ATOM     60  C   UNL A   1      42.827  33.894  31.208  1.00  0.00     0.037 A 
BRANCH  47  61
ATOM     61  C   UNL A   1      46.413  29.024  29.960  1.00  0.00     0.064 A 
ATOM     62  C   UNL A   1      47.277  29.139  28.860  1.00  0.00     0.173 A 
ATOM     63  C   UNL A   1      46.896  28.374  31.106  1.00  0.00     0.173 A 
ATOM     64  F   UNL A   1      46.861  29.743  27.736  1.00  0.00    -0.203 F 
ATOM     65  C   UNL A   1      48.562  28.605  28.898  1.00  0.00     0.198 A 
ATOM     66  C   UNL A   1      48.190  27.866  31.152  1.00  0.00     0.198 A 
ATOM     67  F   UNL A   1      46.114  28.242  32.188  1.00  0.00    -0.203 F 
ATOM     68  F   UNL A   1      49.353  28.691  27.820  1.00  0.00    -0.200 F 
ATOM     69  C   UNL A   1      49.021  27.976  30.045  1.00  0.00     0.200 A 
ATOM     70  F   UNL A   1      48.637  27.270  32.265  1.00  0.00    -0.200 F 
ATOM     71  F   UNL A   1      50.262  27.472  30.085  1.00  0.00    -0.200 F 
ENDBRANCH  47  61
BRANCH  48  72
ATOM     72  C   UNL A   1      37.077  32.576  29.850  1.00  0.00     0.064 A 
ATOM     73  C   UNL A   1      36.575  33.310  28.767  1.00  0.00     0.173 A 
ATOM     74  C   UNL A   1      36.231  32.376  30.950  1.00  0.00     0.173 A 
ATOM     75  F   UNL A   1      37.354  33.545  27.700  1.00  0.00    -0.203 F 
ATOM     76  C   UNL A   1      35.290  33.845  28.793  1.00  0.00     0.198 A 
ATOM     77  C   UNL A   1      34.936  32.887  30.964  1.00  0.00     0.198 A 
ATOM     78  F   UNL A   1      36.661  31.676  32.010  1.00  0.00    -0.203 F 
ATOM     79  F   UNL A   1      34.853  34.586  27.765  1.00  0.00    -0.200 F 
ATOM     80  C   UNL A   1      34.469  33.630  29.890  1.00  0.00     0.200 A 
ATOM     81  F   UNL A   1      34.140  32.665  32.019  1.00  0.00    -0.200 F 
ATOM     82  F   UNL A   1      33.232  34.146  29.916  1.00  0.00    -0.200 F 
ENDBRANCH  48  72
BRANCH  60  83
ATOM     83  C   UNL A   1      43.228  35.237  31.744  1.00  0.00     0.064 A 
ATOM     84  C   UNL A   1      43.216  35.515  33.118  1.00  0.00     0.173 A 
ATOM     85  C   UNL A   1      43.668  36.245  30.872  1.00  0.00     0.173 A 
ATOM     86  F   UNL A   1      42.788  34.588  33.990  1.00  0.00    -0.203 F 
ATOM     87  C   UNL A   1      43.607  36.761  33.598  1.00  0.00     0.198 A 
ATOM     88  C   UNL A   1      44.085  37.480  31.357  1.00  0.00     0.198 A 
ATOM     89  F   UNL A   1      43.704  36.026  29.549  1.00  0.00    -0.203 F 
ATOM     90  F   UNL A   1      43.544  37.021  34.911  1.00  0.00    -0.200 F 
ATOM     91  C   UNL A   1      44.048  37.740  32.718  1.00  0.00     0.200 A 
ATOM     92  F   UNL A   1      44.523  38.419  30.508  1.00  0.00    -0.200 F 
ATOM     93  F   UNL A   1      44.430  38.937  33.184  1.00  0.00    -0.200 F 
ENDBRANCH  60  83
ENDBRANCH  34  35
ENDBRANCH  26  29
ENDBRANCH  24  25
ENDBRANCH  23  24
ENDBRANCH  22  23
ENDBRANCH   1  22
TORSDOF 16
ENDMDL
MODEL 3
REMARK VINA RESULT:     -11.4      1.538      3.326
REMARK SMILES C[C@@H]1CC[N@@H+]1CC1(CC(=O)NCCCCCCNC(=O)c2ccc(-c3c4nc(c(-c5c(F)c(F)c(F)c(F)c5F)c5ccc([nH]5)c(-c5c(F)c(F)c(F)c(F)c5F)c5nc(c(-c6c(F)c(F)c(F)c(F)c6F)c6ccc3[nH]6)C=C5)C=C4)cc2)CCCCC1
REMARK SMILES IDX 14 1 13 2 12 3 11 4 9 5 10 6 8 8 7 9 84 10 88 11 85 12 87 13
REMARK SMILES IDX 86 14 6 15 5 16 1 17 2 18 3 19 4 20 15 22 16 23 17 24 18 25
REMARK SMILES IDX 19 26 20 28 21 29 22 30 83 31 23 32 82 33 24 34 25 35 26 36
REMARK SMILES IDX 76 37 27 38 81 39 75 40 77 41 28 42 80 43 74 44 73 45 29 47
REMARK SMILES IDX 61 48 41 49 60 50 42 51 45 52 59 53 78 54 43 55 44 56 58 58
REMARK SMILES IDX 79 59 46 60 30 61 31 62 39 63 32 64 33 65 37 66 40 67 34 68
REMARK SMILES IDX 35 69 38 70 36 71 62 72 63 73 71 74 64 75 65 76 69 77 72 78
REMARK SMILES IDX 66 79 67 80 70 81 68 82 47 83 48 84 56 85 49 86 50 87 54 88
REMARK SMILES IDX 57 89 51 90 52 91 55 92 53 93
REMARK H PARENT 11 7 5 21 18 27 77 46 45 57
REMARK Flexibility Score: inf
ROOT
ATOM      1  C   UNL A   1      32.368  30.037  26.813  1.00  0.00     0.002 C 
ENDROOT
BRANCH   1   2
ATOM      2  C   UNL A   1      31.764  28.760  27.397  1.00  0.00     0.021 C 
BRANCH   2   3
ATOM      3  C   UNL A   1      31.390  27.703  26.351  1.00  0.00     0.116 C 
BRANCH   3   4
ATOM      4  N   UNL A   1      31.448  26.371  26.921  1.00  0.00    -0.356 N 
ATOM      5  C   UNL A   1      31.521  25.147  26.337  1.00  0.00     0.220 C 
ATOM      6  O   UNL A   1      31.520  24.162  27.079  1.00  0.00    -0.275 OA
ATOM      7  H   UNL A   1      31.431  26.350  27.904  1.00  0.00     0.163 HD
BRANCH   5   8
ATOM      8  C   UNL A   1      31.626  24.968  24.824  1.00  0.00     0.112 C 
BRANCH   8   9
ATOM      9  C   UNL A   1      33.042  24.644  24.192  1.00  0.00     0.028 C 
ATOM     10  C   UNL A   1      33.983  25.835  24.527  1.00  0.00     0.013 C 
ATOM     11  C   UNL A   1      32.932  24.581  22.653  1.00  0.00     0.013 C 
ATOM     12  C   UNL A   1      33.587  27.160  23.868  1.00  0.00     0.001 C 
ATOM     13  C   UNL A   1      32.534  25.893  21.971  1.00  0.00     0.001 C 
ATOM     14  C   UNL A   1      33.488  27.014  22.354  1.00  0.00     0.000 C 
BRANCH   9  15
ATOM     15  C   UNL A   1      33.570  23.296  24.847  1.00  0.00     0.269 C 
BRANCH  15  16
ATOM     16  N   UNL A   1      32.889  22.045  25.199  1.00  0.00    -0.332 N 
ATOM     17  C   UNL A   1      34.142  21.647  27.426  1.00  0.00     0.075 C 
ATOM     18  C   UNL A   1      33.334  21.126  26.259  1.00  0.00     0.186 C 
ATOM     19  C   UNL A   1      33.962  20.235  25.161  1.00  0.00     0.126 C 
ATOM     20  C   UNL A   1      32.984  20.964  24.209  1.00  0.00     0.268 C 
ATOM     21  H   UNL A   1      32.036  22.568  25.397  1.00  0.00     0.348 HD
ENDBRANCH  15  16
ENDBRANCH   9  15
ENDBRANCH   8   9
ENDBRANCH   5   8
ENDBRANCH   3   4
ENDBRANCH   2   3
ENDBRANCH   1   2
BRANCH   1  22
ATOM     22  C   UNL A   1      31.363  30.930  26.076  1.00  0.00     0.002 C 
BRANCH  22  23
ATOM     23  C   UNL A   1      31.303  32.390  26.540  1.00  0.00     0.021 C 
BRANCH  23  24
ATOM     24  C   UNL A   1      32.560  32.905  27.240  1.00  0.00     0.116 C 
BRANCH  24  25
ATOM     25  N   UNL A   1      32.425  34.293  27.647  1.00  0.00    -0.352 N 
ATOM     26  C   UNL A   1      33.030  34.974  28.672  1.00  0.00     0.251 C 
ATOM     27  H   UNL A   1      31.801  34.828  27.103  1.00  0.00     0.163 HD
ATOM     28  O   UNL A   1      32.611  36.075  29.012  1.00  0.00    -0.269 OA
BRANCH  26  29
ATOM     29  C   UNL A   1      34.190  34.386  29.374  1.00  0.00     0.039 A 
ATOM     30  C   UNL A   1      33.979  33.721  30.586  1.00  0.00     0.014 A 
ATOM     31  C   UNL A   1      35.486  34.533  28.870  1.00  0.00     0.014 A 
ATOM     32  C   UNL A   1      35.062  33.159  31.267  1.00  0.00     0.010 A 
ATOM     33  C   UNL A   1      36.555  33.919  29.517  1.00  0.00     0.010 A 
ATOM     34  C   UNL A   1      36.355  33.233  30.725  1.00  0.00    -0.014 A 
BRANCH  34  35
ATOM     35  C   UNL A   1      37.513  32.607  31.411  1.00  0.00     0.031 A 
ATOM     36  C   UNL A   1      38.235  31.453  30.773  1.00  0.00     0.074 A 
ATOM     37  C   UNL A   1      37.873  33.037  32.636  1.00  0.00     0.049 A 
ATOM     38  N   UNL A   1      39.211  30.719  31.248  1.00  0.00    -0.248 NA
ATOM     39  C   UNL A   1      37.786  31.053  29.430  1.00  0.00     0.031 C 
ATOM     40  C   UNL A   1      37.227  34.122  33.374  1.00  0.00     0.029 A 
ATOM     41  N   UNL A   1      38.866  32.605  33.480  1.00  0.00    -0.354 N 
ATOM     42  C   UNL A   1      39.479  29.768  30.273  1.00  0.00     0.074 A 
ATOM     43  C   UNL A   1      38.534  29.985  29.199  1.00  0.00     0.031 C 
ATOM     44  C   UNL A   1      37.847  34.281  34.554  1.00  0.00     0.029 A 
ATOM     45  C   UNL A   1      38.909  33.287  34.672  1.00  0.00     0.049 A 
ATOM     46  H   UNL A   1      39.486  31.874  33.255  1.00  0.00     0.167 HD
ATOM     47  C   UNL A   1      40.443  28.815  30.265  1.00  0.00     0.037 A 
ATOM     48  C   UNL A   1      39.711  33.122  35.742  1.00  0.00     0.037 A 
ATOM     49  C   UNL A   1      41.398  28.621  31.324  1.00  0.00     0.049 A 
ATOM     50  C   UNL A   1      40.768  32.052  35.707  1.00  0.00     0.074 A 
ATOM     51  C   UNL A   1      42.443  27.715  31.388  1.00  0.00     0.029 A 
ATOM     52  N   UNL A   1      41.426  29.349  32.504  1.00  0.00    -0.354 N 
ATOM     53  N   UNL A   1      41.049  31.196  34.755  1.00  0.00    -0.248 NA
ATOM     54  C   UNL A   1      41.626  31.930  36.894  1.00  0.00     0.031 C 
ATOM     55  C   UNL A   1      43.080  27.869  32.623  1.00  0.00     0.029 A 
ATOM     56  C   UNL A   1      42.462  28.902  33.309  1.00  0.00     0.049 A 
ATOM     57  H   UNL A   1      40.803  30.075  32.735  1.00  0.00     0.167 HD
ATOM     58  C   UNL A   1      42.132  30.457  35.214  1.00  0.00     0.074 A 
ATOM     59  C   UNL A   1      42.467  30.975  36.524  1.00  0.00     0.031 C 
ATOM     60  C   UNL A   1      42.789  29.440  34.604  1.00  0.00     0.037 A 
BRANCH  47  61
ATOM     61  C   UNL A   1      40.519  27.913  29.069  1.00  0.00     0.064 A 
ATOM     62  C   UNL A   1      41.385  28.185  27.999  1.00  0.00     0.173 A 
ATOM     63  C   UNL A   1      39.758  26.736  29.011  1.00  0.00     0.173 A 
ATOM     64  F   UNL A   1      42.128  29.303  28.000  1.00  0.00    -0.203 F 
ATOM     65  C   UNL A   1      41.469  27.326  26.907  1.00  0.00     0.198 A 
ATOM     66  C   UNL A   1      39.865  25.864  27.932  1.00  0.00     0.198 A 
ATOM     67  F   UNL A   1      38.918  26.424  30.010  1.00  0.00    -0.203 F 
ATOM     68  F   UNL A   1      42.274  27.629  25.878  1.00  0.00    -0.200 F 
ATOM     69  C   UNL A   1      40.716  26.162  26.877  1.00  0.00     0.200 A 
ATOM     70  F   UNL A   1      39.146  24.734  27.911  1.00  0.00    -0.200 F 
ATOM     71  F   UNL A   1      40.805  25.330  25.831  1.00  0.00    -0.200 F 
ENDBRANCH  47  61
BRANCH  48  72
ATOM     72  C   UNL A   1      39.561  34.002  36.930  1.00  0.00     0.064 A 
ATOM     73  C   UNL A   1      40.201  35.248  36.987  1.00  0.00     0.173 A 
ATOM     74  C   UNL A   1      38.792  33.613  38.035  1.00  0.00     0.173 A 
ATOM     75  F   UNL A   1      40.964  35.656  35.962  1.00  0.00    -0.203 F 
ATOM     76  C   UNL A   1      40.098  36.059  38.114  1.00  0.00     0.198 A 
ATOM     77  C   UNL A   1      38.667  34.437  39.151  1.00  0.00     0.198 A 
ATOM     78  F   UNL A   1      38.155  32.432  38.029  1.00  0.00    -0.203 F 
ATOM     79  F   UNL A   1      40.762  37.223  38.162  1.00  0.00    -0.200 F 
ATOM     80  C   UNL A   1      39.328  35.655  39.194  1.00  0.00     0.200 A 
ATOM     81  F   UNL A   1      37.910  34.050  40.187  1.00  0.00    -0.200 F 
ATOM     82  F   UNL A   1      39.230  36.436  40.280  1.00  0.00    -0.200 F 
ENDBRANCH  48  72
BRANCH  60  83
ATOM     83  C   UNL A   1      43.961  28.847  35.330  1.00  0.00     0.064 A 
ATOM     84  C   UNL A   1      43.806  27.793  36.242  1.00  0.00     0.173 A 
ATOM     85  C   UNL A   1      45.260  29.314  35.078  1.00  0.00     0.173 A 
ATOM     86  F   UNL A   1      42.582  27.323  36.528  1.00  0.00    -0.203 F 
ATOM     87  C   UNL A   1      44.907  27.244  36.893  1.00  0.00     0.198 A 
ATOM     88  C   UNL A   1      46.362  28.744  35.709  1.00  0.00     0.198 A 
ATOM     89  F   UNL A   1      45.462  30.316  34.209  1.00  0.00    -0.203 F 
ATOM     90  F   UNL A   1      44.732  26.269  37.795  1.00  0.00    -0.200 F 
ATOM     91  C   UNL A   1      46.184  27.715  36.621  1.00  0.00     0.200 A 
ATOM     92  F   UNL A   1      47.595  29.191  35.435  1.00  0.00    -0.200 F 
ATOM     93  F   UNL A   1      47.243  27.180  37.244  1.00  0.00    -0.200 F 
ENDBRANCH  60  83
ENDBRANCH  34  35
ENDBRANCH  26  29
ENDBRANCH  24  25
ENDBRANCH  23  24
ENDBRANCH  22  23
ENDBRANCH   1  22
TORSDOF 16
ENDMDL
