MODEL 1
REMARK VINA RESULT:     -12.3      0.000      0.000
REMARK SMILES CC[C@@]1(C(=O)NCCCCCCNC(=O)c2ccc(-c3c4nc(c(-c5c(F)c(F)c(F)c(F)c5F)c5ccc([nH]5)c(-c5c(F)c(F)c(F)c(F)c5F)c5nc(c(-c6c(F)c(F)c(F)c(F)c6F)c6ccc3[nH]6)C=C5)C=C4)cc2)CCC[N@@H+](Cc2ccc(C3CC3)cc2)C1
REMARK SMILES IDX 9 1 8 2 7 3 6 4 4 5 5 6 3 8 79 9 93 10 80 11 82 12 81 13
REMARK SMILES IDX 2 15 1 16 83 17 84 18 85 19 92 20 86 21 91 22 87 23 88 24
REMARK SMILES IDX 89 25 90 26 10 27 11 28 12 29 13 30 14 31 15 33 16 34 17 35
REMARK SMILES IDX 78 36 18 37 77 38 19 39 20 40 21 41 71 42 22 43 76 44 70 45
REMARK SMILES IDX 72 46 23 47 75 48 69 49 68 50 24 52 56 53 36 54 55 55 37 56
REMARK SMILES IDX 40 57 54 58 73 59 38 60 39 61 53 63 74 64 41 65 25 66 26 67
REMARK SMILES IDX 34 68 27 69 28 70 32 71 35 72 29 73 30 74 33 75 31 76 57 77
REMARK SMILES IDX 58 78 66 79 59 80 60 81 64 82 67 83 61 84 62 85 65 86 63 87
REMARK SMILES IDX 42 88 43 89 51 90 44 91 45 92 49 93 52 94 46 95 47 96 50 97
REMARK SMILES IDX 48 98
REMARK H PARENT 6 7 82 14 13 32 72 51 40 62
REMARK Flexibility Score: inf
ROOT
ATOM      1  C   UNL A   1      32.017  29.968  26.479  1.00  0.00     0.002 C 
ENDROOT
BRANCH   1   2
ATOM      2  C   UNL A   1      32.045  28.599  25.796  1.00  0.00     0.021 C 
BRANCH   2   3
ATOM      3  C   UNL A   1      32.315  27.429  26.744  1.00  0.00     0.116 C 
BRANCH   3   4
ATOM      4  N   UNL A   1      31.177  26.548  26.871  1.00  0.00    -0.355 N 
ATOM      5  C   UNL A   1      30.909  25.293  26.436  1.00  0.00     0.231 C 
ATOM      6  O   UNL A   1      29.737  24.939  26.633  1.00  0.00    -0.274 OA
ATOM      7  H   UNL A   1      30.435  26.946  27.383  1.00  0.00     0.163 HD
BRANCH   5   8
ATOM      8  C   UNL A   1      31.890  24.360  25.662  1.00  0.00     0.098 C 
ATOM      9  C   UNL A   1      33.400  24.467  26.010  1.00  0.00     0.028 C 
ATOM     10  C   UNL A   1      31.636  24.581  24.157  1.00  0.00     0.279 C 
ATOM     11  C   UNL A   1      34.328  25.205  25.024  1.00  0.00     0.063 C 
ATOM     12  N   UNL A   1      32.313  25.788  23.691  1.00  0.00    -0.330 N 
ATOM     13  C   UNL A   1      33.755  25.565  23.649  1.00  0.00     0.262 C 
ATOM     14  H   UNL A   1      32.154  26.534  24.368  1.00  0.00     0.348 HD
BRANCH   8  15
ATOM     15  C   UNL A   1      31.444  22.876  25.958  1.00  0.00     0.019 C 
ATOM     16  C   UNL A   1      32.477  21.795  25.634  1.00  0.00     0.005 C 
ENDBRANCH   8  15
BRANCH  12  17
ATOM     17  C   UNL A   1      31.730  26.342  22.460  1.00  0.00     0.299 C 
BRANCH  17  18
ATOM     18  C   UNL A   1      30.790  27.509  22.628  1.00  0.00     0.006 A 
ATOM     19  C   UNL A   1      31.183  28.781  22.198  1.00  0.00     0.010 A 
ATOM     20  C   UNL A   1      29.510  27.346  23.158  1.00  0.00     0.010 A 
ATOM     21  C   UNL A   1      30.284  29.848  22.235  1.00  0.00     0.004 A 
ATOM     22  C   UNL A   1      28.614  28.418  23.180  1.00  0.00     0.004 A 
ATOM     23  C   UNL A   1      28.966  29.689  22.693  1.00  0.00    -0.045 A 
BRANCH  23  24
ATOM     24  C   UNL A   1      28.003  30.855  22.615  1.00  0.00     0.019 C 
ATOM     25  C   UNL A   1      27.555  31.577  23.862  1.00  0.00     0.009 C 
ATOM     26  C   UNL A   1      28.457  32.266  22.878  1.00  0.00     0.009 C 
ENDBRANCH  23  24
ENDBRANCH  17  18
ENDBRANCH  12  17
ENDBRANCH   5   8
ENDBRANCH   3   4
ENDBRANCH   2   3
ENDBRANCH   1   2
BRANCH   1  27
ATOM     27  C   UNL A   1      31.136  31.023  25.797  1.00  0.00     0.002 C 
BRANCH  27  28
ATOM     28  C   UNL A   1      31.075  32.390  26.488  1.00  0.00     0.021 C 
BRANCH  28  29
ATOM     29  C   UNL A   1      32.353  32.808  27.213  1.00  0.00     0.116 C 
BRANCH  29  30
ATOM     30  N   UNL A   1      32.315  34.203  27.626  1.00  0.00    -0.352 N 
ATOM     31  C   UNL A   1      32.995  34.860  28.615  1.00  0.00     0.251 C 
ATOM     32  H   UNL A   1      31.696  34.768  27.108  1.00  0.00     0.163 HD
ATOM     33  O   UNL A   1      32.629  35.983  28.964  1.00  0.00    -0.269 OA
BRANCH  31  34
ATOM     34  C   UNL A   1      34.168  34.246  29.271  1.00  0.00     0.039 A 
ATOM     35  C   UNL A   1      33.968  33.462  30.412  1.00  0.00     0.014 A 
ATOM     36  C   UNL A   1      35.465  34.499  28.818  1.00  0.00     0.014 A 
ATOM     37  C   UNL A   1      35.063  32.893  31.069  1.00  0.00     0.010 A 
ATOM     38  C   UNL A   1      36.552  33.881  29.434  1.00  0.00     0.010 A 
ATOM     39  C   UNL A   1      36.361  33.079  30.571  1.00  0.00    -0.014 A 
BRANCH  39  40
ATOM     40  C   UNL A   1      37.533  32.448  31.226  1.00  0.00     0.031 A 
ATOM     41  C   UNL A   1      38.241  31.294  30.571  1.00  0.00     0.074 A 
ATOM     42  C   UNL A   1      37.910  32.861  32.450  1.00  0.00     0.049 A 
ATOM     43  N   UNL A   1      39.229  30.565  31.022  1.00  0.00    -0.248 NA
ATOM     44  C   UNL A   1      37.751  30.889  29.244  1.00  0.00     0.031 C 
ATOM     45  C   UNL A   1      37.266  33.931  33.213  1.00  0.00     0.029 A 
ATOM     46  N   UNL A   1      38.913  32.418  33.275  1.00  0.00    -0.354 N 
ATOM     47  C   UNL A   1      39.461  29.600  30.049  1.00  0.00     0.074 A 
ATOM     48  C   UNL A   1      38.483  29.812  29.003  1.00  0.00     0.031 C 
ATOM     49  C   UNL A   1      37.894  34.067  34.392  1.00  0.00     0.029 A 
ATOM     50  C   UNL A   1      38.962  33.075  34.480  1.00  0.00     0.049 A 
ATOM     51  H   UNL A   1      39.537  31.699  33.027  1.00  0.00     0.167 HD
ATOM     52  C   UNL A   1      40.414  28.637  30.024  1.00  0.00     0.037 A 
ATOM     53  C   UNL A   1      39.770  32.892  35.541  1.00  0.00     0.037 A 
ATOM     54  C   UNL A   1      41.406  28.454  31.052  1.00  0.00     0.049 A 
ATOM     55  C   UNL A   1      40.842  31.840  35.477  1.00  0.00     0.074 A 
ATOM     56  C   UNL A   1      42.471  27.571  31.076  1.00  0.00     0.029 A 
ATOM     57  N   UNL A   1      41.451  29.166  32.241  1.00  0.00    -0.354 N 
ATOM     58  N   UNL A   1      41.107  30.989  34.517  1.00  0.00    -0.248 NA
ATOM     59  C   UNL A   1      41.732  31.729  36.640  1.00  0.00     0.031 C 
ATOM     60  C   UNL A   1      43.133  27.716  32.300  1.00  0.00     0.029 A 
ATOM     61  C   UNL A   1      42.509  28.723  33.019  1.00  0.00     0.049 A 
ATOM     62  H   UNL A   1      40.823  29.880  32.495  1.00  0.00     0.167 HD
ATOM     63  C   UNL A   1      42.203  30.255  34.948  1.00  0.00     0.074 A 
ATOM     64  C   UNL A   1      42.563  30.772  36.252  1.00  0.00     0.031 C 
ATOM     65  C   UNL A   1      42.851  29.243  34.319  1.00  0.00     0.037 A 
BRANCH  52  66
ATOM     66  C   UNL A   1      40.422  27.702  28.849  1.00  0.00     0.064 A 
ATOM     67  C   UNL A   1      41.196  27.956  27.706  1.00  0.00     0.173 A 
ATOM     68  C   UNL A   1      39.657  26.526  28.873  1.00  0.00     0.173 A 
ATOM     69  F   UNL A   1      41.938  29.071  27.629  1.00  0.00    -0.203 F 
ATOM     70  C   UNL A   1      41.174  27.088  26.618  1.00  0.00     0.198 A 
ATOM     71  C   UNL A   1      39.660  25.646  27.795  1.00  0.00     0.198 A 
ATOM     72  F   UNL A   1      38.903  26.231  29.944  1.00  0.00    -0.203 F 
ATOM     73  F   UNL A   1      41.877  27.382  25.515  1.00  0.00    -0.200 F 
ATOM     74  C   UNL A   1      40.410  25.932  26.664  1.00  0.00     0.200 A 
ATOM     75  F   UNL A   1      38.931  24.522  27.846  1.00  0.00    -0.200 F 
ATOM     76  F   UNL A   1      40.390  25.098  25.615  1.00  0.00    -0.200 F 
ENDBRANCH  52  66
BRANCH  53  77
ATOM     77  C   UNL A   1      39.605  33.753  36.740  1.00  0.00     0.064 A 
ATOM     78  C   UNL A   1      40.245  34.995  36.827  1.00  0.00     0.173 A 
ATOM     79  C   UNL A   1      38.777  33.366  37.803  1.00  0.00     0.173 A 
ATOM     80  F   UNL A   1      41.061  35.398  35.842  1.00  0.00    -0.203 F 
ATOM     81  C   UNL A   1      40.069  35.818  37.937  1.00  0.00     0.198 A 
ATOM     82  C   UNL A   1      38.581  34.199  38.901  1.00  0.00     0.198 A 
ATOM     83  F   UNL A   1      38.136  32.188  37.761  1.00  0.00    -0.203 F 
ATOM     84  F   UNL A   1      40.713  36.990  38.009  1.00  0.00    -0.200 F 
ATOM     85  C   UNL A   1      39.230  35.423  38.969  1.00  0.00     0.200 A 
ATOM     86  F   UNL A   1      37.759  33.822  39.890  1.00  0.00    -0.200 F 
ATOM     87  F   UNL A   1      39.050  36.221  40.031  1.00  0.00    -0.200 F 
ENDBRANCH  53  77
BRANCH  65  88
ATOM     88  C   UNL A   1      44.029  28.639  35.026  1.00  0.00     0.064 A 
ATOM     89  C   UNL A   1      45.322  29.161  34.872  1.00  0.00     0.173 A 
ATOM     90  C   UNL A   1      43.855  27.554  35.898  1.00  0.00     0.173 A 
ATOM     91  F   UNL A   1      45.541  30.187  34.038  1.00  0.00    -0.203 F 
ATOM     92  C   UNL A   1      46.403  28.603  35.550  1.00  0.00     0.198 A 
ATOM     93  C   UNL A   1      44.933  27.017  36.595  1.00  0.00     0.198 A 
ATOM     94  F   UNL A   1      42.638  27.024  36.083  1.00  0.00    -0.203 F 
ATOM     95  F   UNL A   1      47.637  29.088  35.356  1.00  0.00    -0.200 F 
ATOM     96  C   UNL A   1      46.207  27.537  36.416  1.00  0.00     0.200 A 
ATOM     97  F   UNL A   1      44.741  25.995  37.440  1.00  0.00    -0.200 F 
ATOM     98  F   UNL A   1      47.247  27.006  37.073  1.00  0.00    -0.200 F 
ENDBRANCH  65  88
ENDBRANCH  39  40
ENDBRANCH  31  34
ENDBRANCH  29  30
ENDBRANCH  28  29
ENDBRANCH  27  28
ENDBRANCH   1  27
TORSDOF 17
ENDMDL
MODEL 2
REMARK VINA RESULT:     -12.2      1.191      2.009
REMARK SMILES CC[C@@]1(C(=O)NCCCCCCNC(=O)c2ccc(-c3c4nc(c(-c5c(F)c(F)c(F)c(F)c5F)c5ccc([nH]5)c(-c5c(F)c(F)c(F)c(F)c5F)c5nc(c(-c6c(F)c(F)c(F)c(F)c6F)c6ccc3[nH]6)C=C5)C=C4)cc2)CCC[N@@H+](Cc2ccc(C3CC3)cc2)C1
REMARK SMILES IDX 9 1 8 2 7 3 6 4 4 5 5 6 3 8 79 9 93 10 80 11 82 12 81 13
REMARK SMILES IDX 2 15 1 16 83 17 84 18 85 19 92 20 86 21 91 22 87 23 88 24
REMARK SMILES IDX 89 25 90 26 10 27 11 28 12 29 13 30 14 31 15 33 16 34 17 35
REMARK SMILES IDX 78 36 18 37 77 38 19 39 20 40 21 41 71 42 22 43 76 44 70 45
REMARK SMILES IDX 72 46 23 47 75 48 69 49 68 50 24 52 56 53 36 54 55 55 37 56
REMARK SMILES IDX 40 57 54 58 73 59 38 60 39 61 53 63 74 64 41 65 25 66 26 67
REMARK SMILES IDX 34 68 27 69 28 70 32 71 35 72 29 73 30 74 33 75 31 76 57 77
REMARK SMILES IDX 58 78 66 79 59 80 60 81 64 82 67 83 61 84 62 85 65 86 63 87
REMARK SMILES IDX 42 88 43 89 51 90 44 91 45 92 49 93 52 94 46 95 47 96 50 97
REMARK SMILES IDX 48 98
REMARK H PARENT 6 7 82 14 13 32 72 51 40 62
REMARK Flexibility Score: inf
ROOT
ATOM      1  C   UNL A   1      32.202  29.805  26.076  1.00  0.00     0.002 C 
ENDROOT
BRANCH   1   2
ATOM      2  C   UNL A   1      33.223  29.469  24.988  1.00  0.00     0.021 C 
BRANCH   2   3
ATOM      3  C   UNL A   1      33.657  28.002  24.965  1.00  0.00     0.116 C 
BRANCH   3   4
ATOM      4  N   UNL A   1      33.769  27.481  23.621  1.00  0.00    -0.355 N 
ATOM      5  C   UNL A   1      33.778  26.231  23.098  1.00  0.00     0.231 C 
ATOM      6  O   UNL A   1      34.044  26.202  21.887  1.00  0.00    -0.274 OA
ATOM      7  H   UNL A   1      33.857  28.186  22.939  1.00  0.00     0.163 HD
BRANCH   5   8
ATOM      8  C   UNL A   1      33.588  24.901  23.891  1.00  0.00     0.098 C 
ATOM      9  C   UNL A   1      33.541  23.583  23.070  1.00  0.00     0.028 C 
ATOM     10  C   UNL A   1      32.331  25.071  24.767  1.00  0.00     0.279 C 
ATOM     11  C   UNL A   1      32.173  22.906  22.850  1.00  0.00     0.063 C 
ATOM     12  N   UNL A   1      31.120  24.852  23.982  1.00  0.00    -0.330 N 
ATOM     13  C   UNL A   1      30.985  23.435  23.660  1.00  0.00     0.262 C 
ATOM     14  H   UNL A   1      31.213  25.344  23.093  1.00  0.00     0.348 HD
BRANCH   8  15
ATOM     15  C   UNL A   1      34.800  24.787  24.895  1.00  0.00     0.019 C 
ATOM     16  C   UNL A   1      35.622  23.501  24.798  1.00  0.00     0.005 C 
ENDBRANCH   8  15
BRANCH  12  17
ATOM     17  C   UNL A   1      29.926  25.477  24.571  1.00  0.00     0.299 C 
BRANCH  17  18
ATOM     18  C   UNL A   1      29.411  26.718  23.887  1.00  0.00     0.006 A 
ATOM     19  C   UNL A   1      28.035  26.966  23.849  1.00  0.00     0.010 A 
ATOM     20  C   UNL A   1      30.278  27.660  23.333  1.00  0.00     0.010 A 
ATOM     21  C   UNL A   1      27.548  28.166  23.328  1.00  0.00     0.004 A 
ATOM     22  C   UNL A   1      29.781  28.862  22.823  1.00  0.00     0.004 A 
ATOM     23  C   UNL A   1      28.407  29.161  22.834  1.00  0.00    -0.045 A 
BRANCH  23  24
ATOM     24  C   UNL A   1      27.832  30.484  22.375  1.00  0.00     0.019 C 
ATOM     25  C   UNL A   1      27.684  31.640  23.334  1.00  0.00     0.009 C 
ATOM     26  C   UNL A   1      28.698  31.707  22.228  1.00  0.00     0.009 C 
ENDBRANCH  23  24
ENDBRANCH  17  18
ENDBRANCH  12  17
ENDBRANCH   5   8
ENDBRANCH   3   4
ENDBRANCH   2   3
ENDBRANCH   1   2
BRANCH   1  27
ATOM     27  C   UNL A   1      31.066  30.741  25.642  1.00  0.00     0.002 C 
BRANCH  27  28
ATOM     28  C   UNL A   1      31.046  32.121  26.310  1.00  0.00     0.021 C 
BRANCH  28  29
ATOM     29  C   UNL A   1      32.337  32.514  27.026  1.00  0.00     0.116 C 
BRANCH  29  30
ATOM     30  N   UNL A   1      32.331  33.911  27.433  1.00  0.00    -0.352 N 
ATOM     31  C   UNL A   1      33.038  34.559  28.409  1.00  0.00     0.251 C 
ATOM     32  H   UNL A   1      31.717  34.486  26.921  1.00  0.00     0.163 HD
ATOM     33  O   UNL A   1      32.699  35.690  28.757  1.00  0.00    -0.269 OA
BRANCH  31  34
ATOM     34  C   UNL A   1      34.208  33.925  29.053  1.00  0.00     0.039 A 
ATOM     35  C   UNL A   1      35.487  34.390  28.730  1.00  0.00     0.014 A 
ATOM     36  C   UNL A   1      34.058  32.831  29.908  1.00  0.00     0.014 A 
ATOM     37  C   UNL A   1      36.612  33.789  29.303  1.00  0.00     0.010 A 
ATOM     38  C   UNL A   1      35.174  32.274  30.529  1.00  0.00     0.010 A 
ATOM     39  C   UNL A   1      36.463  32.742  30.225  1.00  0.00    -0.014 A 
BRANCH  39  40
ATOM     40  C   UNL A   1      37.640  32.120  30.879  1.00  0.00     0.031 A 
ATOM     41  C   UNL A   1      38.432  31.059  30.167  1.00  0.00     0.074 A 
ATOM     42  C   UNL A   1      37.948  32.453  32.146  1.00  0.00     0.049 A 
ATOM     43  N   UNL A   1      39.440  30.345  30.602  1.00  0.00    -0.248 NA
ATOM     44  C   UNL A   1      38.015  30.736  28.794  1.00  0.00     0.031 C 
ATOM     45  C   UNL A   1      37.220  33.426  32.961  1.00  0.00     0.029 A 
ATOM     46  N   UNL A   1      38.940  31.996  32.977  1.00  0.00    -0.354 N 
ATOM     47  C   UNL A   1      39.758  29.473  29.569  1.00  0.00     0.074 A 
ATOM     48  C   UNL A   1      38.812  29.719  28.502  1.00  0.00     0.031 C 
ATOM     49  C   UNL A   1      37.793  33.499  34.172  1.00  0.00     0.029 A 
ATOM     50  C   UNL A   1      38.908  32.557  34.230  1.00  0.00     0.049 A 
ATOM     51  H   UNL A   1      39.610  31.330  32.701  1.00  0.00     0.167 HD
ATOM     52  C   UNL A   1      40.761  28.563  29.510  1.00  0.00     0.037 A 
ATOM     53  C   UNL A   1      39.682  32.331  35.306  1.00  0.00     0.037 A 
ATOM     54  C   UNL A   1      41.721  28.348  30.561  1.00  0.00     0.049 A 
ATOM     55  C   UNL A   1      40.810  31.341  35.207  1.00  0.00     0.074 A 
ATOM     56  C   UNL A   1      42.829  27.519  30.563  1.00  0.00     0.029 A 
ATOM     57  N   UNL A   1      41.683  28.965  31.803  1.00  0.00    -0.354 N 
ATOM     58  N   UNL A   1      41.156  30.582  34.196  1.00  0.00    -0.248 NA
ATOM     59  C   UNL A   1      41.659  31.182  36.395  1.00  0.00     0.031 C 
ATOM     60  C   UNL A   1      43.435  27.599  31.822  1.00  0.00     0.029 A 
ATOM     61  C   UNL A   1      42.732  28.514  32.589  1.00  0.00     0.049 A 
ATOM     62  H   UNL A   1      41.009  29.625  32.085  1.00  0.00     0.167 HD
ATOM     63  C   UNL A   1      42.271  29.871  34.616  1.00  0.00     0.074 A 
ATOM     64  C   UNL A   1      42.553  30.300  35.970  1.00  0.00     0.031 C 
ATOM     65  C   UNL A   1      42.996  28.946  33.938  1.00  0.00     0.037 A 
BRANCH  52  66
ATOM     66  C   UNL A   1      40.863  27.726  28.267  1.00  0.00     0.064 A 
ATOM     67  C   UNL A   1      41.620  28.135  27.159  1.00  0.00     0.173 A 
ATOM     68  C   UNL A   1      40.208  26.487  28.191  1.00  0.00     0.173 A 
ATOM     69  F   UNL A   1      42.258  29.316  27.177  1.00  0.00    -0.203 F 
ATOM     70  C   UNL A   1      41.686  27.356  26.008  1.00  0.00     0.198 A 
ATOM     71  C   UNL A   1      40.301  25.696  27.049  1.00  0.00     0.198 A 
ATOM     72  F   UNL A   1      39.477  26.043  29.225  1.00  0.00    -0.203 F 
ATOM     73  F   UNL A   1      42.367  27.796  24.940  1.00  0.00    -0.200 F 
ATOM     74  C   UNL A   1      41.030  26.136  25.955  1.00  0.00     0.200 A 
ATOM     75  F   UNL A   1      39.677  24.511  27.004  1.00  0.00    -0.200 F 
ATOM     76  F   UNL A   1      41.094  25.386  24.845  1.00  0.00    -0.200 F 
ENDBRANCH  52  66
BRANCH  53  77
ATOM     77  C   UNL A   1      39.427  33.084  36.560  1.00  0.00     0.064 A 
ATOM     78  C   UNL A   1      40.063  34.306  36.808  1.00  0.00     0.173 A 
ATOM     79  C   UNL A   1      38.514  32.615  37.516  1.00  0.00     0.173 A 
ATOM     80  F   UNL A   1      40.958  34.784  35.930  1.00  0.00    -0.203 F 
ATOM     81  C   UNL A   1      39.803  35.030  37.969  1.00  0.00     0.198 A 
ATOM     82  C   UNL A   1      38.235  33.351  38.665  1.00  0.00     0.198 A 
ATOM     83  F   UNL A   1      37.873  31.453  37.320  1.00  0.00    -0.203 F 
ATOM     84  F   UNL A   1      40.446  36.184  38.195  1.00  0.00    -0.200 F 
ATOM     85  C   UNL A   1      38.883  34.556  38.892  1.00  0.00     0.200 A 
ATOM     86  F   UNL A   1      37.335  32.898  39.548  1.00  0.00    -0.200 F 
ATOM     87  F   UNL A   1      38.622  35.259  40.003  1.00  0.00    -0.200 F 
ENDBRANCH  53  77
BRANCH  65  88
ATOM     88  C   UNL A   1      44.175  28.347  34.646  1.00  0.00     0.064 A 
ATOM     89  C   UNL A   1      44.064  27.152  35.373  1.00  0.00     0.173 A 
ATOM     90  C   UNL A   1      45.439  28.951  34.562  1.00  0.00     0.173 A 
ATOM     91  F   UNL A   1      42.875  26.545  35.496  1.00  0.00    -0.203 F 
ATOM     92  C   UNL A   1      45.172  26.597  36.008  1.00  0.00     0.198 A 
ATOM     93  C   UNL A   1      46.549  28.378  35.174  1.00  0.00     0.198 A 
ATOM     94  F   UNL A   1      45.597  30.092  33.874  1.00  0.00    -0.203 F 
ATOM     95  F   UNL A   1      45.035  25.477  36.733  1.00  0.00    -0.200 F 
ATOM     96  C   UNL A   1      46.414  27.205  35.902  1.00  0.00     0.200 A 
ATOM     97  F   UNL A   1      47.750  28.961  35.062  1.00  0.00    -0.200 F 
ATOM     98  F   UNL A   1      47.480  26.665  36.508  1.00  0.00    -0.200 F 
ENDBRANCH  65  88
ENDBRANCH  39  40
ENDBRANCH  31  34
ENDBRANCH  29  30
ENDBRANCH  28  29
ENDBRANCH  27  28
ENDBRANCH   1  27
TORSDOF 17
ENDMDL
MODEL 3
REMARK VINA RESULT:     -12.1      0.648      7.163
REMARK SMILES CC[C@@]1(C(=O)NCCCCCCNC(=O)c2ccc(-c3c4nc(c(-c5c(F)c(F)c(F)c(F)c5F)c5ccc([nH]5)c(-c5c(F)c(F)c(F)c(F)c5F)c5nc(c(-c6c(F)c(F)c(F)c(F)c6F)c6ccc3[nH]6)C=C5)C=C4)cc2)CCC[N@@H+](Cc2ccc(C3CC3)cc2)C1
REMARK SMILES IDX 9 1 8 2 7 3 6 4 4 5 5 6 3 8 79 9 93 10 80 11 82 12 81 13
REMARK SMILES IDX 2 15 1 16 83 17 84 18 85 19 92 20 86 21 91 22 87 23 88 24
REMARK SMILES IDX 89 25 90 26 10 27 11 28 12 29 13 30 14 31 15 33 16 34 17 35
REMARK SMILES IDX 78 36 18 37 77 38 19 39 20 40 21 41 71 42 22 43 76 44 70 45
REMARK SMILES IDX 72 46 23 47 75 48 69 49 68 50 24 52 56 53 36 54 55 55 37 56
REMARK SMILES IDX 40 57 54 58 73 59 38 60 39 61 53 63 74 64 41 65 25 66 26 67
REMARK SMILES IDX 34 68 27 69 28 70 32 71 35 72 29 73 30 74 33 75 31 76 57 77
REMARK SMILES IDX 58 78 66 79 59 80 60 81 64 82 67 83 61 84 62 85 65 86 63 87
REMARK SMILES IDX 42 88 43 89 51 90 44 91 45 92 49 93 52 94 46 95 47 96 50 97
REMARK SMILES IDX 48 98
REMARK H PARENT 6 7 82 14 13 32 72 51 40 62
REMARK Flexibility Score: inf
ROOT
ATOM      1  C   UNL A   1      31.820  29.860  26.610  1.00  0.00     0.002 C 
ENDROOT
BRANCH   1   2
ATOM      2  C   UNL A   1      32.030  28.525  25.892  1.00  0.00     0.021 C 
BRANCH   2   3
ATOM      3  C   UNL A   1      32.322  27.348  26.824  1.00  0.00     0.116 C 
BRANCH   3   4
ATOM      4  N   UNL A   1      31.204  26.438  26.931  1.00  0.00    -0.355 N 
ATOM      5  C   UNL A   1      30.979  25.174  26.496  1.00  0.00     0.231 C 
ATOM      6  O   UNL A   1      29.813  24.791  26.669  1.00  0.00    -0.274 OA
ATOM      7  H   UNL A   1      30.442  26.818  27.425  1.00  0.00     0.163 HD
BRANCH   5   8
ATOM      8  C   UNL A   1      32.001  24.264  25.748  1.00  0.00     0.098 C 
ATOM      9  C   UNL A   1      33.500  24.415  26.126  1.00  0.00     0.028 C 
ATOM     10  C   UNL A   1      31.772  24.471  24.237  1.00  0.00     0.279 C 
ATOM     11  C   UNL A   1      34.428  25.172  25.155  1.00  0.00     0.063 C 
ATOM     12  N   UNL A   1      32.425  25.692  23.777  1.00  0.00    -0.330 N 
ATOM     13  C   UNL A   1      33.873  25.509  23.766  1.00  0.00     0.262 C 
ATOM     14  H   UNL A   1      32.233  26.438  24.447  1.00  0.00     0.348 HD
BRANCH   8  15
ATOM     15  C   UNL A   1      31.589  22.770  26.044  1.00  0.00     0.019 C 
ATOM     16  C   UNL A   1      31.883  21.767  24.927  1.00  0.00     0.005 C 
ENDBRANCH   8  15
BRANCH  12  17
ATOM     17  C   UNL A   1      31.852  26.223  22.532  1.00  0.00     0.299 C 
BRANCH  17  18
ATOM     18  C   UNL A   1      30.868  27.357  22.674  1.00  0.00     0.006 A 
ATOM     19  C   UNL A   1      31.186  28.618  22.159  1.00  0.00     0.010 A 
ATOM     20  C   UNL A   1      29.618  27.168  23.264  1.00  0.00     0.010 A 
ATOM     21  C   UNL A   1      30.242  29.645  22.175  1.00  0.00     0.004 A 
ATOM     22  C   UNL A   1      28.676  28.201  23.264  1.00  0.00     0.004 A 
ATOM     23  C   UNL A   1      28.951  29.456  22.694  1.00  0.00    -0.045 A 
BRANCH  23  24
ATOM     24  C   UNL A   1      27.934  30.573  22.592  1.00  0.00     0.019 C 
ATOM     25  C   UNL A   1      27.515  31.356  23.813  1.00  0.00     0.009 C 
ATOM     26  C   UNL A   1      28.336  32.016  22.741  1.00  0.00     0.009 C 
ENDBRANCH  23  24
ENDBRANCH  17  18
ENDBRANCH  12  17
ENDBRANCH   5   8
ENDBRANCH   3   4
ENDBRANCH   2   3
ENDBRANCH   1   2
BRANCH   1  27
ATOM     27  C   UNL A   1      31.097  30.938  25.792  1.00  0.00     0.002 C 
BRANCH  27  28
ATOM     28  C   UNL A   1      31.206  32.369  26.331  1.00  0.00     0.021 C 
BRANCH  28  29
ATOM     29  C   UNL A   1      32.444  32.651  27.180  1.00  0.00     0.116 C 
BRANCH  29  30
ATOM     30  N   UNL A   1      32.528  34.048  27.576  1.00  0.00    -0.352 N 
ATOM     31  C   UNL A   1      33.284  34.660  28.539  1.00  0.00     0.251 C 
ATOM     32  H   UNL A   1      31.943  34.655  27.067  1.00  0.00     0.163 HD
ATOM     33  O   UNL A   1      33.018  35.812  28.882  1.00  0.00    -0.269 OA
BRANCH  31  34
ATOM     34  C   UNL A   1      34.421  33.961  29.174  1.00  0.00     0.039 A 
ATOM     35  C   UNL A   1      34.159  33.022  30.177  1.00  0.00     0.014 A 
ATOM     36  C   UNL A   1      35.741  34.278  28.843  1.00  0.00     0.014 A 
ATOM     37  C   UNL A   1      35.217  32.368  30.814  1.00  0.00     0.010 A 
ATOM     38  C   UNL A   1      36.794  33.579  29.431  1.00  0.00     0.010 A 
ATOM     39  C   UNL A   1      36.542  32.624  30.429  1.00  0.00    -0.014 A 
BRANCH  39  40
ATOM     40  C   UNL A   1      37.678  31.908  31.060  1.00  0.00     0.031 A 
ATOM     41  C   UNL A   1      38.138  32.281  32.442  1.00  0.00     0.074 A 
ATOM     42  C   UNL A   1      38.348  30.977  30.355  1.00  0.00     0.049 A 
ATOM     43  N   UNL A   1      39.157  31.827  33.126  1.00  0.00    -0.248 NA
ATOM     44  C   UNL A   1      37.366  33.324  33.133  1.00  0.00     0.031 C 
ATOM     45  C   UNL A   1      38.035  30.571  28.985  1.00  0.00     0.029 A 
ATOM     46  N   UNL A   1      39.443  30.219  30.687  1.00  0.00    -0.354 N 
ATOM     47  C   UNL A   1      39.164  32.547  34.314  1.00  0.00     0.074 A 
ATOM     48  C   UNL A   1      38.073  33.495  34.240  1.00  0.00     0.031 C 
ATOM     49  C   UNL A   1      38.912  29.633  28.595  1.00  0.00     0.029 A 
ATOM     50  C   UNL A   1      39.867  29.395  29.674  1.00  0.00     0.049 A 
ATOM     51  H   UNL A   1      39.882  30.263  31.567  1.00  0.00     0.167 HD
ATOM     52  C   UNL A   1      39.995  32.415  35.377  1.00  0.00     0.037 A 
ATOM     53  C   UNL A   1      40.912  28.550  29.617  1.00  0.00     0.037 A 
ATOM     54  C   UNL A   1      41.057  31.445  35.459  1.00  0.00     0.049 A 
ATOM     55  C   UNL A   1      41.801  28.396  30.821  1.00  0.00     0.074 A 
ATOM     56  C   UNL A   1      41.892  31.168  36.526  1.00  0.00     0.029 A 
ATOM     57  N   UNL A   1      41.431  30.596  34.428  1.00  0.00    -0.354 N 
ATOM     58  N   UNL A   1      41.748  29.021  31.971  1.00  0.00    -0.248 NA
ATOM     59  C   UNL A   1      42.888  27.413  30.720  1.00  0.00     0.031 C 
ATOM     60  C   UNL A   1      42.803  30.184  36.126  1.00  0.00     0.029 A 
ATOM     61  C   UNL A   1      42.504  29.814  34.825  1.00  0.00     0.049 A 
ATOM     62  H   UNL A   1      40.999  30.557  33.544  1.00  0.00     0.167 HD
ATOM     63  C   UNL A   1      42.779  28.497  32.738  1.00  0.00     0.074 A 
ATOM     64  C   UNL A   1      43.432  27.491  31.927  1.00  0.00     0.031 C 
ATOM     65  C   UNL A   1      43.149  28.821  34.002  1.00  0.00     0.037 A 
BRANCH  52  66
ATOM     66  C   UNL A   1      39.791  33.350  36.534  1.00  0.00     0.064 A 
ATOM     67  C   UNL A   1      38.909  33.050  37.583  1.00  0.00     0.173 A 
ATOM     68  C   UNL A   1      40.503  34.558  36.603  1.00  0.00     0.173 A 
ATOM     69  F   UNL A   1      38.198  31.912  37.560  1.00  0.00    -0.203 F 
ATOM     70  C   UNL A   1      38.718  33.939  38.636  1.00  0.00     0.198 A 
ATOM     71  C   UNL A   1      40.331  35.432  37.674  1.00  0.00     0.198 A 
ATOM     72  F   UNL A   1      41.365  34.892  35.631  1.00  0.00    -0.203 F 
ATOM     73  F   UNL A   1      37.826  33.656  39.596  1.00  0.00    -0.200 F 
ATOM     74  C   UNL A   1      39.431  35.126  38.684  1.00  0.00     0.200 A 
ATOM     75  F   UNL A   1      41.031  36.573  37.725  1.00  0.00    -0.200 F 
ATOM     76  F   UNL A   1      39.246  35.982  39.699  1.00  0.00    -0.200 F 
ENDBRANCH  52  66
BRANCH  53  77
ATOM     77  C   UNL A   1      41.150  27.766  28.379  1.00  0.00     0.064 A 
ATOM     78  C   UNL A   1      42.012  28.240  27.382  1.00  0.00     0.173 A 
ATOM     79  C   UNL A   1      40.550  26.514  28.185  1.00  0.00     0.173 A 
ATOM     80  F   UNL A   1      42.593  29.441  27.515  1.00  0.00    -0.203 F 
ATOM     81  C   UNL A   1      42.260  27.494  26.232  1.00  0.00     0.198 A 
ATOM     82  C   UNL A   1      40.818  25.757  27.048  1.00  0.00     0.198 A 
ATOM     83  F   UNL A   1      39.723  26.014  29.116  1.00  0.00    -0.203 F 
ATOM     84  F   UNL A   1      43.068  27.981  25.281  1.00  0.00    -0.200 F 
ATOM     85  C   UNL A   1      41.670  26.249  26.070  1.00  0.00     0.200 A 
ATOM     86  F   UNL A   1      40.258  24.548  26.900  1.00  0.00    -0.200 F 
ATOM     87  F   UNL A   1      41.920  25.525  24.970  1.00  0.00    -0.200 F 
ENDBRANCH  53  77
BRANCH  65  88
ATOM     88  C   UNL A   1      44.305  28.068  34.592  1.00  0.00     0.064 A 
ATOM     89  C   UNL A   1      45.617  28.557  34.509  1.00  0.00     0.173 A 
ATOM     90  C   UNL A   1      44.092  26.866  35.284  1.00  0.00     0.173 A 
ATOM     91  F   UNL A   1      45.873  29.694  33.845  1.00  0.00    -0.203 F 
ATOM     92  C   UNL A   1      46.677  27.858  35.079  1.00  0.00     0.198 A 
ATOM     93  C   UNL A   1      45.151  26.185  35.876  1.00  0.00     0.198 A 
ATOM     94  F   UNL A   1      42.855  26.360  35.396  1.00  0.00    -0.203 F 
ATOM     95  F   UNL A   1      47.929  28.321  34.952  1.00  0.00    -0.200 F 
ATOM     96  C   UNL A   1      46.444  26.677  35.768  1.00  0.00     0.200 A 
ATOM     97  F   UNL A   1      44.922  25.050  36.551  1.00  0.00    -0.200 F 
ATOM     98  F   UNL A   1      47.464  26.010  36.322  1.00  0.00    -0.200 F 
ENDBRANCH  65  88
ENDBRANCH  39  40
ENDBRANCH  31  34
ENDBRANCH  29  30
ENDBRANCH  28  29
ENDBRANCH  27  28
ENDBRANCH   1  27
TORSDOF 17
ENDMDL
