MODEL 1
REMARK VINA RESULT:     -12.3      0.000      0.000
REMARK SMILES C/C=C(\C)[C@@H]1C(C)=C[C@@H]2[C@H]([C@@H]1/C=C/C=C/C(=O)NCCCCCCNC(=O)c1ccc(-c3c4nc(c(-c5c(F)c(F)c(F)c(F)c5F)c5ccc([nH]5)c(-c5c(F)c(F)c(F)c(F)c5F)c5nc(c(-c6c(F)c(F)c(F)c(F)c6F)c6ccc3[nH]6)C=C5)C=C4)cc1)[C@@H](C)CC[C@@H]2O
REMARK SMILES IDX 21 1 20 2 19 3 18 4 16 5 17 6 15 8 14 9 13 10 12 11 11 12
REMARK SMILES IDX 5 13 6 14 7 15 8 16 10 17 9 18 91 19 95 20 92 21 93 22 94 23
REMARK SMILES IDX 3 24 1 25 2 26 4 27 96 28 22 30 23 31 24 32 25 33 26 34
REMARK SMILES IDX 27 36 28 37 29 38 90 39 30 40 89 41 31 42 32 43 33 44 83 45
REMARK SMILES IDX 34 46 88 47 82 48 84 49 35 50 87 51 81 52 80 53 36 55 68 56
REMARK SMILES IDX 48 57 67 58 49 59 52 60 66 61 85 62 50 63 51 64 65 66 86 67
REMARK SMILES IDX 53 68 37 69 38 70 46 71 39 72 40 73 44 74 47 75 41 76 42 77
REMARK SMILES IDX 45 78 43 79 69 80 70 81 78 82 71 83 72 84 76 85 79 86 73 87
REMARK SMILES IDX 74 88 77 89 75 90 54 91 55 92 63 93 56 94 57 95 61 96 64 97
REMARK SMILES IDX 58 98 59 99 62 100 60 101
REMARK H PARENT 18 7 96 29 25 35 84 54 52 65
REMARK Flexibility Score: inf
ROOT
ATOM      1  C   UNL A   1      41.586  21.672  26.827  1.00  0.00     0.002 C 
ENDROOT
BRANCH   1   2
ATOM      2  C   UNL A   1      40.580  22.644  27.456  1.00  0.00     0.021 C 
BRANCH   2   3
ATOM      3  C   UNL A   1      39.421  22.997  26.520  1.00  0.00     0.116 C 
BRANCH   3   4
ATOM      4  N   UNL A   1      38.925  21.799  25.863  1.00  0.00    -0.353 N 
ATOM      5  C   UNL A   1      37.791  21.558  25.153  1.00  0.00     0.243 C 
ATOM      6  O   UNL A   1      37.619  20.447  24.656  1.00  0.00    -0.270 OA
ATOM      7  H   UNL A   1      39.520  21.019  25.949  1.00  0.00     0.163 HD
BRANCH   5   8
ATOM      8  C   UNL A   1      36.815  22.635  24.868  1.00  0.00     0.071 C 
ATOM      9  C   UNL A   1      36.058  23.249  25.785  1.00  0.00     0.005 C 
BRANCH   9  10
ATOM     10  C   UNL A   1      35.206  24.377  25.494  1.00  0.00    -0.004 C 
ATOM     11  C   UNL A   1      34.027  24.519  26.123  1.00  0.00    -0.022 C 
BRANCH  11  12
ATOM     12  C   UNL A   1      33.007  25.604  25.837  1.00  0.00     0.027 C 
ATOM     13  C   UNL A   1      31.511  25.117  25.613  1.00  0.00     0.047 C 
ATOM     14  C   UNL A   1      30.810  25.841  24.468  1.00  0.00    -0.069 C 
ATOM     15  C   UNL A   1      29.319  26.008  24.565  1.00  0.00     0.040 C 
ATOM     16  C   UNL A   1      31.499  26.241  23.387  1.00  0.00    -0.021 C 
ATOM     17  C   UNL A   1      33.591  26.508  24.691  1.00  0.00     0.009 C 
ATOM     18  C   UNL A   1      33.004  26.077  23.326  1.00  0.00     0.044 C 
ATOM     19  C   UNL A   1      33.403  28.049  24.906  1.00  0.00    -0.010 C 
ATOM     20  C   UNL A   1      33.682  26.871  22.196  1.00  0.00     0.121 C 
ATOM     21  C   UNL A   1      34.098  28.566  26.173  1.00  0.00     0.008 C 
ATOM     22  C   UNL A   1      33.952  28.855  23.703  1.00  0.00     0.006 C 
ATOM     23  C   UNL A   1      33.454  28.368  22.346  1.00  0.00     0.033 C 
BRANCH  13  24
ATOM     24  C   UNL A   1      31.181  23.612  25.478  1.00  0.00    -0.070 C 
ATOM     25  C   UNL A   1      31.860  21.386  24.410  1.00  0.00     0.035 C 
ATOM     26  C   UNL A   1      31.800  22.880  24.523  1.00  0.00    -0.031 C 
ATOM     27  C   UNL A   1      30.336  22.979  26.559  1.00  0.00     0.040 C 
ENDBRANCH  13  24
BRANCH  20  28
ATOM     28  O   UNL A   1      33.261  26.417  20.912  1.00  0.00    -0.393 OA
ATOM     29  H   UNL A   1      33.252  25.448  20.898  1.00  0.00     0.210 HD
ENDBRANCH  20  28
ENDBRANCH  11  12
ENDBRANCH   9  10
ENDBRANCH   5   8
ENDBRANCH   3   4
ENDBRANCH   2   3
ENDBRANCH   1   2
BRANCH   1  30
ATOM     30  C   UNL A   1      41.924  20.451  27.693  1.00  0.00     0.002 C 
BRANCH  30  31
ATOM     31  C   UNL A   1      42.368  19.211  26.914  1.00  0.00     0.021 C 
BRANCH  31  32
ATOM     32  C   UNL A   1      42.403  19.408  25.401  1.00  0.00     0.116 C 
BRANCH  32  33
ATOM     33  N   UNL A   1      43.624  18.870  24.819  1.00  0.00    -0.352 N 
ATOM     34  C   UNL A   1      44.761  19.527  24.422  1.00  0.00     0.251 C 
ATOM     35  H   UNL A   1      43.635  17.894  24.692  1.00  0.00     0.163 HD
ATOM     36  O   UNL A   1      45.599  18.956  23.735  1.00  0.00    -0.269 OA
BRANCH  34  37
ATOM     37  C   UNL A   1      44.969  20.935  24.819  1.00  0.00     0.039 A 
ATOM     38  C   UNL A   1      44.708  21.947  23.892  1.00  0.00     0.014 A 
ATOM     39  C   UNL A   1      45.438  21.253  26.097  1.00  0.00     0.014 A 
ATOM     40  C   UNL A   1      44.870  23.282  24.264  1.00  0.00     0.010 A 
ATOM     41  C   UNL A   1      45.525  22.584  26.491  1.00  0.00     0.010 A 
ATOM     42  C   UNL A   1      45.251  23.612  25.575  1.00  0.00    -0.014 A 
BRANCH  42  43
ATOM     43  C   UNL A   1      45.386  25.027  26.006  1.00  0.00     0.031 A 
ATOM     44  C   UNL A   1      46.727  25.705  25.947  1.00  0.00     0.074 A 
ATOM     45  C   UNL A   1      44.318  25.677  26.504  1.00  0.00     0.049 A 
ATOM     46  N   UNL A   1      47.068  26.903  26.349  1.00  0.00    -0.248 NA
ATOM     47  C   UNL A   1      47.840  24.923  25.383  1.00  0.00     0.031 C 
ATOM     48  C   UNL A   1      42.974  25.113  26.647  1.00  0.00     0.029 A 
ATOM     49  N   UNL A   1      44.195  26.954  26.994  1.00  0.00    -0.354 N 
ATOM     50  C   UNL A   1      48.430  27.012  26.098  1.00  0.00     0.074 A 
ATOM     51  C   UNL A   1      48.866  25.742  25.563  1.00  0.00     0.031 C 
ATOM     52  C   UNL A   1      42.160  26.044  27.168  1.00  0.00     0.029 A 
ATOM     53  C   UNL A   1      42.930  27.255  27.436  1.00  0.00     0.049 A 
ATOM     54  H   UNL A   1      44.943  27.592  27.027  1.00  0.00     0.167 HD
ATOM     55  C   UNL A   1      49.237  28.086  26.274  1.00  0.00     0.037 A 
ATOM     56  C   UNL A   1      42.451  28.378  28.004  1.00  0.00     0.037 A 
ATOM     57  C   UNL A   1      48.793  29.354  26.788  1.00  0.00     0.049 A 
ATOM     58  C   UNL A   1      43.378  29.547  28.212  1.00  0.00     0.074 A 
ATOM     59  C   UNL A   1      49.523  30.518  26.963  1.00  0.00     0.029 A 
ATOM     60  N   UNL A   1      47.501  29.625  27.213  1.00  0.00    -0.354 N 
ATOM     61  N   UNL A   1      44.649  29.660  27.913  1.00  0.00    -0.248 NA
ATOM     62  C   UNL A   1      42.799  30.748  28.829  1.00  0.00     0.031 C 
ATOM     63  C   UNL A   1      48.686  31.476  27.540  1.00  0.00     0.029 A 
ATOM     64  C   UNL A   1      47.419  30.931  27.670  1.00  0.00     0.049 A 
ATOM     65  H   UNL A   1      46.754  28.984  27.194  1.00  0.00     0.167 HD
ATOM     66  C   UNL A   1      45.012  30.951  28.271  1.00  0.00     0.074 A 
ATOM     67  C   UNL A   1      43.823  31.588  28.797  1.00  0.00     0.031 C 
ATOM     68  C   UNL A   1      46.222  31.556  28.173  1.00  0.00     0.037 A 
BRANCH  55  69
ATOM     69  C   UNL A   1      50.684  27.937  25.900  1.00  0.00     0.064 A 
ATOM     70  C   UNL A   1      51.122  28.093  24.576  1.00  0.00     0.173 A 
ATOM     71  C   UNL A   1      51.652  27.683  26.884  1.00  0.00     0.173 A 
ATOM     72  F   UNL A   1      50.237  28.327  23.595  1.00  0.00    -0.203 F 
ATOM     73  C   UNL A   1      52.470  27.974  24.246  1.00  0.00     0.198 A 
ATOM     74  C   UNL A   1      53.003  27.596  26.555  1.00  0.00     0.198 A 
ATOM     75  F   UNL A   1      51.291  27.531  28.167  1.00  0.00    -0.203 F 
ATOM     76  F   UNL A   1      52.857  28.079  22.967  1.00  0.00    -0.200 F 
ATOM     77  C   UNL A   1      53.410  27.734  25.237  1.00  0.00     0.200 A 
ATOM     78  F   UNL A   1      53.912  27.381  27.517  1.00  0.00    -0.200 F 
ATOM     79  F   UNL A   1      54.707  27.632  24.920  1.00  0.00    -0.200 F 
ENDBRANCH  55  69
BRANCH  56  80
ATOM     80  C   UNL A   1      41.020  28.463  28.404  1.00  0.00     0.064 A 
ATOM     81  C   UNL A   1      40.050  28.945  27.514  1.00  0.00     0.173 A 
ATOM     82  C   UNL A   1      40.597  28.091  29.689  1.00  0.00     0.173 A 
ATOM     83  F   UNL A   1      40.408  29.332  26.281  1.00  0.00    -0.203 F 
ATOM     84  C   UNL A   1      38.720  29.082  27.902  1.00  0.00     0.198 A 
ATOM     85  C   UNL A   1      39.259  28.197  30.065  1.00  0.00     0.198 A 
ATOM     86  F   UNL A   1      41.482  27.618  30.579  1.00  0.00    -0.203 F 
ATOM     87  F   UNL A   1      37.825  29.601  27.049  1.00  0.00    -0.200 F 
ATOM     88  C   UNL A   1      38.324  28.703  29.176  1.00  0.00     0.200 A 
ATOM     89  F   UNL A   1      38.878  27.815  31.292  1.00  0.00    -0.200 F 
ATOM     90  F   UNL A   1      37.044  28.836  29.549  1.00  0.00    -0.200 F 
ENDBRANCH  56  80
BRANCH  68  91
ATOM     91  C   UNL A   1      46.310  32.994  28.593  1.00  0.00     0.064 A 
ATOM     92  C   UNL A   1      46.656  33.363  29.903  1.00  0.00     0.173 A 
ATOM     93  C   UNL A   1      46.088  34.018  27.660  1.00  0.00     0.173 A 
ATOM     94  F   UNL A   1      46.865  32.422  30.837  1.00  0.00    -0.203 F 
ATOM     95  C   UNL A   1      46.748  34.703  30.267  1.00  0.00     0.198 A 
ATOM     96  C   UNL A   1      46.214  35.357  28.020  1.00  0.00     0.198 A 
ATOM     97  F   UNL A   1      45.762  33.721  26.394  1.00  0.00    -0.203 F 
ATOM     98  F   UNL A   1      47.029  35.033  31.536  1.00  0.00    -0.200 F 
ATOM     99  C   UNL A   1      46.536  35.698  29.324  1.00  0.00     0.200 A 
ATOM    100  F   UNL A   1      46.026  36.316  27.103  1.00  0.00    -0.200 F 
ATOM    101  F   UNL A   1      46.634  36.988  29.675  1.00  0.00    -0.200 F 
ENDBRANCH  68  91
ENDBRANCH  42  43
ENDBRANCH  34  37
ENDBRANCH  32  33
ENDBRANCH  31  32
ENDBRANCH  30  31
ENDBRANCH   1  30
TORSDOF 17
ENDMDL
MODEL 2
REMARK VINA RESULT:     -12.3      0.108      1.537
REMARK SMILES C/C=C(\C)[C@@H]1C(C)=C[C@@H]2[C@H]([C@@H]1/C=C/C=C/C(=O)NCCCCCCNC(=O)c1ccc(-c3c4nc(c(-c5c(F)c(F)c(F)c(F)c5F)c5ccc([nH]5)c(-c5c(F)c(F)c(F)c(F)c5F)c5nc(c(-c6c(F)c(F)c(F)c(F)c6F)c6ccc3[nH]6)C=C5)C=C4)cc1)[C@@H](C)CC[C@@H]2O
REMARK SMILES IDX 21 1 20 2 19 3 18 4 16 5 17 6 15 8 14 9 13 10 12 11 11 12
REMARK SMILES IDX 5 13 6 14 7 15 8 16 10 17 9 18 91 19 95 20 92 21 93 22 94 23
REMARK SMILES IDX 3 24 1 25 2 26 4 27 96 28 22 30 23 31 24 32 25 33 26 34
REMARK SMILES IDX 27 36 28 37 29 38 90 39 30 40 89 41 31 42 32 43 33 44 83 45
REMARK SMILES IDX 34 46 88 47 82 48 84 49 35 50 87 51 81 52 80 53 36 55 68 56
REMARK SMILES IDX 48 57 67 58 49 59 52 60 66 61 85 62 50 63 51 64 65 66 86 67
REMARK SMILES IDX 53 68 37 69 38 70 46 71 39 72 40 73 44 74 47 75 41 76 42 77
REMARK SMILES IDX 45 78 43 79 69 80 70 81 78 82 71 83 72 84 76 85 79 86 73 87
REMARK SMILES IDX 74 88 77 89 75 90 54 91 55 92 63 93 56 94 57 95 61 96 64 97
REMARK SMILES IDX 58 98 59 99 62 100 60 101
REMARK H PARENT 18 7 96 29 25 35 84 54 52 65
REMARK Flexibility Score: inf
ROOT
ATOM      1  C   UNL A   1      41.605  21.651  26.741  1.00  0.00     0.002 C 
ENDROOT
BRANCH   1   2
ATOM      2  C   UNL A   1      40.605  22.596  27.422  1.00  0.00     0.021 C 
BRANCH   2   3
ATOM      3  C   UNL A   1      39.413  22.952  26.530  1.00  0.00     0.116 C 
BRANCH   3   4
ATOM      4  N   UNL A   1      38.923  21.764  25.852  1.00  0.00    -0.353 N 
ATOM      5  C   UNL A   1      37.797  21.536  25.124  1.00  0.00     0.243 C 
ATOM      6  O   UNL A   1      37.628  20.431  24.611  1.00  0.00    -0.270 OA
ATOM      7  H   UNL A   1      39.514  20.981  25.934  1.00  0.00     0.163 HD
BRANCH   5   8
ATOM      8  C   UNL A   1      36.827  22.619  24.841  1.00  0.00     0.071 C 
ATOM      9  C   UNL A   1      36.048  23.211  25.753  1.00  0.00     0.005 C 
BRANCH   9  10
ATOM     10  C   UNL A   1      35.202  24.346  25.469  1.00  0.00    -0.004 C 
ATOM     11  C   UNL A   1      34.041  24.510  26.124  1.00  0.00    -0.022 C 
BRANCH  11  12
ATOM     12  C   UNL A   1      33.028  25.603  25.848  1.00  0.00     0.027 C 
ATOM     13  C   UNL A   1      31.527  25.128  25.629  1.00  0.00     0.047 C 
ATOM     14  C   UNL A   1      30.826  25.862  24.490  1.00  0.00    -0.069 C 
ATOM     15  C   UNL A   1      29.336  26.039  24.595  1.00  0.00     0.040 C 
ATOM     16  C   UNL A   1      31.512  26.263  23.408  1.00  0.00    -0.021 C 
ATOM     17  C   UNL A   1      33.612  26.509  24.703  1.00  0.00     0.009 C 
ATOM     18  C   UNL A   1      33.015  26.089  23.340  1.00  0.00     0.044 C 
ATOM     19  C   UNL A   1      33.436  28.050  24.927  1.00  0.00    -0.010 C 
ATOM     20  C   UNL A   1      33.694  26.884  22.210  1.00  0.00     0.121 C 
ATOM     21  C   UNL A   1      34.141  28.556  26.193  1.00  0.00     0.008 C 
ATOM     22  C   UNL A   1      33.984  28.858  23.726  1.00  0.00     0.006 C 
ATOM     23  C   UNL A   1      33.477  28.382  22.368  1.00  0.00     0.033 C 
BRANCH  13  24
ATOM     24  C   UNL A   1      31.186  23.625  25.487  1.00  0.00    -0.070 C 
ATOM     25  C   UNL A   1      31.848  21.400  24.409  1.00  0.00     0.035 C 
ATOM     26  C   UNL A   1      31.798  22.893  24.529  1.00  0.00    -0.031 C 
ATOM     27  C   UNL A   1      30.337  22.994  26.566  1.00  0.00     0.040 C 
ENDBRANCH  13  24
BRANCH  20  28
ATOM     28  O   UNL A   1      33.264  26.440  20.926  1.00  0.00    -0.393 OA
ATOM     29  H   UNL A   1      33.125  25.481  20.945  1.00  0.00     0.210 HD
ENDBRANCH  20  28
ENDBRANCH  11  12
ENDBRANCH   9  10
ENDBRANCH   5   8
ENDBRANCH   3   4
ENDBRANCH   2   3
ENDBRANCH   1   2
BRANCH   1  30
ATOM     30  C   UNL A   1      42.053  20.464  27.605  1.00  0.00     0.002 C 
BRANCH  30  31
ATOM     31  C   UNL A   1      42.452  19.212  26.821  1.00  0.00     0.021 C 
BRANCH  31  32
ATOM     32  C   UNL A   1      42.489  19.411  25.309  1.00  0.00     0.116 C 
BRANCH  32  33
ATOM     33  N   UNL A   1      43.714  18.880  24.729  1.00  0.00    -0.352 N 
ATOM     34  C   UNL A   1      44.853  19.542  24.347  1.00  0.00     0.251 C 
ATOM     35  H   UNL A   1      43.726  17.906  24.590  1.00  0.00     0.163 HD
ATOM     36  O   UNL A   1      45.696  18.979  23.658  1.00  0.00    -0.269 OA
BRANCH  34  37
ATOM     37  C   UNL A   1      45.058  20.945  24.762  1.00  0.00     0.039 A 
ATOM     38  C   UNL A   1      44.838  21.966  23.834  1.00  0.00     0.014 A 
ATOM     39  C   UNL A   1      45.483  21.250  26.058  1.00  0.00     0.014 A 
ATOM     40  C   UNL A   1      44.997  23.298  24.222  1.00  0.00     0.010 A 
ATOM     41  C   UNL A   1      45.567  22.578  26.465  1.00  0.00     0.010 A 
ATOM     42  C   UNL A   1      45.334  23.614  25.548  1.00  0.00    -0.014 A 
BRANCH  42  43
ATOM     43  C   UNL A   1      45.465  25.025  25.994  1.00  0.00     0.031 A 
ATOM     44  C   UNL A   1      46.804  25.707  25.944  1.00  0.00     0.074 A 
ATOM     45  C   UNL A   1      44.394  25.668  26.497  1.00  0.00     0.049 A 
ATOM     46  N   UNL A   1      47.142  26.902  26.360  1.00  0.00    -0.248 NA
ATOM     47  C   UNL A   1      47.920  24.933  25.375  1.00  0.00     0.031 C 
ATOM     48  C   UNL A   1      43.052  25.099  26.631  1.00  0.00     0.029 A 
ATOM     49  N   UNL A   1      44.268  26.938  27.001  1.00  0.00    -0.354 N 
ATOM     50  C   UNL A   1      48.504  27.017  26.113  1.00  0.00     0.074 A 
ATOM     51  C   UNL A   1      48.944  25.753  25.566  1.00  0.00     0.031 C 
ATOM     52  C   UNL A   1      42.234  26.022  27.161  1.00  0.00     0.029 A 
ATOM     53  C   UNL A   1      43.001  27.232  27.443  1.00  0.00     0.049 A 
ATOM     54  H   UNL A   1      45.014  27.578  27.041  1.00  0.00     0.167 HD
ATOM     55  C   UNL A   1      49.308  28.090  26.302  1.00  0.00     0.037 A 
ATOM     56  C   UNL A   1      42.518  28.347  28.022  1.00  0.00     0.037 A 
ATOM     57  C   UNL A   1      48.861  29.352  26.829  1.00  0.00     0.049 A 
ATOM     58  C   UNL A   1      43.442  29.516  28.244  1.00  0.00     0.074 A 
ATOM     59  C   UNL A   1      49.587  30.515  27.018  1.00  0.00     0.029 A 
ATOM     60  N   UNL A   1      47.567  29.615  27.254  1.00  0.00    -0.354 N 
ATOM     61  N   UNL A   1      44.713  29.635  27.949  1.00  0.00    -0.248 NA
ATOM     62  C   UNL A   1      42.859  30.709  28.873  1.00  0.00     0.031 C 
ATOM     63  C   UNL A   1      48.747  31.465  27.603  1.00  0.00     0.029 A 
ATOM     64  C   UNL A   1      47.480  30.915  27.725  1.00  0.00     0.049 A 
ATOM     65  H   UNL A   1      46.821  28.972  27.227  1.00  0.00     0.167 HD
ATOM     66  C   UNL A   1      45.073  30.923  28.321  1.00  0.00     0.074 A 
ATOM     67  C   UNL A   1      43.881  31.552  28.852  1.00  0.00     0.031 C 
ATOM     68  C   UNL A   1      46.281  31.532  28.233  1.00  0.00     0.037 A 
BRANCH  55  69
ATOM     69  C   UNL A   1      50.756  27.949  25.930  1.00  0.00     0.064 A 
ATOM     70  C   UNL A   1      51.737  27.655  26.890  1.00  0.00     0.173 A 
ATOM     71  C   UNL A   1      51.163  28.061  24.592  1.00  0.00     0.173 A 
ATOM     72  F   UNL A   1      51.404  27.548  28.185  1.00  0.00    -0.203 F 
ATOM     73  C   UNL A   1      53.074  27.506  26.529  1.00  0.00     0.198 A 
ATOM     74  C   UNL A   1      52.496  27.879  24.230  1.00  0.00     0.198 A 
ATOM     75  F   UNL A   1      50.267  28.334  23.631  1.00  0.00    -0.203 F 
ATOM     76  F   UNL A   1      53.999  27.273  27.471  1.00  0.00    -0.200 F 
ATOM     77  C   UNL A   1      53.451  27.609  25.198  1.00  0.00     0.200 A 
ATOM     78  F   UNL A   1      52.856  27.963  22.941  1.00  0.00    -0.200 F 
ATOM     79  F   UNL A   1      54.735  27.453  24.851  1.00  0.00    -0.200 F 
ENDBRANCH  55  69
BRANCH  56  80
ATOM     80  C   UNL A   1      41.087  28.425  28.420  1.00  0.00     0.064 A 
ATOM     81  C   UNL A   1      40.123  28.949  27.547  1.00  0.00     0.173 A 
ATOM     82  C   UNL A   1      40.655  28.002  29.687  1.00  0.00     0.173 A 
ATOM     83  F   UNL A   1      40.488  29.385  26.333  1.00  0.00    -0.203 F 
ATOM     84  C   UNL A   1      38.792  29.078  27.936  1.00  0.00     0.198 A 
ATOM     85  C   UNL A   1      39.318  28.101  30.063  1.00  0.00     0.198 A 
ATOM     86  F   UNL A   1      41.535  27.488  30.559  1.00  0.00    -0.203 F 
ATOM     87  F   UNL A   1      37.904  29.638  27.102  1.00  0.00    -0.200 F 
ATOM     88  C   UNL A   1      38.388  28.650  29.192  1.00  0.00     0.200 A 
ATOM     89  F   UNL A   1      38.929  27.671  31.271  1.00  0.00    -0.200 F 
ATOM     90  F   UNL A   1      37.108  28.775  29.566  1.00  0.00    -0.200 F 
ENDBRANCH  56  80
BRANCH  68  91
ATOM     91  C   UNL A   1      46.365  32.966  28.668  1.00  0.00     0.064 A 
ATOM     92  C   UNL A   1      46.055  34.023  27.799  1.00  0.00     0.173 A 
ATOM     93  C   UNL A   1      46.720  33.284  29.988  1.00  0.00     0.173 A 
ATOM     94  F   UNL A   1      45.724  33.773  26.523  1.00  0.00    -0.203 F 
ATOM     95  C   UNL A   1      46.124  35.345  28.228  1.00  0.00     0.198 A 
ATOM     96  C   UNL A   1      46.755  34.606  30.423  1.00  0.00     0.198 A 
ATOM     97  F   UNL A   1      47.019  32.312  30.862  1.00  0.00    -0.203 F 
ATOM     98  F   UNL A   1      45.874  36.342  27.366  1.00  0.00    -0.200 F 
ATOM     99  C   UNL A   1      46.465  35.635  29.541  1.00  0.00     0.200 A 
ATOM    100  F   UNL A   1      47.068  34.883  31.696  1.00  0.00    -0.200 F 
ATOM    101  F   UNL A   1      46.522  36.910  29.954  1.00  0.00    -0.200 F 
ENDBRANCH  68  91
ENDBRANCH  42  43
ENDBRANCH  34  37
ENDBRANCH  32  33
ENDBRANCH  31  32
ENDBRANCH  30  31
ENDBRANCH   1  30
TORSDOF 17
ENDMDL
MODEL 3
REMARK VINA RESULT:     -12.2      6.736     12.194
REMARK SMILES C/C=C(\C)[C@@H]1C(C)=C[C@@H]2[C@H]([C@@H]1/C=C/C=C/C(=O)NCCCCCCNC(=O)c1ccc(-c3c4nc(c(-c5c(F)c(F)c(F)c(F)c5F)c5ccc([nH]5)c(-c5c(F)c(F)c(F)c(F)c5F)c5nc(c(-c6c(F)c(F)c(F)c(F)c6F)c6ccc3[nH]6)C=C5)C=C4)cc1)[C@@H](C)CC[C@@H]2O
REMARK SMILES IDX 21 1 20 2 19 3 18 4 16 5 17 6 15 8 14 9 13 10 12 11 11 12
REMARK SMILES IDX 5 13 6 14 7 15 8 16 10 17 9 18 91 19 95 20 92 21 93 22 94 23
REMARK SMILES IDX 3 24 1 25 2 26 4 27 96 28 22 30 23 31 24 32 25 33 26 34
REMARK SMILES IDX 27 36 28 37 29 38 90 39 30 40 89 41 31 42 32 43 33 44 83 45
REMARK SMILES IDX 34 46 88 47 82 48 84 49 35 50 87 51 81 52 80 53 36 55 68 56
REMARK SMILES IDX 48 57 67 58 49 59 52 60 66 61 85 62 50 63 51 64 65 66 86 67
REMARK SMILES IDX 53 68 37 69 38 70 46 71 39 72 40 73 44 74 47 75 41 76 42 77
REMARK SMILES IDX 45 78 43 79 69 80 70 81 78 82 71 83 72 84 76 85 79 86 73 87
REMARK SMILES IDX 74 88 77 89 75 90 54 91 55 92 63 93 56 94 57 95 61 96 64 97
REMARK SMILES IDX 58 98 59 99 62 100 60 101
REMARK H PARENT 18 7 96 29 25 35 84 54 52 65
REMARK Flexibility Score: inf
ROOT
ATOM      1  C   UNL A   1      35.075  33.347  29.007  1.00  0.00     0.002 C 
ENDROOT
BRANCH   1   2
ATOM      2  C   UNL A   1      35.674  32.264  28.099  1.00  0.00     0.021 C 
BRANCH   2   3
ATOM      3  C   UNL A   1      34.799  31.013  28.000  1.00  0.00     0.116 C 
BRANCH   3   4
ATOM      4  N   UNL A   1      33.467  31.368  27.539  1.00  0.00    -0.353 N 
ATOM      5  C   UNL A   1      32.475  30.627  26.976  1.00  0.00     0.243 C 
ATOM      6  O   UNL A   1      31.404  31.167  26.706  1.00  0.00    -0.270 OA
ATOM      7  H   UNL A   1      33.242  32.319  27.656  1.00  0.00     0.163 HD
BRANCH   5   8
ATOM      8  C   UNL A   1      32.615  29.165  26.788  1.00  0.00     0.071 C 
ATOM      9  C   UNL A   1      33.343  28.580  25.829  1.00  0.00     0.005 C 
BRANCH   9  10
ATOM     10  C   UNL A   1      33.558  27.155  25.745  1.00  0.00    -0.004 C 
ATOM     11  C   UNL A   1      33.984  26.598  24.599  1.00  0.00    -0.022 C 
BRANCH  11  12
ATOM     12  C   UNL A   1      34.156  25.111  24.360  1.00  0.00     0.027 C 
ATOM     13  C   UNL A   1      33.316  24.494  23.160  1.00  0.00     0.047 C 
ATOM     14  C   UNL A   1      32.698  23.140  23.494  1.00  0.00    -0.069 C 
ATOM     15  C   UNL A   1      32.494  22.173  22.361  1.00  0.00     0.040 C 
ATOM     16  C   UNL A   1      32.288  22.864  24.743  1.00  0.00    -0.021 C 
ATOM     17  C   UNL A   1      33.969  24.387  25.743  1.00  0.00     0.009 C 
ATOM     18  C   UNL A   1      32.525  23.850  25.868  1.00  0.00     0.044 C 
ATOM     19  C   UNL A   1      35.005  23.247  26.035  1.00  0.00    -0.010 C 
ATOM     20  C   UNL A   1      32.309  23.266  27.276  1.00  0.00     0.121 C 
ATOM     21  C   UNL A   1      36.455  23.751  26.075  1.00  0.00     0.008 C 
ATOM     22  C   UNL A   1      34.709  22.552  27.387  1.00  0.00     0.006 C 
ATOM     23  C   UNL A   1      33.258  22.111  27.557  1.00  0.00     0.033 C 
BRANCH  13  24
ATOM     24  C   UNL A   1      32.231  25.331  22.441  1.00  0.00    -0.070 C 
ATOM     25  C   UNL A   1      30.264  26.941  22.735  1.00  0.00     0.035 C 
ATOM     26  C   UNL A   1      31.225  25.874  23.163  1.00  0.00    -0.031 C 
ATOM     27  C   UNL A   1      32.463  25.680  20.989  1.00  0.00     0.040 C 
ENDBRANCH  13  24
BRANCH  20  28
ATOM     28  O   UNL A   1      30.954  22.873  27.478  1.00  0.00    -0.393 OA
ATOM     29  H   UNL A   1      30.919  22.153  28.126  1.00  0.00     0.210 HD
ENDBRANCH  20  28
ENDBRANCH  11  12
ENDBRANCH   9  10
ENDBRANCH   5   8
ENDBRANCH   3   4
ENDBRANCH   2   3
ENDBRANCH   1   2
BRANCH   1  30
ATOM     30  C   UNL A   1      35.165  34.773  28.448  1.00  0.00     0.002 C 
BRANCH  30  31
ATOM     31  C   UNL A   1      33.965  35.667  28.766  1.00  0.00     0.021 C 
BRANCH  31  32
ATOM     32  C   UNL A   1      32.877  34.978  29.584  1.00  0.00     0.116 C 
BRANCH  32  33
ATOM     33  N   UNL A   1      32.411  35.821  30.675  1.00  0.00    -0.352 N 
ATOM     34  C   UNL A   1      32.784  35.819  31.996  1.00  0.00     0.251 C 
ATOM     35  H   UNL A   1      31.731  36.489  30.430  1.00  0.00     0.163 HD
ATOM     36  O   UNL A   1      32.124  36.431  32.827  1.00  0.00    -0.269 OA
BRANCH  34  37
ATOM     37  C   UNL A   1      33.983  35.065  32.416  1.00  0.00     0.039 A 
ATOM     38  C   UNL A   1      33.827  33.783  32.948  1.00  0.00     0.014 A 
ATOM     39  C   UNL A   1      35.256  35.631  32.303  1.00  0.00     0.014 A 
ATOM     40  C   UNL A   1      34.953  33.048  33.320  1.00  0.00     0.010 A 
ATOM     41  C   UNL A   1      36.381  34.870  32.601  1.00  0.00     0.010 A 
ATOM     42  C   UNL A   1      36.240  33.574  33.122  1.00  0.00    -0.014 A 
BRANCH  42  43
ATOM     43  C   UNL A   1      37.454  32.792  33.469  1.00  0.00     0.031 A 
ATOM     44  C   UNL A   1      38.195  33.081  34.745  1.00  0.00     0.074 A 
ATOM     45  C   UNL A   1      37.920  31.866  32.608  1.00  0.00     0.049 A 
ATOM     46  N   UNL A   1      39.314  32.567  35.188  1.00  0.00    -0.248 NA
ATOM     47  C   UNL A   1      37.614  34.104  35.629  1.00  0.00     0.031 C 
ATOM     48  C   UNL A   1      37.310  31.523  31.322  1.00  0.00     0.029 A 
ATOM     49  N   UNL A   1      39.022  31.052  32.680  1.00  0.00    -0.354 N 
ATOM     50  C   UNL A   1      39.574  33.210  36.392  1.00  0.00     0.074 A 
ATOM     51  C   UNL A   1      38.530  34.192  36.583  1.00  0.00     0.031 C 
ATOM     52  C   UNL A   1      38.033  30.556  30.737  1.00  0.00     0.029 A 
ATOM     53  C   UNL A   1      39.180  30.240  31.583  1.00  0.00     0.049 A 
ATOM     54  H   UNL A   1      39.642  31.050  33.445  1.00  0.00     0.167 HD
ATOM     55  C   UNL A   1      40.580  32.982  37.270  1.00  0.00     0.037 A 
ATOM     56  C   UNL A   1      40.148  29.351  31.290  1.00  0.00     0.037 A 
ATOM     57  C   UNL A   1      41.606  31.991  37.084  1.00  0.00     0.049 A 
ATOM     58  C   UNL A   1      41.268  29.138  32.273  1.00  0.00     0.074 A 
ATOM     59  C   UNL A   1      42.643  31.652  37.936  1.00  0.00     0.029 A 
ATOM     60  N   UNL A   1      41.725  31.179  35.966  1.00  0.00    -0.354 N 
ATOM     61  N   UNL A   1      41.469  29.706  33.438  1.00  0.00    -0.248 NA
ATOM     62  C   UNL A   1      42.293  28.151  31.905  1.00  0.00     0.031 C 
ATOM     63  C   UNL A   1      43.419  30.671  37.311  1.00  0.00     0.029 A 
ATOM     64  C   UNL A   1      42.831  30.355  36.096  1.00  0.00     0.049 A 
ATOM     65  H   UNL A   1      41.114  31.188  35.193  1.00  0.00     0.167 HD
ATOM     66  C   UNL A   1      42.618  29.123  33.954  1.00  0.00     0.074 A 
ATOM     67  C   UNL A   1      43.063  28.146  32.983  1.00  0.00     0.031 C 
ATOM     68  C   UNL A   1      43.249  29.374  35.128  1.00  0.00     0.037 A 
BRANCH  55  69
ATOM     69  C   UNL A   1      40.617  33.817  38.518  1.00  0.00     0.064 A 
ATOM     70  C   UNL A   1      39.913  33.443  39.674  1.00  0.00     0.173 A 
ATOM     71  C   UNL A   1      41.401  34.979  38.576  1.00  0.00     0.173 A 
ATOM     72  F   UNL A   1      39.140  32.347  39.670  1.00  0.00    -0.203 F 
ATOM     73  C   UNL A   1      39.973  34.215  40.832  1.00  0.00     0.198 A 
ATOM     74  C   UNL A   1      41.483  35.731  39.746  1.00  0.00     0.198 A 
ATOM     75  F   UNL A   1      42.099  35.380  37.503  1.00  0.00    -0.203 F 
ATOM     76  F   UNL A   1      39.255  33.863  41.908  1.00  0.00    -0.200 F 
ATOM     77  C   UNL A   1      40.765  35.353  40.870  1.00  0.00     0.200 A 
ATOM     78  F   UNL A   1      42.262  36.822  39.785  1.00  0.00    -0.200 F 
ATOM     79  F   UNL A   1      40.831  36.088  41.988  1.00  0.00    -0.200 F 
ENDBRANCH  55  69
BRANCH  56  80
ATOM     80  C   UNL A   1      40.098  28.581  30.018  1.00  0.00     0.064 A 
ATOM     81  C   UNL A   1      39.460  27.335  29.955  1.00  0.00     0.173 A 
ATOM     82  C   UNL A   1      40.706  29.061  28.848  1.00  0.00     0.173 A 
ATOM     83  F   UNL A   1      38.881  26.823  31.051  1.00  0.00    -0.203 F 
ATOM     84  C   UNL A   1      39.460  26.583  28.782  1.00  0.00     0.198 A 
ATOM     85  C   UNL A   1      40.676  28.324  27.666  1.00  0.00     0.198 A 
ATOM     86  F   UNL A   1      41.325  30.251  28.851  1.00  0.00    -0.203 F 
ATOM     87  F   UNL A   1      38.894  25.368  28.767  1.00  0.00    -0.200 F 
ATOM     88  C   UNL A   1      40.064  27.080  27.637  1.00  0.00     0.200 A 
ATOM     89  F   UNL A   1      41.247  28.815  26.558  1.00  0.00    -0.200 F 
ATOM     90  F   UNL A   1      40.065  26.357  26.509  1.00  0.00    -0.200 F 
ENDBRANCH  56  80
BRANCH  68  91
ATOM     91  C   UNL A   1      44.457  28.543  35.454  1.00  0.00     0.064 A 
ATOM     92  C   UNL A   1      45.752  28.949  35.099  1.00  0.00     0.173 A 
ATOM     93  C   UNL A   1      44.318  27.344  36.169  1.00  0.00     0.173 A 
ATOM     94  F   UNL A   1      45.938  30.081  34.402  1.00  0.00    -0.203 F 
ATOM     95  C   UNL A   1      46.859  28.171  35.425  1.00  0.00     0.198 A 
ATOM     96  C   UNL A   1      45.430  26.586  36.522  1.00  0.00     0.198 A 
ATOM     97  F   UNL A   1      43.103  26.913  36.539  1.00  0.00    -0.203 F 
ATOM     98  F   UNL A   1      48.083  28.553  35.031  1.00  0.00    -0.200 F 
ATOM     99  C   UNL A   1      46.699  26.996  36.144  1.00  0.00     0.200 A 
ATOM    100  F   UNL A   1      45.274  25.459  37.231  1.00  0.00    -0.200 F 
ATOM    101  F   UNL A   1      47.768  26.253  36.464  1.00  0.00    -0.200 F 
ENDBRANCH  68  91
ENDBRANCH  42  43
ENDBRANCH  34  37
ENDBRANCH  32  33
ENDBRANCH  31  32
ENDBRANCH  30  31
ENDBRANCH   1  30
TORSDOF 17
ENDMDL
