MODEL 1
REMARK VINA RESULT:     -12.1      0.000      0.000
REMARK SMILES Cc1cc(N2CCO[C@@H](C)C2)cc(C(=O)NCCCCCCNC(=O)c2ccc(-c3c4nc(c(-c5c(F)c(F)c(F)c(F)c5F)c5ccc([nH]5)c(-c5c(F)c(F)c(F)c(F)c5F)c5nc(c(-c6c(F)c(F)c(F)c(F)c6F)c6ccc3[nH]6)C=C5)C=C4)cc2)c1N
REMARK SMILES IDX 20 1 19 2 18 3 17 4 16 5 14 6 15 7 13 9 1 10 2 11 3 12 89 13
REMARK SMILES IDX 4 14 12 15 90 16 5 19 6 20 11 21 7 22 9 23 8 24 10 25 21 26
REMARK SMILES IDX 22 27 23 28 24 29 25 31 26 32 27 33 88 34 28 35 87 36 29 37
REMARK SMILES IDX 30 38 31 39 81 40 32 41 86 42 80 43 82 44 33 45 85 46 79 47
REMARK SMILES IDX 78 48 34 50 66 51 46 52 65 53 47 54 50 55 64 56 83 57 48 58
REMARK SMILES IDX 49 59 63 61 84 62 51 63 35 64 36 65 44 66 37 67 38 68 42 69
REMARK SMILES IDX 45 70 39 71 40 72 43 73 41 74 67 75 68 76 76 77 69 78 70 79
REMARK SMILES IDX 74 80 77 81 71 82 72 83 75 84 73 85 52 86 53 87 61 88 54 89
REMARK SMILES IDX 55 90 59 91 62 92 56 93 57 94 60 95 58 96
REMARK H PARENT 16 8 90 17 90 18 23 30 82 49 50 60
REMARK Flexibility Score: inf
ROOT
ATOM      1  C   UNL A   1      31.492  30.747  26.167  1.00  0.00     0.002 C 
ENDROOT
BRANCH   1   2
ATOM      2  C   UNL A   1      32.867  30.108  26.405  1.00  0.00     0.002 C 
BRANCH   2   3
ATOM      3  C   UNL A   1      32.877  28.976  27.445  1.00  0.00     0.021 C 
BRANCH   3   4
ATOM      4  C   UNL A   1      31.488  28.376  27.686  1.00  0.00     0.116 C 
BRANCH   4   5
ATOM      5  N   UNL A   1      31.451  27.021  27.178  1.00  0.00    -0.352 N 
ATOM      6  C   UNL A   1      31.339  26.469  25.928  1.00  0.00     0.253 C 
ATOM      7  O   UNL A   1      31.208  25.240  25.909  1.00  0.00    -0.269 OA
ATOM      8  H   UNL A   1      31.521  26.344  27.890  1.00  0.00     0.163 HD
BRANCH   6   9
ATOM      9  C   UNL A   1      31.406  27.234  24.635  1.00  0.00     0.065 A 
ATOM     10  C   UNL A   1      34.028  28.202  22.001  1.00  0.00     0.046 C 
ATOM     11  C   UNL A   1      32.733  28.061  22.755  1.00  0.00    -0.025 A 
ATOM     12  C   UNL A   1      31.592  28.710  22.259  1.00  0.00     0.031 A 
ATOM     13  C   UNL A   1      32.649  27.310  23.946  1.00  0.00     0.047 A 
ATOM     14  C   UNL A   1      30.365  28.640  22.916  1.00  0.00     0.038 A 
ATOM     15  C   UNL A   1      30.283  27.847  24.062  1.00  0.00     0.042 A 
BRANCH  13  16
ATOM     16  N   UNL A   1      33.824  26.790  24.503  1.00  0.00    -0.398 N 
ATOM     17  H   UNL A   1      34.284  26.036  24.067  1.00  0.00     0.156 HD
ATOM     18  H   UNL A   1      34.192  27.178  25.329  1.00  0.00     0.156 HD
ENDBRANCH  13  16
BRANCH  14  19
ATOM     19  N   UNL A   1      29.288  29.372  22.478  1.00  0.00    -0.367 N 
ATOM     20  C   UNL A   1      27.913  28.953  22.751  1.00  0.00     0.145 C 
ATOM     21  C   UNL A   1      29.439  30.551  21.626  1.00  0.00     0.148 C 
ATOM     22  C   UNL A   1      27.102  30.158  23.257  1.00  0.00     0.182 C 
ATOM     23  C   UNL A   1      28.562  31.708  22.148  1.00  0.00     0.134 C 
ATOM     24  O   UNL A   1      27.200  31.293  22.380  1.00  0.00    -0.375 OA
ATOM     25  C   UNL A   1      29.161  32.386  23.379  1.00  0.00     0.040 C 
ENDBRANCH  14  19
ENDBRANCH   6   9
ENDBRANCH   4   5
ENDBRANCH   3   4
ENDBRANCH   2   3
ENDBRANCH   1   2
BRANCH   1  26
ATOM     26  C   UNL A   1      31.403  32.230  26.531  1.00  0.00     0.021 C 
BRANCH  26  27
ATOM     27  C   UNL A   1      32.635  32.767  27.251  1.00  0.00     0.116 C 
BRANCH  27  28
ATOM     28  N   UNL A   1      32.467  34.163  27.626  1.00  0.00    -0.352 N 
ATOM     29  C   UNL A   1      33.061  34.866  28.643  1.00  0.00     0.251 C 
ATOM     30  H   UNL A   1      31.836  34.676  27.071  1.00  0.00     0.163 HD
ATOM     31  O   UNL A   1      32.629  35.964  28.974  1.00  0.00    -0.269 OA
BRANCH  29  32
ATOM     32  C   UNL A   1      34.225  34.289  29.347  1.00  0.00     0.039 A 
ATOM     33  C   UNL A   1      34.016  33.565  30.523  1.00  0.00     0.014 A 
ATOM     34  C   UNL A   1      35.521  34.486  28.861  1.00  0.00     0.014 A 
ATOM     35  C   UNL A   1      35.103  32.995  31.186  1.00  0.00     0.010 A 
ATOM     36  C   UNL A   1      36.597  33.862  29.486  1.00  0.00     0.010 A 
ATOM     37  C   UNL A   1      36.399  33.118  30.659  1.00  0.00    -0.014 A 
BRANCH  37  38
ATOM     38  C   UNL A   1      37.563  32.485  31.326  1.00  0.00     0.031 A 
ATOM     39  C   UNL A   1      38.302  31.365  30.649  1.00  0.00     0.074 A 
ATOM     40  C   UNL A   1      37.913  32.877  32.567  1.00  0.00     0.049 A 
ATOM     41  N   UNL A   1      39.293  30.636  31.097  1.00  0.00    -0.248 NA
ATOM     42  C   UNL A   1      37.852  30.998  29.296  1.00  0.00     0.031 C 
ATOM     43  C   UNL A   1      37.244  33.921  33.344  1.00  0.00     0.029 A 
ATOM     44  N   UNL A   1      38.910  32.433  33.398  1.00  0.00    -0.354 N 
ATOM     45  C   UNL A   1      39.570  29.717  30.092  1.00  0.00     0.074 A 
ATOM     46  C   UNL A   1      38.613  29.948  29.032  1.00  0.00     0.031 C 
ATOM     47  C   UNL A   1      37.860  34.050  34.529  1.00  0.00     0.029 A 
ATOM     48  C   UNL A   1      38.941  33.073  34.612  1.00  0.00     0.049 A 
ATOM     49  H   UNL A   1      39.544  31.722  33.147  1.00  0.00     0.167 HD
ATOM     50  C   UNL A   1      40.548  28.783  30.051  1.00  0.00     0.037 A 
ATOM     51  C   UNL A   1      39.747  32.886  35.675  1.00  0.00     0.037 A 
ATOM     52  C   UNL A   1      41.517  28.579  31.097  1.00  0.00     0.049 A 
ATOM     53  C   UNL A   1      40.827  31.841  35.600  1.00  0.00     0.074 A 
ATOM     54  C   UNL A   1      42.585  27.700  31.123  1.00  0.00     0.029 A 
ATOM     55  N   UNL A   1      41.532  29.266  32.301  1.00  0.00    -0.354 N 
ATOM     56  N   UNL A   1      41.123  31.026  34.617  1.00  0.00    -0.248 NA
ATOM     57  C   UNL A   1      41.689  31.695  36.781  1.00  0.00     0.031 C 
ATOM     58  C   UNL A   1      43.222  27.824  32.363  1.00  0.00     0.029 A 
ATOM     59  C   UNL A   1      42.581  28.815  33.088  1.00  0.00     0.049 A 
ATOM     60  H   UNL A   1      40.893  29.968  32.560  1.00  0.00     0.167 HD
ATOM     61  C   UNL A   1      42.223  30.294  35.046  1.00  0.00     0.074 A 
ATOM     62  C   UNL A   1      42.550  30.772  36.374  1.00  0.00     0.031 C 
ATOM     63  C   UNL A   1      42.899  29.314  34.400  1.00  0.00     0.037 A 
BRANCH  50  64
ATOM     64  C   UNL A   1      40.630  27.910  28.832  1.00  0.00     0.064 A 
ATOM     65  C   UNL A   1      39.898  26.718  28.731  1.00  0.00     0.173 A 
ATOM     66  C   UNL A   1      41.410  28.297  27.732  1.00  0.00     0.173 A 
ATOM     67  F   UNL A   1      39.146  26.297  29.760  1.00  0.00    -0.203 F 
ATOM     68  C   UNL A   1      39.961  25.933  27.582  1.00  0.00     0.198 A 
ATOM     69  C   UNL A   1      41.447  27.525  26.573  1.00  0.00     0.198 A 
ATOM     70  F   UNL A   1      42.125  29.431  27.773  1.00  0.00    -0.203 F 
ATOM     71  F   UNL A   1      39.286  24.777  27.525  1.00  0.00    -0.200 F 
ATOM     72  C   UNL A   1      40.729  26.342  26.501  1.00  0.00     0.200 A 
ATOM     73  F   UNL A   1      42.178  27.927  25.525  1.00  0.00    -0.200 F 
ATOM     74  F   UNL A   1      40.778  25.591  25.392  1.00  0.00    -0.200 F 
ENDBRANCH  50  64
BRANCH  51  75
ATOM     75  C   UNL A   1      39.579  33.720  36.894  1.00  0.00     0.064 A 
ATOM     76  C   UNL A   1      38.781  33.282  37.960  1.00  0.00     0.173 A 
ATOM     77  C   UNL A   1      40.195  34.974  37.013  1.00  0.00     0.173 A 
ATOM     78  F   UNL A   1      38.155  32.099  37.885  1.00  0.00    -0.203 F 
ATOM     79  C   UNL A   1      38.585  34.079  39.087  1.00  0.00     0.198 A 
ATOM     80  C   UNL A   1      40.024  35.756  38.153  1.00  0.00     0.198 A 
ATOM     81  F   UNL A   1      40.975  35.438  36.023  1.00  0.00    -0.203 F 
ATOM     82  F   UNL A   1      37.777  33.658  40.069  1.00  0.00    -0.200 F 
ATOM     83  C   UNL A   1      39.210  35.313  39.185  1.00  0.00     0.200 A 
ATOM     84  F   UNL A   1      40.641  36.941  38.249  1.00  0.00    -0.200 F 
ATOM     85  F   UNL A   1      39.022  36.078  40.268  1.00  0.00    -0.200 F 
ENDBRANCH  51  75
BRANCH  63  86
ATOM     86  C   UNL A   1      44.087  28.721  35.102  1.00  0.00     0.064 A 
ATOM     87  C   UNL A   1      43.971  27.590  35.922  1.00  0.00     0.173 A 
ATOM     88  C   UNL A   1      45.365  29.270  34.914  1.00  0.00     0.173 A 
ATOM     89  F   UNL A   1      42.768  27.039  36.145  1.00  0.00    -0.203 F 
ATOM     90  C   UNL A   1      45.087  27.045  36.550  1.00  0.00     0.198 A 
ATOM     91  C   UNL A   1      46.483  28.704  35.519  1.00  0.00     0.198 A 
ATOM     92  F   UNL A   1      45.532  30.348  34.132  1.00  0.00    -0.203 F 
ATOM     93  F   UNL A   1      44.946  25.993  37.368  1.00  0.00    -0.200 F 
ATOM     94  C   UNL A   1      46.343  27.597  36.342  1.00  0.00     0.200 A 
ATOM     95  F   UNL A   1      47.698  29.230  35.306  1.00  0.00    -0.200 F 
ATOM     96  F   UNL A   1      47.417  27.066  36.941  1.00  0.00    -0.200 F 
ENDBRANCH  63  86
ENDBRANCH  37  38
ENDBRANCH  29  32
ENDBRANCH  27  28
ENDBRANCH  26  27
ENDBRANCH   1  26
TORSDOF 15
ENDMDL
MODEL 2
REMARK VINA RESULT:     -12.0      2.317      8.161
REMARK SMILES Cc1cc(N2CCO[C@@H](C)C2)cc(C(=O)NCCCCCCNC(=O)c2ccc(-c3c4nc(c(-c5c(F)c(F)c(F)c(F)c5F)c5ccc([nH]5)c(-c5c(F)c(F)c(F)c(F)c5F)c5nc(c(-c6c(F)c(F)c(F)c(F)c6F)c6ccc3[nH]6)C=C5)C=C4)cc2)c1N
REMARK SMILES IDX 20 1 19 2 18 3 17 4 16 5 14 6 15 7 13 9 1 10 2 11 3 12 89 13
REMARK SMILES IDX 4 14 12 15 90 16 5 19 6 20 11 21 7 22 9 23 8 24 10 25 21 26
REMARK SMILES IDX 22 27 23 28 24 29 25 31 26 32 27 33 88 34 28 35 87 36 29 37
REMARK SMILES IDX 30 38 31 39 81 40 32 41 86 42 80 43 82 44 33 45 85 46 79 47
REMARK SMILES IDX 78 48 34 50 66 51 46 52 65 53 47 54 50 55 64 56 83 57 48 58
REMARK SMILES IDX 49 59 63 61 84 62 51 63 35 64 36 65 44 66 37 67 38 68 42 69
REMARK SMILES IDX 45 70 39 71 40 72 43 73 41 74 67 75 68 76 76 77 69 78 70 79
REMARK SMILES IDX 74 80 77 81 71 82 72 83 75 84 73 85 52 86 53 87 61 88 54 89
REMARK SMILES IDX 55 90 59 91 62 92 56 93 57 94 60 95 58 96
REMARK H PARENT 16 8 90 17 90 18 23 30 82 49 50 60
REMARK Flexibility Score: inf
ROOT
ATOM      1  C   UNL A   1      34.595  33.738  28.996  1.00  0.00     0.002 C 
ENDROOT
BRANCH   1   2
ATOM      2  C   UNL A   1      34.440  32.211  28.977  1.00  0.00     0.002 C 
BRANCH   2   3
ATOM      3  C   UNL A   1      34.654  31.562  27.601  1.00  0.00     0.021 C 
BRANCH   3   4
ATOM      4  C   UNL A   1      34.804  30.040  27.676  1.00  0.00     0.116 C 
BRANCH   4   5
ATOM      5  N   UNL A   1      33.506  29.435  27.890  1.00  0.00    -0.352 N 
ATOM      6  C   UNL A   1      32.746  28.528  27.197  1.00  0.00     0.253 C 
ATOM      7  O   UNL A   1      31.607  28.353  27.643  1.00  0.00    -0.269 OA
ATOM      8  H   UNL A   1      33.073  29.743  28.719  1.00  0.00     0.163 HD
BRANCH   6   9
ATOM      9  C   UNL A   1      33.212  27.738  26.005  1.00  0.00     0.065 A 
ATOM     10  C   UNL A   1      33.866  28.300  22.263  1.00  0.00     0.046 C 
ATOM     11  C   UNL A   1      33.740  27.659  23.619  1.00  0.00    -0.025 A 
ATOM     12  C   UNL A   1      34.009  26.288  23.742  1.00  0.00     0.031 A 
ATOM     13  C   UNL A   1      33.344  28.400  24.753  1.00  0.00     0.047 A 
ATOM     14  C   UNL A   1      33.892  25.625  24.963  1.00  0.00     0.038 A 
ATOM     15  C   UNL A   1      33.556  26.381  26.087  1.00  0.00     0.042 A 
BRANCH  13  16
ATOM     16  N   UNL A   1      32.941  29.731  24.585  1.00  0.00    -0.398 N 
ATOM     17  H   UNL A   1      32.056  29.933  24.205  1.00  0.00     0.156 HD
ATOM     18  H   UNL A   1      33.542  30.465  24.847  1.00  0.00     0.156 HD
ENDBRANCH  13  16
BRANCH  14  19
ATOM     19  N   UNL A   1      34.051  24.263  25.043  1.00  0.00    -0.367 N 
ATOM     20  C   UNL A   1      32.961  23.343  24.715  1.00  0.00     0.145 C 
ATOM     21  C   UNL A   1      35.273  23.647  25.556  1.00  0.00     0.148 C 
ATOM     22  C   UNL A   1      33.491  22.226  23.801  1.00  0.00     0.182 C 
ATOM     23  C   UNL A   1      35.728  22.498  24.632  1.00  0.00     0.134 C 
ATOM     24  O   UNL A   1      34.654  21.578  24.344  1.00  0.00    -0.375 OA
ATOM     25  C   UNL A   1      36.391  23.006  23.352  1.00  0.00     0.040 C 
ENDBRANCH  14  19
ENDBRANCH   6   9
ENDBRANCH   4   5
ENDBRANCH   3   4
ENDBRANCH   2   3
ENDBRANCH   1   2
BRANCH   1  26
ATOM     26  C   UNL A   1      33.277  34.516  28.990  1.00  0.00     0.021 C 
BRANCH  26  27
ATOM     27  C   UNL A   1      33.412  35.969  29.432  1.00  0.00     0.116 C 
BRANCH  27  28
ATOM     28  N   UNL A   1      32.570  36.256  30.583  1.00  0.00    -0.352 N 
ATOM     29  C   UNL A   1      32.643  35.755  31.858  1.00  0.00     0.251 C 
ATOM     30  H   UNL A   1      31.844  36.901  30.424  1.00  0.00     0.163 HD
ATOM     31  O   UNL A   1      31.714  35.911  32.642  1.00  0.00    -0.269 OA
BRANCH  29  32
ATOM     32  C   UNL A   1      33.850  35.016  32.285  1.00  0.00     0.039 A 
ATOM     33  C   UNL A   1      33.713  33.705  32.748  1.00  0.00     0.014 A 
ATOM     34  C   UNL A   1      35.108  35.625  32.252  1.00  0.00     0.014 A 
ATOM     35  C   UNL A   1      34.846  32.987  33.134  1.00  0.00     0.010 A 
ATOM     36  C   UNL A   1      36.243  34.887  32.573  1.00  0.00     0.010 A 
ATOM     37  C   UNL A   1      36.122  33.563  33.025  1.00  0.00    -0.014 A 
BRANCH  37  38
ATOM     38  C   UNL A   1      37.342  32.803  33.389  1.00  0.00     0.031 A 
ATOM     39  C   UNL A   1      38.072  33.116  34.665  1.00  0.00     0.074 A 
ATOM     40  C   UNL A   1      37.826  31.876  32.540  1.00  0.00     0.049 A 
ATOM     41  N   UNL A   1      39.194  32.618  35.122  1.00  0.00    -0.248 NA
ATOM     42  C   UNL A   1      37.477  34.145  35.533  1.00  0.00     0.031 C 
ATOM     43  C   UNL A   1      37.232  31.517  31.252  1.00  0.00     0.029 A 
ATOM     44  N   UNL A   1      38.938  31.076  32.627  1.00  0.00    -0.354 N 
ATOM     45  C   UNL A   1      39.444  33.284  36.316  1.00  0.00     0.074 A 
ATOM     46  C   UNL A   1      38.385  34.254  36.490  1.00  0.00     0.031 C 
ATOM     47  C   UNL A   1      37.973  30.557  30.678  1.00  0.00     0.029 A 
ATOM     48  C   UNL A   1      39.115  30.260  31.537  1.00  0.00     0.049 A 
ATOM     49  H   UNL A   1      39.551  31.088  33.397  1.00  0.00     0.167 HD
ATOM     50  C   UNL A   1      40.453  33.085  37.196  1.00  0.00     0.037 A 
ATOM     51  C   UNL A   1      40.094  29.377  31.261  1.00  0.00     0.037 A 
ATOM     52  C   UNL A   1      41.486  32.096  37.032  1.00  0.00     0.049 A 
ATOM     53  C   UNL A   1      41.203  29.176  32.258  1.00  0.00     0.074 A 
ATOM     54  C   UNL A   1      42.517  31.774  37.897  1.00  0.00     0.029 A 
ATOM     55  N   UNL A   1      41.617  31.268  35.927  1.00  0.00    -0.354 N 
ATOM     56  N   UNL A   1      41.390  29.762  33.415  1.00  0.00    -0.248 NA
ATOM     57  C   UNL A   1      42.232  28.186  31.913  1.00  0.00     0.031 C 
ATOM     58  C   UNL A   1      43.299  30.782  37.296  1.00  0.00     0.029 A 
ATOM     59  C   UNL A   1      42.725  30.449  36.079  1.00  0.00     0.049 A 
ATOM     60  H   UNL A   1      41.014  31.263  35.149  1.00  0.00     0.167 HD
ATOM     61  C   UNL A   1      42.537  29.190  33.951  1.00  0.00     0.074 A 
ATOM     62  C   UNL A   1      42.995  28.201  32.997  1.00  0.00     0.031 C 
ATOM     63  C   UNL A   1      43.156  29.461  35.126  1.00  0.00     0.037 A 
BRANCH  50  64
ATOM     64  C   UNL A   1      40.489  33.948  38.423  1.00  0.00     0.064 A 
ATOM     65  C   UNL A   1      41.212  35.149  38.457  1.00  0.00     0.173 A 
ATOM     66  C   UNL A   1      39.749  33.596  39.563  1.00  0.00     0.173 A 
ATOM     67  F   UNL A   1      41.946  35.526  37.398  1.00  0.00    -0.203 F 
ATOM     68  C   UNL A   1      41.214  35.954  39.594  1.00  0.00     0.198 A 
ATOM     69  C   UNL A   1      39.728  34.418  40.687  1.00  0.00     0.198 A 
ATOM     70  F   UNL A   1      39.034  32.460  39.582  1.00  0.00    -0.203 F 
ATOM     71  F   UNL A   1      41.946  37.076  39.617  1.00  0.00    -0.200 F 
ATOM     72  C   UNL A   1      40.464  35.592  40.704  1.00  0.00     0.200 A 
ATOM     73  F   UNL A   1      38.994  34.074  41.753  1.00  0.00    -0.200 F 
ATOM     74  F   UNL A   1      40.456  36.375  41.792  1.00  0.00    -0.200 F 
ENDBRANCH  50  64
BRANCH  51  75
ATOM     75  C   UNL A   1      40.061  28.600  29.993  1.00  0.00     0.064 A 
ATOM     76  C   UNL A   1      39.429  27.350  29.932  1.00  0.00     0.173 A 
ATOM     77  C   UNL A   1      40.671  29.080  28.826  1.00  0.00     0.173 A 
ATOM     78  F   UNL A   1      38.849  26.840  31.028  1.00  0.00    -0.203 F 
ATOM     79  C   UNL A   1      39.432  26.598  28.759  1.00  0.00     0.198 A 
ATOM     80  C   UNL A   1      40.647  28.342  27.644  1.00  0.00     0.198 A 
ATOM     81  F   UNL A   1      41.284  30.274  28.828  1.00  0.00    -0.203 F 
ATOM     82  F   UNL A   1      38.866  25.384  28.743  1.00  0.00    -0.200 F 
ATOM     83  C   UNL A   1      40.037  27.096  27.615  1.00  0.00     0.200 A 
ATOM     84  F   UNL A   1      41.219  28.833  26.538  1.00  0.00    -0.200 F 
ATOM     85  F   UNL A   1      40.039  26.374  26.487  1.00  0.00    -0.200 F 
ENDBRANCH  51  75
BRANCH  63  86
ATOM     86  C   UNL A   1      44.372  28.648  35.465  1.00  0.00     0.064 A 
ATOM     87  C   UNL A   1      45.660  29.060  35.098  1.00  0.00     0.173 A 
ATOM     88  C   UNL A   1      44.245  27.463  36.206  1.00  0.00     0.173 A 
ATOM     89  F   UNL A   1      45.832  30.177  34.375  1.00  0.00    -0.203 F 
ATOM     90  C   UNL A   1      46.776  28.301  35.437  1.00  0.00     0.198 A 
ATOM     91  C   UNL A   1      45.365  26.723  36.570  1.00  0.00     0.198 A 
ATOM     92  F   UNL A   1      43.034  27.030  36.590  1.00  0.00    -0.203 F 
ATOM     93  F   UNL A   1      47.995  28.687  35.034  1.00  0.00    -0.200 F 
ATOM     94  C   UNL A   1      46.629  27.137  36.179  1.00  0.00     0.200 A 
ATOM     95  F   UNL A   1      45.222  25.607  37.300  1.00  0.00    -0.200 F 
ATOM     96  F   UNL A   1      47.706  26.413  36.512  1.00  0.00    -0.200 F 
ENDBRANCH  63  86
ENDBRANCH  37  38
ENDBRANCH  29  32
ENDBRANCH  27  28
ENDBRANCH  26  27
ENDBRANCH   1  26
TORSDOF 15
ENDMDL
MODEL 3
REMARK VINA RESULT:     -11.9      0.547      7.457
REMARK SMILES Cc1cc(N2CCO[C@@H](C)C2)cc(C(=O)NCCCCCCNC(=O)c2ccc(-c3c4nc(c(-c5c(F)c(F)c(F)c(F)c5F)c5ccc([nH]5)c(-c5c(F)c(F)c(F)c(F)c5F)c5nc(c(-c6c(F)c(F)c(F)c(F)c6F)c6ccc3[nH]6)C=C5)C=C4)cc2)c1N
REMARK SMILES IDX 20 1 19 2 18 3 17 4 16 5 14 6 15 7 13 9 1 10 2 11 3 12 89 13
REMARK SMILES IDX 4 14 12 15 90 16 5 19 6 20 11 21 7 22 9 23 8 24 10 25 21 26
REMARK SMILES IDX 22 27 23 28 24 29 25 31 26 32 27 33 88 34 28 35 87 36 29 37
REMARK SMILES IDX 30 38 31 39 81 40 32 41 86 42 80 43 82 44 33 45 85 46 79 47
REMARK SMILES IDX 78 48 34 50 66 51 46 52 65 53 47 54 50 55 64 56 83 57 48 58
REMARK SMILES IDX 49 59 63 61 84 62 51 63 35 64 36 65 44 66 37 67 38 68 42 69
REMARK SMILES IDX 45 70 39 71 40 72 43 73 41 74 67 75 68 76 76 77 69 78 70 79
REMARK SMILES IDX 74 80 77 81 71 82 72 83 75 84 73 85 52 86 53 87 61 88 54 89
REMARK SMILES IDX 55 90 59 91 62 92 56 93 57 94 60 95 58 96
REMARK H PARENT 16 8 90 17 90 18 23 30 82 49 50 60
REMARK Flexibility Score: inf
ROOT
ATOM      1  C   UNL A   1      31.399  30.779  26.109  1.00  0.00     0.002 C 
ENDROOT
BRANCH   1   2
ATOM      2  C   UNL A   1      32.764  30.086  26.225  1.00  0.00     0.002 C 
BRANCH   2   3
ATOM      3  C   UNL A   1      32.861  29.044  27.351  1.00  0.00     0.021 C 
BRANCH   3   4
ATOM      4  C   UNL A   1      31.508  28.416  27.699  1.00  0.00     0.116 C 
BRANCH   4   5
ATOM      5  N   UNL A   1      31.473  27.047  27.227  1.00  0.00    -0.352 N 
ATOM      6  C   UNL A   1      31.359  26.462  25.992  1.00  0.00     0.253 C 
ATOM      7  O   UNL A   1      31.232  25.234  26.005  1.00  0.00    -0.269 OA
ATOM      8  H   UNL A   1      31.547  26.390  27.956  1.00  0.00     0.163 HD
BRANCH   6   9
ATOM      9  C   UNL A   1      31.421  27.194  24.679  1.00  0.00     0.065 A 
ATOM     10  C   UNL A   1      34.028  28.078  22.002  1.00  0.00     0.046 C 
ATOM     11  C   UNL A   1      32.738  27.964  22.768  1.00  0.00    -0.025 A 
ATOM     12  C   UNL A   1      31.597  28.607  22.264  1.00  0.00     0.031 A 
ATOM     13  C   UNL A   1      32.658  27.245  23.980  1.00  0.00     0.047 A 
ATOM     14  C   UNL A   1      30.375  28.562  22.932  1.00  0.00     0.038 A 
ATOM     15  C   UNL A   1      30.297  27.799  24.100  1.00  0.00     0.042 A 
BRANCH  13  16
ATOM     16  N   UNL A   1      33.836  26.732  24.540  1.00  0.00    -0.398 N 
ATOM     17  H   UNL A   1      33.807  26.277  25.412  1.00  0.00     0.156 HD
ATOM     18  H   UNL A   1      34.691  26.827  24.063  1.00  0.00     0.156 HD
ENDBRANCH  13  16
BRANCH  14  19
ATOM     19  N   UNL A   1      29.299  29.289  22.484  1.00  0.00    -0.367 N 
ATOM     20  C   UNL A   1      27.923  28.868  22.752  1.00  0.00     0.145 C 
ATOM     21  C   UNL A   1      29.452  30.462  21.625  1.00  0.00     0.148 C 
ATOM     22  C   UNL A   1      27.107  30.075  23.246  1.00  0.00     0.182 C 
ATOM     23  C   UNL A   1      28.570  31.621  22.134  1.00  0.00     0.134 C 
ATOM     24  O   UNL A   1      27.208  31.204  22.362  1.00  0.00    -0.375 OA
ATOM     25  C   UNL A   1      29.160  32.308  23.365  1.00  0.00     0.040 C 
ENDBRANCH  14  19
ENDBRANCH   6   9
ENDBRANCH   4   5
ENDBRANCH   3   4
ENDBRANCH   2   3
ENDBRANCH   1   2
BRANCH   1  26
ATOM     26  C   UNL A   1      31.396  32.257  26.505  1.00  0.00     0.021 C 
BRANCH  26  27
ATOM     27  C   UNL A   1      32.690  32.728  27.159  1.00  0.00     0.116 C 
BRANCH  27  28
ATOM     28  N   UNL A   1      32.582  34.101  27.626  1.00  0.00    -0.352 N 
ATOM     29  C   UNL A   1      33.206  34.708  28.685  1.00  0.00     0.251 C 
ATOM     30  H   UNL A   1      31.975  34.676  27.108  1.00  0.00     0.163 HD
ATOM     31  O   UNL A   1      32.822  35.800  29.090  1.00  0.00    -0.269 OA
BRANCH  29  32
ATOM     32  C   UNL A   1      34.345  34.037  29.346  1.00  0.00     0.039 A 
ATOM     33  C   UNL A   1      34.088  33.083  30.334  1.00  0.00     0.014 A 
ATOM     34  C   UNL A   1      35.661  34.368  29.010  1.00  0.00     0.014 A 
ATOM     35  C   UNL A   1      35.152  32.424  30.952  1.00  0.00     0.010 A 
ATOM     36  C   UNL A   1      36.718  33.663  29.577  1.00  0.00     0.010 A 
ATOM     37  C   UNL A   1      36.474  32.691  30.560  1.00  0.00    -0.014 A 
BRANCH  37  38
ATOM     38  C   UNL A   1      37.617  31.972  31.173  1.00  0.00     0.031 A 
ATOM     39  C   UNL A   1      38.080  32.333  32.556  1.00  0.00     0.074 A 
ATOM     40  C   UNL A   1      38.276  31.039  30.458  1.00  0.00     0.049 A 
ATOM     41  N   UNL A   1      39.103  31.875  33.234  1.00  0.00    -0.248 NA
ATOM     42  C   UNL A   1      37.306  33.365  33.265  1.00  0.00     0.031 C 
ATOM     43  C   UNL A   1      37.950  30.635  29.090  1.00  0.00     0.029 A 
ATOM     44  N   UNL A   1      39.367  30.271  30.779  1.00  0.00    -0.354 N 
ATOM     45  C   UNL A   1      39.103  32.573  34.435  1.00  0.00     0.074 A 
ATOM     46  C   UNL A   1      38.010  33.519  34.375  1.00  0.00     0.031 C 
ATOM     47  C   UNL A   1      38.809  29.682  28.696  1.00  0.00     0.029 A 
ATOM     48  C   UNL A   1      39.769  29.435  29.767  1.00  0.00     0.049 A 
ATOM     49  H   UNL A   1      39.820  30.316  31.653  1.00  0.00     0.167 HD
ATOM     50  C   UNL A   1      39.927  32.421  35.498  1.00  0.00     0.037 A 
ATOM     51  C   UNL A   1      40.802  28.572  29.708  1.00  0.00     0.037 A 
ATOM     52  C   UNL A   1      40.994  31.456  35.564  1.00  0.00     0.049 A 
ATOM     53  C   UNL A   1      41.701  28.423  30.905  1.00  0.00     0.074 A 
ATOM     54  C   UNL A   1      41.845  31.182  36.619  1.00  0.00     0.029 A 
ATOM     55  N   UNL A   1      41.353  30.608  34.527  1.00  0.00    -0.354 N 
ATOM     56  N   UNL A   1      41.649  29.040  32.061  1.00  0.00    -0.248 NA
ATOM     57  C   UNL A   1      42.799  27.453  30.792  1.00  0.00     0.031 C 
ATOM     58  C   UNL A   1      42.749  30.197  36.207  1.00  0.00     0.029 A 
ATOM     59  C   UNL A   1      42.429  29.822  34.912  1.00  0.00     0.049 A 
ATOM     60  H   UNL A   1      40.912  30.569  33.648  1.00  0.00     0.167 HD
ATOM     61  C   UNL A   1      42.682  28.511  32.823  1.00  0.00     0.074 A 
ATOM     62  C   UNL A   1      43.337  27.513  32.002  1.00  0.00     0.031 C 
ATOM     63  C   UNL A   1      43.057  28.825  34.087  1.00  0.00     0.037 A 
BRANCH  50  64
ATOM     64  C   UNL A   1      39.706  33.312  36.686  1.00  0.00     0.064 A 
ATOM     65  C   UNL A   1      40.368  34.542  36.815  1.00  0.00     0.173 A 
ATOM     66  C   UNL A   1      38.783  32.956  37.681  1.00  0.00     0.173 A 
ATOM     67  F   UNL A   1      41.270  34.924  35.898  1.00  0.00    -0.203 F 
ATOM     68  C   UNL A   1      40.132  35.372  37.909  1.00  0.00     0.198 A 
ATOM     69  C   UNL A   1      38.527  33.802  38.757  1.00  0.00     0.198 A 
ATOM     70  F   UNL A   1      38.118  31.794  37.602  1.00  0.00    -0.203 F 
ATOM     71  F   UNL A   1      40.808  36.522  38.033  1.00  0.00    -0.200 F 
ATOM     72  C   UNL A   1      39.205  35.005  38.874  1.00  0.00     0.200 A 
ATOM     73  F   UNL A   1      37.622  33.453  39.681  1.00  0.00    -0.200 F 
ATOM     74  F   UNL A   1      38.970  35.811  39.919  1.00  0.00    -0.200 F 
ENDBRANCH  50  64
BRANCH  51  75
ATOM     75  C   UNL A   1      41.031  27.766  28.480  1.00  0.00     0.064 A 
ATOM     76  C   UNL A   1      41.900  28.217  27.476  1.00  0.00     0.173 A 
ATOM     77  C   UNL A   1      40.378  26.543  28.276  1.00  0.00     0.173 A 
ATOM     78  F   UNL A   1      42.532  29.390  27.616  1.00  0.00    -0.203 F 
ATOM     79  C   UNL A   1      42.085  27.487  26.304  1.00  0.00     0.198 A 
ATOM     80  C   UNL A   1      40.588  25.798  27.117  1.00  0.00     0.198 A 
ATOM     81  F   UNL A   1      39.541  26.063  29.209  1.00  0.00    -0.203 F 
ATOM     82  F   UNL A   1      42.882  27.965  25.338  1.00  0.00    -0.200 F 
ATOM     83  C   UNL A   1      41.433  26.275  26.127  1.00  0.00     0.200 A 
ATOM     84  F   UNL A   1      39.967  24.622  26.957  1.00  0.00    -0.200 F 
ATOM     85  F   UNL A   1      41.612  25.573  25.001  1.00  0.00    -0.200 F 
ENDBRANCH  51  75
BRANCH  63  86
ATOM     86  C   UNL A   1      44.201  28.051  34.676  1.00  0.00     0.064 A 
ATOM     87  C   UNL A   1      45.522  28.517  34.601  1.00  0.00     0.173 A 
ATOM     88  C   UNL A   1      43.964  26.851  35.363  1.00  0.00     0.173 A 
ATOM     89  F   UNL A   1      45.801  29.651  33.942  1.00  0.00    -0.203 F 
ATOM     90  C   UNL A   1      46.567  27.794  35.169  1.00  0.00     0.198 A 
ATOM     91  C   UNL A   1      45.007  26.147  35.956  1.00  0.00     0.198 A 
ATOM     92  F   UNL A   1      42.717  26.367  35.470  1.00  0.00    -0.203 F 
ATOM     93  F   UNL A   1      47.827  28.232  35.044  1.00  0.00    -0.200 F 
ATOM     94  C   UNL A   1      46.308  26.614  35.852  1.00  0.00     0.200 A 
ATOM     95  F   UNL A   1      44.754  25.015  36.628  1.00  0.00    -0.200 F 
ATOM     96  F   UNL A   1      47.316  25.925  36.405  1.00  0.00    -0.200 F 
ENDBRANCH  63  86
ENDBRANCH  37  38
ENDBRANCH  29  32
ENDBRANCH  27  28
ENDBRANCH  26  27
ENDBRANCH   1  26
TORSDOF 15
ENDMDL
