MODEL 1
REMARK VINA RESULT:     -12.3      0.000      0.000
REMARK SMILES O=C(CC[NH+]1CCC(n2nccc2NC(=O)c2ccccc2Cl)CC1)NCCCCCCNC(=O)c1ccc(-c2c3nc(c(-c4c(F)c(F)c(F)c(F)c4F)c4ccc([nH]4)c(-c4c(F)c(F)c(F)c(F)c4F)c4nc(c(-c5c(F)c(F)c(F)c(F)c5F)c5ccc2[nH]5)C=C4)C=C3)cc1
REMARK SMILES IDX 28 1 27 2 26 3 1 4 2 5 3 7 4 8 5 9 6 10 25 11 7 13 24 14
REMARK SMILES IDX 8 15 9 16 10 17 13 18 11 19 12 20 14 21 15 22 16 24 17 25
REMARK SMILES IDX 18 26 22 27 19 28 21 29 23 30 20 31 29 32 30 33 31 34 32 35
REMARK SMILES IDX 33 36 34 37 35 39 36 40 37 41 98 42 38 43 97 44 39 45 40 46
REMARK SMILES IDX 41 47 91 48 42 49 96 50 90 51 92 52 43 53 95 54 89 55 88 56
REMARK SMILES IDX 44 58 76 59 56 60 75 61 57 62 60 63 74 64 93 65 58 66 59 67
REMARK SMILES IDX 73 69 94 70 61 71 45 72 46 73 54 74 47 75 48 76 52 77 55 78
REMARK SMILES IDX 49 79 50 80 53 81 51 82 77 83 78 84 86 85 79 86 80 87 84 88
REMARK SMILES IDX 87 89 81 90 82 91 85 92 83 93 62 94 63 95 71 96 64 97 65 98
REMARK SMILES IDX 69 99 72 100 66 101 67 102 70 103 68 104
REMARK H PARENT 26 6 5 12 14 23 33 38 92 57 60 68
REMARK Flexibility Score: inf
ROOT
ATOM      1  C   UNL A   1      38.898  22.682  26.539  1.00  0.00     0.021 C 
ENDROOT
BRANCH   1   2
ATOM      2  C   UNL A   1      37.673  22.464  25.643  1.00  0.00     0.116 C 
BRANCH   2   3
ATOM      3  N   UNL A   1      36.441  22.293  26.394  1.00  0.00    -0.356 N 
ATOM      4  O   UNL A   1      35.530  20.747  24.981  1.00  0.00    -0.275 OA
ATOM      5  C   UNL A   1      35.433  21.458  25.981  1.00  0.00     0.225 C 
ATOM      6  H   UNL A   1      36.325  22.796  27.231  1.00  0.00     0.163 HD
BRANCH   5   7
ATOM      7  C   UNL A   1      34.114  21.544  26.733  1.00  0.00     0.161 C 
BRANCH   7   8
ATOM      8  C   UNL A   1      32.796  21.494  25.959  1.00  0.00     0.272 C 
BRANCH   8   9
ATOM      9  N   UNL A   1      32.261  22.735  25.367  1.00  0.00    -0.334 N 
ATOM     10  C   UNL A   1      33.055  23.944  25.591  1.00  0.00     0.264 C 
ATOM     11  C   UNL A   1      32.097  22.573  23.915  1.00  0.00     0.264 C 
ATOM     12  H   UNL A   1      31.375  22.875  25.852  1.00  0.00     0.348 HD
ATOM     13  C   UNL A   1      32.148  25.112  25.233  1.00  0.00     0.089 C 
ATOM     14  C   UNL A   1      31.226  23.696  23.364  1.00  0.00     0.089 C 
ATOM     15  C   UNL A   1      31.653  25.114  23.779  1.00  0.00     0.121 C 
BRANCH  15  16
ATOM     16  N   UNL A   1      30.597  26.136  23.629  1.00  0.00    -0.246 N 
ATOM     17  N   UNL A   1      29.397  25.877  24.207  1.00  0.00    -0.179 NA
ATOM     18  C   UNL A   1      30.603  27.370  22.992  1.00  0.00     0.131 A 
ATOM     19  C   UNL A   1      28.594  26.838  23.759  1.00  0.00     0.137 A 
ATOM     20  C   UNL A   1      29.281  27.761  22.956  1.00  0.00     0.069 A 
BRANCH  18  21
ATOM     21  N   UNL A   1      31.702  28.042  22.476  1.00  0.00    -0.307 N 
ATOM     22  C   UNL A   1      32.714  28.783  23.147  1.00  0.00     0.258 C 
ATOM     23  H   UNL A   1      31.795  28.000  21.497  1.00  0.00     0.171 HD
ATOM     24  O   UNL A   1      33.490  29.377  22.404  1.00  0.00    -0.269 OA
BRANCH  22  25
ATOM     25  C   UNL A   1      32.831  28.882  24.597  1.00  0.00     0.058 A 
ATOM     26  C   UNL A   1      33.835  28.115  25.203  1.00  0.00     0.015 A 
ATOM     27  C   UNL A   1      31.990  29.691  25.366  1.00  0.00     0.053 A 
ATOM     28  C   UNL A   1      34.055  28.228  26.573  1.00  0.00     0.001 A 
ATOM     29  C   UNL A   1      32.239  29.825  26.733  1.00  0.00     0.021 A 
ATOM     30  Cl  UNL A   1      30.636  30.527  24.700  1.00  0.00    -0.083 Cl
ATOM     31  C   UNL A   1      33.277  29.103  27.330  1.00  0.00     0.002 A 
ENDBRANCH  22  25
ENDBRANCH  18  21
ENDBRANCH  15  16
ENDBRANCH   8   9
ENDBRANCH   7   8
ENDBRANCH   5   7
ENDBRANCH   2   3
ENDBRANCH   1   2
BRANCH   1  32
ATOM     32  C   UNL A   1      40.120  21.811  26.232  1.00  0.00     0.002 C 
BRANCH  32  33
ATOM     33  C   UNL A   1      41.065  21.498  27.404  1.00  0.00     0.002 C 
BRANCH  33  34
ATOM     34  C   UNL A   1      42.156  20.452  27.159  1.00  0.00     0.021 C 
BRANCH  34  35
ATOM     35  C   UNL A   1      42.171  19.884  25.748  1.00  0.00     0.116 C 
BRANCH  35  36
ATOM     36  N   UNL A   1      43.524  19.593  25.245  1.00  0.00    -0.352 N 
ATOM     37  C   UNL A   1      44.464  20.495  24.762  1.00  0.00     0.251 C 
ATOM     38  H   UNL A   1      43.795  18.647  25.253  1.00  0.00     0.163 HD
ATOM     39  O   UNL A   1      45.387  20.142  24.049  1.00  0.00    -0.269 OA
BRANCH  37  40
ATOM     40  C   UNL A   1      44.328  21.900  25.186  1.00  0.00     0.039 A 
ATOM     41  C   UNL A   1      43.366  22.778  24.679  1.00  0.00     0.014 A 
ATOM     42  C   UNL A   1      45.165  22.276  26.224  1.00  0.00     0.014 A 
ATOM     43  C   UNL A   1      43.211  24.020  25.299  1.00  0.00     0.010 A 
ATOM     44  C   UNL A   1      44.821  23.350  26.985  1.00  0.00     0.010 A 
ATOM     45  C   UNL A   1      43.940  24.288  26.466  1.00  0.00    -0.014 A 
BRANCH  45  46
ATOM     46  C   UNL A   1      43.808  25.523  27.224  1.00  0.00     0.031 A 
ATOM     47  C   UNL A   1      44.743  26.615  26.851  1.00  0.00     0.074 A 
ATOM     48  C   UNL A   1      42.732  25.745  28.012  1.00  0.00     0.049 A 
ATOM     49  N   UNL A   1      45.656  27.152  27.590  1.00  0.00    -0.248 NA
ATOM     50  C   UNL A   1      44.738  27.103  25.463  1.00  0.00     0.031 C 
ATOM     51  C   UNL A   1      41.547  24.899  28.228  1.00  0.00     0.029 A 
ATOM     52  N   UNL A   1      42.410  26.867  28.702  1.00  0.00    -0.354 N 
ATOM     53  C   UNL A   1      46.219  28.174  26.832  1.00  0.00     0.074 A 
ATOM     54  C   UNL A   1      45.740  27.987  25.486  1.00  0.00     0.031 C 
ATOM     55  C   UNL A   1      40.551  25.635  28.764  1.00  0.00     0.029 A 
ATOM     56  C   UNL A   1      41.083  26.938  29.106  1.00  0.00     0.049 A 
ATOM     57  H   UNL A   1      43.064  27.575  28.901  1.00  0.00     0.167 HD
ATOM     58  C   UNL A   1      46.851  29.225  27.427  1.00  0.00     0.037 A 
ATOM     59  C   UNL A   1      40.468  28.019  29.642  1.00  0.00     0.037 A 
ATOM     60  C   UNL A   1      47.157  28.934  28.806  1.00  0.00     0.049 A 
ATOM     61  C   UNL A   1      41.542  28.900  30.177  1.00  0.00     0.074 A 
ATOM     62  C   UNL A   1      47.884  27.944  29.441  1.00  0.00     0.029 A 
ATOM     63  N   UNL A   1      46.355  29.476  29.783  1.00  0.00    -0.354 N 
ATOM     64  N   UNL A   1      42.312  28.562  31.180  1.00  0.00    -0.248 NA
ATOM     65  C   UNL A   1      42.090  29.908  29.280  1.00  0.00     0.031 C 
ATOM     66  C   UNL A   1      47.099  27.591  30.580  1.00  0.00     0.029 A 
ATOM     67  C   UNL A   1      45.996  28.445  30.615  1.00  0.00     0.049 A 
ATOM     68  H   UNL A   1      46.090  30.420  29.869  1.00  0.00     0.167 HD
ATOM     69  C   UNL A   1      43.582  28.986  30.810  1.00  0.00     0.074 A 
ATOM     70  C   UNL A   1      43.371  29.865  29.661  1.00  0.00     0.031 C 
ATOM     71  C   UNL A   1      44.708  28.355  31.263  1.00  0.00     0.037 A 
BRANCH  58  72
ATOM     72  C   UNL A   1      46.875  30.633  26.886  1.00  0.00     0.064 A 
ATOM     73  C   UNL A   1      48.088  31.351  26.900  1.00  0.00     0.173 A 
ATOM     74  C   UNL A   1      45.717  31.401  26.643  1.00  0.00     0.173 A 
ATOM     75  F   UNL A   1      49.251  30.725  27.135  1.00  0.00    -0.203 F 
ATOM     76  C   UNL A   1      48.125  32.742  26.770  1.00  0.00     0.198 A 
ATOM     77  C   UNL A   1      45.764  32.782  26.457  1.00  0.00     0.198 A 
ATOM     78  F   UNL A   1      44.488  30.874  26.690  1.00  0.00    -0.203 F 
ATOM     79  F   UNL A   1      49.285  33.394  26.923  1.00  0.00    -0.200 F 
ATOM     80  C   UNL A   1      46.961  33.457  26.555  1.00  0.00     0.200 A 
ATOM     81  F   UNL A   1      44.622  33.458  26.267  1.00  0.00    -0.200 F 
ATOM     82  F   UNL A   1      46.984  34.795  26.496  1.00  0.00    -0.200 F 
ENDBRANCH  58  72
BRANCH  59  83
ATOM     83  C   UNL A   1      39.078  28.469  29.386  1.00  0.00     0.064 A 
ATOM     84  C   UNL A   1      38.164  28.649  30.435  1.00  0.00     0.173 A 
ATOM     85  C   UNL A   1      38.688  28.973  28.127  1.00  0.00     0.173 A 
ATOM     86  F   UNL A   1      38.476  28.244  31.674  1.00  0.00    -0.203 F 
ATOM     87  C   UNL A   1      36.942  29.305  30.240  1.00  0.00     0.198 A 
ATOM     88  C   UNL A   1      37.466  29.620  27.932  1.00  0.00     0.198 A 
ATOM     89  F   UNL A   1      39.520  28.928  27.076  1.00  0.00    -0.203 F 
ATOM     90  F   UNL A   1      36.118  29.505  31.279  1.00  0.00    -0.200 F 
ATOM     91  C   UNL A   1      36.598  29.796  28.991  1.00  0.00     0.200 A 
ATOM     92  F   UNL A   1      37.164  30.119  26.725  1.00  0.00    -0.200 F 
ATOM     93  F   UNL A   1      35.452  30.471  28.816  1.00  0.00    -0.200 F 
ENDBRANCH  59  83
BRANCH  71  94
ATOM     94  C   UNL A   1      44.568  27.310  32.339  1.00  0.00     0.064 A 
ATOM     95  C   UNL A   1      44.405  25.937  32.086  1.00  0.00     0.173 A 
ATOM     96  C   UNL A   1      44.795  27.688  33.669  1.00  0.00     0.173 A 
ATOM     97  F   UNL A   1      44.292  25.473  30.837  1.00  0.00    -0.203 F 
ATOM     98  C   UNL A   1      44.426  24.996  33.115  1.00  0.00     0.198 A 
ATOM     99  C   UNL A   1      44.852  26.744  34.693  1.00  0.00     0.198 A 
ATOM    100  F   UNL A   1      45.020  28.976  33.971  1.00  0.00    -0.203 F 
ATOM    101  F   UNL A   1      44.265  23.693  32.838  1.00  0.00    -0.200 F 
ATOM    102  C   UNL A   1      44.659  25.401  34.417  1.00  0.00     0.200 A 
ATOM    103  F   UNL A   1      45.130  27.136  35.943  1.00  0.00    -0.200 F 
ATOM    104  F   UNL A   1      44.727  24.494  35.401  1.00  0.00    -0.200 F 
ENDBRANCH  71  94
ENDBRANCH  45  46
ENDBRANCH  37  40
ENDBRANCH  35  36
ENDBRANCH  34  35
ENDBRANCH  33  34
ENDBRANCH  32  33
ENDBRANCH   1  32
TORSDOF 18
ENDMDL
MODEL 2
REMARK VINA RESULT:     -11.9      3.973      9.730
REMARK SMILES O=C(CC[NH+]1CCC(n2nccc2NC(=O)c2ccccc2Cl)CC1)NCCCCCCNC(=O)c1ccc(-c2c3nc(c(-c4c(F)c(F)c(F)c(F)c4F)c4ccc([nH]4)c(-c4c(F)c(F)c(F)c(F)c4F)c4nc(c(-c5c(F)c(F)c(F)c(F)c5F)c5ccc2[nH]5)C=C4)C=C3)cc1
REMARK SMILES IDX 28 1 27 2 26 3 1 4 2 5 3 7 4 8 5 9 6 10 25 11 7 13 24 14
REMARK SMILES IDX 8 15 9 16 10 17 13 18 11 19 12 20 14 21 15 22 16 24 17 25
REMARK SMILES IDX 18 26 22 27 19 28 21 29 23 30 20 31 29 32 30 33 31 34 32 35
REMARK SMILES IDX 33 36 34 37 35 39 36 40 37 41 98 42 38 43 97 44 39 45 40 46
REMARK SMILES IDX 41 47 91 48 42 49 96 50 90 51 92 52 43 53 95 54 89 55 88 56
REMARK SMILES IDX 44 58 76 59 56 60 75 61 57 62 60 63 74 64 93 65 58 66 59 67
REMARK SMILES IDX 73 69 94 70 61 71 45 72 46 73 54 74 47 75 48 76 52 77 55 78
REMARK SMILES IDX 49 79 50 80 53 81 51 82 77 83 78 84 86 85 79 86 80 87 84 88
REMARK SMILES IDX 87 89 81 90 82 91 85 92 83 93 62 94 63 95 71 96 64 97 65 98
REMARK SMILES IDX 69 99 72 100 66 101 67 102 70 103 68 104
REMARK H PARENT 26 6 5 12 14 23 33 38 92 57 60 68
REMARK Flexibility Score: inf
ROOT
ATOM      1  C   UNL A   1      34.728  30.969  27.261  1.00  0.00     0.021 C 
ENDROOT
BRANCH   1   2
ATOM      2  C   UNL A   1      34.007  29.629  27.077  1.00  0.00     0.116 C 
BRANCH   2   3
ATOM      3  N   UNL A   1      33.602  29.384  25.703  1.00  0.00    -0.356 N 
ATOM      4  O   UNL A   1      31.500  30.247  25.932  1.00  0.00    -0.275 OA
ATOM      5  C   UNL A   1      32.347  29.687  25.237  1.00  0.00     0.225 C 
ATOM      6  H   UNL A   1      34.253  28.984  25.082  1.00  0.00     0.163 HD
BRANCH   5   7
ATOM      7  C   UNL A   1      31.983  29.174  23.853  1.00  0.00     0.161 C 
BRANCH   7   8
ATOM      8  C   UNL A   1      30.964  28.042  23.707  1.00  0.00     0.272 C 
BRANCH   8   9
ATOM      9  N   UNL A   1      31.438  26.645  23.692  1.00  0.00    -0.334 N 
ATOM     10  C   UNL A   1      32.733  26.415  23.049  1.00  0.00     0.264 C 
ATOM     11  C   UNL A   1      31.525  26.126  25.065  1.00  0.00     0.264 C 
ATOM     12  H   UNL A   1      30.743  26.157  23.128  1.00  0.00     0.348 HD
ATOM     13  C   UNL A   1      32.828  24.914  22.825  1.00  0.00     0.089 C 
ATOM     14  C   UNL A   1      31.661  24.608  25.036  1.00  0.00     0.089 C 
ATOM     15  C   UNL A   1      32.762  24.071  24.107  1.00  0.00     0.121 C 
BRANCH  15  16
ATOM     16  N   UNL A   1      32.609  22.647  23.742  1.00  0.00    -0.246 N 
ATOM     17  N   UNL A   1      32.521  22.351  22.421  1.00  0.00    -0.179 NA
ATOM     18  C   UNL A   1      32.549  21.504  24.528  1.00  0.00     0.131 A 
ATOM     19  C   UNL A   1      32.196  21.062  22.387  1.00  0.00     0.137 A 
ATOM     20  C   UNL A   1      32.146  20.501  23.671  1.00  0.00     0.069 A 
BRANCH  18  21
ATOM     21  N   UNL A   1      32.805  21.407  25.888  1.00  0.00    -0.307 N 
ATOM     22  C   UNL A   1      34.032  21.548  26.596  1.00  0.00     0.258 C 
ATOM     23  H   UNL A   1      32.020  21.211  26.449  1.00  0.00     0.171 HD
ATOM     24  O   UNL A   1      33.966  21.276  27.791  1.00  0.00    -0.269 OA
BRANCH  22  25
ATOM     25  C   UNL A   1      35.291  21.945  25.979  1.00  0.00     0.058 A 
ATOM     26  C   UNL A   1      35.674  23.285  26.131  1.00  0.00     0.015 A 
ATOM     27  C   UNL A   1      36.093  21.052  25.262  1.00  0.00     0.053 A 
ATOM     28  C   UNL A   1      36.906  23.709  25.640  1.00  0.00     0.001 A 
ATOM     29  C   UNL A   1      37.340  21.477  24.802  1.00  0.00     0.021 A 
ATOM     30  Cl  UNL A   1      35.598  19.439  24.901  1.00  0.00    -0.083 Cl
ATOM     31  C   UNL A   1      37.748  22.799  25.002  1.00  0.00     0.002 A 
ENDBRANCH  22  25
ENDBRANCH  18  21
ENDBRANCH  15  16
ENDBRANCH   8   9
ENDBRANCH   7   8
ENDBRANCH   5   7
ENDBRANCH   2   3
ENDBRANCH   1   2
BRANCH   1  32
ATOM     32  C   UNL A   1      34.251  31.835  28.430  1.00  0.00     0.002 C 
BRANCH  32  33
ATOM     33  C   UNL A   1      34.506  33.349  28.327  1.00  0.00     0.002 C 
BRANCH  33  34
ATOM     34  C   UNL A   1      33.357  34.277  28.729  1.00  0.00     0.021 C 
BRANCH  34  35
ATOM     35  C   UNL A   1      33.799  35.543  29.447  1.00  0.00     0.116 C 
BRANCH  35  36
ATOM     36  N   UNL A   1      33.133  35.747  30.744  1.00  0.00    -0.352 N 
ATOM     37  C   UNL A   1      33.231  34.958  31.885  1.00  0.00     0.251 C 
ATOM     38  H   UNL A   1      32.548  36.536  30.812  1.00  0.00     0.163 HD
ATOM     39  O   UNL A   1      32.390  34.993  32.765  1.00  0.00    -0.269 OA
BRANCH  37  40
ATOM     40  C   UNL A   1      34.426  34.105  32.010  1.00  0.00     0.039 A 
ATOM     41  C   UNL A   1      34.399  32.709  31.949  1.00  0.00     0.014 A 
ATOM     42  C   UNL A   1      35.625  34.796  32.086  1.00  0.00     0.014 A 
ATOM     43  C   UNL A   1      35.615  32.025  31.884  1.00  0.00     0.010 A 
ATOM     44  C   UNL A   1      36.773  34.151  31.743  1.00  0.00     0.010 A 
ATOM     45  C   UNL A   1      36.800  32.765  31.767  1.00  0.00    -0.014 A 
BRANCH  45  46
ATOM     46  C   UNL A   1      38.113  32.152  31.631  1.00  0.00     0.031 A 
ATOM     47  C   UNL A   1      38.839  31.885  32.899  1.00  0.00     0.074 A 
ATOM     48  C   UNL A   1      38.513  31.616  30.455  1.00  0.00     0.049 A 
ATOM     49  N   UNL A   1      39.958  32.399  33.285  1.00  0.00    -0.248 NA
ATOM     50  C   UNL A   1      38.201  31.025  33.908  1.00  0.00     0.031 C 
ATOM     51  C   UNL A   1      37.774  31.499  29.188  1.00  0.00     0.029 A 
ATOM     52  N   UNL A   1      39.651  30.930  30.186  1.00  0.00    -0.354 N 
ATOM     53  C   UNL A   1      40.268  31.791  34.498  1.00  0.00     0.074 A 
ATOM     54  C   UNL A   1      39.080  31.091  34.911  1.00  0.00     0.031 C 
ATOM     55  C   UNL A   1      38.364  30.577  28.398  1.00  0.00     0.029 A 
ATOM     56  C   UNL A   1      39.615  30.186  29.014  1.00  0.00     0.049 A 
ATOM     57  H   UNL A   1      40.440  30.957  30.773  1.00  0.00     0.167 HD
ATOM     58  C   UNL A   1      41.554  31.729  34.945  1.00  0.00     0.037 A 
ATOM     59  C   UNL A   1      40.540  29.280  28.614  1.00  0.00     0.037 A 
ATOM     60  C   UNL A   1      42.401  32.648  34.224  1.00  0.00     0.049 A 
ATOM     61  C   UNL A   1      41.792  29.591  29.356  1.00  0.00     0.074 A 
ATOM     62  C   UNL A   1      42.380  34.016  34.021  1.00  0.00     0.029 A 
ATOM     63  N   UNL A   1      43.220  32.149  33.239  1.00  0.00    -0.354 N 
ATOM     64  N   UNL A   1      42.472  30.695  29.182  1.00  0.00    -0.248 NA
ATOM     65  C   UNL A   1      41.992  28.930  30.639  1.00  0.00     0.031 C 
ATOM     66  C   UNL A   1      42.719  34.183  32.644  1.00  0.00     0.029 A 
ATOM     67  C   UNL A   1      43.011  32.922  32.124  1.00  0.00     0.049 A 
ATOM     68  H   UNL A   1      43.836  31.386  33.318  1.00  0.00     0.167 HD
ATOM     69  C   UNL A   1      42.846  31.088  30.460  1.00  0.00     0.074 A 
ATOM     70  C   UNL A   1      42.577  29.928  31.309  1.00  0.00     0.031 C 
ATOM     71  C   UNL A   1      43.047  32.403  30.776  1.00  0.00     0.037 A 
BRANCH  58  72
ATOM     72  C   UNL A   1      42.125  30.603  35.771  1.00  0.00     0.064 A 
ATOM     73  C   UNL A   1      42.990  30.909  36.841  1.00  0.00     0.173 A 
ATOM     74  C   UNL A   1      42.104  29.249  35.375  1.00  0.00     0.173 A 
ATOM     75  F   UNL A   1      43.100  32.167  37.293  1.00  0.00    -0.203 F 
ATOM     76  C   UNL A   1      43.833  29.949  37.408  1.00  0.00     0.198 A 
ATOM     77  C   UNL A   1      42.906  28.282  35.981  1.00  0.00     0.198 A 
ATOM     78  F   UNL A   1      41.402  28.826  34.317  1.00  0.00    -0.203 F 
ATOM     79  F   UNL A   1      44.732  30.314  38.331  1.00  0.00    -0.200 F 
ATOM     80  C   UNL A   1      43.794  28.638  36.972  1.00  0.00     0.200 A 
ATOM     81  F   UNL A   1      42.865  27.020  35.531  1.00  0.00    -0.200 F 
ATOM     82  F   UNL A   1      44.646  27.729  37.466  1.00  0.00    -0.200 F 
ENDBRANCH  58  72
BRANCH  59  83
ATOM     83  C   UNL A   1      40.281  27.990  27.929  1.00  0.00     0.064 A 
ATOM     84  C   UNL A   1      40.922  27.664  26.724  1.00  0.00     0.173 A 
ATOM     85  C   UNL A   1      39.588  26.941  28.569  1.00  0.00     0.173 A 
ATOM     86  F   UNL A   1      41.644  28.587  26.075  1.00  0.00    -0.203 F 
ATOM     87  C   UNL A   1      40.883  26.365  26.200  1.00  0.00     0.198 A 
ATOM     88  C   UNL A   1      39.542  25.650  28.043  1.00  0.00     0.198 A 
ATOM     89  F   UNL A   1      39.011  27.124  29.766  1.00  0.00    -0.203 F 
ATOM     90  F   UNL A   1      41.552  26.078  25.074  1.00  0.00    -0.200 F 
ATOM     91  C   UNL A   1      40.200  25.358  26.863  1.00  0.00     0.200 A 
ATOM     92  F   UNL A   1      38.906  24.680  28.715  1.00  0.00    -0.200 F 
ATOM     93  F   UNL A   1      40.208  24.104  26.390  1.00  0.00    -0.200 F 
ENDBRANCH  59  83
BRANCH  71  94
ATOM     94  C   UNL A   1      43.059  33.420  29.664  1.00  0.00     0.064 A 
ATOM     95  C   UNL A   1      41.948  34.202  29.302  1.00  0.00     0.173 A 
ATOM     96  C   UNL A   1      44.285  33.746  29.071  1.00  0.00     0.173 A 
ATOM     97  F   UNL A   1      40.762  34.035  29.896  1.00  0.00    -0.203 F 
ATOM     98  C   UNL A   1      42.052  35.229  28.364  1.00  0.00     0.198 A 
ATOM     99  C   UNL A   1      44.396  34.796  28.161  1.00  0.00     0.198 A 
ATOM    100  F   UNL A   1      45.397  33.079  29.419  1.00  0.00    -0.203 F 
ATOM    101  F   UNL A   1      40.970  35.955  28.041  1.00  0.00    -0.200 F 
ATOM    102  C   UNL A   1      43.278  35.530  27.802  1.00  0.00     0.200 A 
ATOM    103  F   UNL A   1      45.596  35.117  27.659  1.00  0.00    -0.200 F 
ATOM    104  F   UNL A   1      43.390  36.548  26.937  1.00  0.00    -0.200 F 
ENDBRANCH  71  94
ENDBRANCH  45  46
ENDBRANCH  37  40
ENDBRANCH  35  36
ENDBRANCH  34  35
ENDBRANCH  33  34
ENDBRANCH  32  33
ENDBRANCH   1  32
TORSDOF 18
ENDMDL
MODEL 3
REMARK VINA RESULT:     -11.8      3.967      9.954
REMARK SMILES O=C(CC[NH+]1CCC(n2nccc2NC(=O)c2ccccc2Cl)CC1)NCCCCCCNC(=O)c1ccc(-c2c3nc(c(-c4c(F)c(F)c(F)c(F)c4F)c4ccc([nH]4)c(-c4c(F)c(F)c(F)c(F)c4F)c4nc(c(-c5c(F)c(F)c(F)c(F)c5F)c5ccc2[nH]5)C=C4)C=C3)cc1
REMARK SMILES IDX 28 1 27 2 26 3 1 4 2 5 3 7 4 8 5 9 6 10 25 11 7 13 24 14
REMARK SMILES IDX 8 15 9 16 10 17 13 18 11 19 12 20 14 21 15 22 16 24 17 25
REMARK SMILES IDX 18 26 22 27 19 28 21 29 23 30 20 31 29 32 30 33 31 34 32 35
REMARK SMILES IDX 33 36 34 37 35 39 36 40 37 41 98 42 38 43 97 44 39 45 40 46
REMARK SMILES IDX 41 47 91 48 42 49 96 50 90 51 92 52 43 53 95 54 89 55 88 56
REMARK SMILES IDX 44 58 76 59 56 60 75 61 57 62 60 63 74 64 93 65 58 66 59 67
REMARK SMILES IDX 73 69 94 70 61 71 45 72 46 73 54 74 47 75 48 76 52 77 55 78
REMARK SMILES IDX 49 79 50 80 53 81 51 82 77 83 78 84 86 85 79 86 80 87 84 88
REMARK SMILES IDX 87 89 81 90 82 91 85 92 83 93 62 94 63 95 71 96 64 97 65 98
REMARK SMILES IDX 69 99 72 100 66 101 67 102 70 103 68 104
REMARK H PARENT 26 6 5 12 14 23 33 38 92 57 60 68
REMARK Flexibility Score: inf
ROOT
ATOM      1  C   UNL A   1      34.508  30.749  27.311  1.00  0.00     0.021 C 
ENDROOT
BRANCH   1   2
ATOM      2  C   UNL A   1      33.374  30.080  26.525  1.00  0.00     0.116 C 
BRANCH   2   3
ATOM      3  N   UNL A   1      33.767  29.684  25.183  1.00  0.00    -0.356 N 
ATOM      4  O   UNL A   1      31.674  29.064  24.511  1.00  0.00    -0.275 OA
ATOM      5  C   UNL A   1      32.877  29.167  24.275  1.00  0.00     0.225 C 
ATOM      6  H   UNL A   1      34.708  29.792  24.915  1.00  0.00     0.163 HD
BRANCH   5   7
ATOM      7  C   UNL A   1      33.457  28.587  22.995  1.00  0.00     0.161 C 
BRANCH   7   8
ATOM      8  C   UNL A   1      32.998  27.210  22.511  1.00  0.00     0.272 C 
BRANCH   8   9
ATOM      9  N   UNL A   1      33.622  26.002  23.083  1.00  0.00    -0.334 N 
ATOM     10  C   UNL A   1      33.550  25.873  24.540  1.00  0.00     0.264 C 
ATOM     11  C   UNL A   1      33.018  24.796  22.500  1.00  0.00     0.264 C 
ATOM     12  H   UNL A   1      34.610  26.102  22.850  1.00  0.00     0.348 HD
ATOM     13  C   UNL A   1      34.552  24.792  24.915  1.00  0.00     0.089 C 
ATOM     14  C   UNL A   1      33.885  23.581  22.809  1.00  0.00     0.089 C 
ATOM     15  C   UNL A   1      34.274  23.418  24.288  1.00  0.00     0.121 C 
BRANCH  15  16
ATOM     16  N   UNL A   1      35.438  22.537  24.518  1.00  0.00    -0.246 N 
ATOM     17  N   UNL A   1      36.607  22.887  23.926  1.00  0.00    -0.179 NA
ATOM     18  C   UNL A   1      35.571  21.375  25.267  1.00  0.00     0.131 A 
ATOM     19  C   UNL A   1      37.410  21.846  24.126  1.00  0.00     0.137 A 
ATOM     20  C   UNL A   1      36.797  20.855  24.907  1.00  0.00     0.069 A 
BRANCH  18  21
ATOM     21  N   UNL A   1      34.650  20.842  26.158  1.00  0.00    -0.307 N 
ATOM     22  C   UNL A   1      33.611  19.896  25.934  1.00  0.00     0.258 C 
ATOM     23  H   UNL A   1      34.728  21.166  27.084  1.00  0.00     0.171 HD
ATOM     24  O   UNL A   1      32.870  19.714  26.897  1.00  0.00    -0.269 OA
BRANCH  22  25
ATOM     25  C   UNL A   1      33.389  19.207  24.669  1.00  0.00     0.058 A 
ATOM     26  C   UNL A   1      34.093  18.012  24.469  1.00  0.00     0.015 A 
ATOM     27  C   UNL A   1      32.524  19.698  23.686  1.00  0.00     0.053 A 
ATOM     28  C   UNL A   1      33.862  17.261  23.319  1.00  0.00     0.001 A 
ATOM     29  C   UNL A   1      32.274  18.923  22.553  1.00  0.00     0.021 A 
ATOM     30  Cl  UNL A   1      31.759  21.240  23.804  1.00  0.00    -0.083 Cl
ATOM     31  C   UNL A   1      32.934  17.703  22.378  1.00  0.00     0.002 A 
ENDBRANCH  22  25
ENDBRANCH  18  21
ENDBRANCH  15  16
ENDBRANCH   8   9
ENDBRANCH   7   8
ENDBRANCH   5   7
ENDBRANCH   2   3
ENDBRANCH   1   2
BRANCH   1  32
ATOM     32  C   UNL A   1      34.082  31.760  28.379  1.00  0.00     0.002 C 
BRANCH  32  33
ATOM     33  C   UNL A   1      34.354  33.244  28.082  1.00  0.00     0.002 C 
BRANCH  33  34
ATOM     34  C   UNL A   1      33.285  34.250  28.520  1.00  0.00     0.021 C 
BRANCH  34  35
ATOM     35  C   UNL A   1      33.832  35.463  29.254  1.00  0.00     0.116 C 
BRANCH  35  36
ATOM     36  N   UNL A   1      33.172  35.716  30.545  1.00  0.00    -0.352 N 
ATOM     37  C   UNL A   1      33.263  34.963  31.710  1.00  0.00     0.251 C 
ATOM     38  H   UNL A   1      32.597  36.514  30.589  1.00  0.00     0.163 HD
ATOM     39  O   UNL A   1      32.424  35.036  32.590  1.00  0.00    -0.269 OA
BRANCH  37  40
ATOM     40  C   UNL A   1      34.448  34.100  31.860  1.00  0.00     0.039 A 
ATOM     41  C   UNL A   1      34.402  32.703  31.856  1.00  0.00     0.014 A 
ATOM     42  C   UNL A   1      35.657  34.777  31.899  1.00  0.00     0.014 A 
ATOM     43  C   UNL A   1      35.609  32.001  31.809  1.00  0.00     0.010 A 
ATOM     44  C   UNL A   1      36.793  34.104  31.573  1.00  0.00     0.010 A 
ATOM     45  C   UNL A   1      36.803  32.720  31.653  1.00  0.00    -0.014 A 
BRANCH  45  46
ATOM     46  C   UNL A   1      38.106  32.084  31.531  1.00  0.00     0.031 A 
ATOM     47  C   UNL A   1      38.817  31.814  32.806  1.00  0.00     0.074 A 
ATOM     48  C   UNL A   1      38.506  31.534  30.362  1.00  0.00     0.049 A 
ATOM     49  N   UNL A   1      39.942  32.312  33.197  1.00  0.00    -0.248 NA
ATOM     50  C   UNL A   1      38.157  30.971  33.816  1.00  0.00     0.031 C 
ATOM     51  C   UNL A   1      37.775  31.421  29.089  1.00  0.00     0.029 A 
ATOM     52  N   UNL A   1      39.635  30.828  30.105  1.00  0.00    -0.354 N 
ATOM     53  C   UNL A   1      40.233  31.708  34.417  1.00  0.00     0.074 A 
ATOM     54  C   UNL A   1      39.030  31.029  34.825  1.00  0.00     0.031 C 
ATOM     55  C   UNL A   1      38.356  30.484  28.310  1.00  0.00     0.029 A 
ATOM     56  C   UNL A   1      39.595  30.077  28.938  1.00  0.00     0.049 A 
ATOM     57  H   UNL A   1      40.419  30.846  30.699  1.00  0.00     0.167 HD
ATOM     58  C   UNL A   1      41.514  31.627  34.874  1.00  0.00     0.037 A 
ATOM     59  C   UNL A   1      40.508  29.153  28.552  1.00  0.00     0.037 A 
ATOM     60  C   UNL A   1      42.381  32.527  34.154  1.00  0.00     0.049 A 
ATOM     61  C   UNL A   1      41.759  29.449  29.302  1.00  0.00     0.074 A 
ATOM     62  C   UNL A   1      42.384  33.894  33.942  1.00  0.00     0.029 A 
ATOM     63  N   UNL A   1      43.199  32.008  33.179  1.00  0.00    -0.354 N 
ATOM     64  N   UNL A   1      42.459  30.540  29.125  1.00  0.00    -0.248 NA
ATOM     65  C   UNL A   1      41.939  28.793  30.590  1.00  0.00     0.031 C 
ATOM     66  C   UNL A   1      42.736  34.046  32.566  1.00  0.00     0.029 A 
ATOM     67  C   UNL A   1      43.012  32.777  32.057  1.00  0.00     0.049 A 
ATOM     68  H   UNL A   1      43.802  31.235  33.267  1.00  0.00     0.167 HD
ATOM     69  C   UNL A   1      42.829  30.935  30.404  1.00  0.00     0.074 A 
ATOM     70  C   UNL A   1      42.535  29.785  31.258  1.00  0.00     0.031 C 
ATOM     71  C   UNL A   1      43.050  32.249  30.712  1.00  0.00     0.037 A 
BRANCH  58  72
ATOM     72  C   UNL A   1      42.060  30.497  35.712  1.00  0.00     0.064 A 
ATOM     73  C   UNL A   1      42.927  30.795  36.783  1.00  0.00     0.173 A 
ATOM     74  C   UNL A   1      42.013  29.140  35.328  1.00  0.00     0.173 A 
ATOM     75  F   UNL A   1      43.061  32.055  37.223  1.00  0.00    -0.203 F 
ATOM     76  C   UNL A   1      43.749  29.824  37.361  1.00  0.00     0.198 A 
ATOM     77  C   UNL A   1      42.794  28.163  35.944  1.00  0.00     0.198 A 
ATOM     78  F   UNL A   1      41.306  28.722  34.271  1.00  0.00    -0.203 F 
ATOM     79  F   UNL A   1      44.653  30.180  38.283  1.00  0.00    -0.200 F 
ATOM     80  C   UNL A   1      43.686  28.510  36.935  1.00  0.00     0.200 A 
ATOM     81  F   UNL A   1      42.730  26.898  35.506  1.00  0.00    -0.200 F 
ATOM     82  F   UNL A   1      44.518  27.589  37.440  1.00  0.00    -0.200 F 
ENDBRANCH  58  72
BRANCH  59  83
ATOM     83  C   UNL A   1      40.234  27.863  27.873  1.00  0.00     0.064 A 
ATOM     84  C   UNL A   1      40.856  27.531  26.659  1.00  0.00     0.173 A 
ATOM     85  C   UNL A   1      39.544  26.819  28.525  1.00  0.00     0.173 A 
ATOM     86  F   UNL A   1      41.572  28.450  25.998  1.00  0.00    -0.203 F 
ATOM     87  C   UNL A   1      40.803  26.232  26.139  1.00  0.00     0.198 A 
ATOM     88  C   UNL A   1      39.486  25.526  28.002  1.00  0.00     0.198 A 
ATOM     89  F   UNL A   1      38.986  27.007  29.730  1.00  0.00    -0.203 F 
ATOM     90  F   UNL A   1      41.454  25.939  25.004  1.00  0.00    -0.200 F 
ATOM     91  C   UNL A   1      40.125  25.229  26.814  1.00  0.00     0.200 A 
ATOM     92  F   UNL A   1      38.855  24.561  28.685  1.00  0.00    -0.200 F 
ATOM     93  F   UNL A   1      40.120  23.974  26.343  1.00  0.00    -0.200 F 
ENDBRANCH  59  83
BRANCH  71  94
ATOM     94  C   UNL A   1      43.087  33.258  29.594  1.00  0.00     0.064 A 
ATOM     95  C   UNL A   1      42.008  34.092  29.252  1.00  0.00     0.173 A 
ATOM     96  C   UNL A   1      44.314  33.519  28.972  1.00  0.00     0.173 A 
ATOM     97  F   UNL A   1      40.829  33.988  29.874  1.00  0.00    -0.203 F 
ATOM     98  C   UNL A   1      42.141  35.108  28.306  1.00  0.00     0.198 A 
ATOM     99  C   UNL A   1      44.456  34.558  28.053  1.00  0.00     0.198 A 
ATOM    100  F   UNL A   1      45.399  32.800  29.299  1.00  0.00    -0.203 F 
ATOM    101  F   UNL A   1      41.090  35.885  28.002  1.00  0.00    -0.200 F 
ATOM    102  C   UNL A   1      43.369  35.345  27.714  1.00  0.00     0.200 A 
ATOM    103  F   UNL A   1      45.659  34.816  27.523  1.00  0.00    -0.200 F 
ATOM    104  F   UNL A   1      43.511  36.351  26.840  1.00  0.00    -0.200 F 
ENDBRANCH  71  94
ENDBRANCH  45  46
ENDBRANCH  37  40
ENDBRANCH  35  36
ENDBRANCH  34  35
ENDBRANCH  33  34
ENDBRANCH  32  33
ENDBRANCH   1  32
TORSDOF 18
ENDMDL
