MODEL 1
REMARK VINA RESULT:     -12.3      0.000      0.000
REMARK SMILES O=C(NCCCCCCNC(=O)c1ccc(-c2c3nc(c(-c4c(F)c(F)c(F)c(F)c4F)c4ccc([nH]4)c(-c4c(F)c(F)c(F)c(F)c4F)c4nc(c(-c5c(F)c(F)c(F)c(F)c5F)c5ccc2[nH]5)C=C4)C=C3)cc1)C1=Cc2cc(Cl)c(Cl)c(Cl)c2O[C@@H]1C(F)(F)F
REMARK SMILES IDX 7 1 6 2 5 3 4 4 3 5 1 6 2 7 76 9 77 10 88 11 78 12 87 13
REMARK SMILES IDX 79 14 86 15 80 16 84 17 81 18 82 19 85 20 83 21 89 22 90 23
REMARK SMILES IDX 91 24 92 25 8 26 9 27 10 28 11 29 12 31 13 32 14 33 75 34
REMARK SMILES IDX 15 35 74 36 16 37 17 38 18 39 68 40 19 41 73 42 67 43 69 44
REMARK SMILES IDX 20 45 72 46 66 47 65 48 21 50 53 51 33 52 52 53 34 54 37 55
REMARK SMILES IDX 51 56 70 57 35 58 36 59 50 61 71 62 38 63 22 64 23 65 31 66
REMARK SMILES IDX 24 67 25 68 29 69 32 70 26 71 27 72 30 73 28 74 54 75 55 76
REMARK SMILES IDX 63 77 56 78 57 79 61 80 64 81 58 82 59 83 62 84 60 85 39 86
REMARK SMILES IDX 40 87 48 88 41 89 42 90 46 91 49 92 43 93 44 94 47 95 45 96
REMARK H PARENT 3 8 10 30 69 49 37 60
REMARK Flexibility Score: inf
ROOT
ATOM      1  C   UNL A   1      34.403  23.046  27.235  1.00  0.00     0.002 C 
ENDROOT
BRANCH   1   2
ATOM      2  C   UNL A   1      32.924  22.641  27.208  1.00  0.00     0.002 C 
BRANCH   2   3
ATOM      3  C   UNL A   1      32.433  21.877  25.979  1.00  0.00     0.021 C 
BRANCH   3   4
ATOM      4  C   UNL A   1      31.157  22.386  25.319  1.00  0.00     0.116 C 
BRANCH   4   5
ATOM      5  N   UNL A   1      30.449  23.421  26.050  1.00  0.00    -0.352 N 
ATOM      6  O   UNL A   1      29.642  25.468  26.498  1.00  0.00    -0.270 OA
ATOM      7  C   UNL A   1      30.415  24.773  25.841  1.00  0.00     0.251 C 
ATOM      8  H   UNL A   1      29.911  23.102  26.810  1.00  0.00     0.163 HD
BRANCH   7   9
ATOM      9  C   UNL A   1      31.221  25.434  24.772  1.00  0.00     0.067 C 
ATOM     10  C   UNL A   1      30.666  25.858  23.624  1.00  0.00     0.025 C 
ATOM     11  C   UNL A   1      32.428  26.165  25.313  1.00  0.00     0.314 C 
ATOM     12  C   UNL A   1      30.602  27.336  23.552  1.00  0.00     0.020 A 
ATOM     13  O   UNL A   1      32.188  27.597  25.377  1.00  0.00    -0.474 OA
ATOM     14  C   UNL A   1      29.653  27.908  22.702  1.00  0.00     0.034 A 
ATOM     15  C   UNL A   1      31.275  28.129  24.496  1.00  0.00     0.148 A 
ATOM     16  C   UNL A   1      29.299  29.251  22.857  1.00  0.00     0.062 A 
ATOM     17  C   UNL A   1      30.937  29.486  24.633  1.00  0.00     0.103 A 
ATOM     18  Cl  UNL A   1      27.997  29.830  21.876  1.00  0.00    -0.083 Cl
ATOM     19  C   UNL A   1      29.924  30.044  23.831  1.00  0.00     0.082 A 
ATOM     20  Cl  UNL A   1      31.713  30.418  25.876  1.00  0.00    -0.079 Cl
ATOM     21  Cl  UNL A   1      29.390  31.678  24.092  1.00  0.00    -0.081 Cl
BRANCH  11  22
ATOM     22  C   UNL A   1      33.707  25.846  24.522  1.00  0.00     0.429 C 
ATOM     23  F   UNL A   1      33.911  26.742  23.529  1.00  0.00    -0.167 F 
ATOM     24  F   UNL A   1      34.806  25.869  25.312  1.00  0.00    -0.167 F 
ATOM     25  F   UNL A   1      33.656  24.618  23.948  1.00  0.00    -0.167 F 
ENDBRANCH  11  22
ENDBRANCH   7   9
ENDBRANCH   4   5
ENDBRANCH   3   4
ENDBRANCH   2   3
ENDBRANCH   1   2
BRANCH   1  26
ATOM     26  C   UNL A   1      35.280  22.605  26.059  1.00  0.00     0.021 C 
BRANCH  26  27
ATOM     27  C   UNL A   1      36.624  23.311  25.893  1.00  0.00     0.116 C 
BRANCH  27  28
ATOM     28  N   UNL A   1      37.763  22.420  26.007  1.00  0.00    -0.352 N 
ATOM     29  C   UNL A   1      39.053  22.674  26.406  1.00  0.00     0.251 C 
ATOM     30  H   UNL A   1      37.582  21.485  25.760  1.00  0.00     0.163 HD
ATOM     31  O   UNL A   1      39.890  21.778  26.336  1.00  0.00    -0.269 OA
BRANCH  29  32
ATOM     32  C   UNL A   1      39.463  24.012  26.895  1.00  0.00     0.039 A 
ATOM     33  C   UNL A   1      39.235  24.324  28.241  1.00  0.00     0.014 A 
ATOM     34  C   UNL A   1      40.014  24.978  26.048  1.00  0.00     0.014 A 
ATOM     35  C   UNL A   1      39.606  25.574  28.747  1.00  0.00     0.010 A 
ATOM     36  C   UNL A   1      40.441  26.202  26.566  1.00  0.00     0.010 A 
ATOM     37  C   UNL A   1      40.237  26.516  27.920  1.00  0.00    -0.014 A 
BRANCH  37  38
ATOM     38  C   UNL A   1      40.681  27.830  28.456  1.00  0.00     0.031 A 
ATOM     39  C   UNL A   1      42.132  28.073  28.771  1.00  0.00     0.074 A 
ATOM     40  C   UNL A   1      39.770  28.791  28.708  1.00  0.00     0.049 A 
ATOM     41  N   UNL A   1      42.701  29.131  29.295  1.00  0.00    -0.248 NA
ATOM     42  C   UNL A   1      43.066  26.976  28.478  1.00  0.00     0.031 C 
ATOM     43  C   UNL A   1      38.329  28.670  28.481  1.00  0.00     0.029 A 
ATOM     44  N   UNL A   1      39.920  30.058  29.218  1.00  0.00    -0.354 N 
ATOM     45  C   UNL A   1      44.048  28.818  29.414  1.00  0.00     0.074 A 
ATOM     46  C   UNL A   1      44.209  27.459  28.942  1.00  0.00     0.031 C 
ATOM     47  C   UNL A   1      37.731  29.819  28.829  1.00  0.00     0.029 A 
ATOM     48  C   UNL A   1      38.738  30.747  29.338  1.00  0.00     0.049 A 
ATOM     49  H   UNL A   1      40.792  30.435  29.475  1.00  0.00     0.167 HD
ATOM     50  C   UNL A   1      45.063  29.599  29.858  1.00  0.00     0.037 A 
ATOM     51  C   UNL A   1      38.493  31.984  29.810  1.00  0.00     0.037 A 
ATOM     52  C   UNL A   1      44.909  30.964  30.290  1.00  0.00     0.049 A 
ATOM     53  C   UNL A   1      39.639  32.828  30.301  1.00  0.00     0.074 A 
ATOM     54  C   UNL A   1      45.889  31.860  30.683  1.00  0.00     0.029 A 
ATOM     55  N   UNL A   1      43.697  31.630  30.388  1.00  0.00    -0.354 N 
ATOM     56  N   UNL A   1      40.918  32.545  30.339  1.00  0.00    -0.248 NA
ATOM     57  C   UNL A   1      39.305  34.165  30.811  1.00  0.00     0.031 C 
ATOM     58  C   UNL A   1      45.265  33.053  31.062  1.00  0.00     0.029 A 
ATOM     59  C   UNL A   1      43.901  32.917  30.860  1.00  0.00     0.049 A 
ATOM     60  H   UNL A   1      42.821  31.246  30.156  1.00  0.00     0.167 HD
ATOM     61  C   UNL A   1      41.543  33.677  30.844  1.00  0.00     0.074 A 
ATOM     62  C   UNL A   1      40.504  34.656  31.088  1.00  0.00     0.031 C 
ATOM     63  C   UNL A   1      42.861  33.887  31.084  1.00  0.00     0.037 A 
BRANCH  50  64
ATOM     64  C   UNL A   1      46.439  29.000  29.904  1.00  0.00     0.064 A 
ATOM     65  C   UNL A   1      46.913  28.330  31.040  1.00  0.00     0.173 A 
ATOM     66  C   UNL A   1      47.271  29.048  28.774  1.00  0.00     0.173 A 
ATOM     67  F   UNL A   1      46.160  28.264  32.149  1.00  0.00    -0.203 F 
ATOM     68  C   UNL A   1      48.180  27.751  31.054  1.00  0.00     0.198 A 
ATOM     69  C   UNL A   1      48.525  28.444  28.781  1.00  0.00     0.198 A 
ATOM     70  F   UNL A   1      46.862  29.670  27.658  1.00  0.00    -0.203 F 
ATOM     71  F   UNL A   1      48.629  27.150  32.165  1.00  0.00    -0.200 F 
ATOM     72  C   UNL A   1      48.981  27.800  29.922  1.00  0.00     0.200 A 
ATOM     73  F   UNL A   1      49.292  28.481  27.683  1.00  0.00    -0.200 F 
ATOM     74  F   UNL A   1      50.194  27.233  29.933  1.00  0.00    -0.200 F 
ENDBRANCH  50  64
BRANCH  51  75
ATOM     75  C   UNL A   1      37.105  32.517  29.822  1.00  0.00     0.064 A 
ATOM     76  C   UNL A   1      36.607  33.243  28.730  1.00  0.00     0.173 A 
ATOM     77  C   UNL A   1      36.258  32.333  30.924  1.00  0.00     0.173 A 
ATOM     78  F   UNL A   1      37.388  33.466  27.663  1.00  0.00    -0.203 F 
ATOM     79  C   UNL A   1      35.324  33.785  28.751  1.00  0.00     0.198 A 
ATOM     80  C   UNL A   1      34.965  32.852  30.932  1.00  0.00     0.198 A 
ATOM     81  F   UNL A   1      36.687  31.647  31.993  1.00  0.00    -0.203 F 
ATOM     82  F   UNL A   1      34.892  34.518  27.716  1.00  0.00    -0.200 F 
ATOM     83  C   UNL A   1      34.501  33.584  29.850  1.00  0.00     0.200 A 
ATOM     84  F   UNL A   1      34.170  32.648  31.991  1.00  0.00    -0.200 F 
ATOM     85  F   UNL A   1      33.268  34.107  29.870  1.00  0.00    -0.200 F 
ENDBRANCH  51  75
BRANCH  63  86
ATOM     86  C   UNL A   1      43.261  35.238  31.599  1.00  0.00     0.064 A 
ATOM     87  C   UNL A   1      43.643  36.273  30.733  1.00  0.00     0.173 A 
ATOM     88  C   UNL A   1      43.226  35.511  32.975  1.00  0.00     0.173 A 
ATOM     89  F   UNL A   1      43.709  36.058  29.411  1.00  0.00    -0.203 F 
ATOM     90  C   UNL A   1      43.998  37.525  31.228  1.00  0.00     0.198 A 
ATOM     91  C   UNL A   1      43.552  36.773  33.464  1.00  0.00     0.198 A 
ATOM     92  F   UNL A   1      42.860  34.557  33.844  1.00  0.00    -0.203 F 
ATOM     93  F   UNL A   1      44.404  38.486  30.386  1.00  0.00    -0.200 F 
ATOM     94  C   UNL A   1      43.945  37.776  32.591  1.00  0.00     0.200 A 
ATOM     95  F   UNL A   1      43.488  37.017  34.780  1.00  0.00    -0.200 F 
ATOM     96  F   UNL A   1      44.280  38.984  33.065  1.00  0.00    -0.200 F 
ENDBRANCH  63  86
ENDBRANCH  37  38
ENDBRANCH  29  32
ENDBRANCH  27  28
ENDBRANCH  26  27
ENDBRANCH   1  26
TORSDOF 14
ENDMDL
MODEL 2
REMARK VINA RESULT:     -12.2      4.478      9.005
REMARK SMILES O=C(NCCCCCCNC(=O)c1ccc(-c2c3nc(c(-c4c(F)c(F)c(F)c(F)c4F)c4ccc([nH]4)c(-c4c(F)c(F)c(F)c(F)c4F)c4nc(c(-c5c(F)c(F)c(F)c(F)c5F)c5ccc2[nH]5)C=C4)C=C3)cc1)C1=Cc2cc(Cl)c(Cl)c(Cl)c2O[C@@H]1C(F)(F)F
REMARK SMILES IDX 7 1 6 2 5 3 4 4 3 5 1 6 2 7 76 9 77 10 88 11 78 12 87 13
REMARK SMILES IDX 79 14 86 15 80 16 84 17 81 18 82 19 85 20 83 21 89 22 90 23
REMARK SMILES IDX 91 24 92 25 8 26 9 27 10 28 11 29 12 31 13 32 14 33 75 34
REMARK SMILES IDX 15 35 74 36 16 37 17 38 18 39 68 40 19 41 73 42 67 43 69 44
REMARK SMILES IDX 20 45 72 46 66 47 65 48 21 50 53 51 33 52 52 53 34 54 37 55
REMARK SMILES IDX 51 56 70 57 35 58 36 59 50 61 71 62 38 63 22 64 23 65 31 66
REMARK SMILES IDX 24 67 25 68 29 69 32 70 26 71 27 72 30 73 28 74 54 75 55 76
REMARK SMILES IDX 63 77 56 78 57 79 61 80 64 81 58 82 59 83 62 84 60 85 39 86
REMARK SMILES IDX 40 87 48 88 41 89 42 90 46 91 49 92 43 93 44 94 47 95 45 96
REMARK H PARENT 3 8 10 30 69 49 37 60
REMARK Flexibility Score: inf
ROOT
ATOM      1  C   UNL A   1      32.159  27.119  24.276  1.00  0.00     0.002 C 
ENDROOT
BRANCH   1   2
ATOM      2  C   UNL A   1      30.756  26.699  24.732  1.00  0.00     0.002 C 
BRANCH   2   3
ATOM      3  C   UNL A   1      30.640  26.019  26.094  1.00  0.00     0.021 C 
BRANCH   3   4
ATOM      4  C   UNL A   1      30.279  24.538  26.094  1.00  0.00     0.116 C 
BRANCH   4   5
ATOM      5  N   UNL A   1      31.087  23.700  26.960  1.00  0.00    -0.352 N 
ATOM      6  O   UNL A   1      32.912  22.612  27.689  1.00  0.00    -0.270 OA
ATOM      7  C   UNL A   1      32.346  23.199  26.768  1.00  0.00     0.251 C 
ATOM      8  H   UNL A   1      30.667  23.456  27.816  1.00  0.00     0.163 HD
BRANCH   7   9
ATOM      9  C   UNL A   1      33.106  23.419  25.501  1.00  0.00     0.067 C 
ATOM     10  C   UNL A   1      34.144  24.269  25.434  1.00  0.00     0.025 C 
ATOM     11  C   UNL A   1      33.088  22.214  24.589  1.00  0.00     0.314 C 
ATOM     12  C   UNL A   1      35.435  23.556  25.293  1.00  0.00     0.020 A 
ATOM     13  O   UNL A   1      34.338  21.477  24.671  1.00  0.00    -0.474 OA
ATOM     14  C   UNL A   1      36.596  24.223  25.693  1.00  0.00     0.034 A 
ATOM     15  C   UNL A   1      35.467  22.178  25.029  1.00  0.00     0.148 A 
ATOM     16  C   UNL A   1      37.769  23.501  25.926  1.00  0.00     0.062 A 
ATOM     17  C   UNL A   1      36.655  21.456  25.238  1.00  0.00     0.103 A 
ATOM     18  Cl  UNL A   1      39.107  24.381  26.579  1.00  0.00    -0.083 Cl
ATOM     19  C   UNL A   1      37.803  22.113  25.717  1.00  0.00     0.082 A 
ATOM     20  Cl  UNL A   1      36.639  19.736  24.999  1.00  0.00    -0.079 Cl
ATOM     21  Cl  UNL A   1      39.232  21.212  26.125  1.00  0.00    -0.081 Cl
BRANCH  11  22
ATOM     22  C   UNL A   1      32.751  22.586  23.136  1.00  0.00     0.429 C 
ATOM     23  F   UNL A   1      33.867  22.868  22.425  1.00  0.00    -0.167 F 
ATOM     24  F   UNL A   1      32.113  21.579  22.494  1.00  0.00    -0.167 F 
ATOM     25  F   UNL A   1      31.945  23.675  23.066  1.00  0.00    -0.167 F 
ENDBRANCH  11  22
ENDBRANCH   7   9
ENDBRANCH   4   5
ENDBRANCH   3   4
ENDBRANCH   2   3
ENDBRANCH   1   2
BRANCH   1  26
ATOM     26  C   UNL A   1      32.445  28.619  24.157  1.00  0.00     0.021 C 
BRANCH  26  27
ATOM     27  C   UNL A   1      33.396  29.227  25.185  1.00  0.00     0.116 C 
BRANCH  27  28
ATOM     28  N   UNL A   1      32.900  30.456  25.776  1.00  0.00    -0.352 N 
ATOM     29  C   UNL A   1      33.338  31.154  26.875  1.00  0.00     0.251 C 
ATOM     30  H   UNL A   1      32.126  30.853  25.315  1.00  0.00     0.163 HD
ATOM     31  O   UNL A   1      32.704  32.133  27.258  1.00  0.00    -0.269 OA
BRANCH  29  32
ATOM     32  C   UNL A   1      34.547  30.736  27.626  1.00  0.00     0.039 A 
ATOM     33  C   UNL A   1      35.557  31.683  27.835  1.00  0.00     0.014 A 
ATOM     34  C   UNL A   1      34.727  29.426  28.077  1.00  0.00     0.014 A 
ATOM     35  C   UNL A   1      36.715  31.334  28.538  1.00  0.00     0.010 A 
ATOM     36  C   UNL A   1      35.854  29.094  28.832  1.00  0.00     0.010 A 
ATOM     37  C   UNL A   1      36.862  30.042  29.067  1.00  0.00    -0.014 A 
BRANCH  37  38
ATOM     38  C   UNL A   1      38.065  29.671  29.859  1.00  0.00     0.031 A 
ATOM     39  C   UNL A   1      38.265  30.222  31.244  1.00  0.00     0.074 A 
ATOM     40  C   UNL A   1      39.006  28.877  29.311  1.00  0.00     0.049 A 
ATOM     41  N   UNL A   1      39.274  30.059  32.064  1.00  0.00    -0.248 NA
ATOM     42  C   UNL A   1      37.200  31.089  31.771  1.00  0.00     0.031 C 
ATOM     43  C   UNL A   1      38.951  28.306  27.965  1.00  0.00     0.029 A 
ATOM     44  N   UNL A   1      40.198  28.418  29.817  1.00  0.00    -0.354 N 
ATOM     45  C   UNL A   1      38.975  30.817  33.189  1.00  0.00     0.074 A 
ATOM     46  C   UNL A   1      37.709  31.470  32.934  1.00  0.00     0.031 C 
ATOM     47  C   UNL A   1      40.046  27.557  27.759  1.00  0.00     0.029 A 
ATOM     48  C   UNL A   1      40.899  27.623  28.943  1.00  0.00     0.049 A 
ATOM     49  H   UNL A   1      40.520  28.639  30.721  1.00  0.00     0.167 HD
ATOM     50  C   UNL A   1      39.683  30.941  34.338  1.00  0.00     0.037 A 
ATOM     51  C   UNL A   1      42.096  27.021  29.078  1.00  0.00     0.037 A 
ATOM     52  C   UNL A   1      40.923  30.259  34.607  1.00  0.00     0.049 A 
ATOM     53  C   UNL A   1      42.862  27.181  30.364  1.00  0.00     0.074 A 
ATOM     54  C   UNL A   1      41.673  30.261  35.771  1.00  0.00     0.029 A 
ATOM     55  N   UNL A   1      41.595  29.455  33.700  1.00  0.00    -0.354 N 
ATOM     56  N   UNL A   1      42.533  27.841  31.447  1.00  0.00    -0.248 NA
ATOM     57  C   UNL A   1      44.165  26.506  30.446  1.00  0.00     0.031 C 
ATOM     58  C   UNL A   1      42.822  29.495  35.552  1.00  0.00     0.029 A 
ATOM     59  C   UNL A   1      42.765  28.977  34.269  1.00  0.00     0.049 A 
ATOM     60  H   UNL A   1      41.287  29.253  32.787  1.00  0.00     0.167 HD
ATOM     61  C   UNL A   1      43.569  27.635  32.348  1.00  0.00     0.074 A 
ATOM     62  C   UNL A   1      44.533  26.779  31.689  1.00  0.00     0.031 C 
ATOM     63  C   UNL A   1      43.708  28.113  33.608  1.00  0.00     0.037 A 
BRANCH  50  64
ATOM     64  C   UNL A   1      39.139  31.852  35.400  1.00  0.00     0.064 A 
ATOM     65  C   UNL A   1      38.330  31.370  36.439  1.00  0.00     0.173 A 
ATOM     66  C   UNL A   1      39.479  33.213  35.410  1.00  0.00     0.173 A 
ATOM     67  F   UNL A   1      37.969  30.078  36.471  1.00  0.00    -0.203 F 
ATOM     68  C   UNL A   1      37.862  32.222  37.437  1.00  0.00     0.198 A 
ATOM     69  C   UNL A   1      39.032  34.057  36.424  1.00  0.00     0.198 A 
ATOM     70  F   UNL A   1      40.257  33.724  34.444  1.00  0.00    -0.203 F 
ATOM     71  F   UNL A   1      37.057  31.748  38.398  1.00  0.00    -0.200 F 
ATOM     72  C   UNL A   1      38.220  33.562  37.433  1.00  0.00     0.200 A 
ATOM     73  F   UNL A   1      39.390  35.348  36.426  1.00  0.00    -0.200 F 
ATOM     74  F   UNL A   1      37.777  34.378  38.399  1.00  0.00    -0.200 F 
ENDBRANCH  50  64
BRANCH  51  75
ATOM     75  C   UNL A   1      42.641  26.188  27.973  1.00  0.00     0.064 A 
ATOM     76  C   UNL A   1      43.485  26.749  27.003  1.00  0.00     0.173 A 
ATOM     77  C   UNL A   1      42.316  24.830  27.850  1.00  0.00     0.173 A 
ATOM     78  F   UNL A   1      43.803  28.050  27.065  1.00  0.00    -0.203 F 
ATOM     79  C   UNL A   1      43.964  25.988  25.939  1.00  0.00     0.198 A 
ATOM     80  C   UNL A   1      42.819  24.063  26.801  1.00  0.00     0.198 A 
ATOM     81  F   UNL A   1      41.513  24.247  28.750  1.00  0.00    -0.203 F 
ATOM     82  F   UNL A   1      44.727  26.561  24.999  1.00  0.00    -0.200 F 
ATOM     83  C   UNL A   1      43.635  24.643  25.842  1.00  0.00     0.200 A 
ATOM     84  F   UNL A   1      42.507  22.763  26.715  1.00  0.00    -0.200 F 
ATOM     85  F   UNL A   1      44.095  23.912  24.817  1.00  0.00    -0.200 F 
ENDBRANCH  51  75
BRANCH  63  86
ATOM     86  C   UNL A   1      44.926  27.688  34.376  1.00  0.00     0.064 A 
ATOM     87  C   UNL A   1      44.942  26.515  35.143  1.00  0.00     0.173 A 
ATOM     88  C   UNL A   1      46.105  28.447  34.311  1.00  0.00     0.173 A 
ATOM     89  F   UNL A   1      43.836  25.763  35.250  1.00  0.00    -0.203 F 
ATOM     90  C   UNL A   1      46.085  26.129  35.837  1.00  0.00     0.198 A 
ATOM     91  C   UNL A   1      47.255  28.042  34.982  1.00  0.00     0.198 A 
ATOM     92  F   UNL A   1      46.144  29.575  33.586  1.00  0.00    -0.203 F 
ATOM     93  F   UNL A   1      46.064  25.027  36.601  1.00  0.00    -0.200 F 
ATOM     94  C   UNL A   1      47.243  26.888  35.750  1.00  0.00     0.200 A 
ATOM     95  F   UNL A   1      48.376  28.771  34.887  1.00  0.00    -0.200 F 
ATOM     96  F   UNL A   1      48.344  26.511  36.413  1.00  0.00    -0.200 F 
ENDBRANCH  63  86
ENDBRANCH  37  38
ENDBRANCH  29  32
ENDBRANCH  27  28
ENDBRANCH  26  27
ENDBRANCH   1  26
TORSDOF 14
ENDMDL
MODEL 3
REMARK VINA RESULT:     -12.2      4.416      7.101
REMARK SMILES O=C(NCCCCCCNC(=O)c1ccc(-c2c3nc(c(-c4c(F)c(F)c(F)c(F)c4F)c4ccc([nH]4)c(-c4c(F)c(F)c(F)c(F)c4F)c4nc(c(-c5c(F)c(F)c(F)c(F)c5F)c5ccc2[nH]5)C=C4)C=C3)cc1)C1=Cc2cc(Cl)c(Cl)c(Cl)c2O[C@@H]1C(F)(F)F
REMARK SMILES IDX 7 1 6 2 5 3 4 4 3 5 1 6 2 7 76 9 77 10 88 11 78 12 87 13
REMARK SMILES IDX 79 14 86 15 80 16 84 17 81 18 82 19 85 20 83 21 89 22 90 23
REMARK SMILES IDX 91 24 92 25 8 26 9 27 10 28 11 29 12 31 13 32 14 33 75 34
REMARK SMILES IDX 15 35 74 36 16 37 17 38 18 39 68 40 19 41 73 42 67 43 69 44
REMARK SMILES IDX 20 45 72 46 66 47 65 48 21 50 53 51 33 52 52 53 34 54 37 55
REMARK SMILES IDX 51 56 70 57 35 58 36 59 50 61 71 62 38 63 22 64 23 65 31 66
REMARK SMILES IDX 24 67 25 68 29 69 32 70 26 71 27 72 30 73 28 74 54 75 55 76
REMARK SMILES IDX 63 77 56 78 57 79 61 80 64 81 58 82 59 83 62 84 60 85 39 86
REMARK SMILES IDX 40 87 48 88 41 89 42 90 46 91 49 92 43 93 44 94 47 95 45 96
REMARK H PARENT 3 8 10 30 69 49 37 60
REMARK Flexibility Score: inf
ROOT
ATOM      1  C   UNL A   1      32.016  27.392  25.745  1.00  0.00     0.002 C 
ENDROOT
BRANCH   1   2
ATOM      2  C   UNL A   1      31.257  26.163  25.229  1.00  0.00     0.002 C 
BRANCH   2   3
ATOM      3  C   UNL A   1      30.364  25.426  26.224  1.00  0.00     0.021 C 
BRANCH   3   4
ATOM      4  C   UNL A   1      30.331  23.906  26.121  1.00  0.00     0.116 C 
BRANCH   4   5
ATOM      5  N   UNL A   1      31.228  23.201  27.019  1.00  0.00    -0.352 N 
ATOM      6  O   UNL A   1      33.164  22.368  27.792  1.00  0.00    -0.270 OA
ATOM      7  C   UNL A   1      32.540  22.851  26.849  1.00  0.00     0.251 C 
ATOM      8  H   UNL A   1      30.832  22.934  27.880  1.00  0.00     0.163 HD
BRANCH   7   9
ATOM      9  C   UNL A   1      33.278  23.121  25.580  1.00  0.00     0.067 C 
ATOM     10  C   UNL A   1      34.277  24.017  25.515  1.00  0.00     0.025 C 
ATOM     11  C   UNL A   1      33.306  21.928  24.652  1.00  0.00     0.314 C 
ATOM     12  C   UNL A   1      35.597  23.365  25.355  1.00  0.00     0.020 A 
ATOM     13  O   UNL A   1      34.589  21.247  24.714  1.00  0.00    -0.474 OA
ATOM     14  C   UNL A   1      36.730  24.078  25.754  1.00  0.00     0.034 A 
ATOM     15  C   UNL A   1      35.688  21.993  25.072  1.00  0.00     0.148 A 
ATOM     16  C   UNL A   1      37.936  23.406  25.969  1.00  0.00     0.062 A 
ATOM     17  C   UNL A   1      36.910  21.323  25.263  1.00  0.00     0.103 A 
ATOM     18  Cl  UNL A   1      39.240  24.336  26.624  1.00  0.00    -0.083 Cl
ATOM     19  C   UNL A   1      38.031  22.024  25.741  1.00  0.00     0.082 A 
ATOM     20  Cl  UNL A   1      36.968  19.607  25.001  1.00  0.00    -0.079 Cl
ATOM     21  Cl  UNL A   1      39.502  21.182  26.126  1.00  0.00    -0.081 Cl
BRANCH  11  22
ATOM     22  C   UNL A   1      32.941  22.304  23.206  1.00  0.00     0.429 C 
ATOM     23  F   UNL A   1      32.375  21.264  22.552  1.00  0.00    -0.167 F 
ATOM     24  F   UNL A   1      32.059  23.330  23.161  1.00  0.00    -0.167 F 
ATOM     25  F   UNL A   1      34.029  22.684  22.491  1.00  0.00    -0.167 F 
ENDBRANCH  11  22
ENDBRANCH   7   9
ENDBRANCH   4   5
ENDBRANCH   3   4
ENDBRANCH   2   3
ENDBRANCH   1   2
BRANCH   1  26
ATOM     26  C   UNL A   1      33.469  27.568  25.293  1.00  0.00     0.021 C 
BRANCH  26  27
ATOM     27  C   UNL A   1      33.915  28.983  24.929  1.00  0.00     0.116 C 
BRANCH  27  28
ATOM     28  N   UNL A   1      33.098  30.019  25.531  1.00  0.00    -0.352 N 
ATOM     29  C   UNL A   1      33.292  30.751  26.677  1.00  0.00     0.251 C 
ATOM     30  H   UNL A   1      32.273  30.233  25.038  1.00  0.00     0.163 HD
ATOM     31  O   UNL A   1      32.414  31.522  27.054  1.00  0.00    -0.269 OA
BRANCH  29  32
ATOM     32  C   UNL A   1      34.529  30.611  27.484  1.00  0.00     0.039 A 
ATOM     33  C   UNL A   1      34.743  29.406  28.163  1.00  0.00     0.014 A 
ATOM     34  C   UNL A   1      35.447  31.655  27.626  1.00  0.00     0.014 A 
ATOM     35  C   UNL A   1      35.896  29.228  28.936  1.00  0.00     0.010 A 
ATOM     36  C   UNL A   1      36.627  31.456  28.346  1.00  0.00     0.010 A 
ATOM     37  C   UNL A   1      36.862  30.243  29.013  1.00  0.00    -0.014 A 
BRANCH  37  38
ATOM     38  C   UNL A   1      38.115  30.050  29.791  1.00  0.00     0.031 A 
ATOM     39  C   UNL A   1      39.252  29.249  29.217  1.00  0.00     0.074 A 
ATOM     40  C   UNL A   1      38.211  30.553  31.037  1.00  0.00     0.049 A 
ATOM     41  N   UNL A   1      40.398  28.925  29.764  1.00  0.00    -0.248 NA
ATOM     42  C   UNL A   1      39.070  28.724  27.855  1.00  0.00     0.031 C 
ATOM     43  C   UNL A   1      37.169  31.317  31.723  1.00  0.00     0.029 A 
ATOM     44  N   UNL A   1      39.234  30.491  31.953  1.00  0.00    -0.354 N 
ATOM     45  C   UNL A   1      41.059  28.145  28.825  1.00  0.00     0.074 A 
ATOM     46  C   UNL A   1      40.175  28.011  27.688  1.00  0.00     0.031 C 
ATOM     47  C   UNL A   1      37.611  31.670  32.941  1.00  0.00     0.029 A 
ATOM     48  C   UNL A   1      38.953  31.129  33.137  1.00  0.00     0.049 A 
ATOM     49  H   UNL A   1      40.087  30.031  31.778  1.00  0.00     0.167 HD
ATOM     50  C   UNL A   1      42.300  27.604  28.898  1.00  0.00     0.037 A 
ATOM     51  C   UNL A   1      39.691  31.257  34.256  1.00  0.00     0.037 A 
ATOM     52  C   UNL A   1      43.196  27.770  30.013  1.00  0.00     0.049 A 
ATOM     53  C   UNL A   1      41.064  30.642  34.309  1.00  0.00     0.074 A 
ATOM     54  C   UNL A   1      44.501  27.326  30.145  1.00  0.00     0.029 A 
ATOM     55  N   UNL A   1      42.878  28.432  31.190  1.00  0.00    -0.354 N 
ATOM     56  N   UNL A   1      41.706  29.969  33.386  1.00  0.00    -0.248 NA
ATOM     57  C   UNL A   1      41.816  30.810  35.561  1.00  0.00     0.031 C 
ATOM     58  C   UNL A   1      44.957  27.679  31.419  1.00  0.00     0.029 A 
ATOM     59  C   UNL A   1      43.954  28.385  32.063  1.00  0.00     0.049 A 
ATOM     60  H   UNL A   1      42.017  28.870  31.377  1.00  0.00     0.167 HD
ATOM     61  C   UNL A   1      42.946  29.662  33.931  1.00  0.00     0.074 A 
ATOM     62  C   UNL A   1      42.971  30.232  35.262  1.00  0.00     0.031 C 
ATOM     63  C   UNL A   1      43.971  28.970  33.378  1.00  0.00     0.037 A 
BRANCH  50  64
ATOM     64  C   UNL A   1      42.771  26.776  27.738  1.00  0.00     0.064 A 
ATOM     65  C   UNL A   1      43.549  27.325  26.709  1.00  0.00     0.173 A 
ATOM     66  C   UNL A   1      42.489  25.402  27.686  1.00  0.00     0.173 A 
ATOM     67  F   UNL A   1      43.840  28.634  26.707  1.00  0.00    -0.203 F 
ATOM     68  C   UNL A   1      44.008  26.535  25.657  1.00  0.00     0.198 A 
ATOM     69  C   UNL A   1      42.972  24.609  26.649  1.00  0.00     0.198 A 
ATOM     70  F   UNL A   1      41.755  24.825  28.649  1.00  0.00    -0.203 F 
ATOM     71  F   UNL A   1      44.717  27.089  24.664  1.00  0.00    -0.200 F 
ATOM     72  C   UNL A   1      43.726  25.177  25.632  1.00  0.00     0.200 A 
ATOM     73  F   UNL A   1      42.711  23.295  26.633  1.00  0.00    -0.200 F 
ATOM     74  F   UNL A   1      44.177  24.416  24.626  1.00  0.00    -0.200 F 
ENDBRANCH  50  64
BRANCH  51  75
ATOM     75  C   UNL A   1      39.161  32.020  35.416  1.00  0.00     0.064 A 
ATOM     76  C   UNL A   1      39.423  33.391  35.552  1.00  0.00     0.173 A 
ATOM     77  C   UNL A   1      38.404  31.397  36.419  1.00  0.00     0.173 A 
ATOM     78  F   UNL A   1      40.163  34.025  34.631  1.00  0.00    -0.203 F 
ATOM     79  C   UNL A   1      38.969  34.105  36.659  1.00  0.00     0.198 A 
ATOM     80  C   UNL A   1      37.926  32.118  37.512  1.00  0.00     0.198 A 
ATOM     81  F   UNL A   1      38.127  30.088  36.336  1.00  0.00    -0.203 F 
ATOM     82  F   UNL A   1      39.277  35.402  36.790  1.00  0.00    -0.200 F 
ATOM     83  C   UNL A   1      38.216  33.468  37.636  1.00  0.00     0.200 A 
ATOM     84  F   UNL A   1      37.192  31.503  38.448  1.00  0.00    -0.200 F 
ATOM     85  F   UNL A   1      37.781  34.155  38.701  1.00  0.00    -0.200 F 
ENDBRANCH  51  75
BRANCH  63  86
ATOM     86  C   UNL A   1      45.224  28.826  34.193  1.00  0.00     0.064 A 
ATOM     87  C   UNL A   1      46.266  29.761  34.114  1.00  0.00     0.173 A 
ATOM     88  C   UNL A   1      45.366  27.757  35.091  1.00  0.00     0.173 A 
ATOM     89  F   UNL A   1      46.186  30.792  33.259  1.00  0.00    -0.203 F 
ATOM     90  C   UNL A   1      47.415  29.618  34.888  1.00  0.00     0.198 A 
ATOM     91  C   UNL A   1      46.503  27.634  35.884  1.00  0.00     0.198 A 
ATOM     92  F   UNL A   1      44.395  26.839  35.208  1.00  0.00    -0.203 F 
ATOM     93  F   UNL A   1      48.418  30.499  34.763  1.00  0.00    -0.200 F 
ATOM     94  C   UNL A   1      47.529  28.560  35.777  1.00  0.00     0.200 A 
ATOM     95  F   UNL A   1      46.606  26.618  36.752  1.00  0.00    -0.200 F 
ATOM     96  F   UNL A   1      48.632  28.429  36.525  1.00  0.00    -0.200 F 
ENDBRANCH  63  86
ENDBRANCH  37  38
ENDBRANCH  29  32
ENDBRANCH  27  28
ENDBRANCH  26  27
ENDBRANCH   1  26
TORSDOF 14
ENDMDL
