MODEL 1
REMARK VINA RESULT:     -12.5      0.000      0.000
REMARK SMILES CC(=O)Nc1ccc(/C=N/c2ccccc2C(=O)NCCCCCCNC(=O)c2ccc(-c3c4nc(c(-c5c(F)c(F)c(F)c(F)c5F)c5ccc([nH]5)c(-c5c(F)c(F)c(F)c(F)c5F)c5nc(c(-c6c(F)c(F)c(F)c(F)c6F)c6ccc3[nH]6)C=C5)C=C4)cc2)cc1
REMARK SMILES IDX 22 1 21 2 20 3 19 4 17 5 18 6 16 8 11 9 12 10 13 11 15 12
REMARK SMILES IDX 14 13 10 14 9 15 8 16 5 17 6 18 93 19 7 20 92 21 4 22 1 23
REMARK SMILES IDX 2 24 3 25 23 27 24 28 25 29 26 30 27 31 28 33 29 34 30 35
REMARK SMILES IDX 91 36 31 37 90 38 32 39 33 40 34 41 84 42 35 43 89 44 83 45
REMARK SMILES IDX 85 46 36 47 88 48 82 49 81 50 37 52 69 53 49 54 68 55 50 56
REMARK SMILES IDX 53 57 67 58 86 59 51 60 52 61 66 63 87 64 54 65 38 66 39 67
REMARK SMILES IDX 47 68 40 69 41 70 45 71 48 72 42 73 43 74 46 75 44 76 70 77
REMARK SMILES IDX 71 78 79 79 72 80 73 81 77 82 80 83 74 84 75 85 78 86 76 87
REMARK SMILES IDX 55 88 56 89 64 90 57 91 58 92 62 93 65 94 59 95 60 96 63 97
REMARK SMILES IDX 61 98
REMARK H PARENT 19 7 4 26 26 32 85 51 53 62
REMARK Flexibility Score: inf
ROOT
ATOM      1  C   UNL A   1      33.903  25.461  25.740  1.00  0.00     0.002 C 
ENDROOT
BRANCH   1   2
ATOM      2  C   UNL A   1      34.616  24.931  24.489  1.00  0.00     0.021 C 
BRANCH   2   3
ATOM      3  C   UNL A   1      33.900  25.032  23.146  1.00  0.00     0.116 C 
BRANCH   3   4
ATOM      4  N   UNL A   1      33.298  23.815  22.652  1.00  0.00    -0.352 N 
ATOM      5  C   UNL A   1      32.157  23.175  23.080  1.00  0.00     0.253 C 
ATOM      6  O   UNL A   1      31.744  22.232  22.399  1.00  0.00    -0.269 OA
ATOM      7  H   UNL A   1      33.771  23.384  21.904  1.00  0.00     0.163 HD
BRANCH   5   8
ATOM      8  C   UNL A   1      31.441  23.485  24.355  1.00  0.00     0.065 A 
ATOM      9  C   UNL A   1      30.622  24.601  24.623  1.00  0.00     0.076 A 
ATOM     10  C   UNL A   1      30.041  24.722  25.898  1.00  0.00     0.029 A 
ATOM     11  C   UNL A   1      30.212  23.745  26.880  1.00  0.00     0.002 A 
ATOM     12  C   UNL A   1      31.581  22.491  25.349  1.00  0.00     0.016 A 
ATOM     13  C   UNL A   1      30.975  22.620  26.601  1.00  0.00     0.001 A 
BRANCH   9  14
ATOM     14  N   UNL A   1      30.381  25.677  23.750  1.00  0.00    -0.255 NA
ATOM     15  C   UNL A   1      29.727  26.699  24.197  1.00  0.00     0.119 C 
BRANCH  15  16
ATOM     16  C   UNL A   1      29.342  27.788  23.274  1.00  0.00    -0.007 A 
ATOM     17  C   UNL A   1      28.717  30.107  21.813  1.00  0.00     0.041 A 
ATOM     18  C   UNL A   1      27.702  29.349  22.415  1.00  0.00     0.027 A 
ATOM     19  C   UNL A   1      30.041  29.675  21.939  1.00  0.00     0.027 A 
ATOM     20  C   UNL A   1      28.011  28.193  23.144  1.00  0.00     0.012 A 
ATOM     21  C   UNL A   1      30.356  28.516  22.658  1.00  0.00     0.012 A 
BRANCH  17  22
ATOM     22  N   UNL A   1      28.340  31.333  21.233  1.00  0.00    -0.326 N 
ATOM     23  C   UNL A   1      28.791  32.954  23.078  1.00  0.00     0.114 C 
ATOM     24  C   UNL A   1      28.210  32.591  21.744  1.00  0.00     0.221 C 
ATOM     25  O   UNL A   1      27.654  33.454  21.062  1.00  0.00    -0.275 OA
ATOM     26  H   UNL A   1      28.131  31.270  20.273  1.00  0.00     0.169 HD
ENDBRANCH  17  22
ENDBRANCH  15  16
ENDBRANCH   9  14
ENDBRANCH   5   8
ENDBRANCH   3   4
ENDBRANCH   2   3
ENDBRANCH   1   2
BRANCH   1  27
ATOM     27  C   UNL A   1      33.963  26.962  26.043  1.00  0.00     0.002 C 
BRANCH  27  28
ATOM     28  C   UNL A   1      32.936  27.867  25.367  1.00  0.00     0.021 C 
BRANCH  28  29
ATOM     29  C   UNL A   1      33.392  29.230  24.862  1.00  0.00     0.116 C 
BRANCH  29  30
ATOM     30  N   UNL A   1      32.761  30.334  25.565  1.00  0.00    -0.352 N 
ATOM     31  C   UNL A   1      33.103  31.035  26.695  1.00  0.00     0.251 C 
ATOM     32  H   UNL A   1      31.924  30.640  25.148  1.00  0.00     0.163 HD
ATOM     33  O   UNL A   1      32.304  31.884  27.106  1.00  0.00    -0.269 OA
BRANCH  31  34
ATOM     34  C   UNL A   1      34.367  30.821  27.455  1.00  0.00     0.039 A 
ATOM     35  C   UNL A   1      34.540  29.592  28.110  1.00  0.00     0.014 A 
ATOM     36  C   UNL A   1      35.350  31.800  27.618  1.00  0.00     0.014 A 
ATOM     37  C   UNL A   1      35.695  29.322  28.857  1.00  0.00     0.010 A 
ATOM     38  C   UNL A   1      36.533  31.514  28.316  1.00  0.00     0.010 A 
ATOM     39  C   UNL A   1      36.716  30.275  28.952  1.00  0.00    -0.014 A 
BRANCH  39  40
ATOM     40  C   UNL A   1      37.943  30.015  29.757  1.00  0.00     0.031 A 
ATOM     41  C   UNL A   1      39.003  29.083  29.233  1.00  0.00     0.074 A 
ATOM     42  C   UNL A   1      38.100  30.580  30.971  1.00  0.00     0.049 A 
ATOM     43  N   UNL A   1      40.102  28.660  29.811  1.00  0.00    -0.248 NA
ATOM     44  C   UNL A   1      38.791  28.542  27.883  1.00  0.00     0.031 C 
ATOM     45  C   UNL A   1      37.160  31.505  31.601  1.00  0.00     0.029 A 
ATOM     46  N   UNL A   1      39.108  30.446  31.898  1.00  0.00    -0.354 N 
ATOM     47  C   UNL A   1      40.704  27.802  28.899  1.00  0.00     0.074 A 
ATOM     48  C   UNL A   1      39.824  27.722  27.753  1.00  0.00     0.031 C 
ATOM     49  C   UNL A   1      37.632  31.853  32.811  1.00  0.00     0.029 A 
ATOM     50  C   UNL A   1      38.890  31.152  33.057  1.00  0.00     0.049 A 
ATOM     51  H   UNL A   1      39.910  29.896  31.744  1.00  0.00     0.167 HD
ATOM     52  C   UNL A   1      41.891  27.155  28.998  1.00  0.00     0.037 A 
ATOM     53  C   UNL A   1      39.612  31.214  34.194  1.00  0.00     0.037 A 
ATOM     54  C   UNL A   1      42.777  27.241  30.129  1.00  0.00     0.049 A 
ATOM     55  C   UNL A   1      40.902  30.439  34.302  1.00  0.00     0.074 A 
ATOM     56  C   UNL A   1      44.018  26.651  30.300  1.00  0.00     0.029 A 
ATOM     57  N   UNL A   1      42.514  27.957  31.287  1.00  0.00    -0.354 N 
ATOM     58  N   UNL A   1      41.484  29.670  33.414  1.00  0.00    -0.248 NA
ATOM     59  C   UNL A   1      41.638  30.547  35.571  1.00  0.00     0.031 C 
ATOM     60  C   UNL A   1      44.478  26.962  31.584  1.00  0.00     0.029 A 
ATOM     61  C   UNL A   1      43.555  27.797  32.190  1.00  0.00     0.049 A 
ATOM     62  H   UNL A   1      41.708  28.499  31.446  1.00  0.00     0.167 HD
ATOM     63  C   UNL A   1      42.664  29.229  34.003  1.00  0.00     0.074 A 
ATOM     64  C   UNL A   1      42.724  29.828  35.319  1.00  0.00     0.031 C 
ATOM     65  C   UNL A   1      43.611  28.402  33.497  1.00  0.00     0.037 A 
BRANCH  52  66
ATOM     66  C   UNL A   1      42.301  26.281  27.845  1.00  0.00     0.064 A 
ATOM     67  C   UNL A   1      41.802  24.979  27.691  1.00  0.00     0.173 A 
ATOM     68  C   UNL A   1      43.175  26.768  26.860  1.00  0.00     0.173 A 
ATOM     69  F   UNL A   1      40.970  24.462  28.608  1.00  0.00    -0.203 F 
ATOM     70  C   UNL A   1      42.189  24.185  26.614  1.00  0.00     0.198 A 
ATOM     71  C   UNL A   1      43.533  25.983  25.767  1.00  0.00     0.198 A 
ATOM     72  F   UNL A   1      43.675  28.010  26.951  1.00  0.00    -0.203 F 
ATOM     73  F   UNL A   1      41.742  22.925  26.518  1.00  0.00    -0.200 F 
ATOM     74  C   UNL A   1      43.047  24.689  25.650  1.00  0.00     0.200 A 
ATOM     75  F   UNL A   1      44.350  26.479  24.827  1.00  0.00    -0.200 F 
ATOM     76  F   UNL A   1      43.413  23.926  24.611  1.00  0.00    -0.200 F 
ENDBRANCH  52  66
BRANCH  53  77
ATOM     77  C   UNL A   1      39.135  32.040  35.336  1.00  0.00     0.064 A 
ATOM     78  C   UNL A   1      39.449  33.403  35.427  1.00  0.00     0.173 A 
ATOM     79  C   UNL A   1      38.379  31.476  36.375  1.00  0.00     0.173 A 
ATOM     80  F   UNL A   1      40.194  33.983  34.475  1.00  0.00    -0.203 F 
ATOM     81  C   UNL A   1      39.046  34.164  36.524  1.00  0.00     0.198 A 
ATOM     82  C   UNL A   1      37.950  32.246  37.455  1.00  0.00     0.198 A 
ATOM     83  F   UNL A   1      38.052  30.175  36.340  1.00  0.00    -0.203 F 
ATOM     84  F   UNL A   1      39.409  35.451  36.612  1.00  0.00    -0.200 F 
ATOM     85  C   UNL A   1      38.292  33.586  37.533  1.00  0.00     0.200 A 
ATOM     86  F   UNL A   1      37.210  31.685  38.422  1.00  0.00    -0.200 F 
ATOM     87  F   UNL A   1      37.905  34.319  38.587  1.00  0.00    -0.200 F 
ENDBRANCH  53  77
BRANCH  65  88
ATOM     88  C   UNL A   1      44.817  28.118  34.349  1.00  0.00     0.064 A 
ATOM     89  C   UNL A   1      45.980  28.898  34.267  1.00  0.00     0.173 A 
ATOM     90  C   UNL A   1      44.789  27.084  35.297  1.00  0.00     0.173 A 
ATOM     91  F   UNL A   1      46.064  29.891  33.368  1.00  0.00    -0.203 F 
ATOM     92  C   UNL A   1      47.077  28.639  35.085  1.00  0.00     0.198 A 
ATOM     93  C   UNL A   1      45.875  26.848  36.136  1.00  0.00     0.198 A 
ATOM     94  F   UNL A   1      43.699  26.310  35.423  1.00  0.00    -0.203 F 
ATOM     95  F   UNL A   1      48.194  29.368  34.956  1.00  0.00    -0.200 F 
ATOM     96  C   UNL A   1      47.020  27.620  36.025  1.00  0.00     0.200 A 
ATOM     97  F   UNL A   1      45.811  25.874  37.055  1.00  0.00    -0.200 F 
ATOM     98  F   UNL A   1      48.073  27.381  36.820  1.00  0.00    -0.200 F 
ENDBRANCH  65  88
ENDBRANCH  39  40
ENDBRANCH  31  34
ENDBRANCH  29  30
ENDBRANCH  28  29
ENDBRANCH  27  28
ENDBRANCH   1  27
TORSDOF 16
ENDMDL
MODEL 2
REMARK VINA RESULT:     -12.4      1.690      2.548
REMARK SMILES CC(=O)Nc1ccc(/C=N/c2ccccc2C(=O)NCCCCCCNC(=O)c2ccc(-c3c4nc(c(-c5c(F)c(F)c(F)c(F)c5F)c5ccc([nH]5)c(-c5c(F)c(F)c(F)c(F)c5F)c5nc(c(-c6c(F)c(F)c(F)c(F)c6F)c6ccc3[nH]6)C=C5)C=C4)cc2)cc1
REMARK SMILES IDX 22 1 21 2 20 3 19 4 17 5 18 6 16 8 11 9 12 10 13 11 15 12
REMARK SMILES IDX 14 13 10 14 9 15 8 16 5 17 6 18 93 19 7 20 92 21 4 22 1 23
REMARK SMILES IDX 2 24 3 25 23 27 24 28 25 29 26 30 27 31 28 33 29 34 30 35
REMARK SMILES IDX 91 36 31 37 90 38 32 39 33 40 34 41 84 42 35 43 89 44 83 45
REMARK SMILES IDX 85 46 36 47 88 48 82 49 81 50 37 52 69 53 49 54 68 55 50 56
REMARK SMILES IDX 53 57 67 58 86 59 51 60 52 61 66 63 87 64 54 65 38 66 39 67
REMARK SMILES IDX 47 68 40 69 41 70 45 71 48 72 42 73 43 74 46 75 44 76 70 77
REMARK SMILES IDX 71 78 79 79 72 80 73 81 77 82 80 83 74 84 75 85 78 86 76 87
REMARK SMILES IDX 55 88 56 89 64 90 57 91 58 92 62 93 65 94 59 95 60 96 63 97
REMARK SMILES IDX 61 98
REMARK H PARENT 19 7 4 26 26 32 85 51 53 62
REMARK Flexibility Score: inf
ROOT
ATOM      1  C   UNL A   1      31.805  29.484  26.413  1.00  0.00     0.002 C 
ENDROOT
BRANCH   1   2
ATOM      2  C   UNL A   1      33.055  28.838  25.801  1.00  0.00     0.021 C 
BRANCH   2   3
ATOM      3  C   UNL A   1      33.719  27.687  26.549  1.00  0.00     0.116 C 
BRANCH   3   4
ATOM      4  N   UNL A   1      34.427  26.724  25.738  1.00  0.00    -0.352 N 
ATOM      5  C   UNL A   1      33.973  25.541  25.200  1.00  0.00     0.253 C 
ATOM      6  O   UNL A   1      34.712  24.958  24.403  1.00  0.00    -0.269 OA
ATOM      7  H   UNL A   1      35.366  26.946  25.542  1.00  0.00     0.163 HD
BRANCH   5   8
ATOM      8  C   UNL A   1      32.692  24.874  25.585  1.00  0.00     0.065 A 
ATOM      9  C   UNL A   1      31.397  25.181  25.118  1.00  0.00     0.076 A 
ATOM     10  C   UNL A   1      30.308  24.440  25.613  1.00  0.00     0.029 A 
ATOM     11  C   UNL A   1      30.482  23.383  26.507  1.00  0.00     0.002 A 
ATOM     12  C   UNL A   1      32.855  23.783  26.468  1.00  0.00     0.016 A 
ATOM     13  C   UNL A   1      31.761  23.046  26.927  1.00  0.00     0.001 A 
BRANCH   9  14
ATOM     14  N   UNL A   1      31.061  26.231  24.246  1.00  0.00    -0.255 NA
ATOM     15  C   UNL A   1      29.927  26.829  24.408  1.00  0.00     0.119 C 
BRANCH  15  16
ATOM     16  C   UNL A   1      29.484  27.846  23.431  1.00  0.00    -0.007 A 
ATOM     17  C   UNL A   1      28.758  30.050  21.843  1.00  0.00     0.041 A 
ATOM     18  C   UNL A   1      27.784  29.324  22.543  1.00  0.00     0.027 A 
ATOM     19  C   UNL A   1      30.093  29.643  21.937  1.00  0.00     0.027 A 
ATOM     20  C   UNL A   1      28.142  28.226  23.336  1.00  0.00     0.012 A 
ATOM     21  C   UNL A   1      30.457  28.540  22.719  1.00  0.00     0.012 A 
BRANCH  17  22
ATOM     22  N   UNL A   1      28.338  31.228  21.198  1.00  0.00    -0.326 N 
ATOM     23  C   UNL A   1      28.758  32.967  22.940  1.00  0.00     0.114 C 
ATOM     24  C   UNL A   1      28.174  32.510  21.637  1.00  0.00     0.221 C 
ATOM     25  O   UNL A   1      27.584  33.314  20.913  1.00  0.00    -0.275 OA
ATOM     26  H   UNL A   1      28.120  31.103  20.246  1.00  0.00     0.169 HD
ENDBRANCH  17  22
ENDBRANCH  15  16
ENDBRANCH   9  14
ENDBRANCH   5   8
ENDBRANCH   3   4
ENDBRANCH   2   3
ENDBRANCH   1   2
BRANCH   1  27
ATOM     27  C   UNL A   1      31.151  30.662  25.683  1.00  0.00     0.002 C 
BRANCH  27  28
ATOM     28  C   UNL A   1      31.164  32.024  26.374  1.00  0.00     0.021 C 
BRANCH  28  29
ATOM     29  C   UNL A   1      32.502  32.594  26.829  1.00  0.00     0.116 C 
BRANCH  29  30
ATOM     30  N   UNL A   1      32.375  33.888  27.477  1.00  0.00    -0.352 N 
ATOM     31  C   UNL A   1      33.090  34.504  28.475  1.00  0.00     0.251 C 
ATOM     32  H   UNL A   1      31.629  34.430  27.133  1.00  0.00     0.163 HD
ATOM     33  O   UNL A   1      32.679  35.596  28.883  1.00  0.00    -0.269 OA
BRANCH  31  34
ATOM     34  C   UNL A   1      34.316  33.927  29.096  1.00  0.00     0.039 A 
ATOM     35  C   UNL A   1      34.155  32.877  30.014  1.00  0.00     0.014 A 
ATOM     36  C   UNL A   1      35.603  34.423  28.878  1.00  0.00     0.014 A 
ATOM     37  C   UNL A   1      35.259  32.294  30.651  1.00  0.00     0.010 A 
ATOM     38  C   UNL A   1      36.715  33.804  29.469  1.00  0.00     0.010 A 
ATOM     39  C   UNL A   1      36.556  32.738  30.370  1.00  0.00    -0.014 A 
BRANCH  39  40
ATOM     40  C   UNL A   1      37.741  32.144  31.051  1.00  0.00     0.031 A 
ATOM     41  C   UNL A   1      38.543  31.070  30.366  1.00  0.00     0.074 A 
ATOM     42  C   UNL A   1      38.085  32.534  32.295  1.00  0.00     0.049 A 
ATOM     43  N   UNL A   1      39.555  30.368  30.816  1.00  0.00    -0.248 NA
ATOM     44  C   UNL A   1      38.143  30.729  28.992  1.00  0.00     0.031 C 
ATOM     45  C   UNL A   1      37.405  33.565  33.077  1.00  0.00     0.029 A 
ATOM     46  N   UNL A   1      39.091  32.096  33.126  1.00  0.00    -0.354 N 
ATOM     47  C   UNL A   1      39.905  29.503  29.788  1.00  0.00     0.074 A 
ATOM     48  C   UNL A   1      38.965  29.729  28.710  1.00  0.00     0.031 C 
ATOM     49  C   UNL A   1      38.008  33.678  34.272  1.00  0.00     0.029 A 
ATOM     50  C   UNL A   1      39.096  32.707  34.357  1.00  0.00     0.049 A 
ATOM     51  H   UNL A   1      39.744  31.408  32.862  1.00  0.00     0.167 HD
ATOM     52  C   UNL A   1      40.927  28.614  29.735  1.00  0.00     0.037 A 
ATOM     53  C   UNL A   1      39.878  32.498  35.435  1.00  0.00     0.037 A 
ATOM     54  C   UNL A   1      41.873  28.393  30.798  1.00  0.00     0.049 A 
ATOM     55  C   UNL A   1      40.973  31.462  35.373  1.00  0.00     0.074 A 
ATOM     56  C   UNL A   1      42.964  27.542  30.819  1.00  0.00     0.029 A 
ATOM     57  N   UNL A   1      41.837  29.025  32.033  1.00  0.00    -0.354 N 
ATOM     58  N   UNL A   1      41.324  30.685  34.378  1.00  0.00    -0.248 NA
ATOM     59  C   UNL A   1      41.786  31.280  36.586  1.00  0.00     0.031 C 
ATOM     60  C   UNL A   1      43.552  27.614  32.086  1.00  0.00     0.029 A 
ATOM     61  C   UNL A   1      42.867  28.556  32.834  1.00  0.00     0.049 A 
ATOM     62  H   UNL A   1      41.177  29.704  32.301  1.00  0.00     0.167 HD
ATOM     63  C   UNL A   1      42.412  29.947  34.832  1.00  0.00     0.074 A 
ATOM     64  C   UNL A   1      42.674  30.379  36.187  1.00  0.00     0.031 C 
ATOM     65  C   UNL A   1      43.127  28.997  34.181  1.00  0.00     0.037 A 
BRANCH  52  66
ATOM     66  C   UNL A   1      41.073  27.799  28.481  1.00  0.00     0.064 A 
ATOM     67  C   UNL A   1      40.410  26.573  28.315  1.00  0.00     0.173 A 
ATOM     68  C   UNL A   1      41.855  28.269  27.414  1.00  0.00     0.173 A 
ATOM     69  F   UNL A   1      39.655  26.074  29.307  1.00  0.00    -0.203 F 
ATOM     70  C   UNL A   1      40.551  25.833  27.144  1.00  0.00     0.198 A 
ATOM     71  C   UNL A   1      41.968  27.542  26.232  1.00  0.00     0.198 A 
ATOM     72  F   UNL A   1      42.503  29.439  27.514  1.00  0.00    -0.203 F 
ATOM     73  F   UNL A   1      39.952  24.639  27.031  1.00  0.00    -0.200 F 
ATOM     74  C   UNL A   1      41.324  26.320  26.102  1.00  0.00     0.200 A 
ATOM     75  F   UNL A   1      42.701  28.024  25.218  1.00  0.00    -0.200 F 
ATOM     76  F   UNL A   1      41.454  25.610  24.973  1.00  0.00    -0.200 F 
ENDBRANCH  52  66
BRANCH  53  77
ATOM     77  C   UNL A   1      39.655  33.281  36.680  1.00  0.00     0.064 A 
ATOM     78  C   UNL A   1      40.316  34.499  36.899  1.00  0.00     0.173 A 
ATOM     79  C   UNL A   1      38.800  32.815  37.691  1.00  0.00     0.173 A 
ATOM     80  F   UNL A   1      41.166  34.974  35.977  1.00  0.00    -0.203 F 
ATOM     81  C   UNL A   1      40.148  35.207  38.088  1.00  0.00     0.198 A 
ATOM     82  C   UNL A   1      38.609  33.540  38.865  1.00  0.00     0.198 A 
ATOM     83  F   UNL A   1      38.146  31.655  37.535  1.00  0.00    -0.203 F 
ATOM     84  F   UNL A   1      40.835  36.339  38.293  1.00  0.00    -0.200 F 
ATOM     85  C   UNL A   1      39.291  34.730  39.068  1.00  0.00     0.200 A 
ATOM     86  F   UNL A   1      37.770  33.081  39.804  1.00  0.00    -0.200 F 
ATOM     87  F   UNL A   1      39.130  35.411  40.210  1.00  0.00    -0.200 F 
ENDBRANCH  53  77
BRANCH  65  88
ATOM     88  C   UNL A   1      44.289  28.378  34.909  1.00  0.00     0.064 A 
ATOM     89  C   UNL A   1      44.151  27.195  35.650  1.00  0.00     0.173 A 
ATOM     90  C   UNL A   1      45.568  28.949  34.820  1.00  0.00     0.173 A 
ATOM     91  F   UNL A   1      42.948  26.615  35.778  1.00  0.00    -0.203 F 
ATOM     92  C   UNL A   1      45.244  26.620  36.293  1.00  0.00     0.198 A 
ATOM     93  C   UNL A   1      46.665  28.354  35.437  1.00  0.00     0.198 A 
ATOM     94  F   UNL A   1      45.759  30.077  34.118  1.00  0.00    -0.203 F 
ATOM     95  F   UNL A   1      45.079  25.515  37.033  1.00  0.00    -0.200 F 
ATOM     96  C   UNL A   1      46.502  27.195  36.179  1.00  0.00     0.200 A 
ATOM     97  F   UNL A   1      47.882  28.902  35.311  1.00  0.00    -0.200 F 
ATOM     98  F   UNL A   1      47.555  26.632  36.788  1.00  0.00    -0.200 F 
ENDBRANCH  65  88
ENDBRANCH  39  40
ENDBRANCH  31  34
ENDBRANCH  29  30
ENDBRANCH  28  29
ENDBRANCH  27  28
ENDBRANCH   1  27
TORSDOF 16
ENDMDL
MODEL 3
REMARK VINA RESULT:     -12.4      5.044     10.368
REMARK SMILES CC(=O)Nc1ccc(/C=N/c2ccccc2C(=O)NCCCCCCNC(=O)c2ccc(-c3c4nc(c(-c5c(F)c(F)c(F)c(F)c5F)c5ccc([nH]5)c(-c5c(F)c(F)c(F)c(F)c5F)c5nc(c(-c6c(F)c(F)c(F)c(F)c6F)c6ccc3[nH]6)C=C5)C=C4)cc2)cc1
REMARK SMILES IDX 22 1 21 2 20 3 19 4 17 5 18 6 16 8 11 9 12 10 13 11 15 12
REMARK SMILES IDX 14 13 10 14 9 15 8 16 5 17 6 18 93 19 7 20 92 21 4 22 1 23
REMARK SMILES IDX 2 24 3 25 23 27 24 28 25 29 26 30 27 31 28 33 29 34 30 35
REMARK SMILES IDX 91 36 31 37 90 38 32 39 33 40 34 41 84 42 35 43 89 44 83 45
REMARK SMILES IDX 85 46 36 47 88 48 82 49 81 50 37 52 69 53 49 54 68 55 50 56
REMARK SMILES IDX 53 57 67 58 86 59 51 60 52 61 66 63 87 64 54 65 38 66 39 67
REMARK SMILES IDX 47 68 40 69 41 70 45 71 48 72 42 73 43 74 46 75 44 76 70 77
REMARK SMILES IDX 71 78 79 79 72 80 73 81 77 82 80 83 74 84 75 85 78 86 76 87
REMARK SMILES IDX 55 88 56 89 64 90 57 91 58 92 62 93 65 94 59 95 60 96 63 97
REMARK SMILES IDX 61 98
REMARK H PARENT 19 7 4 26 26 32 85 51 53 62
REMARK Flexibility Score: inf
ROOT
ATOM      1  C   UNL A   1      36.419  21.205  25.266  1.00  0.00     0.002 C 
ENDROOT
BRANCH   1   2
ATOM      2  C   UNL A   1      36.788  22.184  24.144  1.00  0.00     0.021 C 
BRANCH   2   3
ATOM      3  C   UNL A   1      36.711  23.680  24.429  1.00  0.00     0.116 C 
BRANCH   3   4
ATOM      4  N   UNL A   1      35.743  24.093  25.417  1.00  0.00    -0.352 N 
ATOM      5  C   UNL A   1      34.431  24.473  25.242  1.00  0.00     0.253 C 
ATOM      6  O   UNL A   1      33.743  24.629  26.254  1.00  0.00    -0.269 OA
ATOM      7  H   UNL A   1      36.065  24.102  26.347  1.00  0.00     0.163 HD
BRANCH   5   8
ATOM      8  C   UNL A   1      33.814  24.796  23.919  1.00  0.00     0.065 A 
ATOM      9  C   UNL A   1      33.314  23.885  22.966  1.00  0.00     0.076 A 
ATOM     10  C   UNL A   1      32.778  24.388  21.767  1.00  0.00     0.029 A 
ATOM     11  C   UNL A   1      32.683  25.758  21.521  1.00  0.00     0.002 A 
ATOM     12  C   UNL A   1      33.684  26.181  23.668  1.00  0.00     0.016 A 
ATOM     13  C   UNL A   1      33.127  26.658  22.480  1.00  0.00     0.001 A 
BRANCH   9  14
ATOM     14  N   UNL A   1      33.367  22.482  23.057  1.00  0.00    -0.255 NA
ATOM     15  C   UNL A   1      32.378  21.862  23.614  1.00  0.00     0.119 C 
BRANCH  15  16
ATOM     16  C   UNL A   1      32.459  20.405  23.845  1.00  0.00    -0.007 A 
ATOM     17  C   UNL A   1      33.007  17.689  24.326  1.00  0.00     0.041 A 
ATOM     18  C   UNL A   1      32.771  18.149  23.022  1.00  0.00     0.027 A 
ATOM     19  C   UNL A   1      32.945  18.605  25.381  1.00  0.00     0.027 A 
ATOM     20  C   UNL A   1      32.499  19.501  22.779  1.00  0.00     0.012 A 
ATOM     21  C   UNL A   1      32.664  19.957  25.146  1.00  0.00     0.012 A 
BRANCH  17  22
ATOM     22  N   UNL A   1      33.425  16.353  24.467  1.00  0.00    -0.326 N 
ATOM     23  C   UNL A   1      31.781  15.452  26.116  1.00  0.00     0.114 C 
ATOM     24  C   UNL A   1      33.044  15.353  25.314  1.00  0.00     0.221 C 
ATOM     25  O   UNL A   1      33.726  14.329  25.369  1.00  0.00    -0.275 OA
ATOM     26  H   UNL A   1      34.129  16.088  23.831  1.00  0.00     0.169 HD
ENDBRANCH  17  22
ENDBRANCH  15  16
ENDBRANCH   9  14
ENDBRANCH   5   8
ENDBRANCH   3   4
ENDBRANCH   2   3
ENDBRANCH   1   2
BRANCH   1  27
ATOM     27  C   UNL A   1      36.514  19.700  24.993  1.00  0.00     0.002 C 
BRANCH  27  28
ATOM     28  C   UNL A   1      37.903  19.069  24.952  1.00  0.00     0.021 C 
BRANCH  28  29
ATOM     29  C   UNL A   1      39.040  19.770  25.685  1.00  0.00     0.116 C 
BRANCH  29  30
ATOM     30  N   UNL A   1      40.222  18.937  25.824  1.00  0.00    -0.352 N 
ATOM     31  C   UNL A   1      41.537  19.224  26.099  1.00  0.00     0.251 C 
ATOM     32  H   UNL A   1      40.046  17.977  25.697  1.00  0.00     0.163 HD
ATOM     33  O   UNL A   1      42.346  18.290  26.068  1.00  0.00    -0.269 OA
BRANCH  31  34
ATOM     34  C   UNL A   1      42.040  20.590  26.418  1.00  0.00     0.039 A 
ATOM     35  C   UNL A   1      42.182  20.939  27.771  1.00  0.00     0.014 A 
ATOM     36  C   UNL A   1      42.302  21.566  25.454  1.00  0.00     0.014 A 
ATOM     37  C   UNL A   1      42.634  22.210  28.150  1.00  0.00     0.010 A 
ATOM     38  C   UNL A   1      42.810  22.819  25.827  1.00  0.00     0.010 A 
ATOM     39  C   UNL A   1      42.973  23.160  27.180  1.00  0.00    -0.014 A 
BRANCH  39  40
ATOM     40  C   UNL A   1      43.438  24.523  27.563  1.00  0.00     0.031 A 
ATOM     41  C   UNL A   1      42.434  25.587  27.924  1.00  0.00     0.074 A 
ATOM     42  C   UNL A   1      44.751  24.829  27.556  1.00  0.00     0.049 A 
ATOM     43  N   UNL A   1      42.625  26.853  28.205  1.00  0.00    -0.248 NA
ATOM     44  C   UNL A   1      41.024  25.172  27.960  1.00  0.00     0.031 C 
ATOM     45  C   UNL A   1      45.834  23.901  27.234  1.00  0.00     0.029 A 
ATOM     46  N   UNL A   1      45.397  26.016  27.818  1.00  0.00    -0.354 N 
ATOM     47  C   UNL A   1      41.363  27.383  28.442  1.00  0.00     0.074 A 
ATOM     48  C   UNL A   1      40.411  26.316  28.221  1.00  0.00     0.031 C 
ATOM     49  C   UNL A   1      47.007  24.552  27.312  1.00  0.00     0.029 A 
ATOM     50  C   UNL A   1      46.760  25.950  27.659  1.00  0.00     0.049 A 
ATOM     51  H   UNL A   1      44.925  26.835  28.094  1.00  0.00     0.167 HD
ATOM     52  C   UNL A   1      41.028  28.639  28.829  1.00  0.00     0.037 A 
ATOM     53  C   UNL A   1      47.702  26.909  27.764  1.00  0.00     0.037 A 
ATOM     54  C   UNL A   1      41.971  29.700  29.063  1.00  0.00     0.049 A 
ATOM     55  C   UNL A   1      47.298  28.313  28.140  1.00  0.00     0.074 A 
ATOM     56  C   UNL A   1      41.726  30.993  29.495  1.00  0.00     0.029 A 
ATOM     57  N   UNL A   1      43.342  29.596  28.880  1.00  0.00    -0.354 N 
ATOM     58  N   UNL A   1      46.107  28.789  28.409  1.00  0.00    -0.248 NA
ATOM     59  C   UNL A   1      48.374  29.313  28.232  1.00  0.00     0.031 C 
ATOM     60  C   UNL A   1      42.940  31.687  29.515  1.00  0.00     0.029 A 
ATOM     61  C   UNL A   1      43.951  30.811  29.158  1.00  0.00     0.049 A 
ATOM     62  H   UNL A   1      43.813  28.780  28.595  1.00  0.00     0.167 HD
ATOM     63  C   UNL A   1      46.293  30.130  28.730  1.00  0.00     0.074 A 
ATOM     64  C   UNL A   1      47.713  30.388  28.638  1.00  0.00     0.031 C 
ATOM     65  C   UNL A   1      45.367  31.060  29.071  1.00  0.00     0.037 A 
BRANCH  52  66
ATOM     66  C   UNL A   1      39.566  28.939  29.015  1.00  0.00     0.064 A 
ATOM     67  C   UNL A   1      38.945  28.829  30.269  1.00  0.00     0.173 A 
ATOM     68  C   UNL A   1      38.787  29.378  27.934  1.00  0.00     0.173 A 
ATOM     69  F   UNL A   1      39.642  28.406  31.334  1.00  0.00    -0.203 F 
ATOM     70  C   UNL A   1      37.590  29.116  30.425  1.00  0.00     0.198 A 
ATOM     71  C   UNL A   1      37.442  29.696  28.101  1.00  0.00     0.198 A 
ATOM     72  F   UNL A   1      39.332  29.511  26.716  1.00  0.00    -0.203 F 
ATOM     73  F   UNL A   1      37.006  28.952  31.620  1.00  0.00    -0.200 F 
ATOM     74  C   UNL A   1      36.842  29.556  29.344  1.00  0.00     0.200 A 
ATOM     75  F   UNL A   1      36.724  30.137  27.058  1.00  0.00    -0.200 F 
ATOM     76  F   UNL A   1      35.541  29.837  29.497  1.00  0.00    -0.200 F 
ENDBRANCH  52  66
BRANCH  53  77
ATOM     77  C   UNL A   1      49.130  26.583  27.505  1.00  0.00     0.064 A 
ATOM     78  C   UNL A   1      49.633  26.513  26.198  1.00  0.00     0.173 A 
ATOM     79  C   UNL A   1      50.016  26.304  28.558  1.00  0.00     0.173 A 
ATOM     80  F   UNL A   1      48.820  26.742  25.156  1.00  0.00    -0.203 F 
ATOM     81  C   UNL A   1      50.958  26.156  25.953  1.00  0.00     0.198 A 
ATOM     82  C   UNL A   1      51.348  25.978  28.312  1.00  0.00     0.198 A 
ATOM     83  F   UNL A   1      49.587  26.354  29.827  1.00  0.00    -0.203 F 
ATOM     84  F   UNL A   1      51.396  26.042  24.691  1.00  0.00    -0.200 F 
ATOM     85  C   UNL A   1      51.815  25.894  27.010  1.00  0.00     0.200 A 
ATOM     86  F   UNL A   1      52.177  25.739  29.337  1.00  0.00    -0.200 F 
ATOM     87  F   UNL A   1      53.089  25.551  26.773  1.00  0.00    -0.200 F 
ENDBRANCH  53  77
BRANCH  65  88
ATOM     88  C   UNL A   1      45.858  32.441  29.406  1.00  0.00     0.064 A 
ATOM     89  C   UNL A   1      45.946  33.449  28.435  1.00  0.00     0.173 A 
ATOM     90  C   UNL A   1      46.193  32.775  30.727  1.00  0.00     0.173 A 
ATOM     91  F   UNL A   1      45.649  33.181  27.153  1.00  0.00    -0.203 F 
ATOM     92  C   UNL A   1      46.374  34.732  28.769  1.00  0.00     0.198 A 
ATOM     93  C   UNL A   1      46.590  34.067  31.064  1.00  0.00     0.198 A 
ATOM     94  F   UNL A   1      46.121  31.851  31.698  1.00  0.00    -0.203 F 
ATOM     95  F   UNL A   1      46.495  35.666  27.815  1.00  0.00    -0.200 F 
ATOM     96  C   UNL A   1      46.687  35.042  30.084  1.00  0.00     0.200 A 
ATOM     97  F   UNL A   1      46.875  34.367  32.339  1.00  0.00    -0.200 F 
ATOM     98  F   UNL A   1      47.087  36.280  30.405  1.00  0.00    -0.200 F 
ENDBRANCH  65  88
ENDBRANCH  39  40
ENDBRANCH  31  34
ENDBRANCH  29  30
ENDBRANCH  28  29
ENDBRANCH  27  28
ENDBRANCH   1  27
TORSDOF 16
ENDMDL
