MODEL 1
REMARK VINA RESULT:     -11.9      0.000      0.000
REMARK SMILES O=C(NCCCCCCNC(=O)[C@H]1CS[C@H](c2cc(F)ccc2F)[NH2+]1)c1ccc(-c2c3nc(c(-c4c(F)c(F)c(F)c(F)c4F)c4ccc([nH]4)c(-c4c(F)c(F)c(F)c(F)c4F)c4nc(c(-c5c(F)c(F)c(F)c(F)c5F)c5ccc2[nH]5)C=C4)C=C3)cc1
REMARK SMILES IDX 6 1 5 2 4 3 3 4 1 5 2 6 26 8 27 9 88 10 28 11 87 12 29 13
REMARK SMILES IDX 30 14 31 15 81 16 32 17 86 18 80 19 82 20 33 21 85 22 79 23
REMARK SMILES IDX 78 24 34 26 66 27 46 28 65 29 47 30 50 31 64 32 83 33 48 34
REMARK SMILES IDX 49 35 63 37 84 38 51 39 35 40 36 41 44 42 37 43 38 44 42 45
REMARK SMILES IDX 45 46 39 47 40 48 43 49 41 50 67 51 68 52 76 53 69 54 70 55
REMARK SMILES IDX 74 56 77 57 71 58 72 59 75 60 73 61 52 62 53 63 61 64 54 65
REMARK SMILES IDX 55 66 59 67 62 68 56 69 57 70 60 71 58 72 7 73 8 74 9 75
REMARK SMILES IDX 10 76 11 77 12 79 13 80 14 81 25 82 15 83 16 84 17 87 18 88
REMARK SMILES IDX 23 89 19 90 22 91 24 92 20 93 21 94
REMARK H PARENT 3 7 82 25 50 36 10 78 25 85 25 86
REMARK Flexibility Score: inf
ROOT
ATOM      1  C   UNL A   1      30.894  28.674  23.937  1.00  0.00     0.002 C 
ENDROOT
BRANCH   1   2
ATOM      2  C   UNL A   1      31.653  28.454  25.247  1.00  0.00     0.021 C 
BRANCH   2   3
ATOM      3  C   UNL A   1      32.847  29.380  25.450  1.00  0.00     0.116 C 
BRANCH   3   4
ATOM      4  N   UNL A   1      32.446  30.704  25.900  1.00  0.00    -0.352 N 
ATOM      5  O   UNL A   1      32.384  32.490  27.280  1.00  0.00    -0.269 OA
ATOM      6  C   UNL A   1      32.965  31.474  26.910  1.00  0.00     0.251 C 
ATOM      7  H   UNL A   1      31.694  31.106  25.408  1.00  0.00     0.163 HD
BRANCH   6   8
ATOM      8  C   UNL A   1      34.221  31.062  27.574  1.00  0.00     0.039 A 
ATOM      9  C   UNL A   1      34.412  29.736  27.967  1.00  0.00     0.014 A 
ATOM     10  C   UNL A   1      35.218  32.015  27.804  1.00  0.00     0.014 A 
ATOM     11  C   UNL A   1      35.528  29.397  28.725  1.00  0.00     0.010 A 
ATOM     12  C   UNL A   1      36.379  31.652  28.491  1.00  0.00     0.010 A 
ATOM     13  C   UNL A   1      36.526  30.349  28.992  1.00  0.00    -0.014 A 
BRANCH  13  14
ATOM     14  C   UNL A   1      37.722  29.943  29.773  1.00  0.00     0.031 A 
ATOM     15  C   UNL A   1      38.759  29.029  29.182  1.00  0.00     0.074 A 
ATOM     16  C   UNL A   1      37.893  30.451  31.009  1.00  0.00     0.049 A 
ATOM     17  N   UNL A   1      39.882  28.609  29.710  1.00  0.00    -0.248 NA
ATOM     18  C   UNL A   1      38.507  28.513  27.828  1.00  0.00     0.031 C 
ATOM     19  C   UNL A   1      36.948  31.341  31.688  1.00  0.00     0.029 A 
ATOM     20  N   UNL A   1      38.924  30.318  31.903  1.00  0.00    -0.354 N 
ATOM     21  C   UNL A   1      40.458  27.771  28.764  1.00  0.00     0.074 A 
ATOM     22  C   UNL A   1      39.552  27.717  27.638  1.00  0.00     0.031 C 
ATOM     23  C   UNL A   1      37.467  31.718  32.865  1.00  0.00     0.029 A 
ATOM     24  C   UNL A   1      38.752  31.051  33.052  1.00  0.00     0.049 A 
ATOM     25  H   UNL A   1      39.712  29.752  31.738  1.00  0.00     0.167 HD
ATOM     26  C   UNL A   1      41.644  27.120  28.828  1.00  0.00     0.037 A 
ATOM     27  C   UNL A   1      39.534  31.166  34.141  1.00  0.00     0.037 A 
ATOM     28  C   UNL A   1      42.559  27.206  29.936  1.00  0.00     0.049 A 
ATOM     29  C   UNL A   1      40.832  30.410  34.193  1.00  0.00     0.074 A 
ATOM     30  C   UNL A   1      43.808  26.624  30.067  1.00  0.00     0.029 A 
ATOM     31  N   UNL A   1      42.324  27.917  31.103  1.00  0.00    -0.354 N 
ATOM     32  N   UNL A   1      41.379  29.652  33.277  1.00  0.00    -0.248 NA
ATOM     33  C   UNL A   1      41.612  30.517  35.433  1.00  0.00     0.031 C 
ATOM     34  C   UNL A   1      44.311  26.947  31.331  1.00  0.00     0.029 A 
ATOM     35  C   UNL A   1      43.394  27.765  31.970  1.00  0.00     0.049 A 
ATOM     36  H   UNL A   1      41.518  28.450  31.288  1.00  0.00     0.167 HD
ATOM     37  C   UNL A   1      42.569  29.193  33.823  1.00  0.00     0.074 A 
ATOM     38  C   UNL A   1      42.676  29.779  35.143  1.00  0.00     0.031 C 
ATOM     39  C   UNL A   1      43.483  28.353  33.282  1.00  0.00     0.037 A 
BRANCH  26  40
ATOM     40  C   UNL A   1      42.038  26.253  27.669  1.00  0.00     0.064 A 
ATOM     41  C   UNL A   1      41.528  24.950  27.552  1.00  0.00     0.173 A 
ATOM     42  C   UNL A   1      42.992  26.671  26.731  1.00  0.00     0.173 A 
ATOM     43  F   UNL A   1      40.619  24.498  28.429  1.00  0.00    -0.203 F 
ATOM     44  C   UNL A   1      41.969  24.095  26.545  1.00  0.00     0.198 A 
ATOM     45  C   UNL A   1      43.414  25.821  25.712  1.00  0.00     0.198 A 
ATOM     46  F   UNL A   1      43.503  27.910  26.795  1.00  0.00    -0.203 F 
ATOM     47  F   UNL A   1      41.493  22.845  26.472  1.00  0.00    -0.200 F 
ATOM     48  C   UNL A   1      42.912  24.531  25.625  1.00  0.00     0.200 A 
ATOM     49  F   UNL A   1      44.310  26.251  24.813  1.00  0.00    -0.200 F 
ATOM     50  F   UNL A   1      43.335  23.709  24.656  1.00  0.00    -0.200 F 
ENDBRANCH  26  40
BRANCH  27  51
ATOM     51  C   UNL A   1      39.103  32.034  35.267  1.00  0.00     0.064 A 
ATOM     52  C   UNL A   1      39.427  33.399  35.300  1.00  0.00     0.173 A 
ATOM     53  C   UNL A   1      38.383  31.508  36.348  1.00  0.00     0.173 A 
ATOM     54  F   UNL A   1      40.118  33.949  34.290  1.00  0.00    -0.203 F 
ATOM     55  C   UNL A   1      39.067  34.198  36.381  1.00  0.00     0.198 A 
ATOM     56  C   UNL A   1      37.999  32.314  37.416  1.00  0.00     0.198 A 
ATOM     57  F   UNL A   1      38.034  30.212  36.352  1.00  0.00    -0.203 F 
ATOM     58  F   UNL A   1      39.421  35.490  36.404  1.00  0.00    -0.200 F 
ATOM     59  C   UNL A   1      38.348  33.657  37.436  1.00  0.00     0.200 A 
ATOM     60  F   UNL A   1      37.285  31.794  38.424  1.00  0.00    -0.200 F 
ATOM     61  F   UNL A   1      37.991  34.430  38.471  1.00  0.00    -0.200 F 
ENDBRANCH  27  51
BRANCH  39  62
ATOM     62  C   UNL A   1      44.682  28.009  34.112  1.00  0.00     0.064 A 
ATOM     63  C   UNL A   1      44.650  26.923  34.998  1.00  0.00     0.173 A 
ATOM     64  C   UNL A   1      45.834  28.809  34.089  1.00  0.00     0.173 A 
ATOM     65  F   UNL A   1      43.568  26.132  35.061  1.00  0.00    -0.203 F 
ATOM     66  C   UNL A   1      45.723  26.660  35.845  1.00  0.00     0.198 A 
ATOM     67  C   UNL A   1      46.914  28.529  34.920  1.00  0.00     0.198 A 
ATOM     68  F   UNL A   1      45.914  29.851  33.247  1.00  0.00    -0.203 F 
ATOM     69  F   UNL A   1      45.658  25.638  36.709  1.00  0.00    -0.200 F 
ATOM     70  C   UNL A   1      46.854  27.462  35.804  1.00  0.00     0.200 A 
ATOM     71  F   UNL A   1      48.014  29.292  34.864  1.00  0.00    -0.200 F 
ATOM     72  F   UNL A   1      47.887  27.206  36.617  1.00  0.00    -0.200 F 
ENDBRANCH  39  62
ENDBRANCH  13  14
ENDBRANCH   6   8
ENDBRANCH   3   4
ENDBRANCH   2   3
ENDBRANCH   1   2
BRANCH   1  73
ATOM     73  C   UNL A   1      30.274  27.413  23.325  1.00  0.00     0.002 C 
BRANCH  73  74
ATOM     74  C   UNL A   1      30.424  26.138  24.161  1.00  0.00     0.021 C 
BRANCH  74  75
ATOM     75  C   UNL A   1      30.684  24.880  23.336  1.00  0.00     0.116 C 
BRANCH  75  76
ATOM     76  N   UNL A   1      31.510  25.167  22.182  1.00  0.00    -0.351 N 
ATOM     77  C   UNL A   1      32.864  25.232  22.034  1.00  0.00     0.279 C 
ATOM     78  H   UNL A   1      31.004  25.350  21.357  1.00  0.00     0.163 HD
ATOM     79  O   UNL A   1      33.287  25.658  20.955  1.00  0.00    -0.268 OA
BRANCH  77  80
ATOM     80  C   UNL A   1      33.837  24.785  23.142  1.00  0.00     0.283 C 
ATOM     81  C   UNL A   1      34.009  25.815  24.256  1.00  0.00     0.151 C 
ATOM     82  N   UNL A   1      33.471  23.434  23.654  1.00  0.00    -0.320 N 
ATOM     83  S   UNL A   1      33.638  24.937  25.790  1.00  0.00    -0.087 SA
ATOM     84  C   UNL A   1      33.937  23.305  25.033  1.00  0.00     0.277 C 
ATOM     85  H   UNL A   1      33.912  22.717  23.076  1.00  0.00     0.348 HD
ATOM     86  H   UNL A   1      32.459  23.313  23.620  1.00  0.00     0.348 HD
BRANCH  84  87
ATOM     87  C   UNL A   1      35.374  22.870  25.251  1.00  0.00     0.059 A 
ATOM     88  C   UNL A   1      36.284  23.820  25.768  1.00  0.00     0.053 A 
ATOM     89  C   UNL A   1      35.882  21.597  24.960  1.00  0.00     0.133 A 
ATOM     90  C   UNL A   1      37.635  23.516  25.910  1.00  0.00     0.123 A 
ATOM     91  C   UNL A   1      37.241  21.298  25.103  1.00  0.00     0.043 A 
ATOM     92  F   UNL A   1      35.090  20.610  24.525  1.00  0.00    -0.206 F 
ATOM     93  F   UNL A   1      38.474  24.452  26.371  1.00  0.00    -0.207 F 
ATOM     94  C   UNL A   1      38.125  22.265  25.567  1.00  0.00     0.042 A 
ENDBRANCH  84  87
ENDBRANCH  77  80
ENDBRANCH  75  76
ENDBRANCH  74  75
ENDBRANCH  73  74
ENDBRANCH   1  73
TORSDOF 14
ENDMDL
MODEL 2
REMARK VINA RESULT:     -11.9      4.850      8.561
REMARK SMILES O=C(NCCCCCCNC(=O)[C@H]1CS[C@H](c2cc(F)ccc2F)[NH2+]1)c1ccc(-c2c3nc(c(-c4c(F)c(F)c(F)c(F)c4F)c4ccc([nH]4)c(-c4c(F)c(F)c(F)c(F)c4F)c4nc(c(-c5c(F)c(F)c(F)c(F)c5F)c5ccc2[nH]5)C=C4)C=C3)cc1
REMARK SMILES IDX 6 1 5 2 4 3 3 4 1 5 2 6 26 8 27 9 88 10 28 11 87 12 29 13
REMARK SMILES IDX 30 14 31 15 81 16 32 17 86 18 80 19 82 20 33 21 85 22 79 23
REMARK SMILES IDX 78 24 34 26 66 27 46 28 65 29 47 30 50 31 64 32 83 33 48 34
REMARK SMILES IDX 49 35 63 37 84 38 51 39 35 40 36 41 44 42 37 43 38 44 42 45
REMARK SMILES IDX 45 46 39 47 40 48 43 49 41 50 67 51 68 52 76 53 69 54 70 55
REMARK SMILES IDX 74 56 77 57 71 58 72 59 75 60 73 61 52 62 53 63 61 64 54 65
REMARK SMILES IDX 55 66 59 67 62 68 56 69 57 70 60 71 58 72 7 73 8 74 9 75
REMARK SMILES IDX 10 76 11 77 12 79 13 80 14 81 25 82 15 83 16 84 17 87 18 88
REMARK SMILES IDX 23 89 19 90 22 91 24 92 20 93 21 94
REMARK H PARENT 3 7 82 25 50 36 10 78 25 85 25 86
REMARK Flexibility Score: inf
ROOT
ATOM      1  C   UNL A   1      37.083  20.298  25.034  1.00  0.00     0.002 C 
ENDROOT
BRANCH   1   2
ATOM      2  C   UNL A   1      38.307  19.380  24.985  1.00  0.00     0.021 C 
BRANCH   2   3
ATOM      3  C   UNL A   1      39.482  19.845  25.837  1.00  0.00     0.116 C 
BRANCH   3   4
ATOM      4  N   UNL A   1      40.556  18.865  25.875  1.00  0.00    -0.352 N 
ATOM      5  O   UNL A   1      42.692  18.136  25.877  1.00  0.00    -0.269 OA
ATOM      6  C   UNL A   1      41.902  19.056  26.062  1.00  0.00     0.251 C 
ATOM      7  H   UNL A   1      40.276  17.929  25.750  1.00  0.00     0.163 HD
BRANCH   6   8
ATOM      8  C   UNL A   1      42.403  20.388  26.465  1.00  0.00     0.039 A 
ATOM      9  C   UNL A   1      42.327  20.801  27.796  1.00  0.00     0.014 A 
ATOM     10  C   UNL A   1      42.955  21.232  25.497  1.00  0.00     0.014 A 
ATOM     11  C   UNL A   1      42.659  22.109  28.131  1.00  0.00     0.010 A 
ATOM     12  C   UNL A   1      43.368  22.519  25.854  1.00  0.00     0.010 A 
ATOM     13  C   UNL A   1      43.187  22.981  27.166  1.00  0.00    -0.014 A 
BRANCH  13  14
ATOM     14  C   UNL A   1      43.565  24.360  27.566  1.00  0.00     0.031 A 
ATOM     15  C   UNL A   1      45.001  24.805  27.553  1.00  0.00     0.074 A 
ATOM     16  C   UNL A   1      42.591  25.231  27.896  1.00  0.00     0.049 A 
ATOM     17  N   UNL A   1      45.501  25.983  27.831  1.00  0.00    -0.248 NA
ATOM     18  C   UNL A   1      46.011  23.801  27.182  1.00  0.00     0.031 C 
ATOM     19  C   UNL A   1      41.163  24.909  27.952  1.00  0.00     0.029 A 
ATOM     20  N   UNL A   1      42.643  26.563  28.218  1.00  0.00    -0.354 N 
ATOM     21  C   UNL A   1      46.876  25.858  27.689  1.00  0.00     0.074 A 
ATOM     22  C   UNL A   1      47.141  24.483  27.323  1.00  0.00     0.031 C 
ATOM     23  C   UNL A   1      40.472  26.023  28.234  1.00  0.00     0.029 A 
ATOM     24  C   UNL A   1      41.409  27.124  28.436  1.00  0.00     0.049 A 
ATOM     25  H   UNL A   1      43.485  27.068  28.286  1.00  0.00     0.167 HD
ATOM     26  C   UNL A   1      47.828  26.810  27.835  1.00  0.00     0.037 A 
ATOM     27  C   UNL A   1      41.067  28.381  28.772  1.00  0.00     0.037 A 
ATOM     28  C   UNL A   1      47.556  28.186  28.164  1.00  0.00     0.049 A 
ATOM     29  C   UNL A   1      42.147  29.410  28.953  1.00  0.00     0.074 A 
ATOM     30  C   UNL A   1      48.451  29.235  28.281  1.00  0.00     0.029 A 
ATOM     31  N   UNL A   1      46.296  28.702  28.429  1.00  0.00    -0.354 N 
ATOM     32  N   UNL A   1      43.439  29.285  28.778  1.00  0.00    -0.248 NA
ATOM     33  C   UNL A   1      41.724  30.747  29.388  1.00  0.00     0.031 C 
ATOM     34  C   UNL A   1      47.739  30.378  28.658  1.00  0.00     0.029 A 
ATOM     35  C   UNL A   1      46.395  30.049  28.735  1.00  0.00     0.049 A 
ATOM     36  H   UNL A   1      45.457  28.188  28.401  1.00  0.00     0.167 HD
ATOM     37  C   UNL A   1      43.984  30.525  29.077  1.00  0.00     0.074 A 
ATOM     38  C   UNL A   1      42.880  31.397  29.420  1.00  0.00     0.031 C 
ATOM     39  C   UNL A   1      45.286  30.901  29.077  1.00  0.00     0.037 A 
BRANCH  26  40
ATOM     40  C   UNL A   1      49.261  26.415  27.640  1.00  0.00     0.064 A 
ATOM     41  C   UNL A   1      50.113  26.266  28.746  1.00  0.00     0.173 A 
ATOM     42  C   UNL A   1      49.817  26.279  26.360  1.00  0.00     0.173 A 
ATOM     43  F   UNL A   1      49.632  26.395  29.992  1.00  0.00    -0.203 F 
ATOM     44  C   UNL A   1      51.471  26.009  28.576  1.00  0.00     0.198 A 
ATOM     45  C   UNL A   1      51.171  25.999  26.194  1.00  0.00     0.198 A 
ATOM     46  F   UNL A   1      49.043  26.404  25.271  1.00  0.00    -0.203 F 
ATOM     47  F   UNL A   1      52.272  25.903  29.645  1.00  0.00    -0.200 F 
ATOM     48  C   UNL A   1      51.999  25.875  27.300  1.00  0.00     0.200 A 
ATOM     49  F   UNL A   1      51.676  25.851  24.961  1.00  0.00    -0.200 F 
ATOM     50  F   UNL A   1      53.305  25.626  27.137  1.00  0.00    -0.200 F 
ENDBRANCH  26  40
BRANCH  27  51
ATOM     51  C   UNL A   1      39.634  28.728  28.958  1.00  0.00     0.064 A 
ATOM     52  C   UNL A   1      38.864  29.234  27.900  1.00  0.00     0.173 A 
ATOM     53  C   UNL A   1      39.015  28.588  30.207  1.00  0.00     0.173 A 
ATOM     54  F   UNL A   1      39.413  29.391  26.686  1.00  0.00    -0.203 F 
ATOM     55  C   UNL A   1      37.537  29.608  28.090  1.00  0.00     0.198 A 
ATOM     56  C   UNL A   1      37.679  28.936  30.390  1.00  0.00     0.198 A 
ATOM     57  F   UNL A   1      39.706  28.090  31.245  1.00  0.00    -0.203 F 
ATOM     58  F   UNL A   1      36.836  30.124  27.071  1.00  0.00    -0.200 F 
ATOM     59  C   UNL A   1      36.943  29.454  29.333  1.00  0.00     0.200 A 
ATOM     60  F   UNL A   1      37.101  28.764  31.587  1.00  0.00    -0.200 F 
ATOM     61  F   UNL A   1      35.662  29.801  29.513  1.00  0.00    -0.200 F 
ENDBRANCH  27  51
BRANCH  39  62
ATOM     62  C   UNL A   1      45.595  32.317  29.461  1.00  0.00     0.064 A 
ATOM     63  C   UNL A   1      45.647  33.326  28.489  1.00  0.00     0.173 A 
ATOM     64  C   UNL A   1      45.922  32.654  30.782  1.00  0.00     0.173 A 
ATOM     65  F   UNL A   1      45.349  33.050  27.210  1.00  0.00    -0.203 F 
ATOM     66  C   UNL A   1      46.033  34.621  28.824  1.00  0.00     0.198 A 
ATOM     67  C   UNL A   1      46.284  33.955  31.118  1.00  0.00     0.198 A 
ATOM     68  F   UNL A   1      45.873  31.724  31.748  1.00  0.00    -0.203 F 
ATOM     69  F   UNL A   1      46.110  35.562  27.874  1.00  0.00    -0.200 F 
ATOM     70  C   UNL A   1      46.350  34.934  30.137  1.00  0.00     0.200 A 
ATOM     71  F   UNL A   1      46.569  34.262  32.390  1.00  0.00    -0.200 F 
ATOM     72  F   UNL A   1      46.718  36.181  30.459  1.00  0.00    -0.200 F 
ENDBRANCH  39  62
ENDBRANCH  13  14
ENDBRANCH   6   8
ENDBRANCH   3   4
ENDBRANCH   2   3
ENDBRANCH   1   2
BRANCH   1  73
ATOM     73  C   UNL A   1      37.393  21.798  25.013  1.00  0.00     0.002 C 
BRANCH  73  74
ATOM     74  C   UNL A   1      36.169  22.718  24.952  1.00  0.00     0.021 C 
BRANCH  74  75
ATOM     75  C   UNL A   1      35.892  23.472  26.251  1.00  0.00     0.116 C 
BRANCH  75  76
ATOM     76  N   UNL A   1      34.858  22.823  27.028  1.00  0.00    -0.351 N 
ATOM     77  C   UNL A   1      33.528  23.093  27.168  1.00  0.00     0.279 C 
ATOM     78  H   UNL A   1      35.170  22.049  27.550  1.00  0.00     0.163 HD
ATOM     79  O   UNL A   1      32.919  22.457  28.032  1.00  0.00    -0.268 OA
BRANCH  77  80
ATOM     80  C   UNL A   1      32.801  24.128  26.289  1.00  0.00     0.283 C 
ATOM     81  C   UNL A   1      32.567  23.656  24.855  1.00  0.00     0.151 C 
ATOM     82  N   UNL A   1      31.553  24.603  26.952  1.00  0.00    -0.320 N 
ATOM     83  S   UNL A   1      30.793  23.837  24.568  1.00  0.00    -0.087 SA
ATOM     84  C   UNL A   1      30.605  25.036  25.928  1.00  0.00     0.277 C 
ATOM     85  H   UNL A   1      31.771  25.387  27.569  1.00  0.00     0.348 HD
ATOM     86  H   UNL A   1      31.145  23.848  27.503  1.00  0.00     0.348 HD
BRANCH  84  87
ATOM     87  C   UNL A   1      30.731  26.457  25.410  1.00  0.00     0.059 A 
ATOM     88  C   UNL A   1      30.216  26.742  24.125  1.00  0.00     0.053 A 
ATOM     89  C   UNL A   1      31.338  27.514  26.101  1.00  0.00     0.133 A 
ATOM     90  C   UNL A   1      30.377  28.001  23.551  1.00  0.00     0.123 A 
ATOM     91  C   UNL A   1      31.498  28.775  25.519  1.00  0.00     0.043 A 
ATOM     92  F   UNL A   1      31.801  27.362  27.347  1.00  0.00    -0.206 F 
ATOM     93  F   UNL A   1      29.906  28.225  22.318  1.00  0.00    -0.207 F 
ATOM     94  C   UNL A   1      31.027  29.018  24.233  1.00  0.00     0.042 A 
ENDBRANCH  84  87
ENDBRANCH  77  80
ENDBRANCH  75  76
ENDBRANCH  74  75
ENDBRANCH  73  74
ENDBRANCH   1  73
TORSDOF 14
ENDMDL
MODEL 3
REMARK VINA RESULT:     -11.9      0.599      7.295
REMARK SMILES O=C(NCCCCCCNC(=O)[C@H]1CS[C@H](c2cc(F)ccc2F)[NH2+]1)c1ccc(-c2c3nc(c(-c4c(F)c(F)c(F)c(F)c4F)c4ccc([nH]4)c(-c4c(F)c(F)c(F)c(F)c4F)c4nc(c(-c5c(F)c(F)c(F)c(F)c5F)c5ccc2[nH]5)C=C4)C=C3)cc1
REMARK SMILES IDX 6 1 5 2 4 3 3 4 1 5 2 6 26 8 27 9 88 10 28 11 87 12 29 13
REMARK SMILES IDX 30 14 31 15 81 16 32 17 86 18 80 19 82 20 33 21 85 22 79 23
REMARK SMILES IDX 78 24 34 26 66 27 46 28 65 29 47 30 50 31 64 32 83 33 48 34
REMARK SMILES IDX 49 35 63 37 84 38 51 39 35 40 36 41 44 42 37 43 38 44 42 45
REMARK SMILES IDX 45 46 39 47 40 48 43 49 41 50 67 51 68 52 76 53 69 54 70 55
REMARK SMILES IDX 74 56 77 57 71 58 72 59 75 60 73 61 52 62 53 63 61 64 54 65
REMARK SMILES IDX 55 66 59 67 62 68 56 69 57 70 60 71 58 72 7 73 8 74 9 75
REMARK SMILES IDX 10 76 11 77 12 79 13 80 14 81 25 82 15 83 16 84 17 87 18 88
REMARK SMILES IDX 23 89 19 90 22 91 24 92 20 93 21 94
REMARK H PARENT 3 7 82 25 50 36 10 78 25 85 25 86
REMARK Flexibility Score: inf
ROOT
ATOM      1  C   UNL A   1      31.426  27.567  26.537  1.00  0.00     0.002 C 
ENDROOT
BRANCH   1   2
ATOM      2  C   UNL A   1      31.840  28.646  25.533  1.00  0.00     0.021 C 
BRANCH   2   3
ATOM      3  C   UNL A   1      33.078  29.440  25.931  1.00  0.00     0.116 C 
BRANCH   3   4
ATOM      4  N   UNL A   1      32.756  30.804  26.319  1.00  0.00    -0.352 N 
ATOM      5  O   UNL A   1      32.854  32.676  27.577  1.00  0.00    -0.269 OA
ATOM      6  C   UNL A   1      33.373  31.618  27.236  1.00  0.00     0.251 C 
ATOM      7  H   UNL A   1      31.983  31.202  25.855  1.00  0.00     0.163 HD
BRANCH   6   8
ATOM      8  C   UNL A   1      34.660  31.201  27.834  1.00  0.00     0.039 A 
ATOM      9  C   UNL A   1      34.841  29.893  28.286  1.00  0.00     0.014 A 
ATOM     10  C   UNL A   1      35.696  32.133  27.944  1.00  0.00     0.014 A 
ATOM     11  C   UNL A   1      35.996  29.559  28.984  1.00  0.00     0.010 A 
ATOM     12  C   UNL A   1      36.892  31.770  28.570  1.00  0.00     0.010 A 
ATOM     13  C   UNL A   1      37.036  30.491  29.130  1.00  0.00    -0.014 A 
BRANCH  13  14
ATOM     14  C   UNL A   1      38.272  30.090  29.849  1.00  0.00     0.031 A 
ATOM     15  C   UNL A   1      38.554  30.586  31.240  1.00  0.00     0.074 A 
ATOM     16  C   UNL A   1      39.120  29.228  29.254  1.00  0.00     0.049 A 
ATOM     17  N   UNL A   1      39.562  30.301  32.027  1.00  0.00    -0.248 NA
ATOM     18  C   UNL A   1      37.586  31.524  31.829  1.00  0.00     0.031 C 
ATOM     19  C   UNL A   1      38.953  28.688  27.902  1.00  0.00     0.029 A 
ATOM     20  N   UNL A   1      40.269  28.635  29.708  1.00  0.00    -0.354 N 
ATOM     21  C   UNL A   1      39.360  31.035  33.188  1.00  0.00     0.074 A 
ATOM     22  C   UNL A   1      38.147  31.800  32.999  1.00  0.00     0.031 C 
ATOM     23  C   UNL A   1      39.930  27.803  27.659  1.00  0.00     0.029 A 
ATOM     24  C   UNL A   1      40.825  27.756  28.811  1.00  0.00     0.049 A 
ATOM     25  H   UNL A   1      40.658  28.821  30.593  1.00  0.00     0.167 HD
ATOM     26  C   UNL A   1      40.112  31.054  34.313  1.00  0.00     0.037 A 
ATOM     27  C   UNL A   1      41.937  27.004  28.898  1.00  0.00     0.037 A 
ATOM     28  C   UNL A   1      41.300  30.263  34.510  1.00  0.00     0.049 A 
ATOM     29  C   UNL A   1      42.766  27.066  30.150  1.00  0.00     0.074 A 
ATOM     30  C   UNL A   1      42.098  30.176  35.637  1.00  0.00     0.029 A 
ATOM     31  N   UNL A   1      41.859  29.425  33.557  1.00  0.00    -0.354 N 
ATOM     32  N   UNL A   1      42.541  27.736  31.253  1.00  0.00    -0.248 NA
ATOM     33  C   UNL A   1      44.006  26.279  30.165  1.00  0.00     0.031 C 
ATOM     34  C   UNL A   1      43.164  29.318  35.353  1.00  0.00     0.029 A 
ATOM     35  C   UNL A   1      43.008  28.839  34.063  1.00  0.00     0.049 A 
ATOM     36  H   UNL A   1      41.494  29.270  32.656  1.00  0.00     0.167 HD
ATOM     37  C   UNL A   1      43.606  27.451  32.095  1.00  0.00     0.074 A 
ATOM     38  C   UNL A   1      44.465  26.526  31.385  1.00  0.00     0.031 C 
ATOM     39  C   UNL A   1      43.852  27.922  33.341  1.00  0.00     0.037 A 
BRANCH  26  40
ATOM     40  C   UNL A   1      39.685  31.953  35.436  1.00  0.00     0.064 A 
ATOM     41  C   UNL A   1      38.728  31.519  36.367  1.00  0.00     0.173 A 
ATOM     42  C   UNL A   1      40.146  33.273  35.535  1.00  0.00     0.173 A 
ATOM     43  F   UNL A   1      38.248  30.267  36.310  1.00  0.00    -0.203 F 
ATOM     44  C   UNL A   1      38.239  32.379  37.347  1.00  0.00     0.198 A 
ATOM     45  C   UNL A   1      39.672  34.123  36.530  1.00  0.00     0.198 A 
ATOM     46  F   UNL A   1      41.067  33.732  34.674  1.00  0.00    -0.203 F 
ATOM     47  F   UNL A   1      37.302  31.954  38.204  1.00  0.00    -0.200 F 
ATOM     48  C   UNL A   1      38.712  33.681  37.428  1.00  0.00     0.200 A 
ATOM     49  F   UNL A   1      40.143  35.375  36.619  1.00  0.00    -0.200 F 
ATOM     50  F   UNL A   1      38.242  34.507  38.372  1.00  0.00    -0.200 F 
ENDBRANCH  26  40
BRANCH  27  51
ATOM     51  C   UNL A   1      42.324  26.130  27.761  1.00  0.00     0.064 A 
ATOM     52  C   UNL A   1      43.304  26.526  26.839  1.00  0.00     0.173 A 
ATOM     53  C   UNL A   1      41.699  24.893  27.558  1.00  0.00     0.173 A 
ATOM     54  F   UNL A   1      43.930  27.704  26.989  1.00  0.00    -0.203 F 
ATOM     55  C   UNL A   1      43.628  25.730  25.744  1.00  0.00     0.198 A 
ATOM     56  C   UNL A   1      42.042  24.083  26.478  1.00  0.00     0.198 A 
ATOM     57  F   UNL A   1      40.768  24.462  28.423  1.00  0.00    -0.203 F 
ATOM     58  F   UNL A   1      44.541  26.150  24.859  1.00  0.00    -0.200 F 
ATOM     59  C   UNL A   1      43.001  24.505  25.567  1.00  0.00     0.200 A 
ATOM     60  F   UNL A   1      41.451  22.891  26.322  1.00  0.00    -0.200 F 
ATOM     61  F   UNL A   1      43.321  23.732  24.521  1.00  0.00    -0.200 F 
ENDBRANCH  27  51
BRANCH  39  62
ATOM     62  C   UNL A   1      45.102  27.453  34.022  1.00  0.00     0.064 A 
ATOM     63  C   UNL A   1      45.088  26.306  34.829  1.00  0.00     0.173 A 
ATOM     64  C   UNL A   1      46.292  28.190  33.941  1.00  0.00     0.173 A 
ATOM     65  F   UNL A   1      43.971  25.572  34.942  1.00  0.00    -0.203 F 
ATOM     66  C   UNL A   1      46.219  25.923  35.544  1.00  0.00     0.198 A 
ATOM     67  C   UNL A   1      47.428  27.790  34.640  1.00  0.00     0.198 A 
ATOM     68  F   UNL A   1      46.356  29.286  33.171  1.00  0.00    -0.203 F 
ATOM     69  F   UNL A   1      46.174  24.843  36.337  1.00  0.00    -0.200 F 
ATOM     70  C   UNL A   1      47.387  26.664  35.449  1.00  0.00     0.200 A 
ATOM     71  F   UNL A   1      48.562  28.495  34.529  1.00  0.00    -0.200 F 
ATOM     72  F   UNL A   1      48.475  26.293  36.135  1.00  0.00    -0.200 F 
ENDBRANCH  39  62
ENDBRANCH  13  14
ENDBRANCH   6   8
ENDBRANCH   3   4
ENDBRANCH   2   3
ENDBRANCH   1   2
BRANCH   1  73
ATOM     73  C   UNL A   1      30.673  26.375  25.939  1.00  0.00     0.002 C 
BRANCH  73  74
ATOM     74  C   UNL A   1      30.516  26.399  24.415  1.00  0.00     0.021 C 
BRANCH  74  75
ATOM     75  C   UNL A   1      30.870  25.079  23.733  1.00  0.00     0.116 C 
BRANCH  75  76
ATOM     76  N   UNL A   1      31.668  25.296  22.545  1.00  0.00    -0.351 N 
ATOM     77  C   UNL A   1      33.015  25.234  22.337  1.00  0.00     0.279 C 
ATOM     78  H   UNL A   1      31.146  25.531  21.744  1.00  0.00     0.163 HD
ATOM     79  O   UNL A   1      33.428  25.626  21.242  1.00  0.00    -0.268 OA
BRANCH  77  80
ATOM     80  C   UNL A   1      33.988  24.689  23.399  1.00  0.00     0.283 C 
ATOM     81  C   UNL A   1      34.108  25.579  24.634  1.00  0.00     0.151 C 
ATOM     82  N   UNL A   1      33.666  23.272  23.735  1.00  0.00    -0.320 N 
ATOM     83  S   UNL A   1      33.749  24.506  26.042  1.00  0.00    -0.087 SA
ATOM     84  C   UNL A   1      34.118  22.992  25.097  1.00  0.00     0.277 C 
ATOM     85  H   UNL A   1      34.142  22.648  23.082  1.00  0.00     0.348 HD
ATOM     86  H   UNL A   1      32.660  23.121  23.669  1.00  0.00     0.348 HD
BRANCH  84  87
ATOM     87  C   UNL A   1      35.568  22.584  25.285  1.00  0.00     0.059 A 
ATOM     88  C   UNL A   1      36.474  23.557  25.763  1.00  0.00     0.053 A 
ATOM     89  C   UNL A   1      36.089  21.314  25.004  1.00  0.00     0.133 A 
ATOM     90  C   UNL A   1      37.833  23.279  25.875  1.00  0.00     0.123 A 
ATOM     91  C   UNL A   1      37.456  21.040  25.116  1.00  0.00     0.043 A 
ATOM     92  F   UNL A   1      35.303  20.307  24.605  1.00  0.00    -0.206 F 
ATOM     93  F   UNL A   1      38.667  24.236  26.300  1.00  0.00    -0.207 F 
ATOM     94  C   UNL A   1      38.335  22.030  25.541  1.00  0.00     0.042 A 
ENDBRANCH  84  87
ENDBRANCH  77  80
ENDBRANCH  75  76
ENDBRANCH  74  75
ENDBRANCH  73  74
ENDBRANCH   1  73
TORSDOF 14
ENDMDL
