MODEL 1
REMARK VINA RESULT:     -12.3      0.000      0.000
REMARK SMILES C[N@@H+]([C@@H]1CCOC2(CCCC2)C1)C(C)(C)C(=O)NCCCCCCNC(=O)c1ccc(-c2c3nc(c(-c4c(F)c(F)c(F)c(F)c4F)c4ccc([nH]4)c(-c4c(F)c(F)c(F)c(F)c4F)c4nc(c(-c5c(F)c(F)c(F)c(F)c5F)c5ccc2[nH]5)C=C4)C=C3)cc1
REMARK SMILES IDX 21 1 20 2 19 3 18 4 16 5 17 6 13 8 14 9 15 10 2 11 1 12 3 14
REMARK SMILES IDX 4 15 12 16 5 17 7 18 6 19 8 20 11 21 9 22 10 23 22 24 23 25
REMARK SMILES IDX 24 26 25 27 26 28 27 30 28 31 29 32 90 33 30 34 89 35 31 36
REMARK SMILES IDX 32 37 33 38 83 39 34 40 88 41 82 42 84 43 35 44 87 45 81 46
REMARK SMILES IDX 80 47 36 49 68 50 48 51 67 52 49 53 52 54 66 55 85 56 50 57
REMARK SMILES IDX 51 58 65 60 86 61 53 62 37 63 38 64 46 65 39 66 40 67 44 68
REMARK SMILES IDX 47 69 41 70 42 71 45 72 43 73 69 74 70 75 78 76 71 77 72 78
REMARK SMILES IDX 76 79 79 80 73 81 74 82 77 83 75 84 54 85 55 86 63 87 56 88
REMARK SMILES IDX 57 89 61 90 64 91 58 92 59 93 62 94 60 95
REMARK H PARENT 18 7 2 13 25 29 84 48 52 59
REMARK Flexibility Score: inf
ROOT
ATOM      1  C   UNL A   1      32.426  29.761  27.081  1.00  0.00     0.002 C 
ENDROOT
BRANCH   1   2
ATOM      2  C   UNL A   1      31.740  28.446  27.482  1.00  0.00     0.021 C 
BRANCH   2   3
ATOM      3  C   UNL A   1      32.065  27.231  26.597  1.00  0.00     0.116 C 
BRANCH   3   4
ATOM      4  N   UNL A   1      31.030  27.006  25.612  1.00  0.00    -0.351 N 
ATOM      5  C   UNL A   1      31.182  26.994  24.255  1.00  0.00     0.280 C 
ATOM      6  O   UNL A   1      30.451  27.819  23.710  1.00  0.00    -0.268 OA
ATOM      7  H   UNL A   1      30.121  26.843  25.955  1.00  0.00     0.163 HD
BRANCH   5   8
ATOM      8  C   UNL A   1      32.244  26.078  23.537  1.00  0.00     0.171 C 
ATOM      9  C   UNL A   1      33.652  26.655  23.813  1.00  0.00     0.090 C 
ATOM     10  C   UNL A   1      31.879  26.175  22.030  1.00  0.00     0.090 C 
BRANCH   8  11
ATOM     11  N   UNL A   1      32.195  24.580  23.896  1.00  0.00    -0.323 N 
ATOM     12  C   UNL A   1      30.836  24.193  24.336  1.00  0.00     0.333 C 
ATOM     13  H   UNL A   1      32.881  24.528  24.649  1.00  0.00     0.349 HD
BRANCH  11  14
ATOM     14  C   UNL A   1      32.713  23.577  22.912  1.00  0.00     0.189 C 
ATOM     15  C   UNL A   1      32.220  22.107  23.117  1.00  0.00     0.093 C 
ATOM     16  C   UNL A   1      34.240  23.409  22.867  1.00  0.00     0.100 C 
ATOM     17  C   UNL A   1      32.869  21.432  24.324  1.00  0.00     0.167 C 
ATOM     18  C   UNL A   1      34.841  22.795  24.156  1.00  0.00     0.074 C 
ATOM     19  O   UNL A   1      34.299  21.457  24.252  1.00  0.00    -0.375 OA
ATOM     20  C   UNL A   1      36.376  22.682  23.992  1.00  0.00     0.036 C 
ATOM     21  C   UNL A   1      34.649  23.496  25.527  1.00  0.00     0.036 C 
ATOM     22  C   UNL A   1      36.983  23.701  24.948  1.00  0.00     0.003 C 
ATOM     23  C   UNL A   1      36.036  23.698  26.127  1.00  0.00     0.003 C 
ENDBRANCH  11  14
ENDBRANCH   8  11
ENDBRANCH   5   8
ENDBRANCH   3   4
ENDBRANCH   2   3
ENDBRANCH   1   2
BRANCH   1  24
ATOM     24  C   UNL A   1      31.657  30.640  26.091  1.00  0.00     0.002 C 
BRANCH  24  25
ATOM     25  C   UNL A   1      31.408  32.074  26.553  1.00  0.00     0.021 C 
BRANCH  25  26
ATOM     26  C   UNL A   1      32.563  32.694  27.323  1.00  0.00     0.116 C 
BRANCH  26  27
ATOM     27  N   UNL A   1      32.352  34.108  27.575  1.00  0.00    -0.352 N 
ATOM     28  C   UNL A   1      32.954  34.901  28.517  1.00  0.00     0.251 C 
ATOM     29  H   UNL A   1      31.694  34.554  26.994  1.00  0.00     0.163 HD
ATOM     30  O   UNL A   1      32.528  36.030  28.751  1.00  0.00    -0.269 OA
BRANCH  28  31
ATOM     31  C   UNL A   1      34.107  34.374  29.275  1.00  0.00     0.039 A 
ATOM     32  C   UNL A   1      33.881  33.739  30.497  1.00  0.00     0.014 A 
ATOM     33  C   UNL A   1      35.404  34.482  28.763  1.00  0.00     0.014 A 
ATOM     34  C   UNL A   1      34.953  33.166  31.182  1.00  0.00     0.010 A 
ATOM     35  C   UNL A   1      36.455  33.835  29.402  1.00  0.00     0.010 A 
ATOM     36  C   UNL A   1      36.244  33.180  30.625  1.00  0.00    -0.014 A 
BRANCH  36  37
ATOM     37  C   UNL A   1      37.385  32.529  31.315  1.00  0.00     0.031 A 
ATOM     38  C   UNL A   1      38.091  31.370  30.670  1.00  0.00     0.074 A 
ATOM     39  C   UNL A   1      37.752  32.948  32.541  1.00  0.00     0.049 A 
ATOM     40  N   UNL A   1      39.074  30.637  31.131  1.00  0.00    -0.248 NA
ATOM     41  C   UNL A   1      37.611  30.958  29.341  1.00  0.00     0.031 C 
ATOM     42  C   UNL A   1      37.115  34.034  33.289  1.00  0.00     0.029 A 
ATOM     43  N   UNL A   1      38.747  32.508  33.378  1.00  0.00    -0.354 N 
ATOM     44  C   UNL A   1      39.320  29.678  30.157  1.00  0.00     0.074 A 
ATOM     45  C   UNL A   1      38.344  29.880  29.109  1.00  0.00     0.031 C 
ATOM     46  C   UNL A   1      37.751  34.193  34.460  1.00  0.00     0.029 A 
ATOM     47  C   UNL A   1      38.812  33.195  34.566  1.00  0.00     0.049 A 
ATOM     48  H   UNL A   1      39.355  31.769  33.149  1.00  0.00     0.167 HD
ATOM     49  C   UNL A   1      40.289  28.733  30.127  1.00  0.00     0.037 A 
ATOM     50  C   UNL A   1      39.630  33.033  35.622  1.00  0.00     0.037 A 
ATOM     51  C   UNL A   1      41.269  28.550  31.164  1.00  0.00     0.049 A 
ATOM     52  C   UNL A   1      40.686  31.960  35.573  1.00  0.00     0.074 A 
ATOM     53  C   UNL A   1      42.327  27.659  31.205  1.00  0.00     0.029 A 
ATOM     54  N   UNL A   1      41.307  29.268  32.351  1.00  0.00    -0.354 N 
ATOM     55  N   UNL A   1      40.956  31.106  34.615  1.00  0.00    -0.248 NA
ATOM     56  C   UNL A   1      41.557  31.835  36.750  1.00  0.00     0.031 C 
ATOM     57  C   UNL A   1      42.968  27.796  32.439  1.00  0.00     0.029 A 
ATOM     58  C   UNL A   1      42.353  28.820  33.143  1.00  0.00     0.049 A 
ATOM     59  H   UNL A   1      40.684  29.991  32.594  1.00  0.00     0.167 HD
ATOM     60  C   UNL A   1      42.044  30.365  35.059  1.00  0.00     0.074 A 
ATOM     61  C   UNL A   1      42.394  30.882  36.365  1.00  0.00     0.031 C 
ATOM     62  C   UNL A   1      42.693  29.349  34.439  1.00  0.00     0.037 A 
BRANCH  49  63
ATOM     63  C   UNL A   1      40.335  27.823  28.931  1.00  0.00     0.064 A 
ATOM     64  C   UNL A   1      41.093  28.137  27.792  1.00  0.00     0.173 A 
ATOM     65  C   UNL A   1      39.639  26.605  28.938  1.00  0.00     0.173 A 
ATOM     66  F   UNL A   1      41.770  29.294  27.729  1.00  0.00    -0.203 F 
ATOM     67  C   UNL A   1      41.123  27.284  26.693  1.00  0.00     0.198 A 
ATOM     68  C   UNL A   1      39.700  25.737  27.849  1.00  0.00     0.198 A 
ATOM     69  F   UNL A   1      38.903  26.250  30.001  1.00  0.00    -0.203 F 
ATOM     70  F   UNL A   1      41.808  27.633  25.595  1.00  0.00    -0.200 F 
ATOM     71  C   UNL A   1      40.434  26.082  26.725  1.00  0.00     0.200 A 
ATOM     72  F   UNL A   1      39.045  24.568  27.889  1.00  0.00    -0.200 F 
ATOM     73  F   UNL A   1      40.471  25.258  25.669  1.00  0.00    -0.200 F 
ENDBRANCH  49  63
BRANCH  50  74
ATOM     74  C   UNL A   1      39.498  33.919  36.809  1.00  0.00     0.064 A 
ATOM     75  C   UNL A   1      40.128  35.171  36.849  1.00  0.00     0.173 A 
ATOM     76  C   UNL A   1      38.749  33.532  37.930  1.00  0.00     0.173 A 
ATOM     77  F   UNL A   1      40.872  35.579  35.811  1.00  0.00    -0.203 F 
ATOM     78  C   UNL A   1      40.034  35.991  37.972  1.00  0.00     0.198 A 
ATOM     79  C   UNL A   1      38.627  34.367  39.039  1.00  0.00     0.198 A 
ATOM     80  F   UNL A   1      38.121  32.347  37.942  1.00  0.00    -0.203 F 
ATOM     81  F   UNL A   1      40.689  37.159  38.002  1.00  0.00    -0.200 F 
ATOM     82  C   UNL A   1      39.278  35.590  39.064  1.00  0.00     0.200 A 
ATOM     83  F   UNL A   1      37.883  33.983  40.085  1.00  0.00    -0.200 F 
ATOM     84  F   UNL A   1      39.184  36.381  40.142  1.00  0.00    -0.200 F 
ENDBRANCH  50  74
BRANCH  62  85
ATOM     85  C   UNL A   1      43.876  28.753  35.148  1.00  0.00     0.064 A 
ATOM     86  C   UNL A   1      45.173  29.258  34.974  1.00  0.00     0.173 A 
ATOM     87  C   UNL A   1      43.702  27.688  36.044  1.00  0.00     0.173 A 
ATOM     88  F   UNL A   1      45.397  30.266  34.118  1.00  0.00    -0.203 F 
ATOM     89  C   UNL A   1      46.255  28.698  35.649  1.00  0.00     0.198 A 
ATOM     90  C   UNL A   1      44.780  27.154  36.744  1.00  0.00     0.198 A 
ATOM     91  F   UNL A   1      42.481  27.173  36.253  1.00  0.00    -0.203 F 
ATOM     92  F   UNL A   1      47.493  29.161  35.427  1.00  0.00    -0.200 F 
ATOM     93  C   UNL A   1      46.057  27.653  36.539  1.00  0.00     0.200 A 
ATOM     94  F   UNL A   1      44.582  26.157  37.617  1.00  0.00    -0.200 F 
ATOM     95  F   UNL A   1      47.098  27.122  37.195  1.00  0.00    -0.200 F 
ENDBRANCH  62  85
ENDBRANCH  36  37
ENDBRANCH  28  31
ENDBRANCH  26  27
ENDBRANCH  25  26
ENDBRANCH  24  25
ENDBRANCH   1  24
TORSDOF 15
ENDMDL
MODEL 2
REMARK VINA RESULT:     -12.2      0.238      1.954
REMARK SMILES C[N@@H+]([C@@H]1CCOC2(CCCC2)C1)C(C)(C)C(=O)NCCCCCCNC(=O)c1ccc(-c2c3nc(c(-c4c(F)c(F)c(F)c(F)c4F)c4ccc([nH]4)c(-c4c(F)c(F)c(F)c(F)c4F)c4nc(c(-c5c(F)c(F)c(F)c(F)c5F)c5ccc2[nH]5)C=C4)C=C3)cc1
REMARK SMILES IDX 21 1 20 2 19 3 18 4 16 5 17 6 13 8 14 9 15 10 2 11 1 12 3 14
REMARK SMILES IDX 4 15 12 16 5 17 7 18 6 19 8 20 11 21 9 22 10 23 22 24 23 25
REMARK SMILES IDX 24 26 25 27 26 28 27 30 28 31 29 32 90 33 30 34 89 35 31 36
REMARK SMILES IDX 32 37 33 38 83 39 34 40 88 41 82 42 84 43 35 44 87 45 81 46
REMARK SMILES IDX 80 47 36 49 68 50 48 51 67 52 49 53 52 54 66 55 85 56 50 57
REMARK SMILES IDX 51 58 65 60 86 61 53 62 37 63 38 64 46 65 39 66 40 67 44 68
REMARK SMILES IDX 47 69 41 70 42 71 45 72 43 73 69 74 70 75 78 76 71 77 72 78
REMARK SMILES IDX 76 79 79 80 73 81 74 82 77 83 75 84 54 85 55 86 63 87 56 88
REMARK SMILES IDX 57 89 61 90 64 91 58 92 59 93 62 94 60 95
REMARK H PARENT 18 7 2 13 25 29 84 48 52 59
REMARK Flexibility Score: inf
ROOT
ATOM      1  C   UNL A   1      31.787  29.522  26.948  1.00  0.00     0.002 C 
ENDROOT
BRANCH   1   2
ATOM      2  C   UNL A   1      32.943  28.554  26.653  1.00  0.00     0.021 C 
BRANCH   2   3
ATOM      3  C   UNL A   1      32.561  27.067  26.575  1.00  0.00     0.116 C 
BRANCH   3   4
ATOM      4  N   UNL A   1      31.386  26.867  25.757  1.00  0.00    -0.351 N 
ATOM      5  C   UNL A   1      31.335  26.836  24.393  1.00  0.00     0.280 C 
ATOM      6  O   UNL A   1      30.559  27.680  23.949  1.00  0.00    -0.268 OA
ATOM      7  H   UNL A   1      30.533  26.739  26.233  1.00  0.00     0.163 HD
BRANCH   5   8
ATOM      8  C   UNL A   1      32.249  25.878  23.541  1.00  0.00     0.171 C 
ATOM      9  C   UNL A   1      33.697  26.418  23.583  1.00  0.00     0.090 C 
ATOM     10  C   UNL A   1      31.658  25.957  22.106  1.00  0.00     0.090 C 
BRANCH   8  11
ATOM     11  N   UNL A   1      32.218  24.388  23.936  1.00  0.00    -0.323 N 
ATOM     12  C   UNL A   1      30.873  24.005  24.420  1.00  0.00     0.333 C 
ATOM     13  H   UNL A   1      32.923  24.358  24.672  1.00  0.00     0.349 HD
BRANCH  11  14
ATOM     14  C   UNL A   1      32.717  23.364  22.963  1.00  0.00     0.189 C 
ATOM     15  C   UNL A   1      32.259  21.893  23.232  1.00  0.00     0.093 C 
ATOM     16  C   UNL A   1      34.244  23.222  22.864  1.00  0.00     0.100 C 
ATOM     17  C   UNL A   1      32.966  21.267  24.433  1.00  0.00     0.167 C 
ATOM     18  C   UNL A   1      34.904  22.658  24.147  1.00  0.00     0.074 C 
ATOM     19  O   UNL A   1      34.391  21.315  24.304  1.00  0.00    -0.375 OA
ATOM     20  C   UNL A   1      36.434  22.567  23.928  1.00  0.00     0.036 C 
ATOM     21  C   UNL A   1      34.752  23.398  25.503  1.00  0.00     0.036 C 
ATOM     22  C   UNL A   1      37.058  23.625  24.828  1.00  0.00     0.003 C 
ATOM     23  C   UNL A   1      36.157  23.642  26.043  1.00  0.00     0.003 C 
ENDBRANCH  11  14
ENDBRANCH   8  11
ENDBRANCH   5   8
ENDBRANCH   3   4
ENDBRANCH   2   3
ENDBRANCH   1   2
BRANCH   1  24
ATOM     24  C   UNL A   1      31.719  30.770  26.065  1.00  0.00     0.002 C 
BRANCH  24  25
ATOM     25  C   UNL A   1      31.452  32.077  26.807  1.00  0.00     0.021 C 
BRANCH  25  26
ATOM     26  C   UNL A   1      32.704  32.804  27.268  1.00  0.00     0.116 C 
BRANCH  26  27
ATOM     27  N   UNL A   1      32.438  34.193  27.596  1.00  0.00    -0.352 N 
ATOM     28  C   UNL A   1      32.995  34.951  28.594  1.00  0.00     0.251 C 
ATOM     29  H   UNL A   1      31.775  34.649  27.030  1.00  0.00     0.163 HD
ATOM     30  O   UNL A   1      32.526  36.049  28.883  1.00  0.00    -0.269 OA
BRANCH  28  31
ATOM     31  C   UNL A   1      34.154  34.422  29.342  1.00  0.00     0.039 A 
ATOM     32  C   UNL A   1      33.934  33.759  30.551  1.00  0.00     0.014 A 
ATOM     33  C   UNL A   1      35.450  34.555  28.834  1.00  0.00     0.014 A 
ATOM     34  C   UNL A   1      35.012  33.184  31.226  1.00  0.00     0.010 A 
ATOM     35  C   UNL A   1      36.508  33.907  29.462  1.00  0.00     0.010 A 
ATOM     36  C   UNL A   1      36.302  33.224  30.671  1.00  0.00    -0.014 A 
BRANCH  36  37
ATOM     37  C   UNL A   1      37.450  32.572  31.349  1.00  0.00     0.031 A 
ATOM     38  C   UNL A   1      38.159  31.423  30.689  1.00  0.00     0.074 A 
ATOM     39  C   UNL A   1      37.821  32.981  32.577  1.00  0.00     0.049 A 
ATOM     40  N   UNL A   1      39.148  30.690  31.138  1.00  0.00    -0.248 NA
ATOM     41  C   UNL A   1      37.675  31.023  29.358  1.00  0.00     0.031 C 
ATOM     42  C   UNL A   1      37.182  34.055  33.339  1.00  0.00     0.029 A 
ATOM     43  N   UNL A   1      38.822  32.537  33.405  1.00  0.00    -0.354 N 
ATOM     44  C   UNL A   1      39.394  29.743  30.153  1.00  0.00     0.074 A 
ATOM     45  C   UNL A   1      38.412  29.950  29.112  1.00  0.00     0.031 C 
ATOM     46  C   UNL A   1      37.822  34.206  34.509  1.00  0.00     0.029 A 
ATOM     47  C   UNL A   1      38.889  33.212  34.600  1.00  0.00     0.049 A 
ATOM     48  H   UNL A   1      39.433  31.804  33.166  1.00  0.00     0.167 HD
ATOM     49  C   UNL A   1      40.367  28.803  30.109  1.00  0.00     0.037 A 
ATOM     50  C   UNL A   1      39.713  33.044  35.651  1.00  0.00     0.037 A 
ATOM     51  C   UNL A   1      41.353  28.614  31.140  1.00  0.00     0.049 A 
ATOM     52  C   UNL A   1      40.773  31.977  35.585  1.00  0.00     0.074 A 
ATOM     53  C   UNL A   1      42.416  27.728  31.167  1.00  0.00     0.029 A 
ATOM     54  N   UNL A   1      41.394  29.321  32.334  1.00  0.00    -0.354 N 
ATOM     55  N   UNL A   1      41.043  31.134  34.618  1.00  0.00    -0.248 NA
ATOM     56  C   UNL A   1      41.650  31.845  36.757  1.00  0.00     0.031 C 
ATOM     57  C   UNL A   1      43.062  27.857  32.400  1.00  0.00     0.029 A 
ATOM     58  C   UNL A   1      42.445  28.870  33.116  1.00  0.00     0.049 A 
ATOM     59  H   UNL A   1      40.768  30.039  32.587  1.00  0.00     0.167 HD
ATOM     60  C   UNL A   1      42.137  30.395  35.049  1.00  0.00     0.074 A 
ATOM     61  C   UNL A   1      42.491  30.900  36.359  1.00  0.00     0.031 C 
ATOM     62  C   UNL A   1      42.788  29.388  34.416  1.00  0.00     0.037 A 
BRANCH  49  63
ATOM     63  C   UNL A   1      40.413  27.906  28.904  1.00  0.00     0.064 A 
ATOM     64  C   UNL A   1      39.701  26.698  28.854  1.00  0.00     0.173 A 
ATOM     65  C   UNL A   1      41.154  28.275  27.770  1.00  0.00     0.173 A 
ATOM     66  F   UNL A   1      38.984  26.291  29.914  1.00  0.00    -0.203 F 
ATOM     67  C   UNL A   1      39.756  25.877  27.732  1.00  0.00     0.198 A 
ATOM     68  C   UNL A   1      41.179  27.468  26.635  1.00  0.00     0.198 A 
ATOM     69  F   UNL A   1      41.850  29.421  27.759  1.00  0.00    -0.203 F 
ATOM     70  F   UNL A   1      39.112  24.702  27.731  1.00  0.00    -0.200 F 
ATOM     71  C   UNL A   1      40.487  26.266  26.620  1.00  0.00     0.200 A 
ATOM     72  F   UNL A   1      41.874  27.854  25.557  1.00  0.00    -0.200 F 
ATOM     73  F   UNL A   1      40.533  25.479  25.537  1.00  0.00    -0.200 F 
ENDBRANCH  49  63
BRANCH  50  74
ATOM     74  C   UNL A   1      39.581  33.917  36.847  1.00  0.00     0.064 A 
ATOM     75  C   UNL A   1      38.815  33.516  37.951  1.00  0.00     0.173 A 
ATOM     76  C   UNL A   1      40.209  35.169  36.911  1.00  0.00     0.173 A 
ATOM     77  F   UNL A   1      38.178  32.336  37.932  1.00  0.00    -0.203 F 
ATOM     78  C   UNL A   1      38.662  34.344  39.062  1.00  0.00     0.198 A 
ATOM     79  C   UNL A   1      40.083  35.982  38.036  1.00  0.00     0.198 A 
ATOM     80  F   UNL A   1      40.958  35.598  35.885  1.00  0.00    -0.203 F 
ATOM     81  F   UNL A   1      37.882  33.958  40.080  1.00  0.00    -0.200 F 
ATOM     82  C   UNL A   1      39.302  35.575  39.106  1.00  0.00     0.200 A 
ATOM     83  F   UNL A   1      40.716  37.162  38.081  1.00  0.00    -0.200 F 
ATOM     84  F   UNL A   1      39.158  36.369  40.175  1.00  0.00    -0.200 F 
ENDBRANCH  50  74
BRANCH  62  85
ATOM     85  C   UNL A   1      43.978  28.791  35.113  1.00  0.00     0.064 A 
ATOM     86  C   UNL A   1      43.857  27.683  35.964  1.00  0.00     0.173 A 
ATOM     87  C   UNL A   1      45.262  29.312  34.893  1.00  0.00     0.173 A 
ATOM     88  F   UNL A   1      42.650  27.155  36.219  1.00  0.00    -0.203 F 
ATOM     89  C   UNL A   1      44.974  27.137  36.592  1.00  0.00     0.198 A 
ATOM     90  C   UNL A   1      46.381  28.742  35.495  1.00  0.00     0.198 A 
ATOM     91  F   UNL A   1      45.435  30.366  34.082  1.00  0.00    -0.203 F 
ATOM     92  F   UNL A   1      44.827  26.112  37.443  1.00  0.00    -0.200 F 
ATOM     93  C   UNL A   1      46.235  27.662  36.351  1.00  0.00     0.200 A 
ATOM     94  F   UNL A   1      47.600  29.239  35.245  1.00  0.00    -0.200 F 
ATOM     95  F   UNL A   1      47.309  27.129  36.948  1.00  0.00    -0.200 F 
ENDBRANCH  62  85
ENDBRANCH  36  37
ENDBRANCH  28  31
ENDBRANCH  26  27
ENDBRANCH  25  26
ENDBRANCH  24  25
ENDBRANCH   1  24
TORSDOF 15
ENDMDL
MODEL 3
REMARK VINA RESULT:     -12.0      5.438     11.048
REMARK SMILES C[N@@H+]([C@@H]1CCOC2(CCCC2)C1)C(C)(C)C(=O)NCCCCCCNC(=O)c1ccc(-c2c3nc(c(-c4c(F)c(F)c(F)c(F)c4F)c4ccc([nH]4)c(-c4c(F)c(F)c(F)c(F)c4F)c4nc(c(-c5c(F)c(F)c(F)c(F)c5F)c5ccc2[nH]5)C=C4)C=C3)cc1
REMARK SMILES IDX 21 1 20 2 19 3 18 4 16 5 17 6 13 8 14 9 15 10 2 11 1 12 3 14
REMARK SMILES IDX 4 15 12 16 5 17 7 18 6 19 8 20 11 21 9 22 10 23 22 24 23 25
REMARK SMILES IDX 24 26 25 27 26 28 27 30 28 31 29 32 90 33 30 34 89 35 31 36
REMARK SMILES IDX 32 37 33 38 83 39 34 40 88 41 82 42 84 43 35 44 87 45 81 46
REMARK SMILES IDX 80 47 36 49 68 50 48 51 67 52 49 53 52 54 66 55 85 56 50 57
REMARK SMILES IDX 51 58 65 60 86 61 53 62 37 63 38 64 46 65 39 66 40 67 44 68
REMARK SMILES IDX 47 69 41 70 42 71 45 72 43 73 69 74 70 75 78 76 71 77 72 78
REMARK SMILES IDX 76 79 79 80 73 81 74 82 77 83 75 84 54 85 55 86 63 87 56 88
REMARK SMILES IDX 57 89 61 90 64 91 58 92 59 93 62 94 60 95
REMARK H PARENT 18 7 2 13 25 29 84 48 52 59
REMARK Flexibility Score: inf
ROOT
ATOM      1  C   UNL A   1      35.550  20.532  25.001  1.00  0.00     0.002 C 
ENDROOT
BRANCH   1   2
ATOM      2  C   UNL A   1      34.815  21.509  25.932  1.00  0.00     0.021 C 
BRANCH   2   3
ATOM      3  C   UNL A   1      33.298  21.629  25.704  1.00  0.00     0.116 C 
BRANCH   3   4
ATOM      4  N   UNL A   1      32.820  22.953  26.034  1.00  0.00    -0.351 N 
ATOM      5  C   UNL A   1      33.049  24.104  25.335  1.00  0.00     0.280 C 
ATOM      6  O   UNL A   1      33.587  24.959  26.035  1.00  0.00    -0.268 OA
ATOM      7  H   UNL A   1      32.270  23.034  26.848  1.00  0.00     0.163 HD
BRANCH   5   8
ATOM      8  C   UNL A   1      32.727  24.230  23.799  1.00  0.00     0.171 C 
ATOM      9  C   UNL A   1      31.525  23.313  23.474  1.00  0.00     0.090 C 
ATOM     10  C   UNL A   1      34.021  23.736  23.093  1.00  0.00     0.090 C 
BRANCH   8  11
ATOM     11  N   UNL A   1      32.473  25.659  23.279  1.00  0.00    -0.323 N 
ATOM     12  C   UNL A   1      32.761  25.747  21.830  1.00  0.00     0.333 C 
ATOM     13  H   UNL A   1      33.126  26.200  23.844  1.00  0.00     0.349 HD
BRANCH  11  14
ATOM     14  C   UNL A   1      31.161  26.320  23.575  1.00  0.00     0.189 C 
ATOM     15  C   UNL A   1      30.734  27.453  22.585  1.00  0.00     0.093 C 
ATOM     16  C   UNL A   1      31.054  27.016  24.940  1.00  0.00     0.100 C 
ATOM     17  C   UNL A   1      31.551  28.731  22.766  1.00  0.00     0.167 C 
ATOM     18  C   UNL A   1      31.972  28.256  25.084  1.00  0.00     0.074 C 
ATOM     19  O   UNL A   1      31.500  29.217  24.112  1.00  0.00    -0.375 OA
ATOM     20  C   UNL A   1      31.779  28.863  26.495  1.00  0.00     0.036 C 
ATOM     21  C   UNL A   1      33.510  28.121  24.928  1.00  0.00     0.036 C 
ATOM     22  C   UNL A   1      33.074  28.600  27.253  1.00  0.00     0.003 C 
ATOM     23  C   UNL A   1      34.143  28.702  26.187  1.00  0.00     0.003 C 
ENDBRANCH  11  14
ENDBRANCH   8  11
ENDBRANCH   5   8
ENDBRANCH   3   4
ENDBRANCH   2   3
ENDBRANCH   1   2
BRANCH   1  24
ATOM     24  C   UNL A   1      37.009  20.875  24.691  1.00  0.00     0.002 C 
BRANCH  24  25
ATOM     25  C   UNL A   1      38.016  19.769  24.996  1.00  0.00     0.021 C 
BRANCH  25  26
ATOM     26  C   UNL A   1      39.239  20.230  25.771  1.00  0.00     0.116 C 
BRANCH  26  27
ATOM     27  N   UNL A   1      40.209  19.164  25.942  1.00  0.00    -0.352 N 
ATOM     28  C   UNL A   1      41.564  19.271  26.128  1.00  0.00     0.251 C 
ATOM     29  H   UNL A   1      39.849  18.248  25.923  1.00  0.00     0.163 HD
ATOM     30  O   UNL A   1      42.287  18.281  26.051  1.00  0.00    -0.269 OA
BRANCH  28  31
ATOM     31  C   UNL A   1      42.154  20.599  26.393  1.00  0.00     0.039 A 
ATOM     32  C   UNL A   1      42.573  21.381  25.316  1.00  0.00     0.014 A 
ATOM     33  C   UNL A   1      42.265  21.080  27.702  1.00  0.00     0.014 A 
ATOM     34  C   UNL A   1      43.056  22.670  25.549  1.00  0.00     0.010 A 
ATOM     35  C   UNL A   1      42.663  22.393  27.924  1.00  0.00     0.010 A 
ATOM     36  C   UNL A   1      43.074  23.198  26.851  1.00  0.00    -0.014 A 
BRANCH  36  37
ATOM     37  C   UNL A   1      43.536  24.585  27.110  1.00  0.00     0.031 A 
ATOM     38  C   UNL A   1      42.572  25.612  27.635  1.00  0.00     0.074 A 
ATOM     39  C   UNL A   1      44.806  24.931  26.825  1.00  0.00     0.049 A 
ATOM     40  N   UNL A   1      42.767  26.885  27.878  1.00  0.00    -0.248 NA
ATOM     41  C   UNL A   1      41.197  25.157  27.895  1.00  0.00     0.031 C 
ATOM     42  C   UNL A   1      45.822  24.036  26.270  1.00  0.00     0.029 A 
ATOM     43  N   UNL A   1      45.459  26.131  26.958  1.00  0.00    -0.354 N 
ATOM     44  C   UNL A   1      41.543  27.379  28.307  1.00  0.00     0.074 A 
ATOM     45  C   UNL A   1      40.596  26.289  28.231  1.00  0.00     0.031 C 
ATOM     46  C   UNL A   1      46.975  24.708  26.136  1.00  0.00     0.029 A 
ATOM     47  C   UNL A   1      46.771  26.092  26.554  1.00  0.00     0.049 A 
ATOM     48  H   UNL A   1      45.027  26.943  27.308  1.00  0.00     0.167 HD
ATOM     49  C   UNL A   1      41.242  28.622  28.750  1.00  0.00     0.037 A 
ATOM     50  C   UNL A   1      47.701  27.065  26.518  1.00  0.00     0.037 A 
ATOM     51  C   UNL A   1      42.194  29.698  28.841  1.00  0.00     0.049 A 
ATOM     52  C   UNL A   1      47.335  28.445  26.997  1.00  0.00     0.074 A 
ATOM     53  C   UNL A   1      42.004  30.979  29.328  1.00  0.00     0.029 A 
ATOM     54  N   UNL A   1      43.516  29.620  28.428  1.00  0.00    -0.354 N 
ATOM     55  N   UNL A   1      46.193  28.883  27.469  1.00  0.00    -0.248 NA
ATOM     56  C   UNL A   1      48.393  29.464  26.944  1.00  0.00     0.031 C 
ATOM     57  C   UNL A   1      43.194  31.693  29.155  1.00  0.00     0.029 A 
ATOM     58  C   UNL A   1      44.146  30.839  28.622  1.00  0.00     0.049 A 
ATOM     59  H   UNL A   1      43.945  28.816  28.052  1.00  0.00     0.167 HD
ATOM     60  C   UNL A   1      46.402  30.216  27.798  1.00  0.00     0.074 A 
ATOM     61  C   UNL A   1      47.785  30.510  27.487  1.00  0.00     0.031 C 
ATOM     62  C   UNL A   1      45.526  31.115  28.313  1.00  0.00     0.037 A 
BRANCH  49  63
ATOM     63  C   UNL A   1      39.823  28.886  29.170  1.00  0.00     0.064 A 
ATOM     64  C   UNL A   1      38.862  29.367  28.269  1.00  0.00     0.173 A 
ATOM     65  C   UNL A   1      39.412  28.625  30.487  1.00  0.00     0.173 A 
ATOM     66  F   UNL A   1      39.204  29.644  27.000  1.00  0.00    -0.203 F 
ATOM     67  C   UNL A   1      37.553  29.609  28.675  1.00  0.00     0.198 A 
ATOM     68  C   UNL A   1      38.092  28.834  30.881  1.00  0.00     0.198 A 
ATOM     69  F   UNL A   1      40.286  28.159  31.390  1.00  0.00    -0.203 F 
ATOM     70  F   UNL A   1      36.668  30.121  27.809  1.00  0.00    -0.200 F 
ATOM     71  C   UNL A   1      37.166  29.334  29.978  1.00  0.00     0.200 A 
ATOM     72  F   UNL A   1      37.718  28.553  32.137  1.00  0.00    -0.200 F 
ATOM     73  F   UNL A   1      35.904  29.559  30.366  1.00  0.00    -0.200 F 
ENDBRANCH  49  63
BRANCH  50  74
ATOM     74  C   UNL A   1      49.073  26.765  26.030  1.00  0.00     0.064 A 
ATOM     75  C   UNL A   1      49.431  27.003  24.695  1.00  0.00     0.173 A 
ATOM     76  C   UNL A   1      50.051  26.230  26.880  1.00  0.00     0.173 A 
ATOM     77  F   UNL A   1      48.526  27.496  23.836  1.00  0.00    -0.203 F 
ATOM     78  C   UNL A   1      50.706  26.695  24.224  1.00  0.00     0.198 A 
ATOM     79  C   UNL A   1      51.336  25.953  26.416  1.00  0.00     0.198 A 
ATOM     80  F   UNL A   1      49.764  25.989  28.167  1.00  0.00    -0.203 F 
ATOM     81  F   UNL A   1      51.004  26.883  22.931  1.00  0.00    -0.200 F 
ATOM     82  C   UNL A   1      51.659  26.175  25.087  1.00  0.00     0.200 A 
ATOM     83  F   UNL A   1      52.259  25.467  27.257  1.00  0.00    -0.200 F 
ATOM     84  F   UNL A   1      52.886  25.882  24.635  1.00  0.00    -0.200 F 
ENDBRANCH  50  74
BRANCH  62  85
ATOM     85  C   UNL A   1      46.047  32.492  28.610  1.00  0.00     0.064 A 
ATOM     86  C   UNL A   1      46.639  32.808  29.842  1.00  0.00     0.173 A 
ATOM     87  C   UNL A   1      45.987  33.498  27.633  1.00  0.00     0.173 A 
ATOM     88  F   UNL A   1      46.709  31.888  30.815  1.00  0.00    -0.203 F 
ATOM     89  C   UNL A   1      47.126  34.089  30.094  1.00  0.00     0.198 A 
ATOM     90  C   UNL A   1      46.507  34.766  27.876  1.00  0.00     0.198 A 
ATOM     91  F   UNL A   1      45.438  33.246  26.436  1.00  0.00    -0.203 F 
ATOM     92  F   UNL A   1      47.639  34.383  31.296  1.00  0.00    -0.200 F 
ATOM     93  C   UNL A   1      47.067  35.064  29.109  1.00  0.00     0.200 A 
ATOM     94  F   UNL A   1      46.465  35.700  26.916  1.00  0.00    -0.200 F 
ATOM     95  F   UNL A   1      47.545  36.292  29.350  1.00  0.00    -0.200 F 
ENDBRANCH  62  85
ENDBRANCH  36  37
ENDBRANCH  28  31
ENDBRANCH  26  27
ENDBRANCH  25  26
ENDBRANCH  24  25
ENDBRANCH   1  24
TORSDOF 15
ENDMDL
