MODEL 1
REMARK VINA RESULT:     -12.5      0.000      0.000
REMARK SMILES Cc1cccc(S(=O)(=O)N[C@@H](CCC(N)=O)C(=O)NCCCCCCNC(=O)c2ccc(-c3c4nc(c(-c5c(F)c(F)c(F)c(F)c5F)c5ccc([nH]5)c(-c5c(F)c(F)c(F)c(F)c5F)c5nc(c(-c6c(F)c(F)c(F)c(F)c6F)c6ccc3[nH]6)C=C5)C=C4)cc2)c1
REMARK SMILES IDX 22 1 21 2 20 3 19 4 17 5 18 6 11 8 10 9 7 11 8 12 9 13 6 14
REMARK SMILES IDX 1 15 2 16 3 17 92 18 4 19 5 20 12 21 13 22 14 23 15 24 16 25
REMARK SMILES IDX 23 28 24 29 25 30 26 31 27 32 28 34 29 35 30 36 91 37 31 38
REMARK SMILES IDX 90 39 32 40 33 41 34 42 84 43 35 44 89 45 83 46 85 47 36 48
REMARK SMILES IDX 88 49 82 50 81 51 37 53 69 54 49 55 68 56 50 57 53 58 67 59
REMARK SMILES IDX 86 60 51 61 52 62 66 64 87 65 54 66 38 67 39 68 47 69 40 70
REMARK SMILES IDX 41 71 45 72 48 73 42 74 43 75 46 76 44 77 70 78 71 79 79 80
REMARK SMILES IDX 72 81 73 82 77 83 80 84 74 85 75 86 78 87 76 88 55 89 56 90
REMARK SMILES IDX 64 91 57 92 58 93 62 94 65 95 59 96 60 97 63 98 61 99
REMARK H PARENT 19 7 10 10 15 26 15 27 26 33 85 52 53 63
REMARK Flexibility Score: inf
ROOT
ATOM      1  C   UNL A   1      36.280  22.899  24.274  1.00  0.00     0.002 C 
ENDROOT
BRANCH   1   2
ATOM      2  C   UNL A   1      35.131  22.994  23.264  1.00  0.00     0.021 C 
BRANCH   2   3
ATOM      3  C   UNL A   1      34.093  24.072  23.558  1.00  0.00     0.116 C 
BRANCH   3   4
ATOM      4  N   UNL A   1      32.725  23.635  23.351  1.00  0.00    -0.355 N 
ATOM      5  C   UNL A   1      31.539  24.253  23.650  1.00  0.00     0.238 C 
ATOM      6  O   UNL A   1      30.500  23.699  23.280  1.00  0.00    -0.273 OA
ATOM      7  H   UNL A   1      32.634  22.751  22.928  1.00  0.00     0.163 HD
BRANCH   5   8
ATOM      8  C   UNL A   1      31.478  25.522  24.529  1.00  0.00     0.159 C 
BRANCH   8   9
ATOM      9  N   UNL A   1      30.552  26.457  23.857  1.00  0.00    -0.199 NA
ATOM     10  H   UNL A   1      29.892  25.863  23.354  1.00  0.00     0.142 HD
BRANCH   9  11
ATOM     11  S   UNL A   1      30.970  27.651  22.779  1.00  0.00     0.241 S 
ATOM     12  O   UNL A   1      31.184  27.025  21.497  1.00  0.00    -0.207 OA
ATOM     13  O   UNL A   1      32.022  28.396  23.440  1.00  0.00    -0.207 OA
BRANCH  11  14
ATOM     14  C   UNL A   1      29.587  28.750  22.630  1.00  0.00     0.082 A 
ATOM     15  C   UNL A   1      28.761  32.324  21.629  1.00  0.00     0.044 C 
ATOM     16  C   UNL A   1      28.615  30.907  22.102  1.00  0.00    -0.050 A 
ATOM     17  C   UNL A   1      27.392  30.463  22.620  1.00  0.00     0.003 A 
ATOM     18  C   UNL A   1      29.699  30.021  22.058  1.00  0.00     0.025 A 
ATOM     19  C   UNL A   1      27.259  29.168  23.122  1.00  0.00     0.002 A 
ATOM     20  C   UNL A   1      28.362  28.317  23.147  1.00  0.00     0.022 A 
ENDBRANCH  11  14
ENDBRANCH   9  11
ENDBRANCH   8   9
BRANCH   8  21
ATOM     21  C   UNL A   1      31.308  25.334  26.039  1.00  0.00     0.040 C 
BRANCH  21  22
ATOM     22  C   UNL A   1      31.772  24.042  26.701  1.00  0.00     0.102 C 
BRANCH  22  23
ATOM     23  C   UNL A   1      30.666  23.014  26.843  1.00  0.00     0.217 C 
ATOM     24  N   UNL A   1      30.801  21.912  26.054  1.00  0.00    -0.370 N 
ATOM     25  O   UNL A   1      29.716  23.116  27.609  1.00  0.00    -0.275 OA
ATOM     26  H   UNL A   1      31.567  21.836  25.441  1.00  0.00     0.159 HD
ATOM     27  H   UNL A   1      30.131  21.191  26.097  1.00  0.00     0.159 HD
ENDBRANCH  22  23
ENDBRANCH  21  22
ENDBRANCH   8  21
ENDBRANCH   5   8
ENDBRANCH   3   4
ENDBRANCH   2   3
ENDBRANCH   1   2
BRANCH   1  28
ATOM     28  C   UNL A   1      37.046  21.568  24.339  1.00  0.00     0.002 C 
BRANCH  28  29
ATOM     29  C   UNL A   1      38.120  21.439  25.419  1.00  0.00     0.021 C 
BRANCH  29  30
ATOM     30  C   UNL A   1      38.437  22.724  26.156  1.00  0.00     0.116 C 
BRANCH  30  31
ATOM     31  N   UNL A   1      39.635  22.679  26.975  1.00  0.00    -0.352 N 
ATOM     32  C   UNL A   1      40.408  23.713  27.473  1.00  0.00     0.251 C 
ATOM     33  H   UNL A   1      39.947  21.775  27.211  1.00  0.00     0.163 HD
ATOM     34  O   UNL A   1      41.491  23.459  27.992  1.00  0.00    -0.269 OA
BRANCH  32  35
ATOM     35  C   UNL A   1      39.853  25.090  27.571  1.00  0.00     0.039 A 
ATOM     36  C   UNL A   1      40.332  26.033  26.648  1.00  0.00     0.014 A 
ATOM     37  C   UNL A   1      39.207  25.520  28.718  1.00  0.00     0.014 A 
ATOM     38  C   UNL A   1      40.461  27.359  27.037  1.00  0.00     0.010 A 
ATOM     39  C   UNL A   1      39.505  26.772  29.185  1.00  0.00     0.010 A 
ATOM     40  C   UNL A   1      40.193  27.663  28.361  1.00  0.00    -0.014 A 
BRANCH  40  41
ATOM     41  C   UNL A   1      40.482  28.921  29.006  1.00  0.00     0.031 A 
ATOM     42  C   UNL A   1      39.415  29.933  28.973  1.00  0.00     0.074 A 
ATOM     43  C   UNL A   1      41.546  28.965  29.838  1.00  0.00     0.049 A 
ATOM     44  N   UNL A   1      39.530  31.121  29.439  1.00  0.00    -0.248 NA
ATOM     45  C   UNL A   1      38.107  29.684  28.360  1.00  0.00     0.031 C 
ATOM     46  C   UNL A   1      41.800  29.885  30.943  1.00  0.00     0.029 A 
ATOM     47  N   UNL A   1      42.751  28.253  29.705  1.00  0.00    -0.354 N 
ATOM     48  C   UNL A   1      38.266  31.660  29.493  1.00  0.00     0.074 A 
ATOM     49  C   UNL A   1      37.448  30.798  28.686  1.00  0.00     0.031 C 
ATOM     50  C   UNL A   1      43.124  29.925  31.178  1.00  0.00     0.029 A 
ATOM     51  C   UNL A   1      43.756  29.164  30.114  1.00  0.00     0.049 A 
ATOM     52  H   UNL A   1      42.870  27.325  29.398  1.00  0.00     0.167 HD
ATOM     53  C   UNL A   1      38.063  32.689  30.360  1.00  0.00     0.037 A 
ATOM     54  C   UNL A   1      44.613  29.701  29.190  1.00  0.00     0.037 A 
ATOM     55  C   UNL A   1      39.356  33.202  30.813  1.00  0.00     0.049 A 
ATOM     56  C   UNL A   1      44.472  31.202  29.083  1.00  0.00     0.074 A 
ATOM     57  C   UNL A   1      40.086  33.027  31.973  1.00  0.00     0.029 A 
ATOM     58  N   UNL A   1      40.238  33.708  29.858  1.00  0.00    -0.354 N 
ATOM     59  N   UNL A   1      43.366  31.851  29.334  1.00  0.00    -0.248 NA
ATOM     60  C   UNL A   1      45.581  32.086  28.742  1.00  0.00     0.031 C 
ATOM     61  C   UNL A   1      41.450  33.304  31.664  1.00  0.00     0.029 A 
ATOM     62  C   UNL A   1      41.533  33.695  30.337  1.00  0.00     0.049 A 
ATOM     63  H   UNL A   1      39.974  34.028  28.965  1.00  0.00     0.167 HD
ATOM     64  C   UNL A   1      43.600  33.198  29.240  1.00  0.00     0.074 A 
ATOM     65  C   UNL A   1      44.998  33.292  28.859  1.00  0.00     0.031 C 
ATOM     66  C   UNL A   1      42.642  34.137  29.501  1.00  0.00     0.037 A 
BRANCH  53  67
ATOM     67  C   UNL A   1      36.739  33.094  30.971  1.00  0.00     0.064 A 
ATOM     68  C   UNL A   1      35.838  33.878  30.216  1.00  0.00     0.173 A 
ATOM     69  C   UNL A   1      36.342  32.875  32.309  1.00  0.00     0.173 A 
ATOM     70  F   UNL A   1      36.082  34.170  28.931  1.00  0.00    -0.203 F 
ATOM     71  C   UNL A   1      34.663  34.412  30.760  1.00  0.00     0.198 A 
ATOM     72  C   UNL A   1      35.147  33.373  32.837  1.00  0.00     0.198 A 
ATOM     73  F   UNL A   1      37.105  32.220  33.187  1.00  0.00    -0.203 F 
ATOM     74  F   UNL A   1      33.879  35.195  30.006  1.00  0.00    -0.200 F 
ATOM     75  C   UNL A   1      34.314  34.153  32.069  1.00  0.00     0.200 A 
ATOM     76  F   UNL A   1      34.829  33.111  34.115  1.00  0.00    -0.200 F 
ATOM     77  F   UNL A   1      33.192  34.665  32.592  1.00  0.00    -0.200 F 
ENDBRANCH  53  67
BRANCH  54  78
ATOM     78  C   UNL A   1      44.871  28.755  28.061  1.00  0.00     0.064 A 
ATOM     79  C   UNL A   1      45.565  27.565  28.373  1.00  0.00     0.173 A 
ATOM     80  C   UNL A   1      44.068  28.749  26.914  1.00  0.00     0.173 A 
ATOM     81  F   UNL A   1      46.374  27.527  29.446  1.00  0.00    -0.203 F 
ATOM     82  C   UNL A   1      45.297  26.374  27.702  1.00  0.00     0.198 A 
ATOM     83  C   UNL A   1      43.841  27.560  26.214  1.00  0.00     0.198 A 
ATOM     84  F   UNL A   1      43.397  29.850  26.549  1.00  0.00    -0.203 F 
ATOM     85  F   UNL A   1      45.827  25.224  28.145  1.00  0.00    -0.200 F 
ATOM     86  C   UNL A   1      44.403  26.366  26.648  1.00  0.00     0.200 A 
ATOM     87  F   UNL A   1      42.982  27.547  25.185  1.00  0.00    -0.200 F 
ATOM     88  F   UNL A   1      44.044  25.206  26.079  1.00  0.00    -0.200 F 
ENDBRANCH  54  78
BRANCH  66  89
ATOM     89  C   UNL A   1      42.709  35.590  29.085  1.00  0.00     0.064 A 
ATOM     90  C   UNL A   1      42.025  36.118  27.977  1.00  0.00     0.173 A 
ATOM     91  C   UNL A   1      43.360  36.547  29.902  1.00  0.00     0.173 A 
ATOM     92  F   UNL A   1      41.240  35.352  27.207  1.00  0.00    -0.203 F 
ATOM     93  C   UNL A   1      42.069  37.477  27.656  1.00  0.00     0.198 A 
ATOM     94  C   UNL A   1      43.339  37.912  29.621  1.00  0.00     0.198 A 
ATOM     95  F   UNL A   1      44.010  36.195  31.021  1.00  0.00    -0.203 F 
ATOM     96  F   UNL A   1      41.450  37.915  26.551  1.00  0.00    -0.200 F 
ATOM     97  C   UNL A   1      42.716  38.374  28.482  1.00  0.00     0.200 A 
ATOM     98  F   UNL A   1      43.908  38.775  30.474  1.00  0.00    -0.200 F 
ATOM     99  F   UNL A   1      42.717  39.683  28.196  1.00  0.00    -0.200 F 
ENDBRANCH  66  89
ENDBRANCH  40  41
ENDBRANCH  32  35
ENDBRANCH  30  31
ENDBRANCH  29  30
ENDBRANCH  28  29
ENDBRANCH   1  28
TORSDOF 19
ENDMDL
MODEL 2
REMARK VINA RESULT:     -12.3      1.358      3.079
REMARK SMILES Cc1cccc(S(=O)(=O)N[C@@H](CCC(N)=O)C(=O)NCCCCCCNC(=O)c2ccc(-c3c4nc(c(-c5c(F)c(F)c(F)c(F)c5F)c5ccc([nH]5)c(-c5c(F)c(F)c(F)c(F)c5F)c5nc(c(-c6c(F)c(F)c(F)c(F)c6F)c6ccc3[nH]6)C=C5)C=C4)cc2)c1
REMARK SMILES IDX 22 1 21 2 20 3 19 4 17 5 18 6 11 8 10 9 7 11 8 12 9 13 6 14
REMARK SMILES IDX 1 15 2 16 3 17 92 18 4 19 5 20 12 21 13 22 14 23 15 24 16 25
REMARK SMILES IDX 23 28 24 29 25 30 26 31 27 32 28 34 29 35 30 36 91 37 31 38
REMARK SMILES IDX 90 39 32 40 33 41 34 42 84 43 35 44 89 45 83 46 85 47 36 48
REMARK SMILES IDX 88 49 82 50 81 51 37 53 69 54 49 55 68 56 50 57 53 58 67 59
REMARK SMILES IDX 86 60 51 61 52 62 66 64 87 65 54 66 38 67 39 68 47 69 40 70
REMARK SMILES IDX 41 71 45 72 48 73 42 74 43 75 46 76 44 77 70 78 71 79 79 80
REMARK SMILES IDX 72 81 73 82 77 83 80 84 74 85 75 86 78 87 76 88 55 89 56 90
REMARK SMILES IDX 64 91 57 92 58 93 62 94 65 95 59 96 60 97 63 98 61 99
REMARK H PARENT 19 7 10 10 15 26 15 27 26 33 85 52 53 63
REMARK Flexibility Score: inf
ROOT
ATOM      1  C   UNL A   1      35.891  22.971  24.068  1.00  0.00     0.002 C 
ENDROOT
BRANCH   1   2
ATOM      2  C   UNL A   1      34.837  22.946  22.956  1.00  0.00     0.021 C 
BRANCH   2   3
ATOM      3  C   UNL A   1      33.693  23.940  23.120  1.00  0.00     0.116 C 
BRANCH   3   4
ATOM      4  N   UNL A   1      33.849  25.144  22.325  1.00  0.00    -0.355 N 
ATOM      5  C   UNL A   1      33.246  26.369  22.438  1.00  0.00     0.238 C 
ATOM      6  O   UNL A   1      33.630  27.264  21.680  1.00  0.00    -0.273 OA
ATOM      7  H   UNL A   1      34.492  25.068  21.584  1.00  0.00     0.163 HD
BRANCH   5   8
ATOM      8  C   UNL A   1      32.041  26.603  23.376  1.00  0.00     0.159 C 
BRANCH   8   9
ATOM      9  N   UNL A   1      32.504  27.521  24.437  1.00  0.00    -0.199 NA
ATOM     10  H   UNL A   1      33.468  27.749  24.191  1.00  0.00     0.142 HD
BRANCH   9  11
ATOM     11  S   UNL A   1      32.538  27.202  26.069  1.00  0.00     0.241 S 
ATOM     12  O   UNL A   1      31.403  27.863  26.666  1.00  0.00    -0.207 OA
ATOM     13  O   UNL A   1      33.893  27.512  26.479  1.00  0.00    -0.207 OA
BRANCH  11  14
ATOM     14  C   UNL A   1      32.331  25.454  26.279  1.00  0.00     0.082 A 
ATOM     15  C   UNL A   1      29.622  22.869  26.935  1.00  0.00     0.044 C 
ATOM     16  C   UNL A   1      30.963  23.496  26.686  1.00  0.00    -0.050 A 
ATOM     17  C   UNL A   1      32.128  22.726  26.798  1.00  0.00     0.003 A 
ATOM     18  C   UNL A   1      31.071  24.856  26.369  1.00  0.00     0.025 A 
ATOM     19  C   UNL A   1      33.384  23.309  26.632  1.00  0.00     0.002 A 
ATOM     20  C   UNL A   1      33.489  24.678  26.394  1.00  0.00     0.022 A 
ENDBRANCH  11  14
ENDBRANCH   9  11
ENDBRANCH   8   9
BRANCH   8  21
ATOM     21  C   UNL A   1      30.686  26.906  22.732  1.00  0.00     0.040 C 
BRANCH  21  22
ATOM     22  C   UNL A   1      29.735  27.899  23.391  1.00  0.00     0.102 C 
BRANCH  22  23
ATOM     23  C   UNL A   1      29.811  29.288  22.788  1.00  0.00     0.217 C 
ATOM     24  N   UNL A   1      30.226  30.264  23.643  1.00  0.00    -0.370 N 
ATOM     25  O   UNL A   1      29.548  29.557  21.624  1.00  0.00    -0.275 OA
ATOM     26  H   UNL A   1      30.437  30.042  24.579  1.00  0.00     0.159 HD
ATOM     27  H   UNL A   1      30.315  31.192  23.326  1.00  0.00     0.159 HD
ENDBRANCH  22  23
ENDBRANCH  21  22
ENDBRANCH   8  21
ENDBRANCH   5   8
ENDBRANCH   3   4
ENDBRANCH   2   3
ENDBRANCH   1   2
BRANCH   1  28
ATOM     28  C   UNL A   1      36.260  21.626  24.714  1.00  0.00     0.002 C 
BRANCH  28  29
ATOM     29  C   UNL A   1      37.619  21.540  25.410  1.00  0.00     0.021 C 
BRANCH  29  30
ATOM     30  C   UNL A   1      38.125  22.852  25.977  1.00  0.00     0.116 C 
BRANCH  30  31
ATOM     31  N   UNL A   1      39.271  22.733  26.860  1.00  0.00    -0.352 N 
ATOM     32  C   UNL A   1      40.057  23.719  27.430  1.00  0.00     0.251 C 
ATOM     33  H   UNL A   1      39.530  21.810  27.087  1.00  0.00     0.163 HD
ATOM     34  O   UNL A   1      41.097  23.405  28.002  1.00  0.00    -0.269 OA
BRANCH  32  35
ATOM     35  C   UNL A   1      39.556  25.116  27.535  1.00  0.00     0.039 A 
ATOM     36  C   UNL A   1      40.065  26.043  26.612  1.00  0.00     0.014 A 
ATOM     37  C   UNL A   1      38.933  25.567  28.688  1.00  0.00     0.014 A 
ATOM     38  C   UNL A   1      40.247  27.362  27.005  1.00  0.00     0.010 A 
ATOM     39  C   UNL A   1      39.281  26.805  29.156  1.00  0.00     0.010 A 
ATOM     40  C   UNL A   1      39.999  27.672  28.331  1.00  0.00    -0.014 A 
BRANCH  40  41
ATOM     41  C   UNL A   1      40.339  28.916  28.979  1.00  0.00     0.031 A 
ATOM     42  C   UNL A   1      39.298  29.954  28.989  1.00  0.00     0.074 A 
ATOM     43  C   UNL A   1      41.429  28.924  29.778  1.00  0.00     0.049 A 
ATOM     44  N   UNL A   1      39.458  31.134  29.462  1.00  0.00    -0.248 NA
ATOM     45  C   UNL A   1      37.966  29.744  28.414  1.00  0.00     0.031 C 
ATOM     46  C   UNL A   1      41.740  29.826  30.882  1.00  0.00     0.029 A 
ATOM     47  N   UNL A   1      42.610  28.183  29.601  1.00  0.00    -0.354 N 
ATOM     48  C   UNL A   1      38.210  31.705  29.560  1.00  0.00     0.074 A 
ATOM     49  C   UNL A   1      37.346  30.871  28.770  1.00  0.00     0.031 C 
ATOM     50  C   UNL A   1      43.072  29.831  31.077  1.00  0.00     0.029 A 
ATOM     51  C   UNL A   1      43.651  29.065  29.986  1.00  0.00     0.049 A 
ATOM     52  H   UNL A   1      42.697  27.256  29.282  1.00  0.00     0.167 HD
ATOM     53  C   UNL A   1      38.059  32.730  30.441  1.00  0.00     0.037 A 
ATOM     54  C   UNL A   1      44.492  29.589  29.042  1.00  0.00     0.037 A 
ATOM     55  C   UNL A   1      39.378  33.205  30.859  1.00  0.00     0.049 A 
ATOM     56  C   UNL A   1      44.386  31.094  28.953  1.00  0.00     0.074 A 
ATOM     57  C   UNL A   1      40.139  33.001  31.994  1.00  0.00     0.029 A 
ATOM     58  N   UNL A   1      40.243  33.698  29.882  1.00  0.00    -0.354 N 
ATOM     59  N   UNL A   1      43.305  31.768  29.244  1.00  0.00    -0.248 NA
ATOM     60  C   UNL A   1      45.506  31.954  28.586  1.00  0.00     0.031 C 
ATOM     61  C   UNL A   1      41.499  33.246  31.646  1.00  0.00     0.029 A 
ATOM     62  C   UNL A   1      41.551  33.648  30.320  1.00  0.00     0.049 A 
ATOM     63  H   UNL A   1      39.960  34.034  29.000  1.00  0.00     0.167 HD
ATOM     64  C   UNL A   1      43.571  33.110  29.155  1.00  0.00     0.074 A 
ATOM     65  C   UNL A   1      44.958  33.173  28.731  1.00  0.00     0.031 C 
ATOM     66  C   UNL A   1      42.645  34.070  29.454  1.00  0.00     0.037 A 
BRANCH  53  67
ATOM     67  C   UNL A   1      36.766  33.161  31.098  1.00  0.00     0.064 A 
ATOM     68  C   UNL A   1      35.809  33.874  30.340  1.00  0.00     0.173 A 
ATOM     69  C   UNL A   1      36.450  33.038  32.468  1.00  0.00     0.173 A 
ATOM     70  F   UNL A   1      35.974  34.072  29.025  1.00  0.00    -0.203 F 
ATOM     71  C   UNL A   1      34.658  34.432  30.910  1.00  0.00     0.198 A 
ATOM     72  C   UNL A   1      35.278  33.558  33.028  1.00  0.00     0.198 A 
ATOM     73  F   UNL A   1      37.273  32.462  33.347  1.00  0.00    -0.203 F 
ATOM     74  F   UNL A   1      33.818  35.146  30.148  1.00  0.00    -0.200 F 
ATOM     75  C   UNL A   1      34.389  34.267  32.253  1.00  0.00     0.200 A 
ATOM     76  F   UNL A   1      35.039  33.389  34.337  1.00  0.00    -0.200 F 
ATOM     77  F   UNL A   1      33.290  34.802  32.801  1.00  0.00    -0.200 F 
ENDBRANCH  53  67
BRANCH  54  78
ATOM     78  C   UNL A   1      44.691  28.648  27.896  1.00  0.00     0.064 A 
ATOM     79  C   UNL A   1      45.361  27.437  28.177  1.00  0.00     0.173 A 
ATOM     80  C   UNL A   1      43.856  28.676  26.774  1.00  0.00     0.173 A 
ATOM     81  F   UNL A   1      46.199  27.365  29.224  1.00  0.00    -0.203 F 
ATOM     82  C   UNL A   1      45.041  26.261  27.502  1.00  0.00     0.198 A 
ATOM     83  C   UNL A   1      43.576  27.501  26.069  1.00  0.00     0.198 A 
ATOM     84  F   UNL A   1      43.205  29.799  26.438  1.00  0.00    -0.203 F 
ATOM     85  F   UNL A   1      45.551  25.092  27.918  1.00  0.00    -0.200 F 
ATOM     86  C   UNL A   1      44.117  26.288  26.475  1.00  0.00     0.200 A 
ATOM     87  F   UNL A   1      42.687  27.523  25.065  1.00  0.00    -0.200 F 
ATOM     88  F   UNL A   1      43.709  25.144  25.905  1.00  0.00    -0.200 F 
ENDBRANCH  54  78
BRANCH  66  89
ATOM     89  C   UNL A   1      42.737  35.525  29.049  1.00  0.00     0.064 A 
ATOM     90  C   UNL A   1      42.060  36.074  27.947  1.00  0.00     0.173 A 
ATOM     91  C   UNL A   1      43.405  36.464  29.874  1.00  0.00     0.173 A 
ATOM     92  F   UNL A   1      41.262  35.327  27.172  1.00  0.00    -0.203 F 
ATOM     93  C   UNL A   1      42.127  37.434  27.636  1.00  0.00     0.198 A 
ATOM     94  C   UNL A   1      43.406  37.832  29.603  1.00  0.00     0.198 A 
ATOM     95  F   UNL A   1      44.050  36.092  30.989  1.00  0.00    -0.203 F 
ATOM     96  F   UNL A   1      41.514  37.892  26.536  1.00  0.00    -0.200 F 
ATOM     97  C   UNL A   1      42.790  38.313  28.469  1.00  0.00     0.200 A 
ATOM     98  F   UNL A   1      43.990  38.678  30.462  1.00  0.00    -0.200 F 
ATOM     99  F   UNL A   1      42.812  39.624  28.193  1.00  0.00    -0.200 F 
ENDBRANCH  66  89
ENDBRANCH  40  41
ENDBRANCH  32  35
ENDBRANCH  30  31
ENDBRANCH  29  30
ENDBRANCH  28  29
ENDBRANCH   1  28
TORSDOF 19
ENDMDL
MODEL 3
REMARK VINA RESULT:     -12.1      1.831      2.543
REMARK SMILES Cc1cccc(S(=O)(=O)N[C@@H](CCC(N)=O)C(=O)NCCCCCCNC(=O)c2ccc(-c3c4nc(c(-c5c(F)c(F)c(F)c(F)c5F)c5ccc([nH]5)c(-c5c(F)c(F)c(F)c(F)c5F)c5nc(c(-c6c(F)c(F)c(F)c(F)c6F)c6ccc3[nH]6)C=C5)C=C4)cc2)c1
REMARK SMILES IDX 22 1 21 2 20 3 19 4 17 5 18 6 11 8 10 9 7 11 8 12 9 13 6 14
REMARK SMILES IDX 1 15 2 16 3 17 92 18 4 19 5 20 12 21 13 22 14 23 15 24 16 25
REMARK SMILES IDX 23 28 24 29 25 30 26 31 27 32 28 34 29 35 30 36 91 37 31 38
REMARK SMILES IDX 90 39 32 40 33 41 34 42 84 43 35 44 89 45 83 46 85 47 36 48
REMARK SMILES IDX 88 49 82 50 81 51 37 53 69 54 49 55 68 56 50 57 53 58 67 59
REMARK SMILES IDX 86 60 51 61 52 62 66 64 87 65 54 66 38 67 39 68 47 69 40 70
REMARK SMILES IDX 41 71 45 72 48 73 42 74 43 75 46 76 44 77 70 78 71 79 79 80
REMARK SMILES IDX 72 81 73 82 77 83 80 84 74 85 75 86 78 87 76 88 55 89 56 90
REMARK SMILES IDX 64 91 57 92 58 93 62 94 65 95 59 96 60 97 63 98 61 99
REMARK H PARENT 19 7 10 10 15 26 15 27 26 33 85 52 53 63
REMARK Flexibility Score: inf
ROOT
ATOM      1  C   UNL A   1      34.557  20.516  24.716  1.00  0.00     0.002 C 
ENDROOT
BRANCH   1   2
ATOM      2  C   UNL A   1      33.991  21.866  24.260  1.00  0.00     0.021 C 
BRANCH   2   3
ATOM      3  C   UNL A   1      32.764  21.786  23.358  1.00  0.00     0.116 C 
BRANCH   3   4
ATOM      4  N   UNL A   1      32.853  22.626  22.178  1.00  0.00    -0.355 N 
ATOM      5  C   UNL A   1      33.054  23.976  22.061  1.00  0.00     0.238 C 
ATOM      6  O   UNL A   1      33.184  24.436  20.923  1.00  0.00    -0.273 OA
ATOM      7  H   UNL A   1      32.753  22.149  21.323  1.00  0.00     0.163 HD
BRANCH   5   8
ATOM      8  C   UNL A   1      32.989  24.921  23.282  1.00  0.00     0.159 C 
BRANCH   8   9
ATOM      9  N   UNL A   1      33.724  26.147  22.907  1.00  0.00    -0.199 NA
ATOM     10  H   UNL A   1      34.328  26.349  23.704  1.00  0.00     0.142 HD
BRANCH   9  11
ATOM     11  S   UNL A   1      33.051  27.609  22.491  1.00  0.00     0.241 S 
ATOM     12  O   UNL A   1      31.739  27.347  21.950  1.00  0.00    -0.207 OA
ATOM     13  O   UNL A   1      34.071  28.277  21.709  1.00  0.00    -0.207 OA
BRANCH  11  14
ATOM     14  C   UNL A   1      32.853  28.553  23.979  1.00  0.00     0.082 A 
ATOM     15  C   UNL A   1      34.554  29.168  27.323  1.00  0.00     0.044 C 
ATOM     16  C   UNL A   1      33.570  29.235  26.191  1.00  0.00    -0.050 A 
ATOM     17  C   UNL A   1      32.357  29.915  26.356  1.00  0.00     0.003 A 
ATOM     18  C   UNL A   1      33.836  28.600  24.971  1.00  0.00     0.025 A 
ATOM     19  C   UNL A   1      31.406  29.932  25.335  1.00  0.00     0.002 A 
ATOM     20  C   UNL A   1      31.643  29.234  24.153  1.00  0.00     0.022 A 
ENDBRANCH  11  14
ENDBRANCH   9  11
ENDBRANCH   8   9
BRANCH   8  21
ATOM     21  C   UNL A   1      31.634  25.101  23.971  1.00  0.00     0.040 C 
BRANCH  21  22
ATOM     22  C   UNL A   1      31.449  24.649  25.414  1.00  0.00     0.102 C 
BRANCH  22  23
ATOM     23  C   UNL A   1      30.562  25.577  26.222  1.00  0.00     0.217 C 
ATOM     24  N   UNL A   1      29.264  25.178  26.336  1.00  0.00    -0.370 N 
ATOM     25  O   UNL A   1      30.942  26.607  26.763  1.00  0.00    -0.275 OA
ATOM     26  H   UNL A   1      28.964  24.349  25.898  1.00  0.00     0.159 HD
ATOM     27  H   UNL A   1      28.627  25.719  26.855  1.00  0.00     0.159 HD
ENDBRANCH  22  23
ENDBRANCH  21  22
ENDBRANCH   8  21
ENDBRANCH   5   8
ENDBRANCH   3   4
ENDBRANCH   2   3
ENDBRANCH   1   2
BRANCH   1  28
ATOM     28  C   UNL A   1      35.992  20.509  25.265  1.00  0.00     0.002 C 
BRANCH  28  29
ATOM     29  C   UNL A   1      36.533  21.830  25.810  1.00  0.00     0.021 C 
BRANCH  29  30
ATOM     30  C   UNL A   1      37.899  22.222  25.282  1.00  0.00     0.116 C 
BRANCH  30  31
ATOM     31  N   UNL A   1      39.002  21.961  26.190  1.00  0.00    -0.352 N 
ATOM     32  C   UNL A   1      39.868  22.843  26.810  1.00  0.00     0.251 C 
ATOM     33  H   UNL A   1      39.158  21.010  26.396  1.00  0.00     0.163 HD
ATOM     34  O   UNL A   1      40.853  22.407  27.397  1.00  0.00    -0.269 OA
BRANCH  32  35
ATOM     35  C   UNL A   1      39.511  24.281  26.945  1.00  0.00     0.039 A 
ATOM     36  C   UNL A   1      40.223  25.189  26.144  1.00  0.00     0.014 A 
ATOM     37  C   UNL A   1      38.808  24.742  28.046  1.00  0.00     0.014 A 
ATOM     38  C   UNL A   1      40.497  26.457  26.636  1.00  0.00     0.010 A 
ATOM     39  C   UNL A   1      39.229  25.908  28.626  1.00  0.00     0.010 A 
ATOM     40  C   UNL A   1      40.128  26.728  27.943  1.00  0.00    -0.014 A 
BRANCH  40  41
ATOM     41  C   UNL A   1      40.520  27.891  28.701  1.00  0.00     0.031 A 
ATOM     42  C   UNL A   1      39.604  29.041  28.655  1.00  0.00     0.074 A 
ATOM     43  C   UNL A   1      41.500  27.736  29.618  1.00  0.00     0.049 A 
ATOM     44  N   UNL A   1      39.833  30.170  29.216  1.00  0.00    -0.248 NA
ATOM     45  C   UNL A   1      38.337  29.014  27.920  1.00  0.00     0.031 C 
ATOM     46  C   UNL A   1      41.772  28.541  30.805  1.00  0.00     0.029 A 
ATOM     47  N   UNL A   1      42.607  26.873  29.533  1.00  0.00    -0.354 N 
ATOM     48  C   UNL A   1      38.651  30.875  29.205  1.00  0.00     0.074 A 
ATOM     49  C   UNL A   1      37.804  30.186  28.271  1.00  0.00     0.031 C 
ATOM     50  C   UNL A   1      43.062  28.384  31.151  1.00  0.00     0.029 A 
ATOM     51  C   UNL A   1      43.682  27.610  30.089  1.00  0.00     0.049 A 
ATOM     52  H   UNL A   1      42.630  25.959  29.169  1.00  0.00     0.167 HD
ATOM     53  C   UNL A   1      38.508  31.867  30.125  1.00  0.00     0.037 A 
ATOM     54  C   UNL A   1      44.684  28.078  29.281  1.00  0.00     0.037 A 
ATOM     55  C   UNL A   1      39.810  32.167  30.720  1.00  0.00     0.049 A 
ATOM     56  C   UNL A   1      44.753  29.589  29.274  1.00  0.00     0.074 A 
ATOM     57  C   UNL A   1      40.402  31.821  31.920  1.00  0.00     0.029 A 
ATOM     58  N   UNL A   1      40.835  32.604  29.880  1.00  0.00    -0.354 N 
ATOM     59  N   UNL A   1      43.724  30.367  29.480  1.00  0.00    -0.248 NA
ATOM     60  C   UNL A   1      45.996  30.330  29.091  1.00  0.00     0.031 C 
ATOM     61  C   UNL A   1      41.813  31.924  31.746  1.00  0.00     0.029 A 
ATOM     62  C   UNL A   1      42.068  32.382  30.463  1.00  0.00     0.049 A 
ATOM     63  H   UNL A   1      40.699  33.012  28.995  1.00  0.00     0.167 HD
ATOM     64  C   UNL A   1      44.143  31.672  29.505  1.00  0.00     0.074 A 
ATOM     65  C   UNL A   1      45.570  31.596  29.248  1.00  0.00     0.031 C 
ATOM     66  C   UNL A   1      43.297  32.717  29.755  1.00  0.00     0.037 A 
BRANCH  53  67
ATOM     67  C   UNL A   1      37.199  32.412  30.654  1.00  0.00     0.064 A 
ATOM     68  C   UNL A   1      36.415  33.250  29.831  1.00  0.00     0.173 A 
ATOM     69  C   UNL A   1      36.717  32.275  31.974  1.00  0.00     0.173 A 
ATOM     70  F   UNL A   1      36.749  33.475  28.552  1.00  0.00    -0.203 F 
ATOM     71  C   UNL A   1      35.270  33.908  30.296  1.00  0.00     0.198 A 
ATOM     72  C   UNL A   1      35.549  32.898  32.425  1.00  0.00     0.198 A 
ATOM     73  F   UNL A   1      37.370  31.583  32.910  1.00  0.00    -0.203 F 
ATOM     74  F   UNL A   1      34.601  34.735  29.480  1.00  0.00    -0.200 F 
ATOM     75  C   UNL A   1      34.832  33.727  31.591  1.00  0.00     0.200 A 
ATOM     76  F   UNL A   1      35.144  32.710  33.690  1.00  0.00    -0.200 F 
ATOM     77  F   UNL A   1      33.739  34.357  32.039  1.00  0.00    -0.200 F 
ENDBRANCH  53  67
BRANCH  54  78
ATOM     78  C   UNL A   1      44.916  27.178  28.110  1.00  0.00     0.064 A 
ATOM     79  C   UNL A   1      45.441  25.896  28.387  1.00  0.00     0.173 A 
ATOM     80  C   UNL A   1      44.209  27.338  26.913  1.00  0.00     0.173 A 
ATOM     81  F   UNL A   1      46.155  25.696  29.508  1.00  0.00    -0.203 F 
ATOM     82  C   UNL A   1      45.089  24.789  27.619  1.00  0.00     0.198 A 
ATOM     83  C   UNL A   1      43.900  26.229  26.118  1.00  0.00     0.198 A 
ATOM     84  F   UNL A   1      43.701  28.532  26.578  1.00  0.00    -0.203 F 
ATOM     85  F   UNL A   1      45.445  23.559  28.017  1.00  0.00    -0.200 F 
ATOM     86  C   UNL A   1      44.284  24.953  26.507  1.00  0.00     0.200 A 
ATOM     87  F   UNL A   1      43.127  26.383  25.033  1.00  0.00    -0.200 F 
ATOM     88  F   UNL A   1      43.838  23.881  25.836  1.00  0.00    -0.200 F 
ENDBRANCH  54  78
BRANCH  66  89
ATOM     89  C   UNL A   1      43.595  34.170  29.454  1.00  0.00     0.064 A 
ATOM     90  C   UNL A   1      43.997  35.102  30.424  1.00  0.00     0.173 A 
ATOM     91  C   UNL A   1      43.633  34.638  28.117  1.00  0.00     0.173 A 
ATOM     92  F   UNL A   1      44.157  34.753  31.708  1.00  0.00    -0.203 F 
ATOM     93  C   UNL A   1      44.315  36.423  30.099  1.00  0.00     0.198 A 
ATOM     94  C   UNL A   1      44.023  35.935  27.788  1.00  0.00     0.198 A 
ATOM     95  F   UNL A   1      43.325  33.844  27.081  1.00  0.00    -0.203 F 
ATOM     96  F   UNL A   1      44.629  37.287  31.074  1.00  0.00    -0.200 F 
ATOM     97  C   UNL A   1      44.338  36.836  28.782  1.00  0.00     0.200 A 
ATOM     98  F   UNL A   1      44.113  36.296  26.500  1.00  0.00    -0.200 F 
ATOM     99  F   UNL A   1      44.689  38.091  28.470  1.00  0.00    -0.200 F 
ENDBRANCH  66  89
ENDBRANCH  40  41
ENDBRANCH  32  35
ENDBRANCH  30  31
ENDBRANCH  29  30
ENDBRANCH  28  29
ENDBRANCH   1  28
TORSDOF 19
ENDMDL
