MODEL 1
REMARK VINA RESULT:     -11.2      0.000      0.000
REMARK SMILES O=C(/C=C\N1CC[C@@H](O)C1)NCCCCCCNC(=O)c1ccc(-c2c3nc(c(-c4c(F)c(F)c(F)c(F)c4F)c4ccc([nH]4)c(-c4c(F)c(F)c(F)c(F)c4F)c4nc(c(-c5c(F)c(F)c(F)c(F)c5F)c5ccc2[nH]5)C=C4)C=C3)cc1
REMARK SMILES IDX 14 1 13 2 12 3 11 4 1 5 2 6 3 8 4 9 5 10 6 11 10 12 7 13
REMARK SMILES IDX 8 14 9 15 15 17 16 18 17 19 18 20 19 21 20 23 21 24 22 25
REMARK SMILES IDX 83 26 23 27 82 28 24 29 25 30 26 31 76 32 27 33 81 34 75 35
REMARK SMILES IDX 77 36 28 37 80 38 74 39 73 40 29 42 61 43 41 44 60 45 42 46
REMARK SMILES IDX 45 47 59 48 78 49 43 50 44 51 58 53 79 54 46 55 30 56 31 57
REMARK SMILES IDX 39 58 32 59 33 60 37 61 40 62 34 63 35 64 38 65 36 66 62 67
REMARK SMILES IDX 63 68 71 69 64 70 65 71 69 72 72 73 66 74 67 75 70 76 68 77
REMARK SMILES IDX 47 78 48 79 56 80 49 81 50 82 54 83 57 84 51 85 52 86 55 87
REMARK SMILES IDX 53 88
REMARK H PARENT 11 7 9 16 18 22 77 41 45 52
REMARK Flexibility Score: inf
ROOT
ATOM      1  C   UNL A   1      33.256  30.022  26.811  1.00  0.00     0.002 C 
ENDROOT
BRANCH   1   2
ATOM      2  C   UNL A   1      33.554  28.560  26.462  1.00  0.00     0.021 C 
BRANCH   2   3
ATOM      3  C   UNL A   1      33.316  28.150  25.005  1.00  0.00     0.116 C 
BRANCH   3   4
ATOM      4  N   UNL A   1      31.945  27.786  24.709  1.00  0.00    -0.353 N 
ATOM      5  O   UNL A   1      31.615  29.313  23.032  1.00  0.00    -0.270 OA
ATOM      6  C   UNL A   1      31.207  28.388  23.727  1.00  0.00     0.245 C 
ATOM      7  H   UNL A   1      31.525  27.071  25.240  1.00  0.00     0.163 HD
BRANCH   6   8
ATOM      8  C   UNL A   1      29.893  27.757  23.416  1.00  0.00     0.088 C 
ATOM      9  C   UNL A   1      28.711  28.263  23.037  1.00  0.00     0.086 C 
BRANCH   9  10
ATOM     10  N   UNL A   1      28.273  29.520  22.691  1.00  0.00    -0.375 N 
ATOM     11  C   UNL A   1      27.671  30.484  23.628  1.00  0.00     0.119 C 
ATOM     12  C   UNL A   1      28.157  30.057  21.335  1.00  0.00     0.147 C 
ATOM     13  C   UNL A   1      27.537  31.788  22.820  1.00  0.00     0.055 C 
ATOM     14  C   UNL A   1      28.407  31.543  21.594  1.00  0.00     0.135 C 
BRANCH  14  15
ATOM     15  O   UNL A   1      29.775  31.764  21.960  1.00  0.00    -0.391 OA
ATOM     16  H   UNL A   1      29.856  32.621  22.406  1.00  0.00     0.211 HD
ENDBRANCH  14  15
ENDBRANCH   9  10
ENDBRANCH   6   8
ENDBRANCH   3   4
ENDBRANCH   2   3
ENDBRANCH   1   2
BRANCH   1  17
ATOM     17  C   UNL A   1      31.797  30.460  26.674  1.00  0.00     0.002 C 
BRANCH  17  18
ATOM     18  C   UNL A   1      31.558  31.958  26.795  1.00  0.00     0.021 C 
BRANCH  18  19
ATOM     19  C   UNL A   1      32.748  32.746  27.324  1.00  0.00     0.116 C 
BRANCH  19  20
ATOM     20  N   UNL A   1      32.434  34.129  27.663  1.00  0.00    -0.352 N 
ATOM     21  C   UNL A   1      33.036  34.949  28.589  1.00  0.00     0.251 C 
ATOM     22  H   UNL A   1      31.688  34.531  27.160  1.00  0.00     0.163 HD
ATOM     23  O   UNL A   1      32.597  36.066  28.823  1.00  0.00    -0.269 OA
BRANCH  21  24
ATOM     24  C   UNL A   1      34.204  34.438  29.337  1.00  0.00     0.039 A 
ATOM     25  C   UNL A   1      33.989  33.683  30.492  1.00  0.00     0.014 A 
ATOM     26  C   UNL A   1      35.498  34.639  28.852  1.00  0.00     0.014 A 
ATOM     27  C   UNL A   1      35.071  33.056  31.112  1.00  0.00     0.010 A 
ATOM     28  C   UNL A   1      36.556  33.935  29.410  1.00  0.00     0.010 A 
ATOM     29  C   UNL A   1      36.355  33.139  30.548  1.00  0.00    -0.014 A 
BRANCH  29  30
ATOM     30  C   UNL A   1      37.502  32.399  31.132  1.00  0.00     0.031 A 
ATOM     31  C   UNL A   1      37.988  32.734  32.514  1.00  0.00     0.074 A 
ATOM     32  C   UNL A   1      38.148  31.478  30.391  1.00  0.00     0.049 A 
ATOM     33  N   UNL A   1      38.993  32.230  33.184  1.00  0.00    -0.248 NA
ATOM     34  C   UNL A   1      37.275  33.809  33.224  1.00  0.00     0.031 C 
ATOM     35  C   UNL A   1      37.818  31.117  29.012  1.00  0.00     0.029 A 
ATOM     36  N   UNL A   1      39.220  30.678  30.696  1.00  0.00    -0.354 N 
ATOM     37  C   UNL A   1      39.046  32.941  34.375  1.00  0.00     0.074 A 
ATOM     38  C   UNL A   1      38.015  33.952  34.312  1.00  0.00     0.031 C 
ATOM     39  C   UNL A   1      38.639  30.135  28.606  1.00  0.00     0.029 A 
ATOM     40  C   UNL A   1      39.573  29.822  29.682  1.00  0.00     0.049 A 
ATOM     41  H   UNL A   1      39.692  30.716  31.559  1.00  0.00     0.167 HD
ATOM     42  C   UNL A   1      39.861  32.749  35.439  1.00  0.00     0.037 A 
ATOM     43  C   UNL A   1      40.534  28.880  29.636  1.00  0.00     0.037 A 
ATOM     44  C   UNL A   1      40.856  31.712  35.515  1.00  0.00     0.049 A 
ATOM     45  C   UNL A   1      41.408  28.666  30.841  1.00  0.00     0.074 A 
ATOM     46  C   UNL A   1      41.668  31.369  36.580  1.00  0.00     0.029 A 
ATOM     47  N   UNL A   1      41.172  30.848  34.475  1.00  0.00    -0.354 N 
ATOM     48  N   UNL A   1      41.388  29.280  31.999  1.00  0.00    -0.248 NA
ATOM     49  C   UNL A   1      42.435  27.622  30.732  1.00  0.00     0.031 C 
ATOM     50  C   UNL A   1      42.507  30.326  36.172  1.00  0.00     0.029 A 
ATOM     51  C   UNL A   1      42.186  29.988  34.867  1.00  0.00     0.049 A 
ATOM     52  H   UNL A   1      40.740  30.847  33.591  1.00  0.00     0.167 HD
ATOM     53  C   UNL A   1      42.375  28.678  32.767  1.00  0.00     0.074 A 
ATOM     54  C   UNL A   1      42.966  27.640  31.946  1.00  0.00     0.031 C 
ATOM     55  C   UNL A   1      42.759  28.960  34.037  1.00  0.00     0.037 A 
BRANCH  42  56
ATOM     56  C   UNL A   1      39.705  33.681  36.605  1.00  0.00     0.064 A 
ATOM     57  C   UNL A   1      38.895  33.360  37.705  1.00  0.00     0.173 A 
ATOM     58  C   UNL A   1      40.378  34.912  36.626  1.00  0.00     0.173 A 
ATOM     59  F   UNL A   1      38.217  32.202  37.729  1.00  0.00    -0.203 F 
ATOM     60  C   UNL A   1      38.731  34.252  38.762  1.00  0.00     0.198 A 
ATOM     61  C   UNL A   1      40.239  35.788  37.701  1.00  0.00     0.198 A 
ATOM     62  F   UNL A   1      41.171  35.268  35.604  1.00  0.00    -0.203 F 
ATOM     63  F   UNL A   1      37.901  33.949  39.769  1.00  0.00    -0.200 F 
ATOM     64  C   UNL A   1      39.407  35.462  38.760  1.00  0.00     0.200 A 
ATOM     65  F   UNL A   1      40.902  36.952  37.704  1.00  0.00    -0.200 F 
ATOM     66  F   UNL A   1      39.249  36.320  39.778  1.00  0.00    -0.200 F 
ENDBRANCH  42  56
BRANCH  43  67
ATOM     67  C   UNL A   1      40.679  28.026  28.428  1.00  0.00     0.064 A 
ATOM     68  C   UNL A   1      40.035  26.783  28.354  1.00  0.00     0.173 A 
ATOM     69  C   UNL A   1      41.455  28.426  27.331  1.00  0.00     0.173 A 
ATOM     70  F   UNL A   1      39.298  26.349  29.387  1.00  0.00    -0.203 F 
ATOM     71  C   UNL A   1      40.174  25.965  27.236  1.00  0.00     0.198 A 
ATOM     72  C   UNL A   1      41.574  27.617  26.203  1.00  0.00     0.198 A 
ATOM     73  F   UNL A   1      42.089  29.607  27.351  1.00  0.00    -0.203 F 
ATOM     74  F   UNL A   1      39.579  24.764  27.209  1.00  0.00    -0.200 F 
ATOM     75  C   UNL A   1      40.939  26.384  26.158  1.00  0.00     0.200 A 
ATOM     76  F   UNL A   1      42.304  28.030  25.158  1.00  0.00    -0.200 F 
ATOM     77  F   UNL A   1      41.070  25.599  25.081  1.00  0.00    -0.200 F 
ENDBRANCH  43  67
BRANCH  55  78
ATOM     78  C   UNL A   1      43.850  28.112  34.622  1.00  0.00     0.064 A 
ATOM     79  C   UNL A   1      45.196  28.501  34.564  1.00  0.00     0.173 A 
ATOM     80  C   UNL A   1      43.541  26.906  35.270  1.00  0.00     0.173 A 
ATOM     81  F   UNL A   1      45.545  29.637  33.941  1.00  0.00    -0.203 F 
ATOM     82  C   UNL A   1      46.197  27.696  35.103  1.00  0.00     0.198 A 
ATOM     83  C   UNL A   1      44.540  26.121  35.836  1.00  0.00     0.198 A 
ATOM     84  F   UNL A   1      42.268  26.493  35.359  1.00  0.00    -0.203 F 
ATOM     85  F   UNL A   1      47.481  28.060  34.986  1.00  0.00    -0.200 F 
ATOM     86  C   UNL A   1      45.867  26.511  35.744  1.00  0.00     0.200 A 
ATOM     87  F   UNL A   1      44.220  24.982  36.465  1.00  0.00    -0.200 F 
ATOM     88  F   UNL A   1      46.832  25.740  36.264  1.00  0.00    -0.200 F 
ENDBRANCH  55  78
ENDBRANCH  29  30
ENDBRANCH  21  24
ENDBRANCH  19  20
ENDBRANCH  18  19
ENDBRANCH  17  18
ENDBRANCH   1  17
TORSDOF 15
ENDMDL
MODEL 2
REMARK VINA RESULT:     -11.1      4.913     10.944
REMARK SMILES O=C(/C=C\N1CC[C@@H](O)C1)NCCCCCCNC(=O)c1ccc(-c2c3nc(c(-c4c(F)c(F)c(F)c(F)c4F)c4ccc([nH]4)c(-c4c(F)c(F)c(F)c(F)c4F)c4nc(c(-c5c(F)c(F)c(F)c(F)c5F)c5ccc2[nH]5)C=C4)C=C3)cc1
REMARK SMILES IDX 14 1 13 2 12 3 11 4 1 5 2 6 3 8 4 9 5 10 6 11 10 12 7 13
REMARK SMILES IDX 8 14 9 15 15 17 16 18 17 19 18 20 19 21 20 23 21 24 22 25
REMARK SMILES IDX 83 26 23 27 82 28 24 29 25 30 26 31 76 32 27 33 81 34 75 35
REMARK SMILES IDX 77 36 28 37 80 38 74 39 73 40 29 42 61 43 41 44 60 45 42 46
REMARK SMILES IDX 45 47 59 48 78 49 43 50 44 51 58 53 79 54 46 55 30 56 31 57
REMARK SMILES IDX 39 58 32 59 33 60 37 61 40 62 34 63 35 64 38 65 36 66 62 67
REMARK SMILES IDX 63 68 71 69 64 70 65 71 69 72 72 73 66 74 67 75 70 76 68 77
REMARK SMILES IDX 47 78 48 79 56 80 49 81 50 82 54 83 57 84 51 85 52 86 55 87
REMARK SMILES IDX 53 88
REMARK H PARENT 11 7 9 16 18 22 77 41 45 52
REMARK Flexibility Score: inf
ROOT
ATOM      1  C   UNL A   1      44.975  23.279  28.072  1.00  0.00     0.002 C 
ENDROOT
BRANCH   1   2
ATOM      2  C   UNL A   1      44.099  22.986  29.294  1.00  0.00     0.021 C 
BRANCH   2   3
ATOM      3  C   UNL A   1      42.665  22.531  29.007  1.00  0.00     0.116 C 
BRANCH   3   4
ATOM      4  N   UNL A   1      42.574  21.256  28.324  1.00  0.00    -0.353 N 
ATOM      5  O   UNL A   1      41.221  21.961  26.614  1.00  0.00    -0.270 OA
ATOM      6  C   UNL A   1      41.870  21.078  27.165  1.00  0.00     0.245 C 
ATOM      7  H   UNL A   1      43.040  20.481  28.713  1.00  0.00     0.163 HD
BRANCH   6   8
ATOM      8  C   UNL A   1      42.048  19.763  26.486  1.00  0.00     0.088 C 
ATOM      9  C   UNL A   1      42.966  19.305  25.624  1.00  0.00     0.086 C 
BRANCH   9  10
ATOM     10  N   UNL A   1      44.140  19.811  25.114  1.00  0.00    -0.375 N 
ATOM     11  C   UNL A   1      44.584  21.207  25.265  1.00  0.00     0.119 C 
ATOM     12  C   UNL A   1      45.054  19.130  24.198  1.00  0.00     0.147 C 
ATOM     13  C   UNL A   1      46.019  21.226  24.707  1.00  0.00     0.055 C 
ATOM     14  C   UNL A   1      46.388  19.752  24.611  1.00  0.00     0.135 C 
BRANCH  14  15
ATOM     15  O   UNL A   1      46.770  19.297  25.915  1.00  0.00    -0.391 OA
ATOM     16  H   UNL A   1      45.978  19.048  26.415  1.00  0.00     0.211 HD
ENDBRANCH  14  15
ENDBRANCH   9  10
ENDBRANCH   6   8
ENDBRANCH   3   4
ENDBRANCH   2   3
ENDBRANCH   1   2
BRANCH   1  17
ATOM     17  C   UNL A   1      45.936  24.461  28.204  1.00  0.00     0.002 C 
BRANCH  17  18
ATOM     18  C   UNL A   1      46.863  24.677  27.015  1.00  0.00     0.021 C 
BRANCH  18  19
ATOM     19  C   UNL A   1      46.303  25.593  25.938  1.00  0.00     0.116 C 
BRANCH  19  20
ATOM     20  N   UNL A   1      45.371  24.933  25.030  1.00  0.00    -0.352 N 
ATOM     21  C   UNL A   1      43.995  24.950  25.043  1.00  0.00     0.251 C 
ATOM     22  H   UNL A   1      45.783  24.402  24.311  1.00  0.00     0.163 HD
ATOM     23  O   UNL A   1      43.349  24.268  24.262  1.00  0.00    -0.269 OA
BRANCH  21  24
ATOM     24  C   UNL A   1      43.305  25.778  26.055  1.00  0.00     0.039 A 
ATOM     25  C   UNL A   1      42.230  25.230  26.756  1.00  0.00     0.014 A 
ATOM     26  C   UNL A   1      43.773  27.058  26.359  1.00  0.00     0.014 A 
ATOM     27  C   UNL A   1      41.677  25.938  27.826  1.00  0.00     0.010 A 
ATOM     28  C   UNL A   1      43.290  27.715  27.483  1.00  0.00     0.010 A 
ATOM     29  C   UNL A   1      42.235  27.163  28.226  1.00  0.00    -0.014 A 
BRANCH  29  30
ATOM     30  C   UNL A   1      41.731  27.885  29.422  1.00  0.00     0.031 A 
ATOM     31  C   UNL A   1      42.420  27.721  30.746  1.00  0.00     0.074 A 
ATOM     32  C   UNL A   1      40.611  28.628  29.329  1.00  0.00     0.049 A 
ATOM     33  N   UNL A   1      42.113  28.235  31.910  1.00  0.00    -0.248 NA
ATOM     34  C   UNL A   1      43.590  26.827  30.777  1.00  0.00     0.031 C 
ATOM     35  C   UNL A   1      39.810  28.806  28.116  1.00  0.00     0.029 A 
ATOM     36  N   UNL A   1      39.951  29.374  30.273  1.00  0.00    -0.354 N 
ATOM     37  C   UNL A   1      43.031  27.708  32.809  1.00  0.00     0.074 A 
ATOM     38  C   UNL A   1      43.867  26.788  32.071  1.00  0.00     0.031 C 
ATOM     39  C   UNL A   1      38.795  29.645  28.378  1.00  0.00     0.029 A 
ATOM     40  C   UNL A   1      38.854  30.037  29.782  1.00  0.00     0.049 A 
ATOM     41  H   UNL A   1      40.238  29.427  31.213  1.00  0.00     0.167 HD
ATOM     42  C   UNL A   1      43.183  27.989  34.124  1.00  0.00     0.037 A 
ATOM     43  C   UNL A   1      38.001  30.878  30.397  1.00  0.00     0.037 A 
ATOM     44  C   UNL A   1      42.378  28.939  34.843  1.00  0.00     0.049 A 
ATOM     45  C   UNL A   1      38.209  31.197  31.852  1.00  0.00     0.074 A 
ATOM     46  C   UNL A   1      42.508  29.369  36.151  1.00  0.00     0.029 A 
ATOM     47  N   UNL A   1      41.286  29.609  34.309  1.00  0.00    -0.354 N 
ATOM     48  N   UNL A   1      39.138  30.767  32.670  1.00  0.00    -0.248 NA
ATOM     49  C   UNL A   1      37.250  32.125  32.466  1.00  0.00     0.031 C 
ATOM     50  C   UNL A   1      41.469  30.266  36.422  1.00  0.00     0.029 A 
ATOM     51  C   UNL A   1      40.718  30.431  35.269  1.00  0.00     0.049 A 
ATOM     52  H   UNL A   1      40.963  29.514  33.384  1.00  0.00     0.167 HD
ATOM     53  C   UNL A   1      38.896  31.393  33.885  1.00  0.00     0.074 A 
ATOM     54  C   UNL A   1      37.739  32.244  33.692  1.00  0.00     0.031 C 
ATOM     55  C   UNL A   1      39.569  31.273  35.057  1.00  0.00     0.037 A 
BRANCH  42  56
ATOM     56  C   UNL A   1      44.264  27.257  34.865  1.00  0.00     0.064 A 
ATOM     57  C   UNL A   1      45.558  27.786  34.999  1.00  0.00     0.173 A 
ATOM     58  C   UNL A   1      44.004  26.010  35.455  1.00  0.00     0.173 A 
ATOM     59  F   UNL A   1      45.864  28.968  34.442  1.00  0.00    -0.203 F 
ATOM     60  C   UNL A   1      46.559  27.078  35.657  1.00  0.00     0.198 A 
ATOM     61  C   UNL A   1      45.000  25.320  36.142  1.00  0.00     0.198 A 
ATOM     62  F   UNL A   1      42.784  25.459  35.363  1.00  0.00    -0.203 F 
ATOM     63  F   UNL A   1      47.802  27.575  35.714  1.00  0.00    -0.200 F 
ATOM     64  C   UNL A   1      46.278  25.848  36.232  1.00  0.00     0.200 A 
ATOM     65  F   UNL A   1      44.723  24.137  36.708  1.00  0.00    -0.200 F 
ATOM     66  F   UNL A   1      47.243  25.168  36.866  1.00  0.00    -0.200 F 
ENDBRANCH  42  56
BRANCH  43  67
ATOM     67  C   UNL A   1      36.911  31.527  29.623  1.00  0.00     0.064 A 
ATOM     68  C   UNL A   1      36.963  32.899  29.334  1.00  0.00     0.173 A 
ATOM     69  C   UNL A   1      35.805  30.804  29.158  1.00  0.00     0.173 A 
ATOM     70  F   UNL A   1      37.992  33.636  29.776  1.00  0.00    -0.203 F 
ATOM     71  C   UNL A   1      35.942  33.525  28.624  1.00  0.00     0.198 A 
ATOM     72  C   UNL A   1      34.796  31.426  28.426  1.00  0.00     0.198 A 
ATOM     73  F   UNL A   1      35.709  29.489  29.405  1.00  0.00    -0.203 F 
ATOM     74  F   UNL A   1      35.998  34.844  28.396  1.00  0.00    -0.200 F 
ATOM     75  C   UNL A   1      34.861  32.787  28.164  1.00  0.00     0.200 A 
ATOM     76  F   UNL A   1      33.758  30.708  27.973  1.00  0.00    -0.200 F 
ATOM     77  F   UNL A   1      33.881  33.388  27.478  1.00  0.00    -0.200 F 
ENDBRANCH  43  67
BRANCH  55  78
ATOM     78  C   UNL A   1      39.086  32.106  36.208  1.00  0.00     0.064 A 
ATOM     79  C   UNL A   1      39.532  33.421  36.403  1.00  0.00     0.173 A 
ATOM     80  C   UNL A   1      38.148  31.588  37.114  1.00  0.00     0.173 A 
ATOM     81  F   UNL A   1      40.440  33.956  35.574  1.00  0.00    -0.203 F 
ATOM     82  C   UNL A   1      39.080  34.176  37.483  1.00  0.00     0.198 A 
ATOM     83  C   UNL A   1      37.676  32.356  38.173  1.00  0.00     0.198 A 
ATOM     84  F   UNL A   1      37.685  30.337  36.968  1.00  0.00    -0.203 F 
ATOM     85  F   UNL A   1      39.563  35.410  37.681  1.00  0.00    -0.200 F 
ATOM     86  C   UNL A   1      38.149  33.645  38.362  1.00  0.00     0.200 A 
ATOM     87  F   UNL A   1      36.766  31.846  39.016  1.00  0.00    -0.200 F 
ATOM     88  F   UNL A   1      37.715  34.375  39.400  1.00  0.00    -0.200 F 
ENDBRANCH  55  78
ENDBRANCH  29  30
ENDBRANCH  21  24
ENDBRANCH  19  20
ENDBRANCH  18  19
ENDBRANCH  17  18
ENDBRANCH   1  17
TORSDOF 15
ENDMDL
MODEL 3
REMARK VINA RESULT:     -11.1      2.367      3.759
REMARK SMILES O=C(/C=C\N1CC[C@@H](O)C1)NCCCCCCNC(=O)c1ccc(-c2c3nc(c(-c4c(F)c(F)c(F)c(F)c4F)c4ccc([nH]4)c(-c4c(F)c(F)c(F)c(F)c4F)c4nc(c(-c5c(F)c(F)c(F)c(F)c5F)c5ccc2[nH]5)C=C4)C=C3)cc1
REMARK SMILES IDX 14 1 13 2 12 3 11 4 1 5 2 6 3 8 4 9 5 10 6 11 10 12 7 13
REMARK SMILES IDX 8 14 9 15 15 17 16 18 17 19 18 20 19 21 20 23 21 24 22 25
REMARK SMILES IDX 83 26 23 27 82 28 24 29 25 30 26 31 76 32 27 33 81 34 75 35
REMARK SMILES IDX 77 36 28 37 80 38 74 39 73 40 29 42 61 43 41 44 60 45 42 46
REMARK SMILES IDX 45 47 59 48 78 49 43 50 44 51 58 53 79 54 46 55 30 56 31 57
REMARK SMILES IDX 39 58 32 59 33 60 37 61 40 62 34 63 35 64 38 65 36 66 62 67
REMARK SMILES IDX 63 68 71 69 64 70 65 71 69 72 72 73 66 74 67 75 70 76 68 77
REMARK SMILES IDX 47 78 48 79 56 80 49 81 50 82 54 83 57 84 51 85 52 86 55 87
REMARK SMILES IDX 53 88
REMARK H PARENT 11 7 9 16 18 22 77 41 45 52
REMARK Flexibility Score: inf
ROOT
ATOM      1  C   UNL A   1      32.492  29.683  27.257  1.00  0.00     0.002 C 
ENDROOT
BRANCH   1   2
ATOM      2  C   UNL A   1      31.827  28.322  27.485  1.00  0.00     0.021 C 
BRANCH   2   3
ATOM      3  C   UNL A   1      31.594  27.465  26.237  1.00  0.00     0.116 C 
BRANCH   3   4
ATOM      4  N   UNL A   1      30.917  26.210  26.498  1.00  0.00    -0.353 N 
ATOM      5  O   UNL A   1      31.783  25.059  24.716  1.00  0.00    -0.270 OA
ATOM      6  C   UNL A   1      31.082  25.096  25.722  1.00  0.00     0.245 C 
ATOM      7  H   UNL A   1      30.309  26.157  27.271  1.00  0.00     0.163 HD
BRANCH   6   8
ATOM      8  C   UNL A   1      30.480  23.838  26.246  1.00  0.00     0.088 C 
ATOM      9  C   UNL A   1      30.895  22.563  26.244  1.00  0.00     0.086 C 
BRANCH   9  10
ATOM     10  N   UNL A   1      32.059  21.935  25.863  1.00  0.00    -0.375 N 
ATOM     11  C   UNL A   1      33.406  22.324  26.313  1.00  0.00     0.119 C 
ATOM     12  C   UNL A   1      32.193  20.907  24.830  1.00  0.00     0.147 C 
ATOM     13  C   UNL A   1      34.334  21.216  25.784  1.00  0.00     0.055 C 
ATOM     14  C   UNL A   1      33.374  20.105  25.378  1.00  0.00     0.135 C 
BRANCH  14  15
ATOM     15  O   UNL A   1      32.988  19.390  26.558  1.00  0.00    -0.391 OA
ATOM     16  H   UNL A   1      32.085  19.639  26.806  1.00  0.00     0.211 HD
ENDBRANCH  14  15
ENDBRANCH   9  10
ENDBRANCH   6   8
ENDBRANCH   3   4
ENDBRANCH   2   3
ENDBRANCH   1   2
BRANCH   1  17
ATOM     17  C   UNL A   1      31.779  30.623  26.285  1.00  0.00     0.002 C 
BRANCH  17  18
ATOM     18  C   UNL A   1      31.446  32.000  26.845  1.00  0.00     0.021 C 
BRANCH  18  19
ATOM     19  C   UNL A   1      32.657  32.818  27.267  1.00  0.00     0.116 C 
BRANCH  19  20
ATOM     20  N   UNL A   1      32.341  34.200  27.611  1.00  0.00    -0.352 N 
ATOM     21  C   UNL A   1      32.949  35.020  28.534  1.00  0.00     0.251 C 
ATOM     22  H   UNL A   1      31.590  34.600  27.116  1.00  0.00     0.163 HD
ATOM     23  O   UNL A   1      32.509  36.135  28.774  1.00  0.00    -0.269 OA
BRANCH  21  24
ATOM     24  C   UNL A   1      34.125  34.510  29.271  1.00  0.00     0.039 A 
ATOM     25  C   UNL A   1      33.928  33.861  30.491  1.00  0.00     0.014 A 
ATOM     26  C   UNL A   1      35.403  34.606  28.717  1.00  0.00     0.014 A 
ATOM     27  C   UNL A   1      35.007  33.231  31.114  1.00  0.00     0.010 A 
ATOM     28  C   UNL A   1      36.452  33.896  29.285  1.00  0.00     0.010 A 
ATOM     29  C   UNL A   1      36.266  33.204  30.491  1.00  0.00    -0.014 A 
BRANCH  29  30
ATOM     30  C   UNL A   1      37.402  32.455  31.085  1.00  0.00     0.031 A 
ATOM     31  C   UNL A   1      37.884  32.790  32.467  1.00  0.00     0.074 A 
ATOM     32  C   UNL A   1      38.044  31.525  30.351  1.00  0.00     0.049 A 
ATOM     33  N   UNL A   1      38.880  32.278  33.145  1.00  0.00    -0.248 NA
ATOM     34  C   UNL A   1      37.178  33.874  33.170  1.00  0.00     0.031 C 
ATOM     35  C   UNL A   1      37.717  31.161  28.971  1.00  0.00     0.029 A 
ATOM     36  N   UNL A   1      39.106  30.715  30.664  1.00  0.00    -0.354 N 
ATOM     37  C   UNL A   1      38.934  32.993  34.334  1.00  0.00     0.074 A 
ATOM     38  C   UNL A   1      37.913  34.014  34.262  1.00  0.00     0.031 C 
ATOM     39  C   UNL A   1      38.531  30.170  28.573  1.00  0.00     0.029 A 
ATOM     40  C   UNL A   1      39.456  29.851  29.655  1.00  0.00     0.049 A 
ATOM     41  H   UNL A   1      39.574  30.751  31.530  1.00  0.00     0.167 HD
ATOM     42  C   UNL A   1      39.742  32.798  35.403  1.00  0.00     0.037 A 
ATOM     43  C   UNL A   1      40.408  28.901  29.618  1.00  0.00     0.037 A 
ATOM     44  C   UNL A   1      40.725  31.751  35.488  1.00  0.00     0.049 A 
ATOM     45  C   UNL A   1      41.273  28.683  30.829  1.00  0.00     0.074 A 
ATOM     46  C   UNL A   1      41.528  31.404  36.559  1.00  0.00     0.029 A 
ATOM     47  N   UNL A   1      41.039  30.880  34.453  1.00  0.00    -0.354 N 
ATOM     48  N   UNL A   1      41.252  29.301  31.984  1.00  0.00    -0.248 NA
ATOM     49  C   UNL A   1      42.290  27.627  30.730  1.00  0.00     0.031 C 
ATOM     50  C   UNL A   1      42.359  30.352  36.159  1.00  0.00     0.029 A 
ATOM     51  C   UNL A   1      42.042  30.012  34.854  1.00  0.00     0.049 A 
ATOM     52  H   UNL A   1      40.612  30.880  33.567  1.00  0.00     0.167 HD
ATOM     53  C   UNL A   1      42.229  28.692  32.760  1.00  0.00     0.074 A 
ATOM     54  C   UNL A   1      42.815  27.646  31.946  1.00  0.00     0.031 C 
ATOM     55  C   UNL A   1      42.610  28.976  34.031  1.00  0.00     0.037 A 
BRANCH  42  56
ATOM     56  C   UNL A   1      39.588  33.736  36.565  1.00  0.00     0.064 A 
ATOM     57  C   UNL A   1      40.263  34.966  36.615  1.00  0.00     0.173 A 
ATOM     58  C   UNL A   1      38.752  33.404  37.641  1.00  0.00     0.173 A 
ATOM     59  F   UNL A   1      41.086  35.326  35.618  1.00  0.00    -0.203 F 
ATOM     60  C   UNL A   1      40.138  35.809  37.717  1.00  0.00     0.198 A 
ATOM     61  C   UNL A   1      38.604  34.265  38.726  1.00  0.00     0.198 A 
ATOM     62  F   UNL A   1      38.079  32.244  37.643  1.00  0.00    -0.203 F 
ATOM     63  F   UNL A   1      40.843  36.947  37.770  1.00  0.00    -0.200 F 
ATOM     64  C   UNL A   1      39.306  35.459  38.768  1.00  0.00     0.200 A 
ATOM     65  F   UNL A   1      37.789  33.932  39.737  1.00  0.00    -0.200 F 
ATOM     66  F   UNL A   1      39.187  36.271  39.828  1.00  0.00    -0.200 F 
ENDBRANCH  42  56
BRANCH  43  67
ATOM     67  C   UNL A   1      40.551  28.041  28.414  1.00  0.00     0.064 A 
ATOM     68  C   UNL A   1      39.905  26.798  28.347  1.00  0.00     0.173 A 
ATOM     69  C   UNL A   1      41.328  28.433  27.315  1.00  0.00     0.173 A 
ATOM     70  F   UNL A   1      39.167  26.371  29.382  1.00  0.00    -0.203 F 
ATOM     71  C   UNL A   1      40.042  25.974  27.233  1.00  0.00     0.198 A 
ATOM     72  C   UNL A   1      41.445  27.619  26.191  1.00  0.00     0.198 A 
ATOM     73  F   UNL A   1      41.964  29.614  27.329  1.00  0.00    -0.203 F 
ATOM     74  F   UNL A   1      39.445  24.775  27.211  1.00  0.00    -0.200 F 
ATOM     75  C   UNL A   1      40.807  26.387  26.152  1.00  0.00     0.200 A 
ATOM     76  F   UNL A   1      42.175  28.026  25.144  1.00  0.00    -0.200 F 
ATOM     77  F   UNL A   1      40.937  25.596  25.079  1.00  0.00    -0.200 F 
ENDBRANCH  43  67
BRANCH  55  78
ATOM     78  C   UNL A   1      43.689  28.119  34.625  1.00  0.00     0.064 A 
ATOM     79  C   UNL A   1      43.398  26.904  35.261  1.00  0.00     0.173 A 
ATOM     80  C   UNL A   1      45.034  28.510  34.537  1.00  0.00     0.173 A 
ATOM     81  F   UNL A   1      42.127  26.494  35.386  1.00  0.00    -0.203 F 
ATOM     82  C   UNL A   1      44.412  26.126  35.816  1.00  0.00     0.198 A 
ATOM     83  C   UNL A   1      46.047  27.715  35.064  1.00  0.00     0.198 A 
ATOM     84  F   UNL A   1      45.366  29.660  33.932  1.00  0.00    -0.203 F 
ATOM     85  F   UNL A   1      44.105  24.997  36.468  1.00  0.00    -0.200 F 
ATOM     86  C   UNL A   1      45.734  26.530  35.712  1.00  0.00     0.200 A 
ATOM     87  F   UNL A   1      47.326  28.100  34.952  1.00  0.00    -0.200 F 
ATOM     88  F   UNL A   1      46.708  25.778  36.245  1.00  0.00    -0.200 F 
ENDBRANCH  55  78
ENDBRANCH  29  30
ENDBRANCH  21  24
ENDBRANCH  19  20
ENDBRANCH  18  19
ENDBRANCH  17  18
ENDBRANCH   1  17
TORSDOF 15
ENDMDL
