MODEL 1
REMARK VINA RESULT:     -13.2      0.000      0.000
REMARK SMILES Cc1ccc(C(=O)N2C[C@H](C(=O)NCCCCCCNC(=O)c3ccc(-c4c5nc(c(-c6c(F)c(F)c(F)c(F)c6F)c6ccc([nH]6)c(-c6c(F)c(F)c(F)c(F)c6F)c6nc(c(-c7c(F)c(F)c(F)c(F)c7F)c7ccc4[nH]7)C=C6)C=C5)cc3)Oc3ccccc32)o1
REMARK SMILES IDX 16 1 15 2 14 3 13 4 11 5 12 6 10 8 8 9 9 10 92 11 87 12
REMARK SMILES IDX 91 13 86 14 88 15 90 16 89 17 6 18 7 19 5 20 1 21 2 22 3 23
REMARK SMILES IDX 93 24 4 25 17 26 18 27 19 28 20 29 21 30 22 32 23 33 24 34
REMARK SMILES IDX 85 35 25 36 84 37 26 38 27 39 28 40 78 41 29 42 83 43 77 44
REMARK SMILES IDX 79 45 30 46 82 47 76 48 75 49 31 51 63 52 43 53 62 54 44 55
REMARK SMILES IDX 47 56 61 57 80 58 45 59 46 60 60 62 81 63 48 64 32 65 33 66
REMARK SMILES IDX 41 67 34 68 35 69 39 70 42 71 36 72 37 73 40 74 38 75 64 76
REMARK SMILES IDX 65 77 73 78 66 79 67 80 71 81 74 82 68 83 69 84 72 85 70 86
REMARK SMILES IDX 49 87 50 88 58 89 51 90 52 91 56 92 59 93 53 94 54 95 57 96
REMARK SMILES IDX 55 97
REMARK H PARENT 13 7 20 31 79 50 47 61
REMARK Flexibility Score: inf
ROOT
ATOM      1  C   UNL A   1      35.518  21.113  25.551  1.00  0.00     0.002 C 
ENDROOT
BRANCH   1   2
ATOM      2  C   UNL A   1      34.469  22.164  25.170  1.00  0.00     0.021 C 
BRANCH   2   3
ATOM      3  C   UNL A   1      34.199  23.217  26.243  1.00  0.00     0.116 C 
BRANCH   3   4
ATOM      4  N   UNL A   1      32.846  23.111  26.763  1.00  0.00    -0.353 N 
ATOM      5  C   UNL A   1      31.810  24.000  26.713  1.00  0.00     0.262 C 
ATOM      6  O   UNL A   1      30.748  23.669  27.250  1.00  0.00    -0.271 OA
ATOM      7  H   UNL A   1      32.644  22.264  27.222  1.00  0.00     0.163 HD
BRANCH   5   8
ATOM      8  C   UNL A   1      31.968  25.384  26.075  1.00  0.00     0.281 C 
ATOM      9  N   UNL A   1      30.937  26.952  24.469  1.00  0.00    -0.298 N 
ATOM     10  C   UNL A   1      30.842  25.622  25.076  1.00  0.00     0.181 C 
ATOM     11  C   UNL A   1      31.442  27.984  25.324  1.00  0.00     0.087 A 
ATOM     12  C   UNL A   1      31.918  27.660  26.607  1.00  0.00     0.144 A 
ATOM     13  C   UNL A   1      31.389  29.338  24.964  1.00  0.00     0.030 A 
ATOM     14  O   UNL A   1      32.013  26.381  27.095  1.00  0.00    -0.477 OA
ATOM     15  C   UNL A   1      32.300  28.660  27.505  1.00  0.00     0.049 A 
ATOM     16  C   UNL A   1      31.784  30.337  25.861  1.00  0.00     0.002 A 
ATOM     17  C   UNL A   1      32.234  29.999  27.133  1.00  0.00     0.004 A 
BRANCH   9  18
ATOM     18  C   UNL A   1      30.595  27.182  23.127  1.00  0.00     0.294 C 
ATOM     19  O   UNL A   1      31.301  26.771  22.206  1.00  0.00    -0.265 OA
BRANCH  18  20
ATOM     20  C   UNL A   1      29.399  27.976  22.871  1.00  0.00     0.192 A 
ATOM     21  C   UNL A   1      28.268  30.918  21.165  1.00  0.00     0.087 C 
ATOM     22  C   UNL A   1      28.329  29.703  22.001  1.00  0.00     0.101 A 
ATOM     23  C   UNL A   1      27.431  29.080  22.837  1.00  0.00     0.046 A 
ATOM     24  O   UNL A   1      29.513  29.036  22.007  1.00  0.00    -0.456 OA
ATOM     25  C   UNL A   1      28.120  27.980  23.406  1.00  0.00     0.056 A 
ENDBRANCH  18  20
ENDBRANCH   9  18
ENDBRANCH   5   8
ENDBRANCH   3   4
ENDBRANCH   2   3
ENDBRANCH   1   2
BRANCH   1  26
ATOM     26  C   UNL A   1      36.758  21.059  24.653  1.00  0.00     0.002 C 
BRANCH  26  27
ATOM     27  C   UNL A   1      37.752  19.932  24.950  1.00  0.00     0.021 C 
BRANCH  27  28
ATOM     28  C   UNL A   1      38.956  20.323  25.805  1.00  0.00     0.116 C 
BRANCH  28  29
ATOM     29  N   UNL A   1      39.956  19.273  25.880  1.00  0.00    -0.352 N 
ATOM     30  C   UNL A   1      41.308  19.378  26.100  1.00  0.00     0.251 C 
ATOM     31  H   UNL A   1      39.617  18.357  25.756  1.00  0.00     0.163 HD
ATOM     32  O   UNL A   1      42.028  18.389  26.007  1.00  0.00    -0.269 OA
BRANCH  30  33
ATOM     33  C   UNL A   1      41.909  20.690  26.423  1.00  0.00     0.039 A 
ATOM     34  C   UNL A   1      42.203  21.569  25.376  1.00  0.00     0.014 A 
ATOM     35  C   UNL A   1      42.200  21.047  27.743  1.00  0.00     0.014 A 
ATOM     36  C   UNL A   1      42.727  22.833  25.655  1.00  0.00     0.010 A 
ATOM     37  C   UNL A   1      42.692  22.322  28.024  1.00  0.00     0.010 A 
ATOM     38  C   UNL A   1      42.950  23.227  26.983  1.00  0.00    -0.014 A 
BRANCH  38  39
ATOM     39  C   UNL A   1      43.434  24.590  27.308  1.00  0.00     0.031 A 
ATOM     40  C   UNL A   1      42.494  25.610  27.880  1.00  0.00     0.074 A 
ATOM     41  C   UNL A   1      44.702  24.931  27.017  1.00  0.00     0.049 A 
ATOM     42  N   UNL A   1      42.697  26.883  28.114  1.00  0.00    -0.248 NA
ATOM     43  C   UNL A   1      41.140  25.144  28.215  1.00  0.00     0.031 C 
ATOM     44  C   UNL A   1      45.706  24.039  26.437  1.00  0.00     0.029 A 
ATOM     45  N   UNL A   1      45.359  26.128  27.153  1.00  0.00    -0.354 N 
ATOM     46  C   UNL A   1      41.494  27.374  28.599  1.00  0.00     0.074 A 
ATOM     47  C   UNL A   1      40.560  26.267  28.614  1.00  0.00     0.031 C 
ATOM     48  C   UNL A   1      46.853  24.717  26.269  1.00  0.00     0.029 A 
ATOM     49  C   UNL A   1      46.655  26.098  26.703  1.00  0.00     0.049 A 
ATOM     50  H   UNL A   1      44.941  26.933  27.538  1.00  0.00     0.167 HD
ATOM     51  C   UNL A   1      41.198  28.633  29.001  1.00  0.00     0.037 A 
ATOM     52  C   UNL A   1      47.577  27.077  26.634  1.00  0.00     0.037 A 
ATOM     53  C   UNL A   1      42.133  29.725  29.023  1.00  0.00     0.049 A 
ATOM     54  C   UNL A   1      47.227  28.460  27.102  1.00  0.00     0.074 A 
ATOM     55  C   UNL A   1      41.937  31.021  29.472  1.00  0.00     0.029 A 
ATOM     56  N   UNL A   1      43.444  29.649  28.582  1.00  0.00    -0.354 N 
ATOM     57  N   UNL A   1      46.093  28.906  27.584  1.00  0.00    -0.248 NA
ATOM     58  C   UNL A   1      48.284  29.478  27.010  1.00  0.00     0.031 C 
ATOM     59  C   UNL A   1      43.127  31.734  29.283  1.00  0.00     0.029 A 
ATOM     60  C   UNL A   1      44.068  30.876  28.736  1.00  0.00     0.049 A 
ATOM     61  H   UNL A   1      43.870  28.841  28.212  1.00  0.00     0.167 HD
ATOM     62  C   UNL A   1      46.302  30.248  27.866  1.00  0.00     0.074 A 
ATOM     63  C   UNL A   1      47.674  30.545  27.508  1.00  0.00     0.031 C 
ATOM     64  C   UNL A   1      45.432  31.152  28.375  1.00  0.00     0.037 A 
BRANCH  51  65
ATOM     65  C   UNL A   1      39.796  28.896  29.449  1.00  0.00     0.064 A 
ATOM     66  C   UNL A   1      38.805  29.309  28.548  1.00  0.00     0.173 A 
ATOM     67  C   UNL A   1      39.431  28.702  30.790  1.00  0.00     0.173 A 
ATOM     68  F   UNL A   1      39.113  29.521  27.259  1.00  0.00    -0.203 F 
ATOM     69  C   UNL A   1      37.500  29.534  28.975  1.00  0.00     0.198 A 
ATOM     70  C   UNL A   1      38.122  28.912  31.210  1.00  0.00     0.198 A 
ATOM     71  F   UNL A   1      40.346  28.308  31.689  1.00  0.00    -0.203 F 
ATOM     72  F   UNL A   1      36.574  29.958  28.104  1.00  0.00    -0.200 F 
ATOM     73  C   UNL A   1      37.158  29.331  30.304  1.00  0.00     0.200 A 
ATOM     74  F   UNL A   1      37.791  28.713  32.494  1.00  0.00    -0.200 F 
ATOM     75  F   UNL A   1      35.901  29.547  30.715  1.00  0.00    -0.200 F 
ENDBRANCH  51  65
BRANCH  52  76
ATOM     76  C   UNL A   1      48.927  26.775  26.105  1.00  0.00     0.064 A 
ATOM     77  C   UNL A   1      49.225  26.978  24.751  1.00  0.00     0.173 A 
ATOM     78  C   UNL A   1      49.945  26.295  26.939  1.00  0.00     0.173 A 
ATOM     79  F   UNL A   1      48.273  27.419  23.916  1.00  0.00    -0.203 F 
ATOM     80  C   UNL A   1      50.494  26.704  24.248  1.00  0.00     0.198 A 
ATOM     81  C   UNL A   1      51.218  26.035  26.438  1.00  0.00     0.198 A 
ATOM     82  F   UNL A   1      49.704  26.087  28.242  1.00  0.00    -0.203 F 
ATOM     83  F   UNL A   1      50.749  26.884  22.945  1.00  0.00    -0.200 F 
ATOM     84  C   UNL A   1      51.491  26.238  25.092  1.00  0.00     0.200 A 
ATOM     85  F   UNL A   1      52.181  25.590  27.257  1.00  0.00    -0.200 F 
ATOM     86  F   UNL A   1      52.713  25.977  24.608  1.00  0.00    -0.200 F 
ENDBRANCH  52  76
BRANCH  64  87
ATOM     87  C   UNL A   1      45.943  32.542  28.591  1.00  0.00     0.064 A 
ATOM     88  C   UNL A   1      46.580  32.905  29.785  1.00  0.00     0.173 A 
ATOM     89  C   UNL A   1      45.825  33.508  27.581  1.00  0.00     0.173 A 
ATOM     90  F   UNL A   1      46.699  32.016  30.783  1.00  0.00    -0.203 F 
ATOM     91  C   UNL A   1      47.077  34.193  29.965  1.00  0.00     0.198 A 
ATOM     92  C   UNL A   1      46.335  34.791  27.760  1.00  0.00     0.198 A 
ATOM     93  F   UNL A   1      45.221  33.205  26.423  1.00  0.00    -0.203 F 
ATOM     94  F   UNL A   1      47.661  34.528  31.124  1.00  0.00    -0.200 F 
ATOM     95  C   UNL A   1      46.958  35.132  28.951  1.00  0.00     0.200 A 
ATOM     96  F   UNL A   1      46.221  35.698  26.781  1.00  0.00    -0.200 F 
ATOM     97  F   UNL A   1      47.438  36.371  29.127  1.00  0.00    -0.200 F 
ENDBRANCH  64  87
ENDBRANCH  38  39
ENDBRANCH  30  33
ENDBRANCH  28  29
ENDBRANCH  27  28
ENDBRANCH  26  27
ENDBRANCH   1  26
TORSDOF 15
ENDMDL
MODEL 2
REMARK VINA RESULT:     -13.0      4.601     10.387
REMARK SMILES Cc1ccc(C(=O)N2C[C@H](C(=O)NCCCCCCNC(=O)c3ccc(-c4c5nc(c(-c6c(F)c(F)c(F)c(F)c6F)c6ccc([nH]6)c(-c6c(F)c(F)c(F)c(F)c6F)c6nc(c(-c7c(F)c(F)c(F)c(F)c7F)c7ccc4[nH]7)C=C6)C=C5)cc3)Oc3ccccc32)o1
REMARK SMILES IDX 16 1 15 2 14 3 13 4 11 5 12 6 10 8 8 9 9 10 92 11 87 12
REMARK SMILES IDX 91 13 86 14 88 15 90 16 89 17 6 18 7 19 5 20 1 21 2 22 3 23
REMARK SMILES IDX 93 24 4 25 17 26 18 27 19 28 20 29 21 30 22 32 23 33 24 34
REMARK SMILES IDX 85 35 25 36 84 37 26 38 27 39 28 40 78 41 29 42 83 43 77 44
REMARK SMILES IDX 79 45 30 46 82 47 76 48 75 49 31 51 63 52 43 53 62 54 44 55
REMARK SMILES IDX 47 56 61 57 80 58 45 59 46 60 60 62 81 63 48 64 32 65 33 66
REMARK SMILES IDX 41 67 34 68 35 69 39 70 42 71 36 72 37 73 40 74 38 75 64 76
REMARK SMILES IDX 65 77 73 78 66 79 67 80 71 81 74 82 68 83 69 84 72 85 70 86
REMARK SMILES IDX 49 87 50 88 58 89 51 90 52 91 56 92 59 93 53 94 54 95 57 96
REMARK SMILES IDX 55 97
REMARK H PARENT 13 7 20 31 79 50 47 61
REMARK Flexibility Score: inf
ROOT
ATOM      1  C   UNL A   1      31.268  28.519  23.928  1.00  0.00     0.002 C 
ENDROOT
BRANCH   1   2
ATOM      2  C   UNL A   1      30.857  27.687  22.708  1.00  0.00     0.021 C 
BRANCH   2   3
ATOM      3  C   UNL A   1      31.184  26.198  22.810  1.00  0.00     0.116 C 
BRANCH   3   4
ATOM      4  N   UNL A   1      31.862  25.721  21.617  1.00  0.00    -0.353 N 
ATOM      5  C   UNL A   1      32.785  24.724  21.467  1.00  0.00     0.262 C 
ATOM      6  O   UNL A   1      33.225  24.521  20.330  1.00  0.00    -0.271 OA
ATOM      7  H   UNL A   1      31.618  26.189  20.787  1.00  0.00     0.163 HD
BRANCH   5   8
ATOM      8  C   UNL A   1      33.309  23.926  22.664  1.00  0.00     0.281 C 
ATOM      9  N   UNL A   1      33.134  21.751  23.822  1.00  0.00    -0.298 N 
ATOM     10  C   UNL A   1      32.633  22.561  22.710  1.00  0.00     0.181 C 
ATOM     11  C   UNL A   1      34.516  21.939  24.146  1.00  0.00     0.087 A 
ATOM     12  C   UNL A   1      35.259  22.938  23.491  1.00  0.00     0.144 A 
ATOM     13  C   UNL A   1      35.193  21.090  25.032  1.00  0.00     0.030 A 
ATOM     14  O   UNL A   1      34.731  23.829  22.592  1.00  0.00    -0.477 OA
ATOM     15  C   UNL A   1      36.637  23.061  23.698  1.00  0.00     0.049 A 
ATOM     16  C   UNL A   1      36.570  21.222  25.247  1.00  0.00     0.002 A 
ATOM     17  C   UNL A   1      37.292  22.204  24.577  1.00  0.00     0.004 A 
BRANCH   9  18
ATOM     18  C   UNL A   1      32.300  20.885  24.545  1.00  0.00     0.294 C 
ATOM     19  O   UNL A   1      31.567  21.300  25.443  1.00  0.00    -0.265 OA
BRANCH  18  20
ATOM     20  C   UNL A   1      32.379  19.463  24.227  1.00  0.00     0.192 A 
ATOM     21  C   UNL A   1      32.719  16.238  25.750  1.00  0.00     0.087 C 
ATOM     22  C   UNL A   1      32.601  17.332  24.767  1.00  0.00     0.101 A 
ATOM     23  C   UNL A   1      32.676  17.387  23.394  1.00  0.00     0.046 A 
ATOM     24  O   UNL A   1      32.410  18.578  25.275  1.00  0.00    -0.456 OA
ATOM     25  C   UNL A   1      32.546  18.755  23.047  1.00  0.00     0.056 A 
ENDBRANCH  18  20
ENDBRANCH   9  18
ENDBRANCH   5   8
ENDBRANCH   3   4
ENDBRANCH   2   3
ENDBRANCH   1   2
BRANCH   1  26
ATOM     26  C   UNL A   1      31.232  27.785  25.273  1.00  0.00     0.002 C 
BRANCH  26  27
ATOM     27  C   UNL A   1      32.233  28.268  26.327  1.00  0.00     0.021 C 
BRANCH  27  28
ATOM     28  C   UNL A   1      33.210  29.346  25.863  1.00  0.00     0.116 C 
BRANCH  28  29
ATOM     29  N   UNL A   1      32.810  30.681  26.269  1.00  0.00    -0.352 N 
ATOM     30  C   UNL A   1      33.393  31.520  27.188  1.00  0.00     0.251 C 
ATOM     31  H   UNL A   1      32.007  31.035  25.823  1.00  0.00     0.163 HD
ATOM     32  O   UNL A   1      32.845  32.572  27.500  1.00  0.00    -0.269 OA
BRANCH  30  33
ATOM     33  C   UNL A   1      34.672  31.145  27.828  1.00  0.00     0.039 A 
ATOM     34  C   UNL A   1      35.704  32.088  27.870  1.00  0.00     0.014 A 
ATOM     35  C   UNL A   1      34.865  29.869  28.365  1.00  0.00     0.014 A 
ATOM     36  C   UNL A   1      36.906  31.777  28.509  1.00  0.00     0.010 A 
ATOM     37  C   UNL A   1      36.052  29.571  29.034  1.00  0.00     0.010 A 
ATOM     38  C   UNL A   1      37.077  30.525  29.118  1.00  0.00    -0.014 A 
BRANCH  38  39
ATOM     39  C   UNL A   1      38.315  30.200  29.867  1.00  0.00     0.031 A 
ATOM     40  C   UNL A   1      39.315  29.240  29.295  1.00  0.00     0.074 A 
ATOM     41  C   UNL A   1      38.499  30.712  31.098  1.00  0.00     0.049 A 
ATOM     42  N   UNL A   1      40.391  28.739  29.849  1.00  0.00    -0.248 NA
ATOM     43  C   UNL A   1      39.064  28.764  27.926  1.00  0.00     0.031 C 
ATOM     44  C   UNL A   1      37.589  31.636  31.775  1.00  0.00     0.029 A 
ATOM     45  N   UNL A   1      39.509  30.513  32.006  1.00  0.00    -0.354 N 
ATOM     46  C   UNL A   1      40.931  27.873  28.909  1.00  0.00     0.074 A 
ATOM     47  C   UNL A   1      40.058  27.905  27.754  1.00  0.00     0.031 C 
ATOM     48  C   UNL A   1      38.082  31.927  32.990  1.00  0.00     0.029 A 
ATOM     49  C   UNL A   1      39.326  31.187  33.187  1.00  0.00     0.049 A 
ATOM     50  H   UNL A   1      40.291  29.941  31.828  1.00  0.00     0.167 HD
ATOM     51  C   UNL A   1      42.056  27.125  29.001  1.00  0.00     0.037 A 
ATOM     52  C   UNL A   1      40.070  31.197  34.309  1.00  0.00     0.037 A 
ATOM     53  C   UNL A   1      42.946  27.120  30.130  1.00  0.00     0.049 A 
ATOM     54  C   UNL A   1      41.322  30.371  34.377  1.00  0.00     0.074 A 
ATOM     55  C   UNL A   1      44.141  26.438  30.286  1.00  0.00     0.029 A 
ATOM     56  N   UNL A   1      42.738  27.835  31.299  1.00  0.00    -0.354 N 
ATOM     57  N   UNL A   1      41.836  29.576  33.471  1.00  0.00    -0.248 NA
ATOM     58  C   UNL A   1      42.094  30.438  35.627  1.00  0.00     0.031 C 
ATOM     59  C   UNL A   1      44.648  26.727  31.559  1.00  0.00     0.029 A 
ATOM     60  C   UNL A   1      43.777  27.604  32.186  1.00  0.00     0.049 A 
ATOM     61  H   UNL A   1      41.966  28.421  31.474  1.00  0.00     0.167 HD
ATOM     62  C   UNL A   1      42.995  29.060  34.033  1.00  0.00     0.074 A 
ATOM     63  C   UNL A   1      43.114  29.636  35.357  1.00  0.00     0.031 C 
ATOM     64  C   UNL A   1      43.880  28.186  33.497  1.00  0.00     0.037 A 
BRANCH  51  65
ATOM     65  C   UNL A   1      42.387  26.242  27.839  1.00  0.00     0.064 A 
ATOM     66  C   UNL A   1      43.287  26.650  26.844  1.00  0.00     0.173 A 
ATOM     67  C   UNL A   1      41.824  24.961  27.739  1.00  0.00     0.173 A 
ATOM     68  F   UNL A   1      43.838  27.872  26.894  1.00  0.00    -0.203 F 
ATOM     69  C   UNL A   1      43.600  25.811  25.779  1.00  0.00     0.198 A 
ATOM     70  C   UNL A   1      42.152  24.120  26.680  1.00  0.00     0.198 A 
ATOM     71  F   UNL A   1      40.958  24.529  28.667  1.00  0.00    -0.203 F 
ATOM     72  F   UNL A   1      44.439  26.231  24.821  1.00  0.00    -0.200 F 
ATOM     73  C   UNL A   1      43.037  24.546  25.699  1.00  0.00     0.200 A 
ATOM     74  F   UNL A   1      41.610  22.896  26.605  1.00  0.00    -0.200 F 
ATOM     75  F   UNL A   1      43.339  23.739  24.673  1.00  0.00    -0.200 F 
ENDBRANCH  51  65
BRANCH  52  76
ATOM     76  C   UNL A   1      39.649  32.030  35.460  1.00  0.00     0.064 A 
ATOM     77  C   UNL A   1      38.700  31.556  36.375  1.00  0.00     0.173 A 
ATOM     78  C   UNL A   1      40.194  33.303  35.674  1.00  0.00     0.173 A 
ATOM     79  F   UNL A   1      38.141  30.351  36.194  1.00  0.00    -0.203 F 
ATOM     80  C   UNL A   1      38.305  32.331  37.462  1.00  0.00     0.198 A 
ATOM     81  C   UNL A   1      39.808  34.071  36.771  1.00  0.00     0.198 A 
ATOM     82  F   UNL A   1      41.106  33.796  34.823  1.00  0.00    -0.203 F 
ATOM     83  F   UNL A   1      37.378  31.865  38.312  1.00  0.00    -0.200 F 
ATOM     84  C   UNL A   1      38.863  33.584  37.663  1.00  0.00     0.200 A 
ATOM     85  F   UNL A   1      40.353  35.279  36.965  1.00  0.00    -0.200 F 
ATOM     86  F   UNL A   1      38.484  34.328  38.712  1.00  0.00    -0.200 F 
ENDBRANCH  52  76
BRANCH  64  87
ATOM     87  C   UNL A   1      45.061  27.813  34.335  1.00  0.00     0.064 A 
ATOM     88  C   UNL A   1      46.246  28.561  34.295  1.00  0.00     0.173 A 
ATOM     89  C   UNL A   1      44.995  26.720  35.212  1.00  0.00     0.173 A 
ATOM     90  F   UNL A   1      46.356  29.604  33.458  1.00  0.00    -0.203 F 
ATOM     91  C   UNL A   1      47.330  28.223  35.100  1.00  0.00     0.198 A 
ATOM     92  C   UNL A   1      46.077  26.393  36.024  1.00  0.00     0.198 A 
ATOM     93  F   UNL A   1      43.882  25.976  35.281  1.00  0.00    -0.203 F 
ATOM     94  F   UNL A   1      48.463  28.935  35.028  1.00  0.00    -0.200 F 
ATOM     95  C   UNL A   1      47.243  27.142  35.966  1.00  0.00     0.200 A 
ATOM     96  F   UNL A   1      45.993  25.351  36.862  1.00  0.00    -0.200 F 
ATOM     97  F   UNL A   1      48.288  26.819  36.741  1.00  0.00    -0.200 F 
ENDBRANCH  64  87
ENDBRANCH  38  39
ENDBRANCH  30  33
ENDBRANCH  28  29
ENDBRANCH  27  28
ENDBRANCH  26  27
ENDBRANCH   1  26
TORSDOF 15
ENDMDL
MODEL 3
REMARK VINA RESULT:     -13.0      0.427      1.622
REMARK SMILES Cc1ccc(C(=O)N2C[C@H](C(=O)NCCCCCCNC(=O)c3ccc(-c4c5nc(c(-c6c(F)c(F)c(F)c(F)c6F)c6ccc([nH]6)c(-c6c(F)c(F)c(F)c(F)c6F)c6nc(c(-c7c(F)c(F)c(F)c(F)c7F)c7ccc4[nH]7)C=C6)C=C5)cc3)Oc3ccccc32)o1
REMARK SMILES IDX 16 1 15 2 14 3 13 4 11 5 12 6 10 8 8 9 9 10 92 11 87 12
REMARK SMILES IDX 91 13 86 14 88 15 90 16 89 17 6 18 7 19 5 20 1 21 2 22 3 23
REMARK SMILES IDX 93 24 4 25 17 26 18 27 19 28 20 29 21 30 22 32 23 33 24 34
REMARK SMILES IDX 85 35 25 36 84 37 26 38 27 39 28 40 78 41 29 42 83 43 77 44
REMARK SMILES IDX 79 45 30 46 82 47 76 48 75 49 31 51 63 52 43 53 62 54 44 55
REMARK SMILES IDX 47 56 61 57 80 58 45 59 46 60 60 62 81 63 48 64 32 65 33 66
REMARK SMILES IDX 41 67 34 68 35 69 39 70 42 71 36 72 37 73 40 74 38 75 64 76
REMARK SMILES IDX 65 77 73 78 66 79 67 80 71 81 74 82 68 83 69 84 72 85 70 86
REMARK SMILES IDX 49 87 50 88 58 89 51 90 52 91 56 92 59 93 53 94 54 95 57 96
REMARK SMILES IDX 55 97
REMARK H PARENT 13 7 20 31 79 50 47 61
REMARK Flexibility Score: inf
ROOT
ATOM      1  C   UNL A   1      36.678  21.954  24.136  1.00  0.00     0.002 C 
ENDROOT
BRANCH   1   2
ATOM      2  C   UNL A   1      35.352  22.703  23.960  1.00  0.00     0.021 C 
BRANCH   2   3
ATOM      3  C   UNL A   1      35.023  23.691  25.078  1.00  0.00     0.116 C 
BRANCH   3   4
ATOM      4  N   UNL A   1      33.775  23.347  25.739  1.00  0.00    -0.353 N 
ATOM      5  C   UNL A   1      32.637  24.084  25.913  1.00  0.00     0.262 C 
ATOM      6  O   UNL A   1      31.706  23.558  26.532  1.00  0.00    -0.271 OA
ATOM      7  H   UNL A   1      33.745  22.441  26.121  1.00  0.00     0.163 HD
BRANCH   5   8
ATOM      8  C   UNL A   1      32.533  25.531  25.421  1.00  0.00     0.281 C 
ATOM      9  N   UNL A   1      31.152  27.065  24.065  1.00  0.00    -0.298 N 
ATOM     10  C   UNL A   1      31.308  25.684  24.527  1.00  0.00     0.181 C 
ATOM     11  C   UNL A   1      31.562  28.075  24.993  1.00  0.00     0.087 A 
ATOM     12  C   UNL A   1      32.182  27.707  26.200  1.00  0.00     0.144 A 
ATOM     13  C   UNL A   1      31.276  29.432  24.787  1.00  0.00     0.030 A 
ATOM     14  O   UNL A   1      32.508  26.418  26.539  1.00  0.00    -0.477 OA
ATOM     15  C   UNL A   1      32.479  28.662  27.176  1.00  0.00     0.049 A 
ATOM     16  C   UNL A   1      31.586  30.389  25.761  1.00  0.00     0.002 A 
ATOM     17  C   UNL A   1      32.182  30.003  26.956  1.00  0.00     0.004 A 
BRANCH   9  18
ATOM     18  C   UNL A   1      30.674  27.368  22.780  1.00  0.00     0.294 C 
ATOM     19  O   UNL A   1      31.308  27.061  21.770  1.00  0.00    -0.265 OA
BRANCH  18  20
ATOM     20  C   UNL A   1      29.422  28.112  22.693  1.00  0.00     0.192 A 
ATOM     21  C   UNL A   1      27.990  31.090  21.307  1.00  0.00     0.087 C 
ATOM     22  C   UNL A   1      28.191  29.830  22.049  1.00  0.00     0.101 A 
ATOM     23  C   UNL A   1      27.410  29.108  22.923  1.00  0.00     0.046 A 
ATOM     24  O   UNL A   1      29.400  29.228  21.896  1.00  0.00    -0.456 OA
ATOM     25  C   UNL A   1      28.203  28.013  23.347  1.00  0.00     0.056 A 
ENDBRANCH  18  20
ENDBRANCH   9  18
ENDBRANCH   5   8
ENDBRANCH   3   4
ENDBRANCH   2   3
ENDBRANCH   1   2
BRANCH   1  26
ATOM     26  C   UNL A   1      36.629  20.726  25.051  1.00  0.00     0.002 C 
BRANCH  26  27
ATOM     27  C   UNL A   1      37.830  19.780  24.967  1.00  0.00     0.021 C 
BRANCH  27  28
ATOM     28  C   UNL A   1      39.081  20.234  25.717  1.00  0.00     0.116 C 
BRANCH  28  29
ATOM     29  N   UNL A   1      40.085  19.190  25.820  1.00  0.00    -0.352 N 
ATOM     30  C   UNL A   1      41.430  19.302  26.077  1.00  0.00     0.251 C 
ATOM     31  H   UNL A   1      39.755  18.272  25.687  1.00  0.00     0.163 HD
ATOM     32  O   UNL A   1      42.158  18.318  26.003  1.00  0.00    -0.269 OA
BRANCH  30  33
ATOM     33  C   UNL A   1      42.014  20.618  26.416  1.00  0.00     0.039 A 
ATOM     34  C   UNL A   1      42.379  21.479  25.376  1.00  0.00     0.014 A 
ATOM     35  C   UNL A   1      42.220  20.996  27.746  1.00  0.00     0.014 A 
ATOM     36  C   UNL A   1      42.889  22.745  25.668  1.00  0.00     0.010 A 
ATOM     37  C   UNL A   1      42.697  22.274  28.037  1.00  0.00     0.010 A 
ATOM     38  C   UNL A   1      43.027  23.161  27.001  1.00  0.00    -0.014 A 
BRANCH  38  39
ATOM     39  C   UNL A   1      43.494  24.528  27.334  1.00  0.00     0.031 A 
ATOM     40  C   UNL A   1      42.534  25.544  27.878  1.00  0.00     0.074 A 
ATOM     41  C   UNL A   1      44.768  24.875  27.074  1.00  0.00     0.049 A 
ATOM     42  N   UNL A   1      42.724  26.818  28.114  1.00  0.00    -0.248 NA
ATOM     43  C   UNL A   1      41.175  25.071  28.180  1.00  0.00     0.031 C 
ATOM     44  C   UNL A   1      45.791  23.987  26.523  1.00  0.00     0.029 A 
ATOM     45  N   UNL A   1      45.414  26.077  27.224  1.00  0.00    -0.354 N 
ATOM     46  C   UNL A   1      41.506  27.304  28.566  1.00  0.00     0.074 A 
ATOM     47  C   UNL A   1      40.578  26.192  28.561  1.00  0.00     0.031 C 
ATOM     48  C   UNL A   1      46.938  24.672  26.383  1.00  0.00     0.029 A 
ATOM     49  C   UNL A   1      46.721  26.053  26.807  1.00  0.00     0.049 A 
ATOM     50  H   UNL A   1      44.982  26.880  27.596  1.00  0.00     0.167 HD
ATOM     51  C   UNL A   1      41.193  28.562  28.957  1.00  0.00     0.037 A 
ATOM     52  C   UNL A   1      47.638  27.037  26.759  1.00  0.00     0.037 A 
ATOM     53  C   UNL A   1      42.120  29.660  29.000  1.00  0.00     0.049 A 
ATOM     54  C   UNL A   1      47.269  28.419  27.213  1.00  0.00     0.074 A 
ATOM     55  C   UNL A   1      41.906  30.955  29.439  1.00  0.00     0.029 A 
ATOM     56  N   UNL A   1      43.443  29.590  28.592  1.00  0.00    -0.354 N 
ATOM     57  N   UNL A   1      46.121  28.860  27.665  1.00  0.00    -0.248 NA
ATOM     58  C   UNL A   1      48.323  29.444  27.146  1.00  0.00     0.031 C 
ATOM     59  C   UNL A   1      43.096  31.675  29.279  1.00  0.00     0.029 A 
ATOM     60  C   UNL A   1      44.055  30.821  28.759  1.00  0.00     0.049 A 
ATOM     61  H   UNL A   1      43.882  28.784  28.236  1.00  0.00     0.167 HD
ATOM     62  C   UNL A   1      46.314  30.204  27.948  1.00  0.00     0.074 A 
ATOM     63  C   UNL A   1      47.694  30.508  27.624  1.00  0.00     0.031 C 
ATOM     64  C   UNL A   1      45.427  31.105  28.432  1.00  0.00     0.037 A 
BRANCH  51  65
ATOM     65  C   UNL A   1      39.778  28.819  29.368  1.00  0.00     0.064 A 
ATOM     66  C   UNL A   1      38.815  29.252  28.446  1.00  0.00     0.173 A 
ATOM     67  C   UNL A   1      39.373  28.597  30.693  1.00  0.00     0.173 A 
ATOM     68  F   UNL A   1      39.162  29.490  27.173  1.00  0.00    -0.203 F 
ATOM     69  C   UNL A   1      37.498  29.470  28.839  1.00  0.00     0.198 A 
ATOM     70  C   UNL A   1      38.052  28.800  31.078  1.00  0.00     0.198 A 
ATOM     71  F   UNL A   1      40.260  28.182  31.610  1.00  0.00    -0.203 F 
ATOM     72  F   UNL A   1      36.599  29.914  27.949  1.00  0.00    -0.200 F 
ATOM     73  C   UNL A   1      37.116  29.240  30.153  1.00  0.00     0.200 A 
ATOM     74  F   UNL A   1      37.682  28.575  32.348  1.00  0.00    -0.200 F 
ATOM     75  F   UNL A   1      35.847  29.449  30.530  1.00  0.00    -0.200 F 
ENDBRANCH  51  65
BRANCH  52  76
ATOM     76  C   UNL A   1      49.004  26.742  26.265  1.00  0.00     0.064 A 
ATOM     77  C   UNL A   1      49.964  26.176  27.115  1.00  0.00     0.173 A 
ATOM     78  C   UNL A   1      49.371  27.005  24.939  1.00  0.00     0.173 A 
ATOM     79  F   UNL A   1      49.658  25.928  28.397  1.00  0.00    -0.203 F 
ATOM     80  C   UNL A   1      51.247  25.890  26.656  1.00  0.00     0.198 A 
ATOM     81  C   UNL A   1      50.650  26.704  24.477  1.00  0.00     0.198 A 
ATOM     82  F   UNL A   1      48.483  27.545  24.091  1.00  0.00    -0.203 F 
ATOM     83  F   UNL A   1      52.155  25.371  27.493  1.00  0.00    -0.200 F 
ATOM     84  C   UNL A   1      51.587  26.149  25.337  1.00  0.00     0.200 A 
ATOM     85  F   UNL A   1      50.974  26.950  23.200  1.00  0.00    -0.200 F 
ATOM     86  F   UNL A   1      52.821  25.870  24.895  1.00  0.00    -0.200 F 
ENDBRANCH  52  76
BRANCH  64  87
ATOM     87  C   UNL A   1      45.923  32.498  28.656  1.00  0.00     0.064 A 
ATOM     88  C   UNL A   1      45.821  33.475  27.657  1.00  0.00     0.173 A 
ATOM     89  C   UNL A   1      46.472  32.868  29.892  1.00  0.00     0.173 A 
ATOM     90  F   UNL A   1      45.317  33.159  26.454  1.00  0.00    -0.203 F 
ATOM     91  C   UNL A   1      46.259  34.776  27.884  1.00  0.00     0.198 A 
ATOM     92  C   UNL A   1      46.897  34.173  30.121  1.00  0.00     0.198 A 
ATOM     93  F   UNL A   1      46.591  31.965  30.876  1.00  0.00    -0.203 F 
ATOM     94  F   UNL A   1      46.176  35.690  26.907  1.00  0.00    -0.200 F 
ATOM     95  C   UNL A   1      46.793  35.125  29.117  1.00  0.00     0.200 A 
ATOM     96  F   UNL A   1      47.411  34.511  31.311  1.00  0.00    -0.200 F 
ATOM     97  F   UNL A   1      47.214  36.379  29.334  1.00  0.00    -0.200 F 
ENDBRANCH  64  87
ENDBRANCH  38  39
ENDBRANCH  30  33
ENDBRANCH  28  29
ENDBRANCH  27  28
ENDBRANCH  26  27
ENDBRANCH   1  26
TORSDOF 15
ENDMDL
