MODEL 1
REMARK VINA RESULT:     -11.1      0.000      0.000
REMARK SMILES CNC(=O)NC(=O)CCSc1csc(C(=O)NCCCCCCNC(=O)c2ccc(-c3c4nc(c(-c5c(F)c(F)c(F)c(F)c5F)c5ccc([nH]5)c(-c5c(F)c(F)c(F)c(F)c5F)c5nc(c(-c6c(F)c(F)c(F)c(F)c6F)c6ccc3[nH]6)C=C5)C=C4)cc2)c1
REMARK SMILES IDX 19 1 18 2 17 3 15 4 16 5 14 7 11 8 12 9 90 10 13 11 10 12
REMARK SMILES IDX 9 13 8 14 6 15 1 16 2 17 3 18 4 20 5 21 7 23 20 24 21 25
REMARK SMILES IDX 22 26 23 27 24 28 25 29 26 31 27 32 28 33 89 34 29 35 88 36
REMARK SMILES IDX 30 37 31 38 32 39 82 40 33 41 87 42 81 43 83 44 34 45 86 46
REMARK SMILES IDX 80 47 79 48 35 50 67 51 47 52 66 53 48 54 51 55 65 56 84 57
REMARK SMILES IDX 49 58 50 59 64 61 85 62 52 63 36 64 37 65 45 66 38 67 39 68
REMARK SMILES IDX 43 69 46 70 40 71 41 72 44 73 42 74 68 75 69 76 77 77 70 78
REMARK SMILES IDX 71 79 75 80 78 81 72 82 73 83 76 84 74 85 53 86 54 87 62 88
REMARK SMILES IDX 55 89 56 90 60 91 63 92 57 93 58 94 61 95 59 96
REMARK H PARENT 17 6 2 19 5 22 24 30 83 49 51 60
REMARK Flexibility Score: inf
ROOT
ATOM      1  C   UNL A   1      34.799  31.048  28.005  1.00  0.00     0.021 C 
ENDROOT
BRANCH   1   2
ATOM      2  C   UNL A   1      34.287  29.828  27.244  1.00  0.00     0.116 C 
BRANCH   2   3
ATOM      3  N   UNL A   1      33.027  29.327  27.752  1.00  0.00    -0.351 N 
ATOM      4  C   UNL A   1      32.221  28.278  27.368  1.00  0.00     0.261 C 
ATOM      5  O   UNL A   1      31.155  28.184  27.981  1.00  0.00    -0.268 OA
ATOM      6  H   UNL A   1      32.679  29.834  28.521  1.00  0.00     0.163 HD
BRANCH   4   7
ATOM      7  C   UNL A   1      32.601  27.395  26.275  1.00  0.00     0.093 A 
ATOM      8  C   UNL A   1      33.514  25.678  24.974  1.00  0.00     0.019 A 
ATOM      9  C   UNL A   1      33.203  26.596  24.003  1.00  0.00     0.080 A 
ATOM     10  C   UNL A   1      33.038  26.085  26.250  1.00  0.00     0.040 A 
ATOM     11  S   UNL A   1      32.463  27.991  24.663  1.00  0.00    -0.137 S 
BRANCH   8  12
ATOM     12  S   UNL A   1      34.414  24.180  24.804  1.00  0.00    -0.125 SA
BRANCH  12  13
ATOM     13  C   UNL A   1      34.893  23.747  26.491  1.00  0.00     0.085 C 
BRANCH  13  14
ATOM     14  C   UNL A   1      34.225  22.511  27.073  1.00  0.00     0.112 C 
BRANCH  14  15
ATOM     15  C   UNL A   1      32.836  22.234  26.577  1.00  0.00     0.228 C 
ATOM     16  C   UNL A   1      35.442  20.336  24.960  1.00  0.00     0.144 C 
ATOM     17  N   UNL A   1      34.226  19.603  25.187  1.00  0.00    -0.341 N 
ATOM     18  C   UNL A   1      32.950  19.968  25.354  1.00  0.00     0.321 C 
ATOM     19  H   UNL A   1      34.361  18.627  25.225  1.00  0.00     0.165 HD
ATOM     20  O   UNL A   1      32.092  19.092  25.205  1.00  0.00    -0.248 OA
ATOM     21  N   UNL A   1      32.536  21.225  25.682  1.00  0.00    -0.278 N 
ATOM     22  H   UNL A   1      31.789  21.499  25.099  1.00  0.00     0.174 HD
ATOM     23  O   UNL A   1      31.901  22.924  27.002  1.00  0.00    -0.275 OA
ENDBRANCH  14  15
ENDBRANCH  13  14
ENDBRANCH  12  13
ENDBRANCH   8  12
ENDBRANCH   4   7
ENDBRANCH   2   3
ENDBRANCH   1   2
BRANCH   1  24
ATOM     24  C   UNL A   1      34.000  32.330  27.753  1.00  0.00     0.002 C 
BRANCH  24  25
ATOM     25  C   UNL A   1      34.104  33.399  28.850  1.00  0.00     0.002 C 
BRANCH  25  26
ATOM     26  C   UNL A   1      33.013  34.473  28.826  1.00  0.00     0.021 C 
BRANCH  26  27
ATOM     27  C   UNL A   1      33.457  35.834  29.346  1.00  0.00     0.116 C 
BRANCH  27  28
ATOM     28  N   UNL A   1      32.620  36.298  30.441  1.00  0.00    -0.352 N 
ATOM     29  C   UNL A   1      32.655  35.937  31.765  1.00  0.00     0.251 C 
ATOM     30  H   UNL A   1      31.933  36.961  30.200  1.00  0.00     0.163 HD
ATOM     31  O   UNL A   1      31.750  36.262  32.530  1.00  0.00    -0.269 OA
BRANCH  29  32
ATOM     32  C   UNL A   1      33.791  35.138  32.265  1.00  0.00     0.039 A 
ATOM     33  C   UNL A   1      33.569  33.832  32.709  1.00  0.00     0.014 A 
ATOM     34  C   UNL A   1      35.077  35.683  32.281  1.00  0.00     0.014 A 
ATOM     35  C   UNL A   1      34.651  33.047  33.114  1.00  0.00     0.010 A 
ATOM     36  C   UNL A   1      36.159  34.878  32.614  1.00  0.00     0.010 A 
ATOM     37  C   UNL A   1      35.957  33.556  33.040  1.00  0.00    -0.014 A 
BRANCH  37  38
ATOM     38  C   UNL A   1      37.140  32.750  33.431  1.00  0.00     0.031 A 
ATOM     39  C   UNL A   1      37.831  33.041  34.733  1.00  0.00     0.074 A 
ATOM     40  C   UNL A   1      37.649  31.839  32.580  1.00  0.00     0.049 A 
ATOM     41  N   UNL A   1      38.974  32.594  35.187  1.00  0.00    -0.248 NA
ATOM     42  C   UNL A   1      37.159  33.994  35.632  1.00  0.00     0.031 C 
ATOM     43  C   UNL A   1      37.082  31.484  31.279  1.00  0.00     0.029 A 
ATOM     44  N   UNL A   1      38.779  31.064  32.673  1.00  0.00    -0.354 N 
ATOM     45  C   UNL A   1      39.168  33.231  36.405  1.00  0.00     0.074 A 
ATOM     46  C   UNL A   1      38.053  34.131  36.598  1.00  0.00     0.031 C 
ATOM     47  C   UNL A   1      37.861  30.557  30.698  1.00  0.00     0.029 A 
ATOM     48  C   UNL A   1      39.009  30.291  31.560  1.00  0.00     0.049 A 
ATOM     49  H   UNL A   1      39.369  31.063  33.461  1.00  0.00     0.167 HD
ATOM     50  C   UNL A   1      40.179  33.066  37.290  1.00  0.00     0.037 A 
ATOM     51  C   UNL A   1      40.040  29.477  31.264  1.00  0.00     0.037 A 
ATOM     52  C   UNL A   1      41.270  32.147  37.103  1.00  0.00     0.049 A 
ATOM     53  C   UNL A   1      41.164  29.325  32.255  1.00  0.00     0.074 A 
ATOM     54  C   UNL A   1      42.320  31.867  37.960  1.00  0.00     0.029 A 
ATOM     55  N   UNL A   1      41.449  31.356  35.976  1.00  0.00    -0.354 N 
ATOM     56  N   UNL A   1      41.320  29.900  33.423  1.00  0.00    -0.248 NA
ATOM     57  C   UNL A   1      42.254  28.410  31.889  1.00  0.00     0.031 C 
ATOM     58  C   UNL A   1      43.161  30.944  37.331  1.00  0.00     0.029 A 
ATOM     59  C   UNL A   1      42.603  30.601  36.110  1.00  0.00     0.049 A 
ATOM     60  H   UNL A   1      40.846  31.334  35.199  1.00  0.00     0.167 HD
ATOM     61  C   UNL A   1      42.498  29.384  33.950  1.00  0.00     0.074 A 
ATOM     62  C   UNL A   1      43.019  28.452  32.972  1.00  0.00     0.031 C 
ATOM     63  C   UNL A   1      43.090  29.655  35.138  1.00  0.00     0.037 A 
BRANCH  50  64
ATOM     64  C   UNL A   1      40.155  33.900  38.538  1.00  0.00     0.064 A 
ATOM     65  C   UNL A   1      40.824  35.131  38.618  1.00  0.00     0.173 A 
ATOM     66  C   UNL A   1      39.429  33.475  39.662  1.00  0.00     0.173 A 
ATOM     67  F   UNL A   1      41.542  35.577  37.576  1.00  0.00    -0.203 F 
ATOM     68  C   UNL A   1      40.796  35.889  39.786  1.00  0.00     0.198 A 
ATOM     69  C   UNL A   1      39.374  34.252  40.817  1.00  0.00     0.198 A 
ATOM     70  F   UNL A   1      38.766  32.309  39.640  1.00  0.00    -0.203 F 
ATOM     71  F   UNL A   1      41.489  37.033  39.856  1.00  0.00    -0.200 F 
ATOM     72  C   UNL A   1      40.064  35.453  40.881  1.00  0.00     0.200 A 
ATOM     73  F   UNL A   1      38.655  33.837  41.868  1.00  0.00    -0.200 F 
ATOM     74  F   UNL A   1      40.033  36.187  42.001  1.00  0.00    -0.200 F 
ENDBRANCH  50  64
BRANCH  51  75
ATOM     75  C   UNL A   1      40.055  28.733  29.977  1.00  0.00     0.064 A 
ATOM     76  C   UNL A   1      39.484  27.456  29.879  1.00  0.00     0.173 A 
ATOM     77  C   UNL A   1      40.641  29.275  28.823  1.00  0.00     0.173 A 
ATOM     78  F   UNL A   1      38.929  26.887  30.959  1.00  0.00    -0.203 F 
ATOM     79  C   UNL A   1      39.519  26.741  28.684  1.00  0.00     0.198 A 
ATOM     80  C   UNL A   1      40.649  28.570  27.621  1.00  0.00     0.198 A 
ATOM     81  F   UNL A   1      41.198  30.494  28.860  1.00  0.00    -0.203 F 
ATOM     82  F   UNL A   1      39.010  25.503  28.632  1.00  0.00    -0.200 F 
ATOM     83  C   UNL A   1      40.097  27.300  27.553  1.00  0.00     0.200 A 
ATOM     84  F   UNL A   1      41.196  29.121  26.527  1.00  0.00    -0.200 F 
ATOM     85  F   UNL A   1      40.128  26.613  26.404  1.00  0.00    -0.200 F 
ENDBRANCH  51  75
BRANCH  63  86
ATOM     86  C   UNL A   1      44.331  28.888  35.490  1.00  0.00     0.064 A 
ATOM     87  C   UNL A   1      45.612  29.367  35.180  1.00  0.00     0.173 A 
ATOM     88  C   UNL A   1      44.233  27.694  36.222  1.00  0.00     0.173 A 
ATOM     89  F   UNL A   1      45.757  30.496  34.471  1.00  0.00    -0.203 F 
ATOM     90  C   UNL A   1      46.750  28.671  35.580  1.00  0.00     0.198 A 
ATOM     91  C   UNL A   1      45.372  27.017  36.646  1.00  0.00     0.198 A 
ATOM     92  F   UNL A   1      43.030  27.198  36.550  1.00  0.00    -0.203 F 
ATOM     93  F   UNL A   1      47.964  29.128  35.245  1.00  0.00    -0.200 F 
ATOM     94  C   UNL A   1      46.629  27.505  36.322  1.00  0.00     0.200 A 
ATOM     95  F   UNL A   1      45.253  25.901  37.376  1.00  0.00    -0.200 F 
ATOM     96  F   UNL A   1      47.727  26.848  36.722  1.00  0.00    -0.200 F 
ENDBRANCH  63  86
ENDBRANCH  37  38
ENDBRANCH  29  32
ENDBRANCH  27  28
ENDBRANCH  26  27
ENDBRANCH  25  26
ENDBRANCH  24  25
ENDBRANCH   1  24
TORSDOF 17
ENDMDL
MODEL 2
REMARK VINA RESULT:     -11.0      1.986      7.652
REMARK SMILES CNC(=O)NC(=O)CCSc1csc(C(=O)NCCCCCCNC(=O)c2ccc(-c3c4nc(c(-c5c(F)c(F)c(F)c(F)c5F)c5ccc([nH]5)c(-c5c(F)c(F)c(F)c(F)c5F)c5nc(c(-c6c(F)c(F)c(F)c(F)c6F)c6ccc3[nH]6)C=C5)C=C4)cc2)c1
REMARK SMILES IDX 19 1 18 2 17 3 15 4 16 5 14 7 11 8 12 9 90 10 13 11 10 12
REMARK SMILES IDX 9 13 8 14 6 15 1 16 2 17 3 18 4 20 5 21 7 23 20 24 21 25
REMARK SMILES IDX 22 26 23 27 24 28 25 29 26 31 27 32 28 33 89 34 29 35 88 36
REMARK SMILES IDX 30 37 31 38 32 39 82 40 33 41 87 42 81 43 83 44 34 45 86 46
REMARK SMILES IDX 80 47 79 48 35 50 67 51 47 52 66 53 48 54 51 55 65 56 84 57
REMARK SMILES IDX 49 58 50 59 64 61 85 62 52 63 36 64 37 65 45 66 38 67 39 68
REMARK SMILES IDX 43 69 46 70 40 71 41 72 44 73 42 74 68 75 69 76 77 77 70 78
REMARK SMILES IDX 71 79 75 80 78 81 72 82 73 83 76 84 74 85 53 86 54 87 62 88
REMARK SMILES IDX 55 89 56 90 60 91 63 92 57 93 58 94 61 95 59 96
REMARK H PARENT 17 6 2 19 5 22 24 30 83 49 51 60
REMARK Flexibility Score: inf
ROOT
ATOM      1  C   UNL A   1      32.839  28.447  26.926  1.00  0.00     0.021 C 
ENDROOT
BRANCH   1   2
ATOM      2  C   UNL A   1      34.105  28.176  26.117  1.00  0.00     0.116 C 
BRANCH   2   3
ATOM      3  N   UNL A   1      34.044  28.703  24.769  1.00  0.00    -0.351 N 
ATOM      4  C   UNL A   1      33.264  28.382  23.680  1.00  0.00     0.261 C 
ATOM      5  O   UNL A   1      33.539  28.987  22.641  1.00  0.00    -0.268 OA
ATOM      6  H   UNL A   1      34.684  29.431  24.598  1.00  0.00     0.163 HD
BRANCH   4   7
ATOM      7  C   UNL A   1      32.236  27.356  23.764  1.00  0.00     0.093 A 
ATOM      8  C   UNL A   1      31.043  25.344  23.686  1.00  0.00     0.019 A 
ATOM      9  C   UNL A   1      30.013  26.249  23.727  1.00  0.00     0.080 A 
ATOM     10  C   UNL A   1      32.304  25.979  23.850  1.00  0.00     0.040 A 
ATOM     11  S   UNL A   1      30.588  27.859  23.828  1.00  0.00    -0.137 S 
BRANCH   8  12
ATOM     12  S   UNL A   1      30.955  23.609  23.429  1.00  0.00    -0.125 SA
BRANCH  12  13
ATOM     13  C   UNL A   1      32.130  22.916  24.614  1.00  0.00     0.085 C 
BRANCH  13  14
ATOM     14  C   UNL A   1      33.239  22.060  24.023  1.00  0.00     0.112 C 
BRANCH  14  15
ATOM     15  C   UNL A   1      34.516  22.784  23.709  1.00  0.00     0.228 C 
ATOM     16  C   UNL A   1      34.247  21.557  27.090  1.00  0.00     0.144 C 
ATOM     17  N   UNL A   1      35.563  21.448  26.521  1.00  0.00    -0.341 N 
ATOM     18  C   UNL A   1      36.197  22.099  25.538  1.00  0.00     0.321 C 
ATOM     19  H   UNL A   1      36.114  20.748  26.944  1.00  0.00     0.165 HD
ATOM     20  O   UNL A   1      37.427  21.996  25.501  1.00  0.00    -0.248 OA
ATOM     21  N   UNL A   1      35.585  22.854  24.582  1.00  0.00    -0.278 N 
ATOM     22  H   UNL A   1      36.049  23.717  24.482  1.00  0.00     0.174 HD
ATOM     23  O   UNL A   1      34.637  23.331  22.606  1.00  0.00    -0.275 OA
ENDBRANCH  14  15
ENDBRANCH  13  14
ENDBRANCH  12  13
ENDBRANCH   8  12
ENDBRANCH   4   7
ENDBRANCH   2   3
ENDBRANCH   1   2
BRANCH   1  24
ATOM     24  C   UNL A   1      32.597  29.926  27.242  1.00  0.00     0.002 C 
BRANCH  24  25
ATOM     25  C   UNL A   1      31.568  30.631  26.349  1.00  0.00     0.002 C 
BRANCH  25  26
ATOM     26  C   UNL A   1      31.451  32.145  26.550  1.00  0.00     0.021 C 
BRANCH  26  27
ATOM     27  C   UNL A   1      32.601  32.767  27.332  1.00  0.00     0.116 C 
BRANCH  27  28
ATOM     28  N   UNL A   1      32.364  34.172  27.624  1.00  0.00    -0.352 N 
ATOM     29  C   UNL A   1      32.949  34.963  28.581  1.00  0.00     0.251 C 
ATOM     30  H   UNL A   1      31.690  34.616  27.059  1.00  0.00     0.163 HD
ATOM     31  O   UNL A   1      32.497  36.075  28.839  1.00  0.00    -0.269 OA
BRANCH  29  32
ATOM     32  C   UNL A   1      34.128  34.459  29.311  1.00  0.00     0.039 A 
ATOM     33  C   UNL A   1      33.951  33.819  30.541  1.00  0.00     0.014 A 
ATOM     34  C   UNL A   1      35.406  34.612  28.769  1.00  0.00     0.014 A 
ATOM     35  C   UNL A   1      35.056  33.276  31.202  1.00  0.00     0.010 A 
ATOM     36  C   UNL A   1      36.492  34.008  29.391  1.00  0.00     0.010 A 
ATOM     37  C   UNL A   1      36.329  33.340  30.615  1.00  0.00    -0.014 A 
BRANCH  37  38
ATOM     38  C   UNL A   1      37.527  32.752  31.264  1.00  0.00     0.031 A 
ATOM     39  C   UNL A   1      38.239  31.610  30.597  1.00  0.00     0.074 A 
ATOM     40  C   UNL A   1      37.906  33.169  32.487  1.00  0.00     0.049 A 
ATOM     41  N   UNL A   1      39.183  30.832  31.063  1.00  0.00    -0.248 NA
ATOM     42  C   UNL A   1      37.805  31.276  29.231  1.00  0.00     0.031 C 
ATOM     43  C   UNL A   1      37.280  34.252  33.246  1.00  0.00     0.029 A 
ATOM     44  N   UNL A   1      38.896  32.708  33.320  1.00  0.00    -0.354 N 
ATOM     45  C   UNL A   1      39.432  29.904  30.061  1.00  0.00     0.074 A 
ATOM     46  C   UNL A   1      38.510  30.183  28.982  1.00  0.00     0.031 C 
ATOM     47  C   UNL A   1      37.904  34.378  34.428  1.00  0.00     0.029 A 
ATOM     48  C   UNL A   1      38.939  33.353  34.533  1.00  0.00     0.049 A 
ATOM     49  H   UNL A   1      39.517  31.985  33.072  1.00  0.00     0.167 HD
ATOM     50  C   UNL A   1      40.361  28.919  30.037  1.00  0.00     0.037 A 
ATOM     51  C   UNL A   1      39.711  33.126  35.613  1.00  0.00     0.037 A 
ATOM     52  C   UNL A   1      41.294  28.666  31.103  1.00  0.00     0.049 A 
ATOM     53  C   UNL A   1      40.723  32.010  35.571  1.00  0.00     0.074 A 
ATOM     54  C   UNL A   1      42.306  27.725  31.159  1.00  0.00     0.029 A 
ATOM     55  N   UNL A   1      41.326  29.364  32.302  1.00  0.00    -0.354 N 
ATOM     56  N   UNL A   1      40.981  31.164  34.603  1.00  0.00    -0.248 NA
ATOM     57  C   UNL A   1      41.551  31.819  36.769  1.00  0.00     0.031 C 
ATOM     58  C   UNL A   1      42.919  27.819  32.411  1.00  0.00     0.029 A 
ATOM     59  C   UNL A   1      42.331  28.861  33.112  1.00  0.00     0.049 A 
ATOM     60  H   UNL A   1      40.726  30.106  32.541  1.00  0.00     0.167 HD
ATOM     61  C   UNL A   1      42.028  30.372  35.056  1.00  0.00     0.074 A 
ATOM     62  C   UNL A   1      42.356  30.836  36.388  1.00  0.00     0.031 C 
ATOM     63  C   UNL A   1      42.663  29.356  34.423  1.00  0.00     0.037 A 
BRANCH  50  64
ATOM     64  C   UNL A   1      40.410  28.038  28.822  1.00  0.00     0.064 A 
ATOM     65  C   UNL A   1      41.165  28.381  27.690  1.00  0.00     0.173 A 
ATOM     66  C   UNL A   1      39.714  26.819  28.801  1.00  0.00     0.173 A 
ATOM     67  F   UNL A   1      41.839  29.541  27.654  1.00  0.00    -0.203 F 
ATOM     68  C   UNL A   1      41.194  27.554  26.570  1.00  0.00     0.198 A 
ATOM     69  C   UNL A   1      39.773  25.978  27.692  1.00  0.00     0.198 A 
ATOM     70  F   UNL A   1      38.981  26.438  29.858  1.00  0.00    -0.203 F 
ATOM     71  F   UNL A   1      41.876  27.930  25.480  1.00  0.00    -0.200 F 
ATOM     72  C   UNL A   1      40.505  26.350  26.575  1.00  0.00     0.200 A 
ATOM     73  F   UNL A   1      39.120  24.809  27.705  1.00  0.00    -0.200 F 
ATOM     74  F   UNL A   1      40.541  25.553  25.499  1.00  0.00    -0.200 F 
ENDBRANCH  50  64
BRANCH  51  75
ATOM     75  C   UNL A   1      39.568  33.978  36.822  1.00  0.00     0.064 A 
ATOM     76  C   UNL A   1      38.773  33.566  37.902  1.00  0.00     0.173 A 
ATOM     77  C   UNL A   1      40.212  35.221  36.924  1.00  0.00     0.173 A 
ATOM     78  F   UNL A   1      38.121  32.396  37.843  1.00  0.00    -0.203 F 
ATOM     79  C   UNL A   1      38.611  34.372  39.027  1.00  0.00     0.198 A 
ATOM     80  C   UNL A   1      40.072  36.012  38.063  1.00  0.00     0.198 A 
ATOM     81  F   UNL A   1      40.986  35.661  35.923  1.00  0.00    -0.203 F 
ATOM     82  F   UNL A   1      37.807  33.974  40.022  1.00  0.00    -0.200 F 
ATOM     83  C   UNL A   1      39.264  35.593  39.109  1.00  0.00     0.200 A 
ATOM     84  F   UNL A   1      40.717  37.185  38.144  1.00  0.00    -0.200 F 
ATOM     85  F   UNL A   1      39.110  36.366  40.192  1.00  0.00    -0.200 F 
ENDBRANCH  51  75
BRANCH  63  86
ATOM     86  C   UNL A   1      43.826  28.716  35.124  1.00  0.00     0.064 A 
ATOM     87  C   UNL A   1      43.654  27.676  36.048  1.00  0.00     0.173 A 
ATOM     88  C   UNL A   1      45.137  29.100  34.800  1.00  0.00     0.173 A 
ATOM     89  F   UNL A   1      42.421  27.283  36.400  1.00  0.00    -0.203 F 
ATOM     90  C   UNL A   1      44.753  27.051  36.631  1.00  0.00     0.198 A 
ATOM     91  C   UNL A   1      46.233  28.454  35.362  1.00  0.00     0.198 A 
ATOM     92  F   UNL A   1      45.354  30.086  33.916  1.00  0.00    -0.203 F 
ATOM     93  F   UNL A   1      44.567  26.081  37.537  1.00  0.00    -0.200 F 
ATOM     94  C   UNL A   1      46.041  27.431  36.279  1.00  0.00     0.200 A 
ATOM     95  F   UNL A   1      47.474  28.812  35.008  1.00  0.00    -0.200 F 
ATOM     96  F   UNL A   1      47.096  26.815  36.828  1.00  0.00    -0.200 F 
ENDBRANCH  63  86
ENDBRANCH  37  38
ENDBRANCH  29  32
ENDBRANCH  27  28
ENDBRANCH  26  27
ENDBRANCH  25  26
ENDBRANCH  24  25
ENDBRANCH   1  24
TORSDOF 17
ENDMDL
MODEL 3
REMARK VINA RESULT:     -10.9      6.738     12.387
REMARK SMILES CNC(=O)NC(=O)CCSc1csc(C(=O)NCCCCCCNC(=O)c2ccc(-c3c4nc(c(-c5c(F)c(F)c(F)c(F)c5F)c5ccc([nH]5)c(-c5c(F)c(F)c(F)c(F)c5F)c5nc(c(-c6c(F)c(F)c(F)c(F)c6F)c6ccc3[nH]6)C=C5)C=C4)cc2)c1
REMARK SMILES IDX 19 1 18 2 17 3 15 4 16 5 14 7 11 8 12 9 90 10 13 11 10 12
REMARK SMILES IDX 9 13 8 14 6 15 1 16 2 17 3 18 4 20 5 21 7 23 20 24 21 25
REMARK SMILES IDX 22 26 23 27 24 28 25 29 26 31 27 32 28 33 89 34 29 35 88 36
REMARK SMILES IDX 30 37 31 38 32 39 82 40 33 41 87 42 81 43 83 44 34 45 86 46
REMARK SMILES IDX 80 47 79 48 35 50 67 51 47 52 66 53 48 54 51 55 65 56 84 57
REMARK SMILES IDX 49 58 50 59 64 61 85 62 52 63 36 64 37 65 45 66 38 67 39 68
REMARK SMILES IDX 43 69 46 70 40 71 41 72 44 73 42 74 68 75 69 76 77 77 70 78
REMARK SMILES IDX 71 79 75 80 78 81 72 82 73 83 76 84 74 85 53 86 54 87 62 88
REMARK SMILES IDX 55 89 56 90 60 91 63 92 57 93 58 94 61 95 59 96
REMARK H PARENT 17 6 2 19 5 22 24 30 83 49 51 60
REMARK Flexibility Score: inf
ROOT
ATOM      1  C   UNL A   1      40.506  22.677  27.515  1.00  0.00     0.021 C 
ENDROOT
BRANCH   1   2
ATOM      2  C   UNL A   1      39.508  22.943  26.391  1.00  0.00     0.116 C 
BRANCH   2   3
ATOM      3  N   UNL A   1      38.956  21.732  25.820  1.00  0.00    -0.351 N 
ATOM      4  C   UNL A   1      37.770  21.466  25.172  1.00  0.00     0.261 C 
ATOM      5  O   UNL A   1      37.583  20.281  24.886  1.00  0.00    -0.268 OA
ATOM      6  H   UNL A   1      39.543  20.946  25.914  1.00  0.00     0.163 HD
BRANCH   4   7
ATOM      7  C   UNL A   1      36.801  22.519  24.910  1.00  0.00     0.093 A 
ATOM      8  C   UNL A   1      35.068  24.083  25.072  1.00  0.00     0.019 A 
ATOM      9  C   UNL A   1      35.213  24.003  23.711  1.00  0.00     0.080 A 
ATOM     10  C   UNL A   1      36.072  23.339  25.750  1.00  0.00     0.040 A 
ATOM     11  S   UNL A   1      36.471  22.930  23.269  1.00  0.00    -0.137 S 
BRANCH   8  12
ATOM     12  S   UNL A   1      33.825  24.922  25.986  1.00  0.00    -0.125 SA
BRANCH  12  13
ATOM     13  C   UNL A   1      32.846  25.782  24.735  1.00  0.00     0.085 C 
BRANCH  13  14
ATOM     14  C   UNL A   1      31.623  25.037  24.224  1.00  0.00     0.112 C 
BRANCH  14  15
ATOM     15  C   UNL A   1      30.393  25.152  25.077  1.00  0.00     0.228 C 
ATOM     16  C   UNL A   1      31.839  21.852  24.918  1.00  0.00     0.144 C 
ATOM     17  N   UNL A   1      31.322  22.212  26.210  1.00  0.00    -0.341 N 
ATOM     18  C   UNL A   1      30.394  23.086  26.618  1.00  0.00     0.321 C 
ATOM     19  H   UNL A   1      31.735  21.710  26.950  1.00  0.00     0.165 HD
ATOM     20  O   UNL A   1      29.944  22.934  27.758  1.00  0.00    -0.248 OA
ATOM     21  N   UNL A   1      29.921  24.125  25.872  1.00  0.00    -0.278 N 
ATOM     22  H   UNL A   1      28.937  24.154  25.915  1.00  0.00     0.174 HD
ATOM     23  O   UNL A   1      29.775  26.223  25.094  1.00  0.00    -0.275 OA
ENDBRANCH  14  15
ENDBRANCH  13  14
ENDBRANCH  12  13
ENDBRANCH   8  12
ENDBRANCH   4   7
ENDBRANCH   2   3
ENDBRANCH   1   2
BRANCH   1  24
ATOM     24  C   UNL A   1      41.739  21.874  27.088  1.00  0.00     0.002 C 
BRANCH  24  25
ATOM     25  C   UNL A   1      42.029  20.619  27.922  1.00  0.00     0.002 C 
BRANCH  25  26
ATOM     26  C   UNL A   1      42.346  19.355  27.118  1.00  0.00     0.021 C 
BRANCH  26  27
ATOM     27  C   UNL A   1      42.325  19.547  25.608  1.00  0.00     0.116 C 
BRANCH  27  28
ATOM     28  N   UNL A   1      43.493  18.963  24.968  1.00  0.00    -0.352 N 
ATOM     29  C   UNL A   1      44.619  19.589  24.494  1.00  0.00     0.251 C 
ATOM     30  H   UNL A   1      43.474  17.984  24.859  1.00  0.00     0.163 HD
ATOM     31  O   UNL A   1      45.428  18.984  23.795  1.00  0.00    -0.269 OA
BRANCH  29  32
ATOM     32  C   UNL A   1      44.846  21.010  24.821  1.00  0.00     0.039 A 
ATOM     33  C   UNL A   1      44.539  21.990  23.874  1.00  0.00     0.014 A 
ATOM     34  C   UNL A   1      45.351  21.368  26.074  1.00  0.00     0.014 A 
ATOM     35  C   UNL A   1      44.684  23.339  24.205  1.00  0.00     0.010 A 
ATOM     36  C   UNL A   1      45.425  22.709  26.427  1.00  0.00     0.010 A 
ATOM     37  C   UNL A   1      45.098  23.708  25.495  1.00  0.00    -0.014 A 
BRANCH  37  38
ATOM     38  C   UNL A   1      45.237  25.128  25.902  1.00  0.00     0.031 A 
ATOM     39  C   UNL A   1      46.590  25.779  25.848  1.00  0.00     0.074 A 
ATOM     40  C   UNL A   1      44.183  25.791  26.413  1.00  0.00     0.049 A 
ATOM     41  N   UNL A   1      46.976  26.937  26.322  1.00  0.00    -0.248 NA
ATOM     42  C   UNL A   1      47.664  25.006  25.202  1.00  0.00     0.031 C 
ATOM     43  C   UNL A   1      42.826  25.259  26.539  1.00  0.00     0.029 A 
ATOM     44  N   UNL A   1      44.096  27.053  26.949  1.00  0.00    -0.354 N 
ATOM     45  C   UNL A   1      48.336  27.015  26.057  1.00  0.00     0.074 A 
ATOM     46  C   UNL A   1      48.720  25.772  25.426  1.00  0.00     0.031 C 
ATOM     47  C   UNL A   1      42.041  26.188  27.108  1.00  0.00     0.029 A 
ATOM     48  C   UNL A   1      42.848  27.360  27.434  1.00  0.00     0.049 A 
ATOM     49  H   UNL A   1      44.856  27.678  26.983  1.00  0.00     0.167 HD
ATOM     50  C   UNL A   1      49.184  28.041  26.302  1.00  0.00     0.037 A 
ATOM     51  C   UNL A   1      42.413  28.455  28.087  1.00  0.00     0.037 A 
ATOM     52  C   UNL A   1      48.788  29.287  26.905  1.00  0.00     0.049 A 
ATOM     53  C   UNL A   1      43.380  29.575  28.368  1.00  0.00     0.074 A 
ATOM     54  C   UNL A   1      49.558  30.408  27.154  1.00  0.00     0.029 A 
ATOM     55  N   UNL A   1      47.505  29.572  27.352  1.00  0.00    -0.354 N 
ATOM     56  N   UNL A   1      44.655  29.659  28.077  1.00  0.00    -0.248 NA
ATOM     57  C   UNL A   1      42.847  30.753  29.066  1.00  0.00     0.031 C 
ATOM     58  C   UNL A   1      48.754  31.354  27.797  1.00  0.00     0.029 A 
ATOM     59  C   UNL A   1      47.468  30.847  27.892  1.00  0.00     0.049 A 
ATOM     60  H   UNL A   1      46.737  28.960  27.294  1.00  0.00     0.167 HD
ATOM     61  C   UNL A   1      45.066  30.912  28.514  1.00  0.00     0.074 A 
ATOM     62  C   UNL A   1      43.905  31.553  29.094  1.00  0.00     0.031 C 
ATOM     63  C   UNL A   1      46.294  31.480  28.437  1.00  0.00     0.037 A 
BRANCH  50  64
ATOM     64  C   UNL A   1      50.626  27.859  25.925  1.00  0.00     0.064 A 
ATOM     65  C   UNL A   1      51.079  28.071  24.614  1.00  0.00     0.173 A 
ATOM     66  C   UNL A   1      51.573  27.495  26.895  1.00  0.00     0.173 A 
ATOM     67  F   UNL A   1      50.213  28.409  23.646  1.00  0.00    -0.203 F 
ATOM     68  C   UNL A   1      52.420  27.891  24.280  1.00  0.00     0.198 A 
ATOM     69  C   UNL A   1      52.919  27.349  26.565  1.00  0.00     0.198 A 
ATOM     70  F   UNL A   1      51.197  27.285  28.165  1.00  0.00    -0.203 F 
ATOM     71  F   UNL A   1      52.818  28.044  23.010  1.00  0.00    -0.200 F 
ATOM     72  C   UNL A   1      53.339  27.539  25.257  1.00  0.00     0.200 A 
ATOM     73  F   UNL A   1      53.808  27.024  27.513  1.00  0.00    -0.200 F 
ATOM     74  F   UNL A   1      54.629  27.374  24.935  1.00  0.00    -0.200 F 
ENDBRANCH  50  64
BRANCH  51  75
ATOM     75  C   UNL A   1      40.991  28.552  28.510  1.00  0.00     0.064 A 
ATOM     76  C   UNL A   1      40.011  29.031  27.629  1.00  0.00     0.173 A 
ATOM     77  C   UNL A   1      40.582  28.179  29.799  1.00  0.00     0.173 A 
ATOM     78  F   UNL A   1      40.355  29.419  26.393  1.00  0.00    -0.203 F 
ATOM     79  C   UNL A   1      38.681  29.152  28.028  1.00  0.00     0.198 A 
ATOM     80  C   UNL A   1      39.246  28.273  30.186  1.00  0.00     0.198 A 
ATOM     81  F   UNL A   1      41.478  27.711  30.680  1.00  0.00    -0.203 F 
ATOM     82  F   UNL A   1      37.775  29.658  27.181  1.00  0.00    -0.200 F 
ATOM     83  C   UNL A   1      38.298  28.768  29.304  1.00  0.00     0.200 A 
ATOM     84  F   UNL A   1      38.879  27.887  31.417  1.00  0.00    -0.200 F 
ATOM     85  F   UNL A   1      37.019  28.883  29.686  1.00  0.00    -0.200 F 
ENDBRANCH  51  75
BRANCH  63  86
ATOM     86  C   UNL A   1      46.441  32.892  28.924  1.00  0.00     0.064 A 
ATOM     87  C   UNL A   1      46.830  33.187  30.238  1.00  0.00     0.173 A 
ATOM     88  C   UNL A   1      46.267  33.963  28.032  1.00  0.00     0.173 A 
ATOM     89  F   UNL A   1      46.995  32.200  31.130  1.00  0.00    -0.203 F 
ATOM     90  C   UNL A   1      47.028  34.504  30.645  1.00  0.00     0.198 A 
ATOM     91  C   UNL A   1      46.494  35.275  28.434  1.00  0.00     0.198 A 
ATOM     92  F   UNL A   1      45.902  33.732  26.761  1.00  0.00    -0.203 F 
ATOM     93  F   UNL A   1      47.367  34.767  31.915  1.00  0.00    -0.200 F 
ATOM     94  C   UNL A   1      46.872  35.545  29.741  1.00  0.00     0.200 A 
ATOM     95  F   UNL A   1      46.359  36.276  27.555  1.00  0.00    -0.200 F 
ATOM     96  F   UNL A   1      47.082  36.809  30.131  1.00  0.00    -0.200 F 
ENDBRANCH  63  86
ENDBRANCH  37  38
ENDBRANCH  29  32
ENDBRANCH  27  28
ENDBRANCH  26  27
ENDBRANCH  25  26
ENDBRANCH  24  25
ENDBRANCH   1  24
TORSDOF 17
ENDMDL
