MODEL 1
REMARK VINA RESULT:     -12.8      0.000      0.000
REMARK SMILES O=C(NCCCCCCNC(=O)[C@@H]1C[N@@H+](C2CCN(C(=O)c3ccccc3)CC2)C[C@H]1C1CC1)c1ccc(-c2c3nc(c(-c4c(F)c(F)c(F)c(F)c4F)c4ccc([nH]4)c(-c4c(F)c(F)c(F)c(F)c4F)c4nc(c(-c5c(F)c(F)c(F)c(F)c5F)c5ccc2[nH]5)C=C4)C=C3)cc1
REMARK SMILES IDX 6 1 5 2 4 3 3 4 1 5 2 6 35 8 36 9 97 10 37 11 96 12 38 13
REMARK SMILES IDX 39 14 40 15 90 16 41 17 95 18 89 19 91 20 42 21 94 22 88 23
REMARK SMILES IDX 87 24 43 26 75 27 55 28 74 29 56 30 59 31 73 32 92 33 57 34
REMARK SMILES IDX 58 35 72 37 93 38 60 39 44 40 45 41 53 42 46 43 47 44 51 45
REMARK SMILES IDX 54 46 48 47 49 48 52 49 50 50 76 51 77 52 85 53 78 54 79 55
REMARK SMILES IDX 83 56 86 57 80 58 81 59 84 60 82 61 61 62 62 63 70 64 63 65
REMARK SMILES IDX 64 66 68 67 71 68 65 69 66 70 69 71 67 72 7 73 8 74 9 75
REMARK SMILES IDX 10 76 11 77 12 79 13 80 14 81 31 82 15 83 30 84 32 86 33 87
REMARK SMILES IDX 34 88 16 89 17 90 29 91 18 92 28 93 19 94 20 95 21 96 22 97
REMARK SMILES IDX 23 98 27 99 24 100 26 101 25 102
REMARK H PARENT 3 7 91 25 59 36 10 78 15 85
REMARK Flexibility Score: inf
ROOT
ATOM      1  C   UNL A   1      31.402  30.781  26.402  1.00  0.00     0.002 C 
ENDROOT
BRANCH   1   2
ATOM      2  C   UNL A   1      31.385  32.308  26.510  1.00  0.00     0.021 C 
BRANCH   2   3
ATOM      3  C   UNL A   1      32.661  32.911  27.084  1.00  0.00     0.116 C 
BRANCH   3   4
ATOM      4  N   UNL A   1      32.443  34.257  27.600  1.00  0.00    -0.352 N 
ATOM      5  O   UNL A   1      32.554  35.945  29.090  1.00  0.00    -0.269 OA
ATOM      6  C   UNL A   1      33.019  34.892  28.673  1.00  0.00     0.251 C 
ATOM      7  H   UNL A   1      31.782  34.791  27.103  1.00  0.00     0.163 HD
BRANCH   6   8
ATOM      8  C   UNL A   1      34.198  34.294  29.333  1.00  0.00     0.039 A 
ATOM      9  C   UNL A   1      35.486  34.593  28.889  1.00  0.00     0.014 A 
ATOM     10  C   UNL A   1      34.012  33.437  30.422  1.00  0.00     0.014 A 
ATOM     11  C   UNL A   1      36.574  33.920  29.426  1.00  0.00     0.010 A 
ATOM     12  C   UNL A   1      35.118  32.831  31.025  1.00  0.00     0.010 A 
ATOM     13  C   UNL A   1      36.406  33.041  30.508  1.00  0.00    -0.014 A 
BRANCH  13  14
ATOM     14  C   UNL A   1      37.604  32.393  31.099  1.00  0.00     0.031 A 
ATOM     15  C   UNL A   1      38.076  32.743  32.482  1.00  0.00     0.074 A 
ATOM     16  C   UNL A   1      38.239  31.445  30.385  1.00  0.00     0.049 A 
ATOM     17  N   UNL A   1      39.067  32.229  33.169  1.00  0.00    -0.248 NA
ATOM     18  C   UNL A   1      37.353  33.813  33.184  1.00  0.00     0.031 C 
ATOM     19  C   UNL A   1      37.881  31.034  29.026  1.00  0.00     0.029 A 
ATOM     20  N   UNL A   1      39.299  30.636  30.707  1.00  0.00    -0.354 N 
ATOM     21  C   UNL A   1      39.100  32.927  34.369  1.00  0.00     0.074 A 
ATOM     22  C   UNL A   1      38.047  33.918  34.309  1.00  0.00     0.031 C 
ATOM     23  C   UNL A   1      38.663  30.012  28.654  1.00  0.00     0.029 A 
ATOM     24  C   UNL A   1      39.617  29.735  29.721  1.00  0.00     0.049 A 
ATOM     25  H   UNL A   1      39.784  30.695  31.561  1.00  0.00     0.167 HD
ATOM     26  C   UNL A   1      39.928  32.748  35.428  1.00  0.00     0.037 A 
ATOM     27  C   UNL A   1      40.576  28.791  29.678  1.00  0.00     0.037 A 
ATOM     28  C   UNL A   1      40.957  31.740  35.490  1.00  0.00     0.049 A 
ATOM     29  C   UNL A   1      41.484  28.623  30.862  1.00  0.00     0.074 A 
ATOM     30  C   UNL A   1      41.814  31.444  36.537  1.00  0.00     0.029 A 
ATOM     31  N   UNL A   1      41.273  30.867  34.458  1.00  0.00    -0.354 N 
ATOM     32  N   UNL A   1      41.473  29.255  32.010  1.00  0.00    -0.248 NA
ATOM     33  C   UNL A   1      42.539  27.609  30.742  1.00  0.00     0.031 C 
ATOM     34  C   UNL A   1      42.680  30.427  36.121  1.00  0.00     0.029 A 
ATOM     35  C   UNL A   1      42.328  30.050  34.835  1.00  0.00     0.049 A 
ATOM     36  H   UNL A   1      40.815  30.833  33.587  1.00  0.00     0.167 HD
ATOM     37  C   UNL A   1      42.501  28.701  32.759  1.00  0.00     0.074 A 
ATOM     38  C   UNL A   1      43.102  27.668  31.940  1.00  0.00     0.031 C 
ATOM     39  C   UNL A   1      42.912  29.021  34.010  1.00  0.00     0.037 A 
BRANCH  26  40
ATOM     40  C   UNL A   1      39.776  33.675  36.600  1.00  0.00     0.064 A 
ATOM     41  C   UNL A   1      40.456  34.901  36.671  1.00  0.00     0.173 A 
ATOM     42  C   UNL A   1      38.900  33.351  37.648  1.00  0.00     0.173 A 
ATOM     43  F   UNL A   1      41.310  35.255  35.700  1.00  0.00    -0.203 F 
ATOM     44  C   UNL A   1      40.286  35.753  37.760  1.00  0.00     0.198 A 
ATOM     45  C   UNL A   1      38.711  34.220  38.720  1.00  0.00     0.198 A 
ATOM     46  F   UNL A   1      38.217  32.197  37.628  1.00  0.00    -0.203 F 
ATOM     47  F   UNL A   1      40.981  36.897  37.828  1.00  0.00    -0.200 F 
ATOM     48  C   UNL A   1      39.409  35.416  38.780  1.00  0.00     0.200 A 
ATOM     49  F   UNL A   1      37.851  33.898  39.698  1.00  0.00    -0.200 F 
ATOM     50  F   UNL A   1      39.242  36.241  39.823  1.00  0.00    -0.200 F 
ENDBRANCH  26  40
BRANCH  27  51
ATOM     51  C   UNL A   1      40.710  27.928  28.478  1.00  0.00     0.064 A 
ATOM     52  C   UNL A   1      41.488  28.332  27.385  1.00  0.00     0.173 A 
ATOM     53  C   UNL A   1      40.075  26.680  28.402  1.00  0.00     0.173 A 
ATOM     54  F   UNL A   1      42.102  29.525  27.404  1.00  0.00    -0.203 F 
ATOM     55  C   UNL A   1      41.612  27.528  26.255  1.00  0.00     0.198 A 
ATOM     56  C   UNL A   1      40.225  25.863  27.284  1.00  0.00     0.198 A 
ATOM     57  F   UNL A   1      39.324  26.244  29.425  1.00  0.00    -0.203 F 
ATOM     58  F   UNL A   1      42.329  27.955  25.206  1.00  0.00    -0.200 F 
ATOM     59  C   UNL A   1      40.987  26.290  26.209  1.00  0.00     0.200 A 
ATOM     60  F   UNL A   1      39.634  24.660  27.252  1.00  0.00    -0.200 F 
ATOM     61  F   UNL A   1      41.115  25.513  25.125  1.00  0.00    -0.200 F 
ENDBRANCH  27  51
BRANCH  39  62
ATOM     62  C   UNL A   1      44.042  28.215  34.583  1.00  0.00     0.064 A 
ATOM     63  C   UNL A   1      45.377  28.628  34.461  1.00  0.00     0.173 A 
ATOM     64  C   UNL A   1      43.781  27.023  35.273  1.00  0.00     0.173 A 
ATOM     65  F   UNL A   1      45.679  29.751  33.795  1.00  0.00    -0.203 F 
ATOM     66  C   UNL A   1      46.413  27.855  34.981  1.00  0.00     0.198 A 
ATOM     67  C   UNL A   1      44.817  26.270  35.819  1.00  0.00     0.198 A 
ATOM     68  F   UNL A   1      42.521  26.587  35.421  1.00  0.00    -0.203 F 
ATOM     69  F   UNL A   1      47.685  28.237  34.802  1.00  0.00    -0.200 F 
ATOM     70  C   UNL A   1      46.132  26.682  35.664  1.00  0.00     0.200 A 
ATOM     71  F   UNL A   1      44.543  25.142  36.490  1.00  0.00    -0.200 F 
ATOM     72  F   UNL A   1      47.131  25.940  36.164  1.00  0.00    -0.200 F 
ENDBRANCH  39  62
ENDBRANCH  13  14
ENDBRANCH   6   8
ENDBRANCH   3   4
ENDBRANCH   2   3
ENDBRANCH   1   2
BRANCH   1  73
ATOM     73  C   UNL A   1      32.523  30.083  27.185  1.00  0.00     0.002 C 
BRANCH  73  74
ATOM     74  C   UNL A   1      32.497  28.553  27.116  1.00  0.00     0.021 C 
BRANCH  74  75
ATOM     75  C   UNL A   1      33.733  27.965  26.444  1.00  0.00     0.116 C 
BRANCH  75  76
ATOM     76  N   UNL A   1      34.118  28.719  25.263  1.00  0.00    -0.356 N 
ATOM     77  C   UNL A   1      33.717  28.576  23.965  1.00  0.00     0.229 C 
ATOM     78  H   UNL A   1      34.767  29.442  25.423  1.00  0.00     0.163 HD
ATOM     79  O   UNL A   1      34.139  29.377  23.132  1.00  0.00    -0.275 OA
BRANCH  77  80
ATOM     80  C   UNL A   1      32.816  27.415  23.595  1.00  0.00     0.142 C 
ATOM     81  C   UNL A   1      33.523  26.505  22.607  1.00  0.00     0.276 C 
ATOM     82  C   UNL A   1      31.519  27.787  22.887  1.00  0.00     0.065 C 
ATOM     83  N   UNL A   1      32.477  25.737  21.943  1.00  0.00    -0.331 N 
ATOM     84  C   UNL A   1      31.282  26.606  21.920  1.00  0.00     0.267 C 
ATOM     85  H   UNL A   1      32.844  25.515  21.017  1.00  0.00     0.348 HD
BRANCH  82  86
ATOM     86  C   UNL A   1      30.318  28.028  23.782  1.00  0.00    -0.001 C 
ATOM     87  C   UNL A   1      29.152  28.941  23.461  1.00  0.00     0.004 C 
ATOM     88  C   UNL A   1      28.965  27.451  23.439  1.00  0.00     0.004 C 
ENDBRANCH  82  86
BRANCH  83  89
ATOM     89  C   UNL A   1      32.199  24.343  22.333  1.00  0.00     0.187 C 
ATOM     90  C   UNL A   1      31.606  24.072  23.719  1.00  0.00     0.086 C 
ATOM     91  C   UNL A   1      33.352  23.350  22.095  1.00  0.00     0.086 C 
ATOM     92  C   UNL A   1      32.631  24.040  24.834  1.00  0.00     0.126 C 
ATOM     93  C   UNL A   1      34.370  23.222  23.225  1.00  0.00     0.126 C 
ATOM     94  N   UNL A   1      33.814  23.239  24.579  1.00  0.00    -0.338 N 
ATOM     95  C   UNL A   1      34.537  22.867  25.721  1.00  0.00     0.253 C 
ATOM     96  O   UNL A   1      34.181  23.135  26.868  1.00  0.00    -0.269 OA
BRANCH  95  97
ATOM     97  C   UNL A   1      35.790  22.105  25.586  1.00  0.00     0.040 A 
ATOM     98  C   UNL A   1      36.993  22.799  25.750  1.00  0.00     0.014 A 
ATOM     99  C   UNL A   1      35.788  20.766  25.188  1.00  0.00     0.014 A 
ATOM    100  C   UNL A   1      38.203  22.137  25.554  1.00  0.00     0.001 A 
ATOM    101  C   UNL A   1      37.004  20.107  24.998  1.00  0.00     0.001 A 
ATOM    102  C   UNL A   1      38.208  20.791  25.184  1.00  0.00     0.000 A 
ENDBRANCH  95  97
ENDBRANCH  83  89
ENDBRANCH  77  80
ENDBRANCH  75  76
ENDBRANCH  74  75
ENDBRANCH  73  74
ENDBRANCH   1  73
TORSDOF 16
ENDMDL
MODEL 2
REMARK VINA RESULT:     -12.4      1.928      2.782
REMARK SMILES O=C(NCCCCCCNC(=O)[C@@H]1C[N@@H+](C2CCN(C(=O)c3ccccc3)CC2)C[C@H]1C1CC1)c1ccc(-c2c3nc(c(-c4c(F)c(F)c(F)c(F)c4F)c4ccc([nH]4)c(-c4c(F)c(F)c(F)c(F)c4F)c4nc(c(-c5c(F)c(F)c(F)c(F)c5F)c5ccc2[nH]5)C=C4)C=C3)cc1
REMARK SMILES IDX 6 1 5 2 4 3 3 4 1 5 2 6 35 8 36 9 97 10 37 11 96 12 38 13
REMARK SMILES IDX 39 14 40 15 90 16 41 17 95 18 89 19 91 20 42 21 94 22 88 23
REMARK SMILES IDX 87 24 43 26 75 27 55 28 74 29 56 30 59 31 73 32 92 33 57 34
REMARK SMILES IDX 58 35 72 37 93 38 60 39 44 40 45 41 53 42 46 43 47 44 51 45
REMARK SMILES IDX 54 46 48 47 49 48 52 49 50 50 76 51 77 52 85 53 78 54 79 55
REMARK SMILES IDX 83 56 86 57 80 58 81 59 84 60 82 61 61 62 62 63 70 64 63 65
REMARK SMILES IDX 64 66 68 67 71 68 65 69 66 70 69 71 67 72 7 73 8 74 9 75
REMARK SMILES IDX 10 76 11 77 12 79 13 80 14 81 31 82 15 83 30 84 32 86 33 87
REMARK SMILES IDX 34 88 16 89 17 90 29 91 18 92 28 93 19 94 20 95 21 96 22 97
REMARK SMILES IDX 23 98 27 99 24 100 26 101 25 102
REMARK H PARENT 3 7 91 25 59 36 10 78 15 85
REMARK Flexibility Score: inf
ROOT
ATOM      1  C   UNL A   1      31.708  30.575  26.593  1.00  0.00     0.002 C 
ENDROOT
BRANCH   1   2
ATOM      2  C   UNL A   1      31.440  32.065  26.817  1.00  0.00     0.021 C 
BRANCH   2   3
ATOM      3  C   UNL A   1      32.693  32.931  26.846  1.00  0.00     0.116 C 
BRANCH   3   4
ATOM      4  N   UNL A   1      32.472  34.185  27.556  1.00  0.00    -0.352 N 
ATOM      5  O   UNL A   1      32.600  35.642  29.271  1.00  0.00    -0.269 OA
ATOM      6  C   UNL A   1      33.067  34.667  28.697  1.00  0.00     0.251 C 
ATOM      7  H   UNL A   1      31.794  34.775  27.157  1.00  0.00     0.163 HD
BRANCH   6   8
ATOM      8  C   UNL A   1      34.269  33.998  29.237  1.00  0.00     0.039 A 
ATOM      9  C   UNL A   1      34.147  32.873  30.052  1.00  0.00     0.014 A 
ATOM     10  C   UNL A   1      35.534  34.494  28.907  1.00  0.00     0.014 A 
ATOM     11  C   UNL A   1      35.273  32.339  30.662  1.00  0.00     0.010 A 
ATOM     12  C   UNL A   1      36.676  33.896  29.449  1.00  0.00     0.010 A 
ATOM     13  C   UNL A   1      36.552  32.835  30.359  1.00  0.00    -0.014 A 
BRANCH  13  14
ATOM     14  C   UNL A   1      37.737  32.192  30.980  1.00  0.00     0.031 A 
ATOM     15  C   UNL A   1      38.156  32.522  32.384  1.00  0.00     0.074 A 
ATOM     16  C   UNL A   1      38.410  31.266  30.271  1.00  0.00     0.049 A 
ATOM     17  N   UNL A   1      39.131  32.009  33.095  1.00  0.00    -0.248 NA
ATOM     18  C   UNL A   1      37.394  33.569  33.080  1.00  0.00     0.031 C 
ATOM     19  C   UNL A   1      38.104  30.875  28.893  1.00  0.00     0.029 A 
ATOM     20  N   UNL A   1      39.469  30.466  30.614  1.00  0.00    -0.354 N 
ATOM     21  C   UNL A   1      39.112  32.685  34.308  1.00  0.00     0.074 A 
ATOM     22  C   UNL A   1      38.048  33.662  34.230  1.00  0.00     0.031 C 
ATOM     23  C   UNL A   1      38.914  29.872  28.529  1.00  0.00     0.029 A 
ATOM     24  C   UNL A   1      39.834  29.587  29.623  1.00  0.00     0.049 A 
ATOM     25  H   UNL A   1      39.924  30.515  31.485  1.00  0.00     0.167 HD
ATOM     26  C   UNL A   1      39.907  32.497  35.391  1.00  0.00     0.037 A 
ATOM     27  C   UNL A   1      40.807  28.658  29.596  1.00  0.00     0.037 A 
ATOM     28  C   UNL A   1      40.946  31.502  35.471  1.00  0.00     0.049 A 
ATOM     29  C   UNL A   1      41.677  28.480  30.808  1.00  0.00     0.074 A 
ATOM     30  C   UNL A   1      41.771  31.198  36.541  1.00  0.00     0.029 A 
ATOM     31  N   UNL A   1      41.310  30.653  34.435  1.00  0.00    -0.354 N 
ATOM     32  N   UNL A   1      41.617  29.090  31.966  1.00  0.00    -0.248 NA
ATOM     33  C   UNL A   1      42.750  27.483  30.706  1.00  0.00     0.031 C 
ATOM     34  C   UNL A   1      42.665  30.201  36.137  1.00  0.00     0.029 A 
ATOM     35  C   UNL A   1      42.363  29.844  34.832  1.00  0.00     0.049 A 
ATOM     36  H   UNL A   1      40.883  30.629  33.548  1.00  0.00     0.167 HD
ATOM     37  C   UNL A   1      42.627  28.537  32.740  1.00  0.00     0.074 A 
ATOM     38  C   UNL A   1      43.270  27.527  31.923  1.00  0.00     0.031 C 
ATOM     39  C   UNL A   1      42.989  28.839  34.010  1.00  0.00     0.037 A 
BRANCH  26  40
ATOM     40  C   UNL A   1      39.701  33.400  36.574  1.00  0.00     0.064 A 
ATOM     41  C   UNL A   1      40.367  34.629  36.695  1.00  0.00     0.173 A 
ATOM     42  C   UNL A   1      38.787  33.049  37.581  1.00  0.00     0.173 A 
ATOM     43  F   UNL A   1      41.256  35.009  35.766  1.00  0.00    -0.203 F 
ATOM     44  C   UNL A   1      40.149  35.458  37.794  1.00  0.00     0.198 A 
ATOM     45  C   UNL A   1      38.549  33.895  38.661  1.00  0.00     0.198 A 
ATOM     46  F   UNL A   1      38.115  31.890  37.511  1.00  0.00    -0.203 F 
ATOM     47  F   UNL A   1      40.831  36.606  37.911  1.00  0.00    -0.200 F 
ATOM     48  C   UNL A   1      39.235  35.095  38.772  1.00  0.00     0.200 A 
ATOM     49  F   UNL A   1      37.654  33.548  39.598  1.00  0.00    -0.200 F 
ATOM     50  F   UNL A   1      39.020  35.898  39.823  1.00  0.00    -0.200 F 
ENDBRANCH  26  40
BRANCH  27  51
ATOM     51  C   UNL A   1      40.994  27.819  28.386  1.00  0.00     0.064 A 
ATOM     52  C   UNL A   1      40.321  26.598  28.246  1.00  0.00     0.173 A 
ATOM     53  C   UNL A   1      41.838  28.223  27.341  1.00  0.00     0.173 A 
ATOM     54  F   UNL A   1      39.516  26.161  29.227  1.00  0.00    -0.203 F 
ATOM     55  C   UNL A   1      40.497  25.805  27.115  1.00  0.00     0.198 A 
ATOM     56  C   UNL A   1      41.989  27.444  26.196  1.00  0.00     0.198 A 
ATOM     57  F   UNL A   1      42.499  29.387  27.423  1.00  0.00    -0.203 F 
ATOM     58  F   UNL A   1      39.873  24.623  27.024  1.00  0.00    -0.200 F 
ATOM     59  C   UNL A   1      41.324  26.233  26.087  1.00  0.00     0.200 A 
ATOM     60  F   UNL A   1      42.775  27.871  25.198  1.00  0.00    -0.200 F 
ATOM     61  F   UNL A   1      41.486  25.474  24.994  1.00  0.00    -0.200 F 
ENDBRANCH  27  51
BRANCH  39  62
ATOM     62  C   UNL A   1      44.111  28.037  34.607  1.00  0.00     0.064 A 
ATOM     63  C   UNL A   1      45.444  28.468  34.535  1.00  0.00     0.173 A 
ATOM     64  C   UNL A   1      43.842  26.830  35.269  1.00  0.00     0.173 A 
ATOM     65  F   UNL A   1      45.753  29.606  33.897  1.00  0.00    -0.203 F 
ATOM     66  C   UNL A   1      46.471  27.700  35.077  1.00  0.00     0.198 A 
ATOM     67  C   UNL A   1      44.870  26.081  35.837  1.00  0.00     0.198 A 
ATOM     68  F   UNL A   1      42.584  26.377  35.369  1.00  0.00    -0.203 F 
ATOM     69  F   UNL A   1      47.744  28.100  34.945  1.00  0.00    -0.200 F 
ATOM     70  C   UNL A   1      46.184  26.512  35.732  1.00  0.00     0.200 A 
ATOM     71  F   UNL A   1      44.589  24.940  36.480  1.00  0.00    -0.200 F 
ATOM     72  F   UNL A   1      47.175  25.775  36.252  1.00  0.00    -0.200 F 
ENDBRANCH  39  62
ENDBRANCH  13  14
ENDBRANCH   6   8
ENDBRANCH   3   4
ENDBRANCH   2   3
ENDBRANCH   1   2
BRANCH   1  73
ATOM     73  C   UNL A   1      31.280  30.032  25.223  1.00  0.00     0.002 C 
BRANCH  73  74
ATOM     74  C   UNL A   1      32.419  29.453  24.378  1.00  0.00     0.021 C 
BRANCH  74  75
ATOM     75  C   UNL A   1      31.935  28.462  23.324  1.00  0.00     0.116 C 
BRANCH  75  76
ATOM     76  N   UNL A   1      30.550  28.078  23.537  1.00  0.00    -0.356 N 
ATOM     77  C   UNL A   1      30.026  26.887  23.956  1.00  0.00     0.229 C 
ATOM     78  H   UNL A   1      29.888  28.783  23.349  1.00  0.00     0.163 HD
ATOM     79  O   UNL A   1      28.809  26.811  24.120  1.00  0.00    -0.275 OA
BRANCH  77  80
ATOM     80  C   UNL A   1      30.952  25.703  24.152  1.00  0.00     0.142 C 
ATOM     81  C   UNL A   1      30.582  24.593  23.185  1.00  0.00     0.276 C 
ATOM     82  C   UNL A   1      30.885  25.035  25.520  1.00  0.00     0.065 C 
ATOM     83  N   UNL A   1      31.146  23.368  23.740  1.00  0.00    -0.331 N 
ATOM     84  C   UNL A   1      31.143  23.544  25.208  1.00  0.00     0.267 C 
ATOM     85  H   UNL A   1      30.541  22.614  23.413  1.00  0.00     0.348 HD
BRANCH  82  86
ATOM     86  C   UNL A   1      31.850  25.563  26.565  1.00  0.00    -0.001 C 
ATOM     87  C   UNL A   1      33.079  26.403  26.282  1.00  0.00     0.004 C 
ATOM     88  C   UNL A   1      31.876  27.029  26.929  1.00  0.00     0.004 C 
ENDBRANCH  82  86
BRANCH  83  89
ATOM     89  C   UNL A   1      32.397  22.801  23.206  1.00  0.00     0.187 C 
ATOM     90  C   UNL A   1      32.356  22.065  21.864  1.00  0.00     0.086 C 
ATOM     91  C   UNL A   1      33.212  21.953  24.200  1.00  0.00     0.086 C 
ATOM     92  C   UNL A   1      31.900  20.624  21.961  1.00  0.00     0.126 C 
ATOM     93  C   UNL A   1      32.843  20.473  24.279  1.00  0.00     0.126 C 
ATOM     94  N   UNL A   1      32.534  19.832  23.000  1.00  0.00    -0.338 N 
ATOM     95  C   UNL A   1      32.442  18.444  22.829  1.00  0.00     0.253 C 
ATOM     96  O   UNL A   1      31.921  17.914  21.848  1.00  0.00    -0.269 OA
BRANCH  95  97
ATOM     97  C   UNL A   1      32.992  17.535  23.849  1.00  0.00     0.040 A 
ATOM     98  C   UNL A   1      34.338  17.174  23.739  1.00  0.00     0.014 A 
ATOM     99  C   UNL A   1      32.174  16.953  24.821  1.00  0.00     0.014 A 
ATOM    100  C   UNL A   1      34.881  16.255  24.635  1.00  0.00     0.001 A 
ATOM    101  C   UNL A   1      32.725  16.037  25.718  1.00  0.00     0.001 A 
ATOM    102  C   UNL A   1      34.076  15.692  25.627  1.00  0.00     0.000 A 
ENDBRANCH  95  97
ENDBRANCH  83  89
ENDBRANCH  77  80
ENDBRANCH  75  76
ENDBRANCH  74  75
ENDBRANCH  73  74
ENDBRANCH   1  73
TORSDOF 16
ENDMDL
MODEL 3
REMARK VINA RESULT:     -12.2      0.761      7.146
REMARK SMILES O=C(NCCCCCCNC(=O)[C@@H]1C[N@@H+](C2CCN(C(=O)c3ccccc3)CC2)C[C@H]1C1CC1)c1ccc(-c2c3nc(c(-c4c(F)c(F)c(F)c(F)c4F)c4ccc([nH]4)c(-c4c(F)c(F)c(F)c(F)c4F)c4nc(c(-c5c(F)c(F)c(F)c(F)c5F)c5ccc2[nH]5)C=C4)C=C3)cc1
REMARK SMILES IDX 6 1 5 2 4 3 3 4 1 5 2 6 35 8 36 9 97 10 37 11 96 12 38 13
REMARK SMILES IDX 39 14 40 15 90 16 41 17 95 18 89 19 91 20 42 21 94 22 88 23
REMARK SMILES IDX 87 24 43 26 75 27 55 28 74 29 56 30 59 31 73 32 92 33 57 34
REMARK SMILES IDX 58 35 72 37 93 38 60 39 44 40 45 41 53 42 46 43 47 44 51 45
REMARK SMILES IDX 54 46 48 47 49 48 52 49 50 50 76 51 77 52 85 53 78 54 79 55
REMARK SMILES IDX 83 56 86 57 80 58 81 59 84 60 82 61 61 62 62 63 70 64 63 65
REMARK SMILES IDX 64 66 68 67 71 68 65 69 66 70 69 71 67 72 7 73 8 74 9 75
REMARK SMILES IDX 10 76 11 77 12 79 13 80 14 81 31 82 15 83 30 84 32 86 33 87
REMARK SMILES IDX 34 88 16 89 17 90 29 91 18 92 28 93 19 94 20 95 21 96 22 97
REMARK SMILES IDX 23 98 27 99 24 100 26 101 25 102
REMARK H PARENT 3 7 91 25 59 36 10 78 15 85
REMARK Flexibility Score: inf
ROOT
ATOM      1  C   UNL A   1      34.056  31.297  28.111  1.00  0.00     0.002 C 
ENDROOT
BRANCH   1   2
ATOM      2  C   UNL A   1      33.727  32.567  27.322  1.00  0.00     0.021 C 
BRANCH   2   3
ATOM      3  C   UNL A   1      32.366  33.170  27.645  1.00  0.00     0.116 C 
BRANCH   3   4
ATOM      4  N   UNL A   1      32.448  34.607  27.876  1.00  0.00    -0.352 N 
ATOM      5  O   UNL A   1      32.980  36.498  28.981  1.00  0.00    -0.269 OA
ATOM      6  C   UNL A   1      33.204  35.312  28.781  1.00  0.00     0.251 C 
ATOM      7  H   UNL A   1      31.873  35.156  27.295  1.00  0.00     0.163 HD
BRANCH   6   8
ATOM      8  C   UNL A   1      34.284  34.629  29.523  1.00  0.00     0.039 A 
ATOM      9  C   UNL A   1      35.596  34.657  29.049  1.00  0.00     0.014 A 
ATOM     10  C   UNL A   1      33.983  33.968  30.717  1.00  0.00     0.014 A 
ATOM     11  C   UNL A   1      36.573  33.899  29.679  1.00  0.00     0.010 A 
ATOM     12  C   UNL A   1      34.989  33.281  31.404  1.00  0.00     0.010 A 
ATOM     13  C   UNL A   1      36.285  33.213  30.870  1.00  0.00    -0.014 A 
BRANCH  13  14
ATOM     14  C   UNL A   1      37.374  32.469  31.552  1.00  0.00     0.031 A 
ATOM     15  C   UNL A   1      38.081  31.329  30.874  1.00  0.00     0.074 A 
ATOM     16  C   UNL A   1      37.752  32.866  32.782  1.00  0.00     0.049 A 
ATOM     17  N   UNL A   1      39.091  30.613  31.306  1.00  0.00    -0.248 NA
ATOM     18  C   UNL A   1      37.589  30.931  29.548  1.00  0.00     0.031 C 
ATOM     19  C   UNL A   1      37.127  33.950  33.544  1.00  0.00     0.029 A 
ATOM     20  N   UNL A   1      38.763  32.428  33.597  1.00  0.00    -0.354 N 
ATOM     21  C   UNL A   1      39.338  29.669  30.317  1.00  0.00     0.074 A 
ATOM     22  C   UNL A   1      38.357  29.885  29.275  1.00  0.00     0.031 C 
ATOM     23  C   UNL A   1      37.804  34.133  34.685  1.00  0.00     0.029 A 
ATOM     24  C   UNL A   1      38.872  33.143  34.765  1.00  0.00     0.049 A 
ATOM     25  H   UNL A   1      39.354  31.676  33.369  1.00  0.00     0.167 HD
ATOM     26  C   UNL A   1      40.303  28.717  30.281  1.00  0.00     0.037 A 
ATOM     27  C   UNL A   1      39.733  33.012  35.790  1.00  0.00     0.037 A 
ATOM     28  C   UNL A   1      41.293  28.527  31.311  1.00  0.00     0.049 A 
ATOM     29  C   UNL A   1      40.785  31.942  35.725  1.00  0.00     0.074 A 
ATOM     30  C   UNL A   1      42.343  27.625  31.344  1.00  0.00     0.029 A 
ATOM     31  N   UNL A   1      41.351  29.248  32.496  1.00  0.00    -0.354 N 
ATOM     32  N   UNL A   1      41.039  31.089  34.764  1.00  0.00    -0.248 NA
ATOM     33  C   UNL A   1      41.668  31.818  36.891  1.00  0.00     0.031 C 
ATOM     34  C   UNL A   1      43.005  27.766  32.569  1.00  0.00     0.029 A 
ATOM     35  C   UNL A   1      42.402  28.794  33.277  1.00  0.00     0.049 A 
ATOM     36  H   UNL A   1      40.735  29.976  32.745  1.00  0.00     0.167 HD
ATOM     37  C   UNL A   1      42.125  30.342  35.195  1.00  0.00     0.074 A 
ATOM     38  C   UNL A   1      42.493  30.858  36.499  1.00  0.00     0.031 C 
ATOM     39  C   UNL A   1      42.759  29.321  34.570  1.00  0.00     0.037 A 
BRANCH  26  40
ATOM     40  C   UNL A   1      40.324  27.789  29.100  1.00  0.00     0.064 A 
ATOM     41  C   UNL A   1      41.122  28.039  27.973  1.00  0.00     0.173 A 
ATOM     42  C   UNL A   1      39.566  26.608  29.115  1.00  0.00     0.173 A 
ATOM     43  F   UNL A   1      41.860  29.157  27.903  1.00  0.00    -0.203 F 
ATOM     44  C   UNL A   1      41.138  27.156  26.896  1.00  0.00     0.198 A 
ATOM     45  C   UNL A   1      39.609  25.713  28.049  1.00  0.00     0.198 A 
ATOM     46  F   UNL A   1      38.792  26.314  30.171  1.00  0.00    -0.203 F 
ATOM     47  F   UNL A   1      41.874  27.438  25.811  1.00  0.00    -0.200 F 
ATOM     48  C   UNL A   1      40.388  25.990  26.937  1.00  0.00     0.200 A 
ATOM     49  F   UNL A   1      38.893  24.579  28.098  1.00  0.00    -0.200 F 
ATOM     50  F   UNL A   1      40.411  25.138  25.903  1.00  0.00    -0.200 F 
ENDBRANCH  26  40
BRANCH  27  51
ATOM     51  C   UNL A   1      39.642  33.931  36.953  1.00  0.00     0.064 A 
ATOM     52  C   UNL A   1      38.892  33.586  38.085  1.00  0.00     0.173 A 
ATOM     53  C   UNL A   1      40.309  35.165  36.964  1.00  0.00     0.173 A 
ATOM     54  F   UNL A   1      38.222  32.423  38.116  1.00  0.00    -0.203 F 
ATOM     55  C   UNL A   1      38.799  34.446  39.176  1.00  0.00     0.198 A 
ATOM     56  C   UNL A   1      40.241  36.010  38.068  1.00  0.00     0.198 A 
ATOM     57  F   UNL A   1      41.046  35.539  35.907  1.00  0.00    -0.203 F 
ATOM     58  F   UNL A   1      38.043  34.110  40.230  1.00  0.00    -0.200 F 
ATOM     59  C   UNL A   1      39.481  35.654  39.170  1.00  0.00     0.200 A 
ATOM     60  F   UNL A   1      40.916  37.168  38.064  1.00  0.00    -0.200 F 
ATOM     61  F   UNL A   1      39.399  36.478  40.224  1.00  0.00    -0.200 F 
ENDBRANCH  27  51
BRANCH  39  62
ATOM     62  C   UNL A   1      43.942  28.720  35.274  1.00  0.00     0.064 A 
ATOM     63  C   UNL A   1      43.803  27.640  36.158  1.00  0.00     0.173 A 
ATOM     64  C   UNL A   1      45.230  29.227  35.050  1.00  0.00     0.173 A 
ATOM     65  F   UNL A   1      42.590  27.132  36.419  1.00  0.00    -0.203 F 
ATOM     66  C   UNL A   1      44.910  27.111  36.817  1.00  0.00     0.198 A 
ATOM     67  C   UNL A   1      46.338  28.674  35.687  1.00  0.00     0.198 A 
ATOM     68  F   UNL A   1      45.417  30.257  34.211  1.00  0.00    -0.203 F 
ATOM     69  F   UNL A   1      44.747  26.117  37.702  1.00  0.00    -0.200 F 
ATOM     70  C   UNL A   1      46.176  27.623  36.577  1.00  0.00     0.200 A 
ATOM     71  F   UNL A   1      47.562  29.163  35.444  1.00  0.00    -0.200 F 
ATOM     72  F   UNL A   1      47.239  27.112  37.213  1.00  0.00    -0.200 F 
ENDBRANCH  39  62
ENDBRANCH  13  14
ENDBRANCH   6   8
ENDBRANCH   3   4
ENDBRANCH   2   3
ENDBRANCH   1   2
BRANCH   1  73
ATOM     73  C   UNL A   1      34.825  30.223  27.329  1.00  0.00     0.002 C 
BRANCH  73  74
ATOM     74  C   UNL A   1      34.159  28.845  27.307  1.00  0.00     0.021 C 
BRANCH  74  75
ATOM     75  C   UNL A   1      33.258  28.636  26.094  1.00  0.00     0.116 C 
BRANCH  75  76
ATOM     76  N   UNL A   1      33.916  29.023  24.858  1.00  0.00    -0.356 N 
ATOM     77  C   UNL A   1      33.757  28.534  23.591  1.00  0.00     0.229 C 
ATOM     78  H   UNL A   1      34.578  29.746  24.947  1.00  0.00     0.163 HD
ATOM     79  O   UNL A   1      34.391  29.062  22.678  1.00  0.00    -0.275 OA
BRANCH  77  80
ATOM     80  C   UNL A   1      32.853  27.338  23.371  1.00  0.00     0.142 C 
ATOM     81  C   UNL A   1      33.528  26.344  22.443  1.00  0.00     0.276 C 
ATOM     82  C   UNL A   1      31.525  27.634  22.687  1.00  0.00     0.065 C 
ATOM     83  N   UNL A   1      32.463  25.510  21.899  1.00  0.00    -0.331 N 
ATOM     84  C   UNL A   1      31.258  26.365  21.846  1.00  0.00     0.267 C 
ATOM     85  H   UNL A   1      32.793  25.204  20.984  1.00  0.00     0.348 HD
BRANCH  82  86
ATOM     86  C   UNL A   1      30.359  27.950  23.606  1.00  0.00    -0.001 C 
ATOM     87  C   UNL A   1      29.054  28.592  23.181  1.00  0.00     0.004 C 
ATOM     88  C   UNL A   1      29.087  27.138  23.556  1.00  0.00     0.004 C 
ENDBRANCH  82  86
BRANCH  83  89
ATOM     89  C   UNL A   1      32.215  24.157  22.430  1.00  0.00     0.187 C 
ATOM     90  C   UNL A   1      31.765  24.010  23.886  1.00  0.00     0.086 C 
ATOM     91  C   UNL A   1      33.331  23.130  22.160  1.00  0.00     0.086 C 
ATOM     92  C   UNL A   1      32.897  24.053  24.891  1.00  0.00     0.126 C 
ATOM     93  C   UNL A   1      34.458  23.079  23.189  1.00  0.00     0.126 C 
ATOM     94  N   UNL A   1      34.043  23.215  24.586  1.00  0.00    -0.338 N 
ATOM     95  C   UNL A   1      34.875  22.926  25.676  1.00  0.00     0.253 C 
ATOM     96  O   UNL A   1      34.639  23.293  26.826  1.00  0.00    -0.269 OA
BRANCH  95  97
ATOM     97  C   UNL A   1      36.103  22.137  25.479  1.00  0.00     0.040 A 
ATOM     98  C   UNL A   1      35.962  20.795  25.115  1.00  0.00     0.014 A 
ATOM     99  C   UNL A   1      37.363  22.670  25.766  1.00  0.00     0.014 A 
ATOM    100  C   UNL A   1      37.093  19.990  24.996  1.00  0.00     0.001 A 
ATOM    101  C   UNL A   1      38.492  21.859  25.639  1.00  0.00     0.001 A 
ATOM    102  C   UNL A   1      38.356  20.524  25.252  1.00  0.00     0.000 A 
ENDBRANCH  95  97
ENDBRANCH  83  89
ENDBRANCH  77  80
ENDBRANCH  75  76
ENDBRANCH  74  75
ENDBRANCH  73  74
ENDBRANCH   1  73
TORSDOF 16
ENDMDL
