MODEL 1
REMARK VINA RESULT:     -12.6      0.000      0.000
REMARK SMILES CC(C)Cc1cc2c(cc1Cl)C=C(C(=O)NCCCCCCNC(=O)c1ccc(-c3c4nc(c(-c5c(F)c(F)c(F)c(F)c5F)c5ccc([nH]5)c(-c5c(F)c(F)c(F)c(F)c5F)c5nc(c(-c6c(F)c(F)c(F)c(F)c6F)c6ccc3[nH]6)C=C5)C=C4)cc1)[C@@H](C(F)(F)F)O2
REMARK SMILES IDX 19 1 18 2 17 3 16 4 14 5 15 6 13 8 5 9 6 10 10 11 7 12 9 13
REMARK SMILES IDX 11 14 8 15 94 16 12 17 89 18 4 19 2 20 1 21 3 22 90 23 91 24
REMARK SMILES IDX 92 25 93 26 20 27 21 28 22 29 23 30 24 31 25 33 26 34 27 35
REMARK SMILES IDX 88 36 28 37 87 38 29 39 30 40 31 41 81 42 32 43 86 44 80 45
REMARK SMILES IDX 82 46 33 47 85 48 79 49 78 50 34 52 66 53 46 54 65 55 47 56
REMARK SMILES IDX 50 57 64 58 83 59 48 60 49 61 63 63 84 64 51 65 35 66 36 67
REMARK SMILES IDX 44 68 37 69 38 70 42 71 45 72 39 73 40 74 43 75 41 76 67 77
REMARK SMILES IDX 68 78 76 79 69 80 70 81 74 82 77 83 71 84 72 85 75 86 73 87
REMARK SMILES IDX 52 88 53 89 61 90 54 91 55 92 59 93 62 94 56 95 57 96 60 97
REMARK SMILES IDX 58 98
REMARK H PARENT 16 7 23 32 82 51 50 62
REMARK Flexibility Score: inf
ROOT
ATOM      1  C   UNL A   1      33.678  26.553  25.890  1.00  0.00     0.002 C 
ENDROOT
BRANCH   1   2
ATOM      2  C   UNL A   1      33.905  25.051  26.085  1.00  0.00     0.021 C 
BRANCH   2   3
ATOM      3  C   UNL A   1      34.412  24.313  24.851  1.00  0.00     0.116 C 
BRANCH   3   4
ATOM      4  N   UNL A   1      33.382  23.503  24.231  1.00  0.00    -0.352 N 
ATOM      5  C   UNL A   1      32.219  23.725  23.575  1.00  0.00     0.251 C 
ATOM      6  O   UNL A   1      31.642  22.711  23.172  1.00  0.00    -0.270 OA
ATOM      7  H   UNL A   1      33.580  22.542  24.306  1.00  0.00     0.163 HD
BRANCH   5   8
ATOM      8  C   UNL A   1      31.614  25.068  23.319  1.00  0.00     0.067 C 
ATOM      9  C   UNL A   1      28.279  28.859  22.962  1.00  0.00    -0.025 A 
ATOM     10  C   UNL A   1      29.639  28.706  22.647  1.00  0.00     0.052 A 
ATOM     11  C   UNL A   1      27.617  27.790  23.586  1.00  0.00     0.045 A 
ATOM     12  C   UNL A   1      30.305  27.511  22.913  1.00  0.00     0.128 A 
ATOM     13  C   UNL A   1      28.291  26.590  23.849  1.00  0.00     0.032 A 
ATOM     14  Cl  UNL A   1      25.957  27.881  24.055  1.00  0.00    -0.084 Cl
ATOM     15  C   UNL A   1      29.637  26.446  23.503  1.00  0.00     0.019 A 
ATOM     16  O   UNL A   1      31.624  27.478  22.585  1.00  0.00    -0.475 OA
ATOM     17  C   UNL A   1      30.349  25.203  23.757  1.00  0.00     0.025 C 
ATOM     18  C   UNL A   1      32.296  26.188  22.578  1.00  0.00     0.314 C 
BRANCH   9  19
ATOM     19  C   UNL A   1      27.599  30.151  22.563  1.00  0.00     0.040 C 
BRANCH  19  20
ATOM     20  C   UNL A   1      28.580  31.199  21.995  1.00  0.00    -0.013 C 
ATOM     21  C   UNL A   1      28.120  31.761  20.647  1.00  0.00     0.008 C 
ATOM     22  C   UNL A   1      28.753  32.344  22.995  1.00  0.00     0.008 C 
ENDBRANCH  19  20
ENDBRANCH   9  19
BRANCH  18  23
ATOM     23  C   UNL A   1      32.636  25.848  21.117  1.00  0.00     0.429 C 
ATOM     24  F   UNL A   1      33.145  24.591  21.035  1.00  0.00    -0.167 F 
ATOM     25  F   UNL A   1      31.558  25.870  20.302  1.00  0.00    -0.167 F 
ATOM     26  F   UNL A   1      33.551  26.692  20.591  1.00  0.00    -0.167 F 
ENDBRANCH  18  23
ENDBRANCH   5   8
ENDBRANCH   3   4
ENDBRANCH   2   3
ENDBRANCH   1   2
BRANCH   1  27
ATOM     27  C   UNL A   1      32.426  27.137  26.558  1.00  0.00     0.002 C 
BRANCH  27  28
ATOM     28  C   UNL A   1      31.911  28.458  25.982  1.00  0.00     0.021 C 
BRANCH  28  29
ATOM     29  C   UNL A   1      32.970  29.530  25.763  1.00  0.00     0.116 C 
BRANCH  29  30
ATOM     30  N   UNL A   1      32.564  30.839  26.244  1.00  0.00    -0.352 N 
ATOM     31  C   UNL A   1      33.191  31.662  27.150  1.00  0.00     0.251 C 
ATOM     32  H   UNL A   1      31.722  31.187  25.868  1.00  0.00     0.163 HD
ATOM     33  O   UNL A   1      32.646  32.688  27.541  1.00  0.00    -0.269 OA
BRANCH  31  34
ATOM     34  C   UNL A   1      34.518  31.281  27.685  1.00  0.00     0.039 A 
ATOM     35  C   UNL A   1      34.783  29.963  28.060  1.00  0.00     0.014 A 
ATOM     36  C   UNL A   1      35.498  32.266  27.839  1.00  0.00     0.014 A 
ATOM     37  C   UNL A   1      35.960  29.666  28.739  1.00  0.00     0.010 A 
ATOM     38  C   UNL A   1      36.717  31.946  28.447  1.00  0.00     0.010 A 
ATOM     39  C   UNL A   1      36.937  30.654  28.947  1.00  0.00    -0.014 A 
BRANCH  39  40
ATOM     40  C   UNL A   1      38.170  30.299  29.697  1.00  0.00     0.031 A 
ATOM     41  C   UNL A   1      38.375  30.765  31.113  1.00  0.00     0.074 A 
ATOM     42  C   UNL A   1      39.070  29.478  29.121  1.00  0.00     0.049 A 
ATOM     43  N   UNL A   1      39.342  30.467  31.946  1.00  0.00    -0.248 NA
ATOM     44  C   UNL A   1      37.372  31.685  31.670  1.00  0.00     0.031 C 
ATOM     45  C   UNL A   1      38.979  28.963  27.753  1.00  0.00     0.029 A 
ATOM     46  N   UNL A   1      40.209  28.898  29.619  1.00  0.00    -0.354 N 
ATOM     47  C   UNL A   1      39.070  31.168  33.114  1.00  0.00     0.074 A 
ATOM     48  C   UNL A   1      37.865  31.933  32.876  1.00  0.00     0.031 C 
ATOM     49  C   UNL A   1      39.975  28.090  27.547  1.00  0.00     0.029 A 
ATOM     50  C   UNL A   1      40.805  28.023  28.744  1.00  0.00     0.049 A 
ATOM     51  H   UNL A   1      40.566  29.092  30.517  1.00  0.00     0.167 HD
ATOM     52  C   UNL A   1      39.754  31.159  34.282  1.00  0.00     0.037 A 
ATOM     53  C   UNL A   1      41.896  27.247  28.891  1.00  0.00     0.037 A 
ATOM     54  C   UNL A   1      40.935  30.375  34.527  1.00  0.00     0.049 A 
ATOM     55  C   UNL A   1      42.651  27.278  30.189  1.00  0.00     0.074 A 
ATOM     56  C   UNL A   1      41.677  30.275  35.691  1.00  0.00     0.029 A 
ATOM     57  N   UNL A   1      41.546  29.553  33.592  1.00  0.00    -0.354 N 
ATOM     58  N   UNL A   1      42.367  27.927  31.291  1.00  0.00    -0.248 NA
ATOM     59  C   UNL A   1      43.883  26.481  30.260  1.00  0.00     0.031 C 
ATOM     60  C   UNL A   1      42.759  29.424  35.449  1.00  0.00     0.029 A 
ATOM     61  C   UNL A   1      42.669  28.961  34.147  1.00  0.00     0.049 A 
ATOM     62  H   UNL A   1      41.229  29.412  32.671  1.00  0.00     0.167 HD
ATOM     63  C   UNL A   1      43.377  27.614  32.188  1.00  0.00     0.074 A 
ATOM     64  C   UNL A   1      44.272  26.700  31.510  1.00  0.00     0.031 C 
ATOM     65  C   UNL A   1      43.549  28.054  33.458  1.00  0.00     0.037 A 
BRANCH  52  66
ATOM     66  C   UNL A   1      39.245  32.020  35.401  1.00  0.00     0.064 A 
ATOM     67  C   UNL A   1      38.428  31.496  36.414  1.00  0.00     0.173 A 
ATOM     68  C   UNL A   1      39.645  33.360  35.506  1.00  0.00     0.173 A 
ATOM     69  F   UNL A   1      38.011  30.223  36.354  1.00  0.00    -0.203 F 
ATOM     70  C   UNL A   1      38.020  32.287  37.485  1.00  0.00     0.198 A 
ATOM     71  C   UNL A   1      39.255  34.142  36.591  1.00  0.00     0.198 A 
ATOM     72  F   UNL A   1      40.434  33.906  34.568  1.00  0.00    -0.203 F 
ATOM     73  F   UNL A   1      37.218  31.774  38.428  1.00  0.00    -0.200 F 
ATOM     74  C   UNL A   1      38.441  33.606  37.577  1.00  0.00     0.200 A 
ATOM     75  F   UNL A   1      39.674  35.412  36.685  1.00  0.00    -0.200 F 
ATOM     76  F   UNL A   1      38.062  34.361  38.617  1.00  0.00    -0.200 F 
ENDBRANCH  52  66
BRANCH  53  77
ATOM     77  C   UNL A   1      42.316  26.360  27.777  1.00  0.00     0.064 A 
ATOM     78  C   UNL A   1      41.726  25.101  27.601  1.00  0.00     0.173 A 
ATOM     79  C   UNL A   1      43.281  26.767  26.844  1.00  0.00     0.173 A 
ATOM     80  F   UNL A   1      40.812  24.661  28.478  1.00  0.00    -0.203 F 
ATOM     81  C   UNL A   1      42.084  24.283  26.531  1.00  0.00     0.198 A 
ATOM     82  C   UNL A   1      43.619  25.960  25.760  1.00  0.00     0.198 A 
ATOM     83  F   UNL A   1      43.870  27.964  26.968  1.00  0.00    -0.203 F 
ATOM     84  F   UNL A   1      41.522  23.075  26.397  1.00  0.00    -0.200 F 
ATOM     85  C   UNL A   1      43.023  24.717  25.607  1.00  0.00     0.200 A 
ATOM     86  F   UNL A   1      44.514  26.391  24.861  1.00  0.00    -0.200 F 
ATOM     87  F   UNL A   1      43.353  23.939  24.568  1.00  0.00    -0.200 F 
ENDBRANCH  53  77
BRANCH  65  88
ATOM     88  C   UNL A   1      44.747  27.557  34.208  1.00  0.00     0.064 A 
ATOM     89  C   UNL A   1      44.693  26.378  34.963  1.00  0.00     0.173 A 
ATOM     90  C   UNL A   1      45.983  28.212  34.094  1.00  0.00     0.173 A 
ATOM     91  F   UNL A   1      43.531  25.723  35.111  1.00  0.00    -0.203 F 
ATOM     92  C   UNL A   1      45.833  25.873  35.583  1.00  0.00     0.198 A 
ATOM     93  C   UNL A   1      47.125  27.693  34.695  1.00  0.00     0.198 A 
ATOM     94  F   UNL A   1      46.085  29.341  33.376  1.00  0.00    -0.203 F 
ATOM     95  F   UNL A   1      45.756  24.755  36.317  1.00  0.00    -0.200 F 
ATOM     96  C   UNL A   1      47.049  26.525  35.439  1.00  0.00     0.200 A 
ATOM     97  F   UNL A   1      48.302  28.317  34.546  1.00  0.00    -0.200 F 
ATOM     98  F   UNL A   1      48.150  26.027  36.019  1.00  0.00    -0.200 F 
ENDBRANCH  65  88
ENDBRANCH  39  40
ENDBRANCH  31  34
ENDBRANCH  29  30
ENDBRANCH  28  29
ENDBRANCH  27  28
ENDBRANCH   1  27
TORSDOF 16
ENDMDL
MODEL 2
REMARK VINA RESULT:     -12.4      4.754      7.975
REMARK SMILES CC(C)Cc1cc2c(cc1Cl)C=C(C(=O)NCCCCCCNC(=O)c1ccc(-c3c4nc(c(-c5c(F)c(F)c(F)c(F)c5F)c5ccc([nH]5)c(-c5c(F)c(F)c(F)c(F)c5F)c5nc(c(-c6c(F)c(F)c(F)c(F)c6F)c6ccc3[nH]6)C=C5)C=C4)cc1)[C@@H](C(F)(F)F)O2
REMARK SMILES IDX 19 1 18 2 17 3 16 4 14 5 15 6 13 8 5 9 6 10 10 11 7 12 9 13
REMARK SMILES IDX 11 14 8 15 94 16 12 17 89 18 4 19 2 20 1 21 3 22 90 23 91 24
REMARK SMILES IDX 92 25 93 26 20 27 21 28 22 29 23 30 24 31 25 33 26 34 27 35
REMARK SMILES IDX 88 36 28 37 87 38 29 39 30 40 31 41 81 42 32 43 86 44 80 45
REMARK SMILES IDX 82 46 33 47 85 48 79 49 78 50 34 52 66 53 46 54 65 55 47 56
REMARK SMILES IDX 50 57 64 58 83 59 48 60 49 61 63 63 84 64 51 65 35 66 36 67
REMARK SMILES IDX 44 68 37 69 38 70 42 71 45 72 39 73 40 74 43 75 41 76 67 77
REMARK SMILES IDX 68 78 76 79 69 80 70 81 74 82 77 83 71 84 72 85 75 86 73 87
REMARK SMILES IDX 52 88 53 89 61 90 54 91 55 92 59 93 62 94 56 95 57 96 60 97
REMARK SMILES IDX 58 98
REMARK H PARENT 16 7 23 32 82 51 50 62
REMARK Flexibility Score: inf
ROOT
ATOM      1  C   UNL A   1      37.543  21.898  25.090  1.00  0.00     0.002 C 
ENDROOT
BRANCH   1   2
ATOM      2  C   UNL A   1      36.729  22.986  24.384  1.00  0.00     0.021 C 
BRANCH   2   3
ATOM      3  C   UNL A   1      36.187  24.078  25.300  1.00  0.00     0.116 C 
BRANCH   3   4
ATOM      4  N   UNL A   1      35.062  23.624  26.094  1.00  0.00    -0.352 N 
ATOM      5  C   UNL A   1      33.728  23.851  26.129  1.00  0.00     0.251 C 
ATOM      6  O   UNL A   1      33.109  23.209  26.984  1.00  0.00    -0.270 OA
ATOM      7  H   UNL A   1      35.341  22.984  26.788  1.00  0.00     0.163 HD
BRANCH   5   8
ATOM      8  C   UNL A   1      32.988  24.792  25.234  1.00  0.00     0.067 C 
ATOM      9  C   UNL A   1      30.650  28.916  23.461  1.00  0.00    -0.025 A 
ATOM     10  C   UNL A   1      30.882  27.623  22.968  1.00  0.00     0.052 A 
ATOM     11  C   UNL A   1      31.213  29.266  24.698  1.00  0.00     0.045 A 
ATOM     12  C   UNL A   1      31.621  26.698  23.703  1.00  0.00     0.128 A 
ATOM     13  C   UNL A   1      31.954  28.332  25.434  1.00  0.00     0.032 A 
ATOM     14  Cl  UNL A   1      31.028  30.841  25.383  1.00  0.00    -0.084 Cl
ATOM     15  C   UNL A   1      32.151  27.040  24.940  1.00  0.00     0.019 A 
ATOM     16  O   UNL A   1      31.800  25.481  23.123  1.00  0.00    -0.475 OA
ATOM     17  C   UNL A   1      32.905  26.053  25.697  1.00  0.00     0.025 C 
ATOM     18  C   UNL A   1      32.314  24.398  23.946  1.00  0.00     0.314 C 
BRANCH   9  19
ATOM     19  C   UNL A   1      29.764  29.837  22.650  1.00  0.00     0.040 C 
BRANCH  19  20
ATOM     20  C   UNL A   1      28.405  30.119  23.328  1.00  0.00    -0.013 C 
ATOM     21  C   UNL A   1      27.873  31.519  23.014  1.00  0.00     0.008 C 
ATOM     22  C   UNL A   1      27.379  29.071  22.890  1.00  0.00     0.008 C 
ENDBRANCH  19  20
ENDBRANCH   9  19
BRANCH  18  23
ATOM     23  C   UNL A   1      31.182  23.373  24.127  1.00  0.00     0.429 C 
ATOM     24  F   UNL A   1      31.690  22.114  24.156  1.00  0.00    -0.167 F 
ATOM     25  F   UNL A   1      30.503  23.530  25.286  1.00  0.00    -0.167 F 
ATOM     26  F   UNL A   1      30.277  23.423  23.125  1.00  0.00    -0.167 F 
ENDBRANCH  18  23
ENDBRANCH   5   8
ENDBRANCH   3   4
ENDBRANCH   2   3
ENDBRANCH   1   2
BRANCH   1  27
ATOM     27  C   UNL A   1      37.185  20.450  24.732  1.00  0.00     0.002 C 
BRANCH  27  28
ATOM     28  C   UNL A   1      38.232  19.392  25.085  1.00  0.00     0.021 C 
BRANCH  28  29
ATOM     29  C   UNL A   1      39.494  19.921  25.753  1.00  0.00     0.116 C 
BRANCH  29  30
ATOM     30  N   UNL A   1      40.512  18.901  25.937  1.00  0.00    -0.352 N 
ATOM     31  C   UNL A   1      41.861  19.055  26.157  1.00  0.00     0.251 C 
ATOM     32  H   UNL A   1      40.192  17.970  25.900  1.00  0.00     0.163 HD
ATOM     33  O   UNL A   1      42.605  18.080  26.168  1.00  0.00    -0.269 OA
BRANCH  31  34
ATOM     34  C   UNL A   1      42.421  20.412  26.343  1.00  0.00     0.039 A 
ATOM     35  C   UNL A   1      42.438  21.009  27.604  1.00  0.00     0.014 A 
ATOM     36  C   UNL A   1      42.909  21.105  25.231  1.00  0.00     0.014 A 
ATOM     37  C   UNL A   1      42.785  22.351  27.725  1.00  0.00     0.010 A 
ATOM     38  C   UNL A   1      43.337  22.430  25.370  1.00  0.00     0.010 A 
ATOM     39  C   UNL A   1      43.231  23.079  26.608  1.00  0.00    -0.014 A 
BRANCH  39  40
ATOM     40  C   UNL A   1      43.570  24.517  26.776  1.00  0.00     0.031 A 
ATOM     41  C   UNL A   1      42.577  25.482  27.365  1.00  0.00     0.074 A 
ATOM     42  C   UNL A   1      44.816  24.932  26.474  1.00  0.00     0.049 A 
ATOM     43  N   UNL A   1      42.740  26.745  27.673  1.00  0.00    -0.248 NA
ATOM     44  C   UNL A   1      41.226  24.970  27.642  1.00  0.00     0.031 C 
ATOM     45  C   UNL A   1      45.863  24.089  25.897  1.00  0.00     0.029 A 
ATOM     46  N   UNL A   1      45.426  26.148  26.647  1.00  0.00    -0.354 N 
ATOM     47  C   UNL A   1      41.516  27.178  28.167  1.00  0.00     0.074 A 
ATOM     48  C   UNL A   1      40.608  26.055  28.089  1.00  0.00     0.031 C 
ATOM     49  C   UNL A   1      47.004  24.789  25.832  1.00  0.00     0.029 A 
ATOM     50  C   UNL A   1      46.758  26.145  26.310  1.00  0.00     0.049 A 
ATOM     51  H   UNL A   1      44.955  26.947  26.979  1.00  0.00     0.167 HD
ATOM     52  C   UNL A   1      41.187  28.397  28.656  1.00  0.00     0.037 A 
ATOM     53  C   UNL A   1      47.681  27.123  26.384  1.00  0.00     0.037 A 
ATOM     54  C   UNL A   1      42.100  29.505  28.760  1.00  0.00     0.049 A 
ATOM     55  C   UNL A   1      47.281  28.474  26.905  1.00  0.00     0.074 A 
ATOM     56  C   UNL A   1      41.866  30.769  29.275  1.00  0.00     0.029 A 
ATOM     57  N   UNL A   1      43.423  29.480  28.344  1.00  0.00    -0.354 N 
ATOM     58  N   UNL A   1      46.127  28.860  27.391  1.00  0.00    -0.248 NA
ATOM     59  C   UNL A   1      48.305  29.526  26.877  1.00  0.00     0.031 C 
ATOM     60  C   UNL A   1      43.035  31.521  29.134  1.00  0.00     0.029 A 
ATOM     61  C   UNL A   1      44.010  30.715  28.570  1.00  0.00     0.049 A 
ATOM     62  H   UNL A   1      43.876  28.702  27.948  1.00  0.00     0.167 HD
ATOM     63  C   UNL A   1      46.286  30.195  27.731  1.00  0.00     0.074 A 
ATOM     64  C   UNL A   1      47.655  30.548  27.417  1.00  0.00     0.031 C 
ATOM     65  C   UNL A   1      45.373  31.051  28.251  1.00  0.00     0.037 A 
BRANCH  52  66
ATOM     66  C   UNL A   1      39.779  28.610  29.128  1.00  0.00     0.064 A 
ATOM     67  C   UNL A   1      39.407  28.361  30.457  1.00  0.00     0.173 A 
ATOM     68  C   UNL A   1      38.811  29.143  28.263  1.00  0.00     0.173 A 
ATOM     69  F   UNL A   1      40.292  27.842  31.320  1.00  0.00    -0.203 F 
ATOM     70  C   UNL A   1      38.114  28.629  30.900  1.00  0.00     0.198 A 
ATOM     71  C   UNL A   1      37.527  29.431  28.715  1.00  0.00     0.198 A 
ATOM     72  F   UNL A   1      39.120  29.406  26.983  1.00  0.00    -0.203 F 
ATOM     73  F   UNL A   1      37.772  28.359  32.167  1.00  0.00    -0.200 F 
ATOM     74  C   UNL A   1      37.178  29.171  30.031  1.00  0.00     0.200 A 
ATOM     75  F   UNL A   1      36.627  29.969  27.878  1.00  0.00    -0.200 F 
ATOM     76  F   UNL A   1      35.939  29.444  30.464  1.00  0.00    -0.200 F 
ENDBRANCH  52  66
BRANCH  53  77
ATOM     77  C   UNL A   1      49.079  26.840  25.970  1.00  0.00     0.064 A 
ATOM     78  C   UNL A   1      50.006  26.324  26.885  1.00  0.00     0.173 A 
ATOM     79  C   UNL A   1      49.503  27.037  24.648  1.00  0.00     0.173 A 
ATOM     80  F   UNL A   1      49.652  26.135  28.164  1.00  0.00    -0.203 F 
ATOM     81  C   UNL A   1      51.307  26.014  26.491  1.00  0.00     0.198 A 
ATOM     82  C   UNL A   1      50.795  26.703  24.250  1.00  0.00     0.198 A 
ATOM     83  F   UNL A   1      48.651  27.525  23.736  1.00  0.00    -0.203 F 
ATOM     84  F   UNL A   1      52.182  25.543  27.390  1.00  0.00    -0.200 F 
ATOM     85  C   UNL A   1      51.697  26.195  25.173  1.00  0.00     0.200 A 
ATOM     86  F   UNL A   1      51.162  26.864  22.971  1.00  0.00    -0.200 F 
ATOM     87  F   UNL A   1      52.942  25.879  24.791  1.00  0.00    -0.200 F 
ENDBRANCH  53  77
BRANCH  65  88
ATOM     88  C   UNL A   1      45.815  32.457  28.519  1.00  0.00     0.064 A 
ATOM     89  C   UNL A   1      46.445  32.804  29.722  1.00  0.00     0.173 A 
ATOM     90  C   UNL A   1      45.694  33.443  27.528  1.00  0.00     0.173 A 
ATOM     91  F   UNL A   1      46.573  31.897  30.703  1.00  0.00    -0.203 F 
ATOM     92  C   UNL A   1      46.934  34.091  29.927  1.00  0.00     0.198 A 
ATOM     93  C   UNL A   1      46.204  34.723  27.727  1.00  0.00     0.198 A 
ATOM     94  F   UNL A   1      45.104  33.156  26.358  1.00  0.00    -0.203 F 
ATOM     95  F   UNL A   1      47.515  34.408  31.092  1.00  0.00    -0.200 F 
ATOM     96  C   UNL A   1      46.823  35.045  28.926  1.00  0.00     0.200 A 
ATOM     97  F   UNL A   1      46.107  35.640  26.755  1.00  0.00    -0.200 F 
ATOM     98  F   UNL A   1      47.313  36.278  29.117  1.00  0.00    -0.200 F 
ENDBRANCH  65  88
ENDBRANCH  39  40
ENDBRANCH  31  34
ENDBRANCH  29  30
ENDBRANCH  28  29
ENDBRANCH  27  28
ENDBRANCH   1  27
TORSDOF 16
ENDMDL
MODEL 3
REMARK VINA RESULT:     -12.3      3.071      8.786
REMARK SMILES CC(C)Cc1cc2c(cc1Cl)C=C(C(=O)NCCCCCCNC(=O)c1ccc(-c3c4nc(c(-c5c(F)c(F)c(F)c(F)c5F)c5ccc([nH]5)c(-c5c(F)c(F)c(F)c(F)c5F)c5nc(c(-c6c(F)c(F)c(F)c(F)c6F)c6ccc3[nH]6)C=C5)C=C4)cc1)[C@@H](C(F)(F)F)O2
REMARK SMILES IDX 19 1 18 2 17 3 16 4 14 5 15 6 13 8 5 9 6 10 10 11 7 12 9 13
REMARK SMILES IDX 11 14 8 15 94 16 12 17 89 18 4 19 2 20 1 21 3 22 90 23 91 24
REMARK SMILES IDX 92 25 93 26 20 27 21 28 22 29 23 30 24 31 25 33 26 34 27 35
REMARK SMILES IDX 88 36 28 37 87 38 29 39 30 40 31 41 81 42 32 43 86 44 80 45
REMARK SMILES IDX 82 46 33 47 85 48 79 49 78 50 34 52 66 53 46 54 65 55 47 56
REMARK SMILES IDX 50 57 64 58 83 59 48 60 49 61 63 63 84 64 51 65 35 66 36 67
REMARK SMILES IDX 44 68 37 69 38 70 42 71 45 72 39 73 40 74 43 75 41 76 67 77
REMARK SMILES IDX 68 78 76 79 69 80 70 81 74 82 77 83 71 84 72 85 75 86 73 87
REMARK SMILES IDX 52 88 53 89 61 90 54 91 55 92 59 93 62 94 56 95 57 96 60 97
REMARK SMILES IDX 58 98
REMARK H PARENT 16 7 23 32 82 51 50 62
REMARK Flexibility Score: inf
ROOT
ATOM      1  C   UNL A   1      34.987  32.028  28.380  1.00  0.00     0.002 C 
ENDROOT
BRANCH   1   2
ATOM      2  C   UNL A   1      33.717  31.588  27.646  1.00  0.00     0.021 C 
BRANCH   2   3
ATOM      3  C   UNL A   1      33.695  30.122  27.227  1.00  0.00     0.116 C 
BRANCH   3   4
ATOM      4  N   UNL A   1      33.552  29.961  25.793  1.00  0.00    -0.352 N 
ATOM      5  C   UNL A   1      33.253  28.951  24.943  1.00  0.00     0.251 C 
ATOM      6  O   UNL A   1      33.209  29.266  23.749  1.00  0.00    -0.270 OA
ATOM      7  H   UNL A   1      33.713  30.805  25.314  1.00  0.00     0.163 HD
BRANCH   5   8
ATOM      8  C   UNL A   1      32.985  27.536  25.342  1.00  0.00     0.067 C 
ATOM      9  C   UNL A   1      33.568  22.583  26.208  1.00  0.00    -0.025 A 
ATOM     10  C   UNL A   1      32.503  23.489  26.329  1.00  0.00     0.052 A 
ATOM     11  C   UNL A   1      34.824  23.082  25.829  1.00  0.00     0.045 A 
ATOM     12  C   UNL A   1      32.677  24.842  26.043  1.00  0.00     0.128 A 
ATOM     13  C   UNL A   1      34.993  24.443  25.541  1.00  0.00     0.032 A 
ATOM     14  Cl  UNL A   1      36.215  22.068  25.688  1.00  0.00    -0.084 Cl
ATOM     15  C   UNL A   1      33.915  25.325  25.640  1.00  0.00     0.019 A 
ATOM     16  O   UNL A   1      31.583  25.632  26.212  1.00  0.00    -0.475 OA
ATOM     17  C   UNL A   1      34.069  26.738  25.332  1.00  0.00     0.025 C 
ATOM     18  C   UNL A   1      31.623  26.981  25.670  1.00  0.00     0.314 C 
BRANCH   9  19
ATOM     19  C   UNL A   1      33.285  21.116  26.446  1.00  0.00     0.040 C 
BRANCH  19  20
ATOM     20  C   UNL A   1      33.363  20.268  25.158  1.00  0.00    -0.013 C 
ATOM     21  C   UNL A   1      32.902  18.825  25.377  1.00  0.00     0.008 C 
ATOM     22  C   UNL A   1      32.519  20.915  24.058  1.00  0.00     0.008 C 
ENDBRANCH  19  20
ENDBRANCH   9  19
BRANCH  18  23
ATOM     23  C   UNL A   1      30.629  27.044  24.499  1.00  0.00     0.429 C 
ATOM     24  F   UNL A   1      29.530  26.297  24.777  1.00  0.00    -0.167 F 
ATOM     25  F   UNL A   1      30.181  28.294  24.249  1.00  0.00    -0.167 F 
ATOM     26  F   UNL A   1      31.159  26.573  23.348  1.00  0.00    -0.167 F 
ENDBRANCH  18  23
ENDBRANCH   5   8
ENDBRANCH   3   4
ENDBRANCH   2   3
ENDBRANCH   1   2
BRANCH   1  27
ATOM     27  C   UNL A   1      34.929  33.401  29.064  1.00  0.00     0.002 C 
BRANCH  27  28
ATOM     28  C   UNL A   1      33.596  34.146  28.962  1.00  0.00     0.021 C 
BRANCH  28  29
ATOM     29  C   UNL A   1      33.655  35.633  29.283  1.00  0.00     0.116 C 
BRANCH  29  30
ATOM     30  N   UNL A   1      32.660  36.046  30.258  1.00  0.00    -0.352 N 
ATOM     31  C   UNL A   1      32.614  35.792  31.609  1.00  0.00     0.251 C 
ATOM     32  H   UNL A   1      31.915  36.583  29.902  1.00  0.00     0.163 HD
ATOM     33  O   UNL A   1      31.631  36.112  32.269  1.00  0.00    -0.269 OA
BRANCH  31  34
ATOM     34  C   UNL A   1      33.743  35.090  32.259  1.00  0.00     0.039 A 
ATOM     35  C   UNL A   1      34.992  35.702  32.370  1.00  0.00     0.014 A 
ATOM     36  C   UNL A   1      33.552  33.790  32.738  1.00  0.00     0.014 A 
ATOM     37  C   UNL A   1      36.085  34.959  32.804  1.00  0.00     0.010 A 
ATOM     38  C   UNL A   1      34.637  33.073  33.254  1.00  0.00     0.010 A 
ATOM     39  C   UNL A   1      35.922  33.634  33.244  1.00  0.00    -0.014 A 
BRANCH  39  40
ATOM     40  C   UNL A   1      37.120  32.868  33.678  1.00  0.00     0.031 A 
ATOM     41  C   UNL A   1      37.786  31.885  32.754  1.00  0.00     0.074 A 
ATOM     42  C   UNL A   1      37.658  33.130  34.886  1.00  0.00     0.049 A 
ATOM     43  N   UNL A   1      38.893  31.207  32.933  1.00  0.00    -0.248 NA
ATOM     44  C   UNL A   1      37.129  31.624  31.465  1.00  0.00     0.031 C 
ATOM     45  C   UNL A   1      37.100  34.061  35.868  1.00  0.00     0.029 A 
ATOM     46  N   UNL A   1      38.809  32.674  35.477  1.00  0.00    -0.354 N 
ATOM     47  C   UNL A   1      39.058  30.436  31.791  1.00  0.00     0.074 A 
ATOM     48  C   UNL A   1      37.922  30.702  30.935  1.00  0.00     0.031 C 
ATOM     49  C   UNL A   1      37.944  34.163  36.904  1.00  0.00     0.029 A 
ATOM     50  C   UNL A   1      39.074  33.266  36.687  1.00  0.00     0.049 A 
ATOM     51  H   UNL A   1      39.388  31.987  35.073  1.00  0.00     0.167 HD
ATOM     52  C   UNL A   1      40.072  29.596  31.478  1.00  0.00     0.037 A 
ATOM     53  C   UNL A   1      40.115  33.110  37.528  1.00  0.00     0.037 A 
ATOM     54  C   UNL A   1      41.216  29.355  32.317  1.00  0.00     0.049 A 
ATOM     55  C   UNL A   1      41.213  32.151  37.168  1.00  0.00     0.074 A 
ATOM     56  C   UNL A   1      42.312  28.546  32.069  1.00  0.00     0.029 A 
ATOM     57  N   UNL A   1      41.413  29.923  33.567  1.00  0.00    -0.354 N 
ATOM     58  N   UNL A   1      41.366  31.448  36.073  1.00  0.00    -0.248 NA
ATOM     59  C   UNL A   1      42.275  31.953  38.163  1.00  0.00     0.031 C 
ATOM     60  C   UNL A   1      43.153  28.594  33.184  1.00  0.00     0.029 A 
ATOM     61  C   UNL A   1      42.602  29.464  34.110  1.00  0.00     0.049 A 
ATOM     62  H   UNL A   1      40.800  30.558  34.002  1.00  0.00     0.167 HD
ATOM     63  C   UNL A   1      42.540  30.730  36.243  1.00  0.00     0.074 A 
ATOM     64  C   UNL A   1      43.073  31.099  37.538  1.00  0.00     0.031 C 
ATOM     65  C   UNL A   1      43.118  29.840  35.401  1.00  0.00     0.037 A 
BRANCH  52  66
ATOM     66  C   UNL A   1      40.006  28.870  30.166  1.00  0.00     0.064 A 
ATOM     67  C   UNL A   1      40.593  29.398  29.007  1.00  0.00     0.173 A 
ATOM     68  C   UNL A   1      39.422  27.597  30.086  1.00  0.00     0.173 A 
ATOM     69  F   UNL A   1      41.156  30.615  29.030  1.00  0.00    -0.203 F 
ATOM     70  C   UNL A   1      40.586  28.683  27.812  1.00  0.00     0.198 A 
ATOM     71  C   UNL A   1      39.438  26.875  28.896  1.00  0.00     0.198 A 
ATOM     72  F   UNL A   1      38.854  27.044  31.169  1.00  0.00    -0.203 F 
ATOM     73  F   UNL A   1      41.130  29.218  26.710  1.00  0.00    -0.200 F 
ATOM     74  C   UNL A   1      40.017  27.419  27.760  1.00  0.00     0.200 A 
ATOM     75  F   UNL A   1      38.899  25.648  28.850  1.00  0.00    -0.200 F 
ATOM     76  F   UNL A   1      40.027  26.725  26.613  1.00  0.00    -0.200 F 
ENDBRANCH  52  66
BRANCH  53  77
ATOM     77  C   UNL A   1      40.167  33.905  38.781  1.00  0.00     0.064 A 
ATOM     78  C   UNL A   1      39.525  33.455  39.942  1.00  0.00     0.173 A 
ATOM     79  C   UNL A   1      40.892  35.104  38.855  1.00  0.00     0.173 A 
ATOM     80  F   UNL A   1      38.806  32.324  39.915  1.00  0.00    -0.203 F 
ATOM     81  C   UNL A   1      39.609  34.174  41.133  1.00  0.00     0.198 A 
ATOM     82  C   UNL A   1      40.996  35.808  40.053  1.00  0.00     0.198 A 
ATOM     83  F   UNL A   1      41.525  35.573  37.772  1.00  0.00    -0.203 F 
ATOM     84  F   UNL A   1      38.968  33.735  42.225  1.00  0.00    -0.200 F 
ATOM     85  C   UNL A   1      40.350  35.344  41.189  1.00  0.00     0.200 A 
ATOM     86  F   UNL A   1      41.728  36.929  40.106  1.00  0.00    -0.200 F 
ATOM     87  F   UNL A   1      40.446  36.026  42.339  1.00  0.00    -0.200 F 
ENDBRANCH  53  77
BRANCH  65  88
ATOM     88  C   UNL A   1      44.397  29.196  35.844  1.00  0.00     0.064 A 
ATOM     89  C   UNL A   1      44.394  27.976  36.533  1.00  0.00     0.173 A 
ATOM     90  C   UNL A   1      45.635  29.755  35.495  1.00  0.00     0.173 A 
ATOM     91  F   UNL A   1      43.233  27.410  36.899  1.00  0.00    -0.203 F 
ATOM     92  C   UNL A   1      45.587  27.338  36.862  1.00  0.00     0.198 A 
ATOM     93  C   UNL A   1      46.826  29.104  35.805  1.00  0.00     0.198 A 
ATOM     94  F   UNL A   1      45.688  30.918  34.830  1.00  0.00    -0.203 F 
ATOM     95  F   UNL A   1      45.562  26.182  37.538  1.00  0.00    -0.200 F 
ATOM     96  C   UNL A   1      46.800  27.897  36.488  1.00  0.00     0.200 A 
ATOM     97  F   UNL A   1      47.997  29.638  35.433  1.00  0.00    -0.200 F 
ATOM     98  F   UNL A   1      47.947  27.272  36.787  1.00  0.00    -0.200 F 
ENDBRANCH  65  88
ENDBRANCH  39  40
ENDBRANCH  31  34
ENDBRANCH  29  30
ENDBRANCH  28  29
ENDBRANCH  27  28
ENDBRANCH   1  27
TORSDOF 16
ENDMDL
