MODEL 1
REMARK VINA RESULT:     -12.7      0.000      0.000
REMARK SMILES Nc1c(C(=O)OCC2c3ccccc3-c3ccccc32)ccc(F)c1C(=O)NCCCCCCNC(=O)c1ccc(-c2c3nc(c(-c4c(F)c(F)c(F)c(F)c4F)c4ccc([nH]4)c(-c4c(F)c(F)c(F)c(F)c4F)c4nc(c(-c5c(F)c(F)c(F)c(F)c5F)c5ccc2[nH]5)C=C4)C=C3)cc1
REMARK SMILES IDX 30 1 29 2 28 3 26 4 27 5 25 7 2 8 3 9 21 10 23 11 22 12
REMARK SMILES IDX 24 13 1 14 4 17 5 18 6 19 7 20 8 21 9 22 20 23 10 24 14 25
REMARK SMILES IDX 15 26 19 27 11 28 13 29 16 30 18 31 12 32 17 33 31 34 32 35
REMARK SMILES IDX 33 36 34 37 35 38 36 39 37 41 38 42 39 43 100 44 40 45 99 46
REMARK SMILES IDX 41 47 42 48 43 49 93 50 44 51 98 52 92 53 94 54 45 55 97 56
REMARK SMILES IDX 91 57 90 58 46 60 78 61 58 62 77 63 59 64 62 65 76 66 95 67
REMARK SMILES IDX 60 68 61 69 75 71 96 72 63 73 47 74 48 75 56 76 49 77 50 78
REMARK SMILES IDX 54 79 57 80 51 81 52 82 55 83 53 84 79 85 80 86 88 87 81 88
REMARK SMILES IDX 82 89 86 90 89 91 83 92 84 93 87 94 85 95 64 96 65 97 73 98
REMARK SMILES IDX 66 99 67 100 71 101 74 102 68 103 69 104 72 105 70 106
REMARK H PARENT 28 6 1 15 1 16 35 40 94 59 62 70
REMARK Flexibility Score: inf
ROOT
ATOM      1  C   UNL A   1      37.300  23.061  25.442  1.00  0.00     0.021 C 
ENDROOT
BRANCH   1   2
ATOM      2  C   UNL A   1      35.935  23.544  25.951  1.00  0.00     0.116 C 
BRANCH   2   3
ATOM      3  N   UNL A   1      35.259  22.456  26.632  1.00  0.00    -0.352 N 
ATOM      4  C   UNL A   1      33.936  22.089  26.694  1.00  0.00     0.256 C 
ATOM      5  O   UNL A   1      33.641  21.240  27.536  1.00  0.00    -0.269 OA
ATOM      6  H   UNL A   1      35.861  21.871  27.147  1.00  0.00     0.163 HD
BRANCH   4   7
ATOM      7  C   UNL A   1      32.879  22.601  25.775  1.00  0.00     0.099 A 
ATOM      8  C   UNL A   1      31.896  23.563  26.091  1.00  0.00     0.062 A 
ATOM      9  C   UNL A   1      31.011  23.990  25.070  1.00  0.00     0.084 A 
ATOM     10  C   UNL A   1      31.003  23.382  23.809  1.00  0.00     0.021 A 
ATOM     11  C   UNL A   1      32.872  22.030  24.488  1.00  0.00     0.138 A 
ATOM     12  C   UNL A   1      31.930  22.389  23.525  1.00  0.00     0.041 A 
ATOM     13  F   UNL A   1      33.783  21.113  24.127  1.00  0.00    -0.206 F 
BRANCH   8  14
ATOM     14  N   UNL A   1      31.616  23.941  27.412  1.00  0.00    -0.397 N 
ATOM     15  H   UNL A   1      31.905  24.820  27.745  1.00  0.00     0.156 HD
ATOM     16  H   UNL A   1      31.130  23.324  28.008  1.00  0.00     0.156 HD
ENDBRANCH   8  14
BRANCH   9  17
ATOM     17  C   UNL A   1      30.060  25.104  25.295  1.00  0.00     0.340 C 
ATOM     18  O   UNL A   1      29.509  25.326  26.360  1.00  0.00    -0.246 OA
BRANCH  17  19
ATOM     19  O   UNL A   1      29.854  25.746  24.108  1.00  0.00    -0.461 OA
BRANCH  19  20
ATOM     20  C   UNL A   1      29.750  27.181  24.173  1.00  0.00     0.246 C 
BRANCH  20  21
ATOM     21  C   UNL A   1      31.059  27.897  23.774  1.00  0.00     0.088 C 
ATOM     22  C   UNL A   1      31.917  28.264  24.977  1.00  0.00    -0.029 A 
ATOM     23  C   UNL A   1      31.965  26.904  23.050  1.00  0.00    -0.029 A 
ATOM     24  C   UNL A   1      31.695  29.258  25.918  1.00  0.00     0.005 A 
ATOM     25  C   UNL A   1      33.028  27.402  25.061  1.00  0.00    -0.014 A 
ATOM     26  C   UNL A   1      33.079  26.592  23.863  1.00  0.00    -0.014 A 
ATOM     27  C   UNL A   1      31.784  26.313  21.809  1.00  0.00     0.005 A 
ATOM     28  C   UNL A   1      32.537  29.310  27.027  1.00  0.00     0.000 A 
ATOM     29  C   UNL A   1      33.858  27.448  26.167  1.00  0.00     0.009 A 
ATOM     30  C   UNL A   1      34.019  25.669  23.437  1.00  0.00     0.009 A 
ATOM     31  C   UNL A   1      32.735  25.385  21.382  1.00  0.00     0.000 A 
ATOM     32  C   UNL A   1      33.592  28.394  27.165  1.00  0.00     0.001 A 
ATOM     33  C   UNL A   1      33.839  25.063  22.189  1.00  0.00     0.001 A 
ENDBRANCH  20  21
ENDBRANCH  19  20
ENDBRANCH  17  19
ENDBRANCH   9  17
ENDBRANCH   4   7
ENDBRANCH   2   3
ENDBRANCH   1   2
BRANCH   1  34
ATOM     34  C   UNL A   1      37.223  22.015  24.330  1.00  0.00     0.002 C 
BRANCH  34  35
ATOM     35  C   UNL A   1      37.061  20.578  24.828  1.00  0.00     0.002 C 
BRANCH  35  36
ATOM     36  C   UNL A   1      38.345  19.743  24.813  1.00  0.00     0.021 C 
BRANCH  36  37
ATOM     37  C   UNL A   1      39.307  20.048  25.956  1.00  0.00     0.116 C 
BRANCH  37  38
ATOM     38  N   UNL A   1      40.397  19.085  26.006  1.00  0.00    -0.352 N 
ATOM     39  C   UNL A   1      41.749  19.306  26.047  1.00  0.00     0.251 C 
ATOM     40  H   UNL A   1      40.124  18.140  26.011  1.00  0.00     0.163 HD
ATOM     41  O   UNL A   1      42.535  18.398  25.797  1.00  0.00    -0.269 OA
BRANCH  39  42
ATOM     42  C   UNL A   1      42.262  20.647  26.392  1.00  0.00     0.039 A 
ATOM     43  C   UNL A   1      42.694  21.496  25.371  1.00  0.00     0.014 A 
ATOM     44  C   UNL A   1      42.336  21.057  27.727  1.00  0.00     0.014 A 
ATOM     45  C   UNL A   1      43.151  22.776  25.686  1.00  0.00     0.010 A 
ATOM     46  C   UNL A   1      42.716  22.359  28.032  1.00  0.00     0.010 A 
ATOM     47  C   UNL A   1      43.136  23.230  27.016  1.00  0.00    -0.014 A 
BRANCH  47  48
ATOM     48  C   UNL A   1      43.561  24.610  27.362  1.00  0.00     0.031 A 
ATOM     49  C   UNL A   1      42.540  25.631  27.780  1.00  0.00     0.074 A 
ATOM     50  C   UNL A   1      44.857  24.956  27.240  1.00  0.00     0.049 A 
ATOM     51  N   UNL A   1      42.703  26.900  28.056  1.00  0.00    -0.248 NA
ATOM     52  C   UNL A   1      41.143  25.174  27.874  1.00  0.00     0.031 C 
ATOM     53  C   UNL A   1      45.933  24.065  26.802  1.00  0.00     0.029 A 
ATOM     54  N   UNL A   1      45.491  26.153  27.466  1.00  0.00    -0.354 N 
ATOM     55  C   UNL A   1      41.437  27.391  28.346  1.00  0.00     0.074 A 
ATOM     56  C   UNL A   1      40.506  26.301  28.156  1.00  0.00     0.031 C 
ATOM     57  C   UNL A   1      47.095  24.737  26.815  1.00  0.00     0.029 A 
ATOM     58  C   UNL A   1      46.841  26.117  27.217  1.00  0.00     0.049 A 
ATOM     59  H   UNL A   1      45.022  26.960  27.777  1.00  0.00     0.167 HD
ATOM     60  C   UNL A   1      41.087  28.633  28.757  1.00  0.00     0.037 A 
ATOM     61  C   UNL A   1      47.768  27.091  27.293  1.00  0.00     0.037 A 
ATOM     62  C   UNL A   1      42.022  29.708  28.965  1.00  0.00     0.049 A 
ATOM     63  C   UNL A   1      47.345  28.469  27.732  1.00  0.00     0.074 A 
ATOM     64  C   UNL A   1      41.775  30.987  29.434  1.00  0.00     0.029 A 
ATOM     65  N   UNL A   1      43.384  29.631  28.712  1.00  0.00    -0.354 N 
ATOM     66  N   UNL A   1      46.155  28.902  28.072  1.00  0.00    -0.248 NA
ATOM     67  C   UNL A   1      48.397  29.492  27.803  1.00  0.00     0.031 C 
ATOM     68  C   UNL A   1      42.975  31.702  29.406  1.00  0.00     0.029 A 
ATOM     69  C   UNL A   1      43.985  30.850  28.987  1.00  0.00     0.049 A 
ATOM     70  H   UNL A   1      43.854  28.830  28.386  1.00  0.00     0.167 HD
ATOM     71  C   UNL A   1      46.321  30.232  28.432  1.00  0.00     0.074 A 
ATOM     72  C   UNL A   1      47.729  30.531  28.285  1.00  0.00     0.031 C 
ATOM     73  C   UNL A   1      45.391  31.127  28.848  1.00  0.00     0.037 A 
BRANCH  60  74
ATOM     74  C   UNL A   1      39.631  28.904  29.011  1.00  0.00     0.064 A 
ATOM     75  C   UNL A   1      39.059  28.725  30.279  1.00  0.00     0.173 A 
ATOM     76  C   UNL A   1      38.813  29.409  27.989  1.00  0.00     0.173 A 
ATOM     77  F   UNL A   1      39.792  28.236  31.290  1.00  0.00    -0.203 F 
ATOM     78  C   UNL A   1      37.716  29.017  30.508  1.00  0.00     0.198 A 
ATOM     79  C   UNL A   1      37.481  29.731  28.229  1.00  0.00     0.198 A 
ATOM     80  F   UNL A   1      39.310  29.605  26.758  1.00  0.00    -0.203 F 
ATOM     81  F   UNL A   1      37.180  28.795  31.717  1.00  0.00    -0.200 F 
ATOM     82  C   UNL A   1      36.931  29.529  29.486  1.00  0.00     0.200 A 
ATOM     83  F   UNL A   1      36.728  30.241  27.245  1.00  0.00    -0.200 F 
ATOM     84  F   UNL A   1      35.644  29.825  29.712  1.00  0.00    -0.200 F 
ENDBRANCH  60  74
BRANCH  61  85
ATOM     85  C   UNL A   1      49.188  26.805  26.954  1.00  0.00     0.064 A 
ATOM     86  C   UNL A   1      50.085  26.348  27.930  1.00  0.00     0.173 A 
ATOM     87  C   UNL A   1      49.685  27.008  25.659  1.00  0.00     0.173 A 
ATOM     88  F   UNL A   1      49.664  26.155  29.189  1.00  0.00    -0.203 F 
ATOM     89  C   UNL A   1      51.431  26.142  27.632  1.00  0.00     0.198 A 
ATOM     90  C   UNL A   1      51.023  26.767  25.353  1.00  0.00     0.198 A 
ATOM     91  F   UNL A   1      48.869  27.436  24.684  1.00  0.00    -0.203 F 
ATOM     92  F   UNL A   1      52.279  25.767  28.601  1.00  0.00    -0.200 F 
ATOM     93  C   UNL A   1      51.898  26.347  26.343  1.00  0.00     0.200 A 
ATOM     94  F   UNL A   1      51.465  26.948  24.102  1.00  0.00    -0.200 F 
ATOM     95  F   UNL A   1      53.192  26.151  26.058  1.00  0.00    -0.200 F 
ENDBRANCH  61  85
BRANCH  73  96
ATOM     96  C   UNL A   1      45.872  32.501  29.221  1.00  0.00     0.064 A 
ATOM     97  C   UNL A   1      45.899  33.554  28.295  1.00  0.00     0.173 A 
ATOM     98  C   UNL A   1      46.275  32.775  30.537  1.00  0.00     0.173 A 
ATOM     99  F   UNL A   1      45.538  33.341  27.020  1.00  0.00    -0.203 F 
ATOM    100  C   UNL A   1      46.339  34.821  28.664  1.00  0.00     0.198 A 
ATOM    101  C   UNL A   1      46.678  34.052  30.913  1.00  0.00     0.198 A 
ATOM    102  F   UNL A   1      46.260  31.806  31.466  1.00  0.00    -0.203 F 
ATOM    103  F   UNL A   1      46.409  35.798  27.749  1.00  0.00    -0.200 F 
ATOM    104  C   UNL A   1      46.720  35.072  29.974  1.00  0.00     0.200 A 
ATOM    105  F   UNL A   1      47.027  34.297  32.183  1.00  0.00    -0.200 F 
ATOM    106  F   UNL A   1      47.134  36.296  30.331  1.00  0.00    -0.200 F 
ENDBRANCH  73  96
ENDBRANCH  47  48
ENDBRANCH  39  42
ENDBRANCH  37  38
ENDBRANCH  36  37
ENDBRANCH  35  36
ENDBRANCH  34  35
ENDBRANCH   1  34
TORSDOF 18
ENDMDL
MODEL 2
REMARK VINA RESULT:     -12.6      5.936     10.459
REMARK SMILES Nc1c(C(=O)OCC2c3ccccc3-c3ccccc32)ccc(F)c1C(=O)NCCCCCCNC(=O)c1ccc(-c2c3nc(c(-c4c(F)c(F)c(F)c(F)c4F)c4ccc([nH]4)c(-c4c(F)c(F)c(F)c(F)c4F)c4nc(c(-c5c(F)c(F)c(F)c(F)c5F)c5ccc2[nH]5)C=C4)C=C3)cc1
REMARK SMILES IDX 30 1 29 2 28 3 26 4 27 5 25 7 2 8 3 9 21 10 23 11 22 12
REMARK SMILES IDX 24 13 1 14 4 17 5 18 6 19 7 20 8 21 9 22 20 23 10 24 14 25
REMARK SMILES IDX 15 26 19 27 11 28 13 29 16 30 18 31 12 32 17 33 31 34 32 35
REMARK SMILES IDX 33 36 34 37 35 38 36 39 37 41 38 42 39 43 100 44 40 45 99 46
REMARK SMILES IDX 41 47 42 48 43 49 93 50 44 51 98 52 92 53 94 54 45 55 97 56
REMARK SMILES IDX 91 57 90 58 46 60 78 61 58 62 77 63 59 64 62 65 76 66 95 67
REMARK SMILES IDX 60 68 61 69 75 71 96 72 63 73 47 74 48 75 56 76 49 77 50 78
REMARK SMILES IDX 54 79 57 80 51 81 52 82 55 83 53 84 79 85 80 86 88 87 81 88
REMARK SMILES IDX 82 89 86 90 89 91 83 92 84 93 87 94 85 95 64 96 65 97 73 98
REMARK SMILES IDX 66 99 67 100 71 101 74 102 68 103 69 104 72 105 70 106
REMARK H PARENT 28 6 1 15 1 16 35 40 94 59 62 70
REMARK Flexibility Score: inf
ROOT
ATOM      1  C   UNL A   1      34.857  31.204  28.270  1.00  0.00     0.021 C 
ENDROOT
BRANCH   1   2
ATOM      2  C   UNL A   1      34.419  30.253  27.147  1.00  0.00     0.116 C 
BRANCH   2   3
ATOM      3  N   UNL A   1      33.480  29.282  27.675  1.00  0.00    -0.352 N 
ATOM      4  C   UNL A   1      32.541  28.484  27.066  1.00  0.00     0.256 C 
ATOM      5  O   UNL A   1      31.738  27.917  27.809  1.00  0.00    -0.269 OA
ATOM      6  H   UNL A   1      33.522  29.175  28.652  1.00  0.00     0.163 HD
BRANCH   4   7
ATOM      7  C   UNL A   1      32.487  28.221  25.599  1.00  0.00     0.099 A 
ATOM      8  C   UNL A   1      33.237  27.252  24.898  1.00  0.00     0.062 A 
ATOM      9  C   UNL A   1      33.005  27.089  23.510  1.00  0.00     0.084 A 
ATOM     10  C   UNL A   1      32.160  27.953  22.804  1.00  0.00     0.021 A 
ATOM     11  C   UNL A   1      31.616  29.055  24.870  1.00  0.00     0.138 A 
ATOM     12  C   UNL A   1      31.475  28.947  23.488  1.00  0.00     0.041 A 
ATOM     13  F   UNL A   1      30.875  29.992  25.481  1.00  0.00    -0.206 F 
BRANCH   8  14
ATOM     14  N   UNL A   1      34.348  26.612  25.465  1.00  0.00    -0.397 N 
ATOM     15  H   UNL A   1      34.227  25.785  25.986  1.00  0.00     0.156 HD
ATOM     16  H   UNL A   1      35.249  26.990  25.345  1.00  0.00     0.156 HD
ENDBRANCH   8  14
BRANCH   9  17
ATOM     17  C   UNL A   1      33.646  25.990  22.749  1.00  0.00     0.340 C 
ATOM     18  O   UNL A   1      34.007  26.083  21.589  1.00  0.00    -0.246 OA
BRANCH  17  19
ATOM     19  O   UNL A   1      33.664  24.872  23.534  1.00  0.00    -0.461 OA
BRANCH  19  20
ATOM     20  C   UNL A   1      33.204  23.657  22.914  1.00  0.00     0.246 C 
BRANCH  20  21
ATOM     21  C   UNL A   1      32.061  22.977  23.701  1.00  0.00     0.088 C 
ATOM     22  C   UNL A   1      32.525  22.406  25.034  1.00  0.00    -0.029 A 
ATOM     23  C   UNL A   1      31.072  24.045  24.159  1.00  0.00    -0.029 A 
ATOM     24  C   UNL A   1      33.309  21.285  25.262  1.00  0.00     0.005 A 
ATOM     25  C   UNL A   1      32.069  23.216  26.093  1.00  0.00    -0.014 A 
ATOM     26  C   UNL A   1      31.149  24.200  25.563  1.00  0.00    -0.014 A 
ATOM     27  C   UNL A   1      30.222  24.825  23.389  1.00  0.00     0.005 A 
ATOM     28  C   UNL A   1      33.741  21.042  26.564  1.00  0.00     0.000 A 
ATOM     29  C   UNL A   1      32.506  22.979  27.384  1.00  0.00     0.009 A 
ATOM     30  C   UNL A   1      30.378  25.152  26.205  1.00  0.00     0.009 A 
ATOM     31  C   UNL A   1      29.443  25.783  24.041  1.00  0.00     0.000 A 
ATOM     32  C   UNL A   1      33.366  21.898  27.612  1.00  0.00     0.001 A 
ATOM     33  C   UNL A   1      29.524  25.948  25.435  1.00  0.00     0.001 A 
ENDBRANCH  20  21
ENDBRANCH  19  20
ENDBRANCH  17  19
ENDBRANCH   9  17
ENDBRANCH   4   7
ENDBRANCH   2   3
ENDBRANCH   1   2
BRANCH   1  34
ATOM     34  C   UNL A   1      34.591  32.682  27.982  1.00  0.00     0.002 C 
BRANCH  34  35
ATOM     35  C   UNL A   1      34.218  33.506  29.214  1.00  0.00     0.002 C 
BRANCH  35  36
ATOM     36  C   UNL A   1      33.101  34.529  28.990  1.00  0.00     0.021 C 
BRANCH  36  37
ATOM     37  C   UNL A   1      33.404  35.921  29.535  1.00  0.00     0.116 C 
BRANCH  37  38
ATOM     38  N   UNL A   1      32.581  36.230  30.695  1.00  0.00    -0.352 N 
ATOM     39  C   UNL A   1      32.651  35.727  31.968  1.00  0.00     0.251 C 
ATOM     40  H   UNL A   1      31.873  36.897  30.544  1.00  0.00     0.163 HD
ATOM     41  O   UNL A   1      31.714  35.873  32.746  1.00  0.00    -0.269 OA
BRANCH  39  42
ATOM     42  C   UNL A   1      33.862  35.002  32.403  1.00  0.00     0.039 A 
ATOM     43  C   UNL A   1      33.736  33.709  32.914  1.00  0.00     0.014 A 
ATOM     44  C   UNL A   1      35.119  35.610  32.327  1.00  0.00     0.014 A 
ATOM     45  C   UNL A   1      34.878  33.006  33.300  1.00  0.00     0.010 A 
ATOM     46  C   UNL A   1      36.261  34.881  32.637  1.00  0.00     0.010 A 
ATOM     47  C   UNL A   1      36.153  33.574  33.135  1.00  0.00    -0.014 A 
BRANCH  47  48
ATOM     48  C   UNL A   1      37.382  32.817  33.481  1.00  0.00     0.031 A 
ATOM     49  C   UNL A   1      38.123  33.122  34.753  1.00  0.00     0.074 A 
ATOM     50  C   UNL A   1      37.861  31.898  32.620  1.00  0.00     0.049 A 
ATOM     51  N   UNL A   1      39.247  32.619  35.198  1.00  0.00    -0.248 NA
ATOM     52  C   UNL A   1      37.539  34.149  35.632  1.00  0.00     0.031 C 
ATOM     53  C   UNL A   1      37.254  31.546  31.336  1.00  0.00     0.029 A 
ATOM     54  N   UNL A   1      38.974  31.097  32.691  1.00  0.00    -0.354 N 
ATOM     55  C   UNL A   1      39.507  33.272  36.396  1.00  0.00     0.074 A 
ATOM     56  C   UNL A   1      38.458  34.249  36.582  1.00  0.00     0.031 C 
ATOM     57  C   UNL A   1      37.985  30.584  30.751  1.00  0.00     0.029 A 
ATOM     58  C   UNL A   1      39.138  30.283  31.596  1.00  0.00     0.049 A 
ATOM     59  H   UNL A   1      39.595  31.105  33.454  1.00  0.00     0.167 HD
ATOM     60  C   UNL A   1      40.517  33.058  37.271  1.00  0.00     0.037 A 
ATOM     61  C   UNL A   1      40.114  29.404  31.302  1.00  0.00     0.037 A 
ATOM     62  C   UNL A   1      41.547  32.068  37.091  1.00  0.00     0.049 A 
ATOM     63  C   UNL A   1      41.236  29.203  32.285  1.00  0.00     0.074 A 
ATOM     64  C   UNL A   1      42.582  31.734  37.946  1.00  0.00     0.029 A 
ATOM     65  N   UNL A   1      41.675  31.256  35.973  1.00  0.00    -0.354 N 
ATOM     66  N   UNL A   1      41.433  29.776  33.448  1.00  0.00    -0.248 NA
ATOM     67  C   UNL A   1      42.272  28.227  31.918  1.00  0.00     0.031 C 
ATOM     68  C   UNL A   1      43.371  30.765  37.321  1.00  0.00     0.029 A 
ATOM     69  C   UNL A   1      42.789  30.443  36.105  1.00  0.00     0.049 A 
ATOM     70  H   UNL A   1      41.063  31.256  35.201  1.00  0.00     0.167 HD
ATOM     71  C   UNL A   1      42.587  29.206  33.966  1.00  0.00     0.074 A 
ATOM     72  C   UNL A   1      43.040  28.230  32.998  1.00  0.00     0.031 C 
ATOM     73  C   UNL A   1      43.218  29.466  35.137  1.00  0.00     0.037 A 
BRANCH  60  74
ATOM     74  C   UNL A   1      40.564  33.907  38.510  1.00  0.00     0.064 A 
ATOM     75  C   UNL A   1      41.278  35.115  38.549  1.00  0.00     0.173 A 
ATOM     76  C   UNL A   1      39.835  33.540  39.651  1.00  0.00     0.173 A 
ATOM     77  F   UNL A   1      42.001  35.508  37.489  1.00  0.00    -0.203 F 
ATOM     78  C   UNL A   1      41.281  35.910  39.692  1.00  0.00     0.198 A 
ATOM     79  C   UNL A   1      39.813  34.354  40.781  1.00  0.00     0.198 A 
ATOM     80  F   UNL A   1      39.130  32.399  39.667  1.00  0.00    -0.203 F 
ATOM     81  F   UNL A   1      42.007  37.037  39.722  1.00  0.00    -0.200 F 
ATOM     82  C   UNL A   1      40.540  35.534  40.803  1.00  0.00     0.200 A 
ATOM     83  F   UNL A   1      39.084  33.998  41.847  1.00  0.00    -0.200 F 
ATOM     84  F   UNL A   1      40.530  36.309  41.896  1.00  0.00    -0.200 F 
ENDBRANCH  60  74
BRANCH  61  85
ATOM     85  C   UNL A   1      40.076  28.639  30.026  1.00  0.00     0.064 A 
ATOM     86  C   UNL A   1      39.446  27.388  29.953  1.00  0.00     0.173 A 
ATOM     87  C   UNL A   1      40.691  29.126  28.864  1.00  0.00     0.173 A 
ATOM     88  F   UNL A   1      38.859  26.869  31.041  1.00  0.00    -0.203 F 
ATOM     89  C   UNL A   1      39.465  26.640  28.778  1.00  0.00     0.198 A 
ATOM     90  C   UNL A   1      40.678  28.392  27.679  1.00  0.00     0.198 A 
ATOM     91  F   UNL A   1      41.300  30.321  28.875  1.00  0.00    -0.203 F 
ATOM     92  F   UNL A   1      38.911  25.419  28.755  1.00  0.00    -0.200 F 
ATOM     93  C   UNL A   1      40.077  27.144  27.640  1.00  0.00     0.200 A 
ATOM     94  F   UNL A   1      41.254  28.893  26.578  1.00  0.00    -0.200 F 
ATOM     95  F   UNL A   1      40.098  26.422  26.512  1.00  0.00    -0.200 F 
ENDBRANCH  61  85
BRANCH  73  96
ATOM     96  C   UNL A   1      44.438  28.650  35.462  1.00  0.00     0.064 A 
ATOM     97  C   UNL A   1      45.726  29.068  35.101  1.00  0.00     0.173 A 
ATOM     98  C   UNL A   1      44.314  27.451  36.182  1.00  0.00     0.173 A 
ATOM     99  F   UNL A   1      45.898  30.199  34.399  1.00  0.00    -0.203 F 
ATOM    100  C   UNL A   1      46.844  28.301  35.420  1.00  0.00     0.198 A 
ATOM    101  C   UNL A   1      45.436  26.707  36.533  1.00  0.00     0.198 A 
ATOM    102  F   UNL A   1      43.105  27.010  36.561  1.00  0.00    -0.203 F 
ATOM    103  F   UNL A   1      48.060  28.692  35.016  1.00  0.00    -0.200 F 
ATOM    104  C   UNL A   1      46.699  27.127  36.143  1.00  0.00     0.200 A 
ATOM    105  F   UNL A   1      45.295  25.582  37.248  1.00  0.00    -0.200 F 
ATOM    106  F   UNL A   1      47.776  26.395  36.459  1.00  0.00    -0.200 F 
ENDBRANCH  73  96
ENDBRANCH  47  48
ENDBRANCH  39  42
ENDBRANCH  37  38
ENDBRANCH  36  37
ENDBRANCH  35  36
ENDBRANCH  34  35
ENDBRANCH   1  34
TORSDOF 18
ENDMDL
MODEL 3
REMARK VINA RESULT:     -12.4      1.134      2.228
REMARK SMILES Nc1c(C(=O)OCC2c3ccccc3-c3ccccc32)ccc(F)c1C(=O)NCCCCCCNC(=O)c1ccc(-c2c3nc(c(-c4c(F)c(F)c(F)c(F)c4F)c4ccc([nH]4)c(-c4c(F)c(F)c(F)c(F)c4F)c4nc(c(-c5c(F)c(F)c(F)c(F)c5F)c5ccc2[nH]5)C=C4)C=C3)cc1
REMARK SMILES IDX 30 1 29 2 28 3 26 4 27 5 25 7 2 8 3 9 21 10 23 11 22 12
REMARK SMILES IDX 24 13 1 14 4 17 5 18 6 19 7 20 8 21 9 22 20 23 10 24 14 25
REMARK SMILES IDX 15 26 19 27 11 28 13 29 16 30 18 31 12 32 17 33 31 34 32 35
REMARK SMILES IDX 33 36 34 37 35 38 36 39 37 41 38 42 39 43 100 44 40 45 99 46
REMARK SMILES IDX 41 47 42 48 43 49 93 50 44 51 98 52 92 53 94 54 45 55 97 56
REMARK SMILES IDX 91 57 90 58 46 60 78 61 58 62 77 63 59 64 62 65 76 66 95 67
REMARK SMILES IDX 60 68 61 69 75 71 96 72 63 73 47 74 48 75 56 76 49 77 50 78
REMARK SMILES IDX 54 79 57 80 51 81 52 82 55 83 53 84 79 85 80 86 88 87 81 88
REMARK SMILES IDX 82 89 86 90 89 91 83 92 84 93 87 94 85 95 64 96 65 97 73 98
REMARK SMILES IDX 66 99 67 100 71 101 74 102 68 103 69 104 72 105 70 106
REMARK H PARENT 28 6 1 15 1 16 35 40 94 59 62 70
REMARK Flexibility Score: inf
ROOT
ATOM      1  C   UNL A   1      35.469  21.915  26.186  1.00  0.00     0.021 C 
ENDROOT
BRANCH   1   2
ATOM      2  C   UNL A   1      34.366  21.460  27.151  1.00  0.00     0.116 C 
BRANCH   2   3
ATOM      3  N   UNL A   1      33.636  20.353  26.565  1.00  0.00    -0.352 N 
ATOM      4  C   UNL A   1      32.563  20.309  25.706  1.00  0.00     0.256 C 
ATOM      5  O   UNL A   1      32.025  19.211  25.557  1.00  0.00    -0.269 OA
ATOM      6  H   UNL A   1      33.970  19.467  26.832  1.00  0.00     0.163 HD
BRANCH   4   7
ATOM      7  C   UNL A   1      32.073  21.474  24.915  1.00  0.00     0.099 A 
ATOM      8  C   UNL A   1      31.294  22.545  25.405  1.00  0.00     0.062 A 
ATOM      9  C   UNL A   1      30.977  23.610  24.527  1.00  0.00     0.084 A 
ATOM     10  C   UNL A   1      31.298  23.556  23.166  1.00  0.00     0.021 A 
ATOM     11  C   UNL A   1      32.413  21.460  23.548  1.00  0.00     0.138 A 
ATOM     12  C   UNL A   1      32.007  22.468  22.676  1.00  0.00     0.041 A 
ATOM     13  F   UNL A   1      33.154  20.471  23.025  1.00  0.00    -0.206 F 
BRANCH   8  14
ATOM     14  N   UNL A   1      30.639  22.487  26.643  1.00  0.00    -0.397 N 
ATOM     15  H   UNL A   1      31.093  22.097  27.424  1.00  0.00     0.156 HD
ATOM     16  H   UNL A   1      29.722  22.836  26.732  1.00  0.00     0.156 HD
ENDBRANCH   8  14
BRANCH   9  17
ATOM     17  C   UNL A   1      30.296  24.832  25.018  1.00  0.00     0.340 C 
ATOM     18  O   UNL A   1      30.176  25.119  26.197  1.00  0.00    -0.246 OA
BRANCH  17  19
ATOM     19  O   UNL A   1      29.767  25.495  23.948  1.00  0.00    -0.461 OA
BRANCH  19  20
ATOM     20  C   UNL A   1      29.348  26.851  24.187  1.00  0.00     0.246 C 
BRANCH  20  21
ATOM     21  C   UNL A   1      30.227  27.889  23.455  1.00  0.00     0.088 C 
ATOM     22  C   UNL A   1      29.487  29.190  23.173  1.00  0.00    -0.029 A 
ATOM     23  C   UNL A   1      31.323  28.366  24.404  1.00  0.00    -0.029 A 
ATOM     24  C   UNL A   1      28.486  29.424  22.242  1.00  0.00     0.005 A 
ATOM     25  C   UNL A   1      29.934  30.201  24.047  1.00  0.00    -0.014 A 
ATOM     26  C   UNL A   1      31.083  29.709  24.777  1.00  0.00    -0.014 A 
ATOM     27  C   UNL A   1      32.400  27.654  24.911  1.00  0.00     0.005 A 
ATOM     28  C   UNL A   1      27.842  30.659  22.269  1.00  0.00     0.000 A 
ATOM     29  C   UNL A   1      29.287  31.424  24.080  1.00  0.00     0.009 A 
ATOM     30  C   UNL A   1      31.920  30.346  25.676  1.00  0.00     0.009 A 
ATOM     31  C   UNL A   1      33.244  28.301  25.815  1.00  0.00     0.000 A 
ATOM     32  C   UNL A   1      28.220  31.640  23.200  1.00  0.00     0.001 A 
ATOM     33  C   UNL A   1      33.004  29.632  26.198  1.00  0.00     0.001 A 
ENDBRANCH  20  21
ENDBRANCH  19  20
ENDBRANCH  17  19
ENDBRANCH   9  17
ENDBRANCH   4   7
ENDBRANCH   2   3
ENDBRANCH   1   2
BRANCH   1  34
ATOM     34  C   UNL A   1      35.855  20.874  25.136  1.00  0.00     0.002 C 
BRANCH  34  35
ATOM     35  C   UNL A   1      37.276  21.026  24.591  1.00  0.00     0.002 C 
BRANCH  35  36
ATOM     36  C   UNL A   1      38.215  19.858  24.906  1.00  0.00     0.021 C 
BRANCH  36  37
ATOM     37  C   UNL A   1      39.165  20.112  26.072  1.00  0.00     0.116 C 
BRANCH  37  38
ATOM     38  N   UNL A   1      40.242  19.133  26.104  1.00  0.00    -0.352 N 
ATOM     39  C   UNL A   1      41.597  19.333  26.129  1.00  0.00     0.251 C 
ATOM     40  H   UNL A   1      39.955  18.191  26.110  1.00  0.00     0.163 HD
ATOM     41  O   UNL A   1      42.366  18.413  25.866  1.00  0.00    -0.269 OA
BRANCH  39  42
ATOM     42  C   UNL A   1      42.134  20.665  26.471  1.00  0.00     0.039 A 
ATOM     43  C   UNL A   1      42.423  21.568  25.446  1.00  0.00     0.014 A 
ATOM     44  C   UNL A   1      42.373  21.013  27.804  1.00  0.00     0.014 A 
ATOM     45  C   UNL A   1      42.903  22.840  25.762  1.00  0.00     0.010 A 
ATOM     46  C   UNL A   1      42.775  22.306  28.122  1.00  0.00     0.010 A 
ATOM     47  C   UNL A   1      43.052  23.230  27.104  1.00  0.00    -0.014 A 
BRANCH  47  48
ATOM     48  C   UNL A   1      43.502  24.599  27.460  1.00  0.00     0.031 A 
ATOM     49  C   UNL A   1      42.495  25.650  27.840  1.00  0.00     0.074 A 
ATOM     50  C   UNL A   1      44.811  24.911  27.381  1.00  0.00     0.049 A 
ATOM     51  N   UNL A   1      42.683  26.915  28.119  1.00  0.00    -0.248 NA
ATOM     52  C   UNL A   1      41.085  25.230  27.889  1.00  0.00     0.031 C 
ATOM     53  C   UNL A   1      45.876  23.990  26.982  1.00  0.00     0.029 A 
ATOM     54  N   UNL A   1      45.468  26.091  27.625  1.00  0.00    -0.354 N 
ATOM     55  C   UNL A   1      41.422  27.441  28.365  1.00  0.00     0.074 A 
ATOM     56  C   UNL A   1      40.469  26.375  28.146  1.00  0.00     0.031 C 
ATOM     57  C   UNL A   1      47.054  24.630  27.032  1.00  0.00     0.029 A 
ATOM     58  C   UNL A   1      46.825  26.018  27.422  1.00  0.00     0.049 A 
ATOM     59  H   UNL A   1      45.011  26.912  27.918  1.00  0.00     0.167 HD
ATOM     60  C   UNL A   1      41.092  28.693  28.760  1.00  0.00     0.037 A 
ATOM     61  C   UNL A   1      47.774  26.968  27.526  1.00  0.00     0.037 A 
ATOM     62  C   UNL A   1      42.047  29.743  28.997  1.00  0.00     0.049 A 
ATOM     63  C   UNL A   1      47.374  28.357  27.947  1.00  0.00     0.074 A 
ATOM     64  C   UNL A   1      41.820  31.030  29.453  1.00  0.00     0.029 A 
ATOM     65  N   UNL A   1      43.414  29.629  28.789  1.00  0.00    -0.354 N 
ATOM     66  N   UNL A   1      46.185  28.824  28.245  1.00  0.00    -0.248 NA
ATOM     67  C   UNL A   1      48.450  29.353  28.051  1.00  0.00     0.031 C 
ATOM     68  C   UNL A   1      43.039  31.712  29.464  1.00  0.00     0.029 A 
ATOM     69  C   UNL A   1      44.038  30.832  29.081  1.00  0.00     0.049 A 
ATOM     70  H   UNL A   1      43.874  28.814  28.481  1.00  0.00     0.167 HD
ATOM     71  C   UNL A   1      46.374  30.150  28.608  1.00  0.00     0.074 A 
ATOM     72  C   UNL A   1      47.794  30.411  28.507  1.00  0.00     0.031 C 
ATOM     73  C   UNL A   1      45.456  31.071  28.989  1.00  0.00     0.037 A 
BRANCH  60  74
ATOM     74  C   UNL A   1      39.636  29.004  28.964  1.00  0.00     0.064 A 
ATOM     75  C   UNL A   1      38.825  29.462  27.914  1.00  0.00     0.173 A 
ATOM     76  C   UNL A   1      39.030  28.781  30.210  1.00  0.00     0.173 A 
ATOM     77  F   UNL A   1      39.355  29.701  26.705  1.00  0.00    -0.203 F 
ATOM     78  C   UNL A   1      37.469  29.709  28.110  1.00  0.00     0.198 A 
ATOM     79  C   UNL A   1      37.667  28.997  30.394  1.00  0.00     0.198 A 
ATOM     80  F   UNL A   1      39.757  28.338  31.247  1.00  0.00    -0.203 F 
ATOM     81  F   UNL A   1      36.724  30.189  27.105  1.00  0.00    -0.200 F 
ATOM     82  C   UNL A   1      36.889  29.467  29.347  1.00  0.00     0.200 A 
ATOM     83  F   UNL A   1      37.106  28.747  31.584  1.00  0.00    -0.200 F 
ATOM     84  F   UNL A   1      35.580  29.689  29.529  1.00  0.00    -0.200 F 
ENDBRANCH  60  74
BRANCH  61  85
ATOM     85  C   UNL A   1      49.197  26.642  27.237  1.00  0.00     0.064 A 
ATOM     86  C   UNL A   1      50.071  26.251  28.260  1.00  0.00     0.173 A 
ATOM     87  C   UNL A   1      49.719  26.742  25.939  1.00  0.00     0.173 A 
ATOM     88  F   UNL A   1      49.625  26.157  29.522  1.00  0.00    -0.203 F 
ATOM     89  C   UNL A   1      51.419  26.009  28.004  1.00  0.00     0.198 A 
ATOM     90  C   UNL A   1      51.059  26.465  25.677  1.00  0.00     0.198 A 
ATOM     91  F   UNL A   1      48.926  27.104  24.920  1.00  0.00    -0.203 F 
ATOM     92  F   UNL A   1      52.245  25.699  29.014  1.00  0.00    -0.200 F 
ATOM     93  C   UNL A   1      51.912  26.112  26.712  1.00  0.00     0.200 A 
ATOM     94  F   UNL A   1      51.525  26.547  24.424  1.00  0.00    -0.200 F 
ATOM     95  F   UNL A   1      53.208  25.881  26.467  1.00  0.00    -0.200 F 
ENDBRANCH  61  85
BRANCH  73  96
ATOM     96  C   UNL A   1      45.961  32.433  29.374  1.00  0.00     0.064 A 
ATOM     97  C   UNL A   1      46.079  33.471  28.439  1.00  0.00     0.173 A 
ATOM     98  C   UNL A   1      46.292  32.712  30.709  1.00  0.00     0.173 A 
ATOM     99  F   UNL A   1      45.788  33.253  27.147  1.00  0.00    -0.203 F 
ATOM    100  C   UNL A   1      46.540  34.728  28.819  1.00  0.00     0.198 A 
ATOM    101  C   UNL A   1      46.716  33.980  31.093  1.00  0.00     0.198 A 
ATOM    102  F   UNL A   1      46.188  31.757  31.647  1.00  0.00    -0.203 F 
ATOM    103  F   UNL A   1      46.699  35.689  27.899  1.00  0.00    -0.200 F 
ATOM    104  C   UNL A   1      46.850  34.984  30.147  1.00  0.00     0.200 A 
ATOM    105  F   UNL A   1      46.997  34.230  32.379  1.00  0.00    -0.200 F 
ATOM    106  F   UNL A   1      47.284  36.198  30.514  1.00  0.00    -0.200 F 
ENDBRANCH  73  96
ENDBRANCH  47  48
ENDBRANCH  39  42
ENDBRANCH  37  38
ENDBRANCH  36  37
ENDBRANCH  35  36
ENDBRANCH  34  35
ENDBRANCH   1  34
TORSDOF 18
ENDMDL
