MODEL 1
REMARK VINA RESULT:     -11.4      0.000      0.000
REMARK SMILES CN(CC(N)=O)c1ccccc1/C=C/C(=O)NCCCCCCNC(=O)c1ccc(-c2c3nc(c(-c4c(F)c(F)c(F)c(F)c4F)c4ccc([nH]4)c(-c4c(F)c(F)c(F)c(F)c4F)c4nc(c(-c5c(F)c(F)c(F)c(F)c5F)c5ccc2[nH]5)C=C4)C=C3)cc1
REMARK SMILES IDX 19 1 18 2 17 3 15 4 16 5 14 7 13 8 12 9 7 10 8 11 9 12 11 13
REMARK SMILES IDX 10 14 2 15 1 16 3 17 4 18 5 19 6 20 20 23 21 24 22 25 23 26
REMARK SMILES IDX 24 27 25 28 26 30 27 31 28 32 89 33 29 34 88 35 30 36 31 37
REMARK SMILES IDX 32 38 82 39 33 40 87 41 81 42 83 43 34 44 86 45 80 46 79 47
REMARK SMILES IDX 35 49 67 50 47 51 66 52 48 53 51 54 65 55 84 56 49 57 50 58
REMARK SMILES IDX 64 60 85 61 52 62 36 63 37 64 45 65 38 66 39 67 43 68 46 69
REMARK SMILES IDX 40 70 41 71 44 72 42 73 68 74 69 75 77 76 70 77 71 78 75 79
REMARK SMILES IDX 78 80 72 81 73 82 76 83 74 84 53 85 54 86 62 87 55 88 56 89
REMARK SMILES IDX 60 90 63 91 57 92 58 93 61 94 59 95
REMARK H PARENT 17 6 5 21 5 22 24 29 83 48 51 59
REMARK Flexibility Score: inf
ROOT
ATOM      1  C   UNL A   1      32.374  28.600  27.103  1.00  0.00     0.021 C 
ENDROOT
BRANCH   1   2
ATOM      2  C   UNL A   1      33.234  27.768  26.154  1.00  0.00     0.116 C 
BRANCH   2   3
ATOM      3  N   UNL A   1      32.724  27.862  24.804  1.00  0.00    -0.353 N 
ATOM      4  C   UNL A   1      32.892  27.023  23.751  1.00  0.00     0.244 C 
ATOM      5  O   UNL A   1      32.315  27.251  22.691  1.00  0.00    -0.270 OA
ATOM      6  H   UNL A   1      32.170  28.656  24.621  1.00  0.00     0.163 HD
BRANCH   4   7
ATOM      7  C   UNL A   1      33.670  25.773  23.897  1.00  0.00     0.072 C 
ATOM      8  C   UNL A   1      33.847  25.068  25.029  1.00  0.00     0.016 C 
BRANCH   8   9
ATOM      9  C   UNL A   1      34.699  23.857  25.084  1.00  0.00    -0.002 A 
ATOM     10  C   UNL A   1      34.183  22.545  24.923  1.00  0.00     0.044 A 
ATOM     11  C   UNL A   1      35.100  21.475  24.975  1.00  0.00     0.026 A 
ATOM     12  C   UNL A   1      36.457  21.665  25.244  1.00  0.00     0.002 A 
ATOM     13  C   UNL A   1      36.068  24.026  25.390  1.00  0.00     0.010 A 
ATOM     14  C   UNL A   1      36.939  22.942  25.471  1.00  0.00     0.001 A 
BRANCH  10  15
ATOM     15  N   UNL A   1      32.834  22.277  24.721  1.00  0.00    -0.365 N 
ATOM     16  C   UNL A   1      31.927  22.241  25.855  1.00  0.00     0.144 C 
BRANCH  15  17
ATOM     17  C   UNL A   1      32.253  22.331  23.371  1.00  0.00     0.215 C 
BRANCH  17  18
ATOM     18  C   UNL A   1      32.152  20.963  22.683  1.00  0.00     0.236 C 
ATOM     19  N   UNL A   1      31.778  20.989  21.365  1.00  0.00    -0.368 N 
ATOM     20  O   UNL A   1      32.382  19.893  23.237  1.00  0.00    -0.273 OA
ATOM     21  H   UNL A   1      31.595  21.849  20.922  1.00  0.00     0.159 HD
ATOM     22  H   UNL A   1      31.693  20.148  20.861  1.00  0.00     0.159 HD
ENDBRANCH  17  18
ENDBRANCH  15  17
ENDBRANCH  10  15
ENDBRANCH   8   9
ENDBRANCH   4   7
ENDBRANCH   2   3
ENDBRANCH   1   2
BRANCH   1  23
ATOM     23  C   UNL A   1      32.591  30.109  26.942  1.00  0.00     0.002 C 
BRANCH  23  24
ATOM     24  C   UNL A   1      31.435  30.849  26.255  1.00  0.00     0.002 C 
BRANCH  24  25
ATOM     25  C   UNL A   1      31.396  32.360  26.502  1.00  0.00     0.021 C 
BRANCH  25  26
ATOM     26  C   UNL A   1      32.630  32.913  27.206  1.00  0.00     0.116 C 
BRANCH  26  27
ATOM     27  N   UNL A   1      32.431  34.287  27.640  1.00  0.00    -0.352 N 
ATOM     28  C   UNL A   1      32.992  34.961  28.695  1.00  0.00     0.251 C 
ATOM     29  H   UNL A   1      31.800  34.811  27.096  1.00  0.00     0.163 HD
ATOM     30  O   UNL A   1      32.528  36.036  29.057  1.00  0.00    -0.269 OA
BRANCH  28  31
ATOM     31  C   UNL A   1      34.155  34.387  29.402  1.00  0.00     0.039 A 
ATOM     32  C   UNL A   1      33.947  33.700  30.600  1.00  0.00     0.014 A 
ATOM     33  C   UNL A   1      35.449  34.554  28.900  1.00  0.00     0.014 A 
ATOM     34  C   UNL A   1      35.033  33.134  31.269  1.00  0.00     0.010 A 
ATOM     35  C   UNL A   1      36.521  33.927  29.529  1.00  0.00     0.010 A 
ATOM     36  C   UNL A   1      36.325  33.220  30.725  1.00  0.00    -0.014 A 
BRANCH  36  37
ATOM     37  C   UNL A   1      37.483  32.577  31.392  1.00  0.00     0.031 A 
ATOM     38  C   UNL A   1      38.180  31.414  30.743  1.00  0.00     0.074 A 
ATOM     39  C   UNL A   1      37.857  32.991  32.617  1.00  0.00     0.049 A 
ATOM     40  N   UNL A   1      39.163  30.677  31.197  1.00  0.00    -0.248 NA
ATOM     41  C   UNL A   1      37.687  31.006  29.419  1.00  0.00     0.031 C 
ATOM     42  C   UNL A   1      37.217  34.067  33.374  1.00  0.00     0.029 A 
ATOM     43  N   UNL A   1      38.853  32.545  33.448  1.00  0.00    -0.354 N 
ATOM     44  C   UNL A   1      39.391  29.712  30.227  1.00  0.00     0.074 A 
ATOM     45  C   UNL A   1      38.409  29.920  29.185  1.00  0.00     0.031 C 
ATOM     46  C   UNL A   1      37.841  34.204  34.554  1.00  0.00     0.029 A 
ATOM     47  C   UNL A   1      38.901  33.205  34.651  1.00  0.00     0.049 A 
ATOM     48  H   UNL A   1      39.474  31.820  33.205  1.00  0.00     0.167 HD
ATOM     49  C   UNL A   1      40.348  28.753  30.197  1.00  0.00     0.037 A 
ATOM     50  C   UNL A   1      39.701  33.017  35.718  1.00  0.00     0.037 A 
ATOM     51  C   UNL A   1      41.335  28.566  31.230  1.00  0.00     0.049 A 
ATOM     52  C   UNL A   1      40.763  31.955  35.659  1.00  0.00     0.074 A 
ATOM     53  C   UNL A   1      42.392  27.675  31.261  1.00  0.00     0.029 A 
ATOM     54  N   UNL A   1      41.375  29.278  32.421  1.00  0.00    -0.354 N 
ATOM     55  N   UNL A   1      41.029  31.103  34.698  1.00  0.00    -0.248 NA
ATOM     56  C   UNL A   1      41.645  31.835  36.827  1.00  0.00     0.031 C 
ATOM     57  C   UNL A   1      43.040  27.810  32.494  1.00  0.00     0.029 A 
ATOM     58  C   UNL A   1      42.423  28.825  33.208  1.00  0.00     0.049 A 
ATOM     59  H   UNL A   1      40.751  29.998  32.670  1.00  0.00     0.167 HD
ATOM     60  C   UNL A   1      42.118  30.362  35.133  1.00  0.00     0.074 A 
ATOM     61  C   UNL A   1      42.476  30.876  36.439  1.00  0.00     0.031 C 
ATOM     62  C   UNL A   1      42.763  29.345  34.508  1.00  0.00     0.037 A 
BRANCH  49  63
ATOM     63  C   UNL A   1      40.366  27.830  29.012  1.00  0.00     0.064 A 
ATOM     64  C   UNL A   1      39.630  26.634  28.994  1.00  0.00     0.173 A 
ATOM     65  C   UNL A   1      41.118  28.150  27.871  1.00  0.00     0.173 A 
ATOM     66  F   UNL A   1      38.901  26.274  30.061  1.00  0.00    -0.203 F 
ATOM     67  C   UNL A   1      39.682  25.774  27.899  1.00  0.00     0.198 A 
ATOM     68  C   UNL A   1      41.140  27.306  26.764  1.00  0.00     0.198 A 
ATOM     69  F   UNL A   1      41.835  29.283  27.829  1.00  0.00    -0.203 F 
ATOM     70  F   UNL A   1      39.023  24.608  27.934  1.00  0.00    -0.200 F 
ATOM     71  C   UNL A   1      40.432  26.114  26.783  1.00  0.00     0.200 A 
ATOM     72  F   UNL A   1      41.854  27.642  25.681  1.00  0.00    -0.200 F 
ATOM     73  F   UNL A   1      40.481  25.286  25.730  1.00  0.00    -0.200 F 
ENDBRANCH  49  63
BRANCH  50  74
ATOM     74  C   UNL A   1      39.529  33.871  36.921  1.00  0.00     0.064 A 
ATOM     75  C   UNL A   1      40.118  35.140  36.996  1.00  0.00     0.173 A 
ATOM     76  C   UNL A   1      38.749  33.446  38.007  1.00  0.00     0.173 A 
ATOM     77  F   UNL A   1      40.886  35.582  35.990  1.00  0.00    -0.203 F 
ATOM     78  C   UNL A   1      39.944  35.948  38.118  1.00  0.00     0.198 A 
ATOM     79  C   UNL A   1      38.555  34.267  39.116  1.00  0.00     0.198 A 
ATOM     80  F   UNL A   1      38.158  32.243  37.980  1.00  0.00    -0.203 F 
ATOM     81  F   UNL A   1      40.549  37.142  38.180  1.00  0.00    -0.200 F 
ATOM     82  C   UNL A   1      39.157  35.513  39.174  1.00  0.00     0.200 A 
ATOM     83  F   UNL A   1      37.778  33.850  40.126  1.00  0.00    -0.200 F 
ATOM     84  F   UNL A   1      38.981  36.296  40.248  1.00  0.00    -0.200 F 
ENDBRANCH  50  74
BRANCH  62  85
ATOM     85  C   UNL A   1      43.939  28.737  35.219  1.00  0.00     0.064 A 
ATOM     86  C   UNL A   1      45.234  29.260  35.082  1.00  0.00     0.173 A 
ATOM     87  C   UNL A   1      43.759  27.645  36.081  1.00  0.00     0.173 A 
ATOM     88  F   UNL A   1      45.461  30.294  34.258  1.00  0.00    -0.203 F 
ATOM     89  C   UNL A   1      46.309  28.693  35.761  1.00  0.00     0.198 A 
ATOM     90  C   UNL A   1      44.831  27.102  36.784  1.00  0.00     0.198 A 
ATOM     91  F   UNL A   1      42.540  27.112  36.253  1.00  0.00    -0.203 F 
ATOM     92  F   UNL A   1      47.545  29.177  35.577  1.00  0.00    -0.200 F 
ATOM     93  C   UNL A   1      46.105  27.621  36.618  1.00  0.00     0.200 A 
ATOM     94  F   UNL A   1      44.630  26.076  37.622  1.00  0.00    -0.200 F 
ATOM     95  F   UNL A   1      47.140  27.083  37.278  1.00  0.00    -0.200 F 
ENDBRANCH  62  85
ENDBRANCH  36  37
ENDBRANCH  28  31
ENDBRANCH  26  27
ENDBRANCH  25  26
ENDBRANCH  24  25
ENDBRANCH  23  24
ENDBRANCH   1  23
TORSDOF 17
ENDMDL
MODEL 2
REMARK VINA RESULT:     -11.3      3.803      8.751
REMARK SMILES CN(CC(N)=O)c1ccccc1/C=C/C(=O)NCCCCCCNC(=O)c1ccc(-c2c3nc(c(-c4c(F)c(F)c(F)c(F)c4F)c4ccc([nH]4)c(-c4c(F)c(F)c(F)c(F)c4F)c4nc(c(-c5c(F)c(F)c(F)c(F)c5F)c5ccc2[nH]5)C=C4)C=C3)cc1
REMARK SMILES IDX 19 1 18 2 17 3 15 4 16 5 14 7 13 8 12 9 7 10 8 11 9 12 11 13
REMARK SMILES IDX 10 14 2 15 1 16 3 17 4 18 5 19 6 20 20 23 21 24 22 25 23 26
REMARK SMILES IDX 24 27 25 28 26 30 27 31 28 32 89 33 29 34 88 35 30 36 31 37
REMARK SMILES IDX 32 38 82 39 33 40 87 41 81 42 83 43 34 44 86 45 80 46 79 47
REMARK SMILES IDX 35 49 67 50 47 51 66 52 48 53 51 54 65 55 84 56 49 57 50 58
REMARK SMILES IDX 64 60 85 61 52 62 36 63 37 64 45 65 38 66 39 67 43 68 46 69
REMARK SMILES IDX 40 70 41 71 44 72 42 73 68 74 69 75 77 76 70 77 71 78 75 79
REMARK SMILES IDX 78 80 72 81 73 82 76 83 74 84 53 85 54 86 62 87 55 88 56 89
REMARK SMILES IDX 60 90 63 91 57 92 58 93 61 94 59 95
REMARK H PARENT 17 6 5 21 5 22 24 29 83 48 51 59
REMARK Flexibility Score: inf
ROOT
ATOM      1  C   UNL A   1      30.900  26.902  26.448  1.00  0.00     0.021 C 
ENDROOT
BRANCH   1   2
ATOM      2  C   UNL A   1      30.031  25.926  25.656  1.00  0.00     0.116 C 
BRANCH   2   3
ATOM      3  N   UNL A   1      29.679  24.789  26.478  1.00  0.00    -0.353 N 
ATOM      4  C   UNL A   1      30.433  23.728  26.860  1.00  0.00     0.244 C 
ATOM      5  O   UNL A   1      29.962  22.888  27.623  1.00  0.00    -0.270 OA
ATOM      6  H   UNL A   1      28.752  24.785  26.811  1.00  0.00     0.163 HD
BRANCH   4   7
ATOM      7  C   UNL A   1      31.855  23.627  26.462  1.00  0.00     0.072 C 
ATOM      8  C   UNL A   1      32.353  23.790  25.224  1.00  0.00     0.016 C 
BRANCH   8   9
ATOM      9  C   UNL A   1      33.791  23.605  24.917  1.00  0.00    -0.002 A 
ATOM     10  C   UNL A   1      34.253  23.098  23.675  1.00  0.00     0.044 A 
ATOM     11  C   UNL A   1      35.646  22.989  23.495  1.00  0.00     0.026 A 
ATOM     12  C   UNL A   1      36.558  23.293  24.509  1.00  0.00     0.002 A 
ATOM     13  C   UNL A   1      34.725  23.875  25.941  1.00  0.00     0.010 A 
ATOM     14  C   UNL A   1      36.095  23.720  25.741  1.00  0.00     0.001 A 
BRANCH  10  15
ATOM     15  N   UNL A   1      33.400  22.709  22.646  1.00  0.00    -0.365 N 
ATOM     16  C   UNL A   1      32.407  21.677  22.883  1.00  0.00     0.144 C 
BRANCH  15  17
ATOM     17  C   UNL A   1      33.278  23.524  21.428  1.00  0.00     0.215 C 
BRANCH  17  18
ATOM     18  C   UNL A   1      32.880  24.982  21.693  1.00  0.00     0.236 C 
ATOM     19  N   UNL A   1      31.566  25.187  22.021  1.00  0.00    -0.368 N 
ATOM     20  O   UNL A   1      33.654  25.932  21.628  1.00  0.00    -0.273 OA
ATOM     21  H   UNL A   1      30.947  24.423  22.073  1.00  0.00     0.159 HD
ATOM     22  H   UNL A   1      31.240  26.098  22.205  1.00  0.00     0.159 HD
ENDBRANCH  17  18
ENDBRANCH  15  17
ENDBRANCH  10  15
ENDBRANCH   8   9
ENDBRANCH   4   7
ENDBRANCH   2   3
ENDBRANCH   1   2
BRANCH   1  23
ATOM     23  C   UNL A   1      31.448  28.048  25.590  1.00  0.00     0.002 C 
BRANCH  23  24
ATOM     24  C   UNL A   1      32.782  27.742  24.895  1.00  0.00     0.002 C 
BRANCH  24  25
ATOM     25  C   UNL A   1      34.031  28.128  25.691  1.00  0.00     0.021 C 
BRANCH  25  26
ATOM     26  C   UNL A   1      33.764  28.457  27.156  1.00  0.00     0.116 C 
BRANCH  26  27
ATOM     27  N   UNL A   1      33.723  29.893  27.386  1.00  0.00    -0.352 N 
ATOM     28  C   UNL A   1      34.628  30.704  28.022  1.00  0.00     0.251 C 
ATOM     29  H   UNL A   1      32.927  30.351  27.031  1.00  0.00     0.163 HD
ATOM     30  O   UNL A   1      34.318  31.848  28.335  1.00  0.00    -0.269 OA
BRANCH  28  31
ATOM     31  C   UNL A   1      35.979  30.196  28.336  1.00  0.00     0.039 A 
ATOM     32  C   UNL A   1      36.951  30.194  27.333  1.00  0.00     0.014 A 
ATOM     33  C   UNL A   1      36.276  29.696  29.607  1.00  0.00     0.014 A 
ATOM     34  C   UNL A   1      38.238  29.738  27.621  1.00  0.00     0.010 A 
ATOM     35  C   UNL A   1      37.577  29.311  29.913  1.00  0.00     0.010 A 
ATOM     36  C   UNL A   1      38.569  29.318  28.920  1.00  0.00    -0.014 A 
BRANCH  36  37
ATOM     37  C   UNL A   1      39.946  28.884  29.258  1.00  0.00     0.031 A 
ATOM     38  C   UNL A   1      40.868  29.805  30.006  1.00  0.00     0.074 A 
ATOM     39  C   UNL A   1      40.390  27.689  28.824  1.00  0.00     0.049 A 
ATOM     40  N   UNL A   1      42.124  29.635  30.334  1.00  0.00    -0.248 NA
ATOM     41  C   UNL A   1      40.312  31.105  30.415  1.00  0.00     0.031 C 
ATOM     42  C   UNL A   1      39.609  26.736  28.036  1.00  0.00     0.029 A 
ATOM     43  N   UNL A   1      41.611  27.081  28.969  1.00  0.00    -0.354 N 
ATOM     44  C   UNL A   1      42.512  30.808  30.967  1.00  0.00     0.074 A 
ATOM     45  C   UNL A   1      41.376  31.703  30.929  1.00  0.00     0.031 C 
ATOM     46  C   UNL A   1      40.366  25.659  27.774  1.00  0.00     0.029 A 
ATOM     47  C   UNL A   1      41.695  25.861  28.345  1.00  0.00     0.049 A 
ATOM     48  H   UNL A   1      42.357  27.481  29.472  1.00  0.00     0.167 HD
ATOM     49  C   UNL A   1      43.700  31.102  31.549  1.00  0.00     0.037 A 
ATOM     50  C   UNL A   1      42.729  25.007  28.233  1.00  0.00     0.037 A 
ATOM     51  C   UNL A   1      44.819  30.197  31.599  1.00  0.00     0.049 A 
ATOM     52  C   UNL A   1      44.036  25.349  28.895  1.00  0.00     0.074 A 
ATOM     53  C   UNL A   1      46.039  30.367  32.228  1.00  0.00     0.029 A 
ATOM     54  N   UNL A   1      44.855  28.952  30.985  1.00  0.00    -0.354 N 
ATOM     55  N   UNL A   1      44.365  26.424  29.570  1.00  0.00    -0.248 NA
ATOM     56  C   UNL A   1      45.110  24.353  28.793  1.00  0.00     0.031 C 
ATOM     57  C   UNL A   1      46.834  29.250  31.949  1.00  0.00     0.029 A 
ATOM     58  C   UNL A   1      46.089  28.356  31.196  1.00  0.00     0.049 A 
ATOM     59  H   UNL A   1      44.114  28.552  30.475  1.00  0.00     0.167 HD
ATOM     60  C   UNL A   1      45.673  26.228  29.988  1.00  0.00     0.074 A 
ATOM     61  C   UNL A   1      46.073  24.921  29.507  1.00  0.00     0.031 C 
ATOM     62  C   UNL A   1      46.473  27.056  30.706  1.00  0.00     0.037 A 
BRANCH  49  63
ATOM     63  C   UNL A   1      43.849  32.463  32.168  1.00  0.00     0.064 A 
ATOM     64  C   UNL A   1      44.343  33.558  31.440  1.00  0.00     0.173 A 
ATOM     65  C   UNL A   1      43.481  32.681  33.504  1.00  0.00     0.173 A 
ATOM     66  F   UNL A   1      44.718  33.403  30.161  1.00  0.00    -0.203 F 
ATOM     67  C   UNL A   1      44.504  34.805  32.038  1.00  0.00     0.198 A 
ATOM     68  C   UNL A   1      43.610  33.938  34.090  1.00  0.00     0.198 A 
ATOM     69  F   UNL A   1      42.996  31.673  34.246  1.00  0.00    -0.203 F 
ATOM     70  F   UNL A   1      45.038  35.816  31.340  1.00  0.00    -0.200 F 
ATOM     71  C   UNL A   1      44.132  34.996  33.361  1.00  0.00     0.200 A 
ATOM     72  F   UNL A   1      43.236  34.124  35.363  1.00  0.00    -0.200 F 
ATOM     73  F   UNL A   1      44.286  36.196  33.935  1.00  0.00    -0.200 F 
ENDBRANCH  49  63
BRANCH  50  74
ATOM     74  C   UNL A   1      42.556  23.742  27.475  1.00  0.00     0.064 A 
ATOM     75  C   UNL A   1      42.954  23.641  26.136  1.00  0.00     0.173 A 
ATOM     76  C   UNL A   1      42.015  22.599  28.084  1.00  0.00     0.173 A 
ATOM     77  F   UNL A   1      43.461  24.712  25.506  1.00  0.00    -0.203 F 
ATOM     78  C   UNL A   1      42.805  22.450  25.428  1.00  0.00     0.198 A 
ATOM     79  C   UNL A   1      41.893  21.401  27.384  1.00  0.00     0.198 A 
ATOM     80  F   UNL A   1      41.626  22.642  29.366  1.00  0.00    -0.203 F 
ATOM     81  F   UNL A   1      43.160  22.391  24.138  1.00  0.00    -0.200 F 
ATOM     82  C   UNL A   1      42.282  21.329  26.056  1.00  0.00     0.200 A 
ATOM     83  F   UNL A   1      41.403  20.316  27.999  1.00  0.00    -0.200 F 
ATOM     84  F   UNL A   1      42.150  20.180  25.378  1.00  0.00    -0.200 F 
ENDBRANCH  50  74
BRANCH  62  85
ATOM     85  C   UNL A   1      47.853  26.563  31.036  1.00  0.00     0.064 A 
ATOM     86  C   UNL A   1      48.956  26.860  30.221  1.00  0.00     0.173 A 
ATOM     87  C   UNL A   1      48.080  25.819  32.204  1.00  0.00     0.173 A 
ATOM     88  F   UNL A   1      48.789  27.557  29.086  1.00  0.00    -0.203 F 
ATOM     89  C   UNL A   1      50.231  26.409  30.551  1.00  0.00     0.198 A 
ATOM     90  C   UNL A   1      49.361  25.396  32.547  1.00  0.00     0.198 A 
ATOM     91  F   UNL A   1      47.061  25.513  33.020  1.00  0.00    -0.203 F 
ATOM     92  F   UNL A   1      51.261  26.663  29.733  1.00  0.00    -0.200 F 
ATOM     93  C   UNL A   1      50.434  25.685  31.717  1.00  0.00     0.200 A 
ATOM     94  F   UNL A   1      49.558  24.710  33.680  1.00  0.00    -0.200 F 
ATOM     95  F   UNL A   1      51.663  25.259  32.037  1.00  0.00    -0.200 F 
ENDBRANCH  62  85
ENDBRANCH  36  37
ENDBRANCH  28  31
ENDBRANCH  26  27
ENDBRANCH  25  26
ENDBRANCH  24  25
ENDBRANCH  23  24
ENDBRANCH   1  23
TORSDOF 17
ENDMDL
MODEL 3
REMARK VINA RESULT:     -11.3      6.273     10.783
REMARK SMILES CN(CC(N)=O)c1ccccc1/C=C/C(=O)NCCCCCCNC(=O)c1ccc(-c2c3nc(c(-c4c(F)c(F)c(F)c(F)c4F)c4ccc([nH]4)c(-c4c(F)c(F)c(F)c(F)c4F)c4nc(c(-c5c(F)c(F)c(F)c(F)c5F)c5ccc2[nH]5)C=C4)C=C3)cc1
REMARK SMILES IDX 19 1 18 2 17 3 15 4 16 5 14 7 13 8 12 9 7 10 8 11 9 12 11 13
REMARK SMILES IDX 10 14 2 15 1 16 3 17 4 18 5 19 6 20 20 23 21 24 22 25 23 26
REMARK SMILES IDX 24 27 25 28 26 30 27 31 28 32 89 33 29 34 88 35 30 36 31 37
REMARK SMILES IDX 32 38 82 39 33 40 87 41 81 42 83 43 34 44 86 45 80 46 79 47
REMARK SMILES IDX 35 49 67 50 47 51 66 52 48 53 51 54 65 55 84 56 49 57 50 58
REMARK SMILES IDX 64 60 85 61 52 62 36 63 37 64 45 65 38 66 39 67 43 68 46 69
REMARK SMILES IDX 40 70 41 71 44 72 42 73 68 74 69 75 77 76 70 77 71 78 75 79
REMARK SMILES IDX 78 80 72 81 73 82 76 83 74 84 53 85 54 86 62 87 55 88 56 89
REMARK SMILES IDX 60 90 63 91 57 92 58 93 61 94 59 95
REMARK H PARENT 17 6 5 21 5 22 24 29 83 48 51 59
REMARK Flexibility Score: inf
ROOT
ATOM      1  C   UNL A   1      39.167  23.068  26.605  1.00  0.00     0.021 C 
ENDROOT
BRANCH   1   2
ATOM      2  C   UNL A   1      37.840  23.594  26.060  1.00  0.00     0.116 C 
BRANCH   2   3
ATOM      3  N   UNL A   1      37.784  23.419  24.626  1.00  0.00    -0.353 N 
ATOM      4  C   UNL A   1      36.710  23.286  23.808  1.00  0.00     0.244 C 
ATOM      5  O   UNL A   1      36.873  23.212  22.593  1.00  0.00    -0.270 OA
ATOM      6  H   UNL A   1      38.659  23.394  24.173  1.00  0.00     0.163 HD
BRANCH   4   7
ATOM      7  C   UNL A   1      35.334  23.345  24.351  1.00  0.00     0.072 C 
ATOM      8  C   UNL A   1      34.765  22.458  25.187  1.00  0.00     0.016 C 
BRANCH   8   9
ATOM      9  C   UNL A   1      33.354  22.573  25.625  1.00  0.00    -0.002 A 
ATOM     10  C   UNL A   1      32.343  21.669  25.208  1.00  0.00     0.044 A 
ATOM     11  C   UNL A   1      31.042  21.871  25.712  1.00  0.00     0.026 A 
ATOM     12  C   UNL A   1      30.717  22.954  26.532  1.00  0.00     0.002 A 
ATOM     13  C   UNL A   1      33.000  23.681  26.427  1.00  0.00     0.010 A 
ATOM     14  C   UNL A   1      31.695  23.872  26.876  1.00  0.00     0.001 A 
BRANCH  10  15
ATOM     15  N   UNL A   1      32.580  20.610  24.338  1.00  0.00    -0.365 N 
ATOM     16  C   UNL A   1      32.153  20.705  22.953  1.00  0.00     0.144 C 
BRANCH  15  17
ATOM     17  C   UNL A   1      33.515  19.535  24.704  1.00  0.00     0.215 C 
BRANCH  17  18
ATOM     18  C   UNL A   1      32.825  18.238  25.149  1.00  0.00     0.236 C 
ATOM     19  N   UNL A   1      32.658  18.090  26.501  1.00  0.00    -0.368 N 
ATOM     20  O   UNL A   1      32.433  17.365  24.381  1.00  0.00    -0.273 OA
ATOM     21  H   UNL A   1      32.973  18.793  27.115  1.00  0.00     0.159 HD
ATOM     22  H   UNL A   1      32.224  17.283  26.858  1.00  0.00     0.159 HD
ENDBRANCH  17  18
ENDBRANCH  15  17
ENDBRANCH  10  15
ENDBRANCH   8   9
ENDBRANCH   4   7
ENDBRANCH   2   3
ENDBRANCH   1   2
BRANCH   1  23
ATOM     23  C   UNL A   1      39.439  21.610  26.219  1.00  0.00     0.002 C 
BRANCH  23  24
ATOM     24  C   UNL A   1      40.871  21.133  26.498  1.00  0.00     0.002 C 
BRANCH  24  25
ATOM     25  C   UNL A   1      41.160  19.684  26.097  1.00  0.00     0.021 C 
BRANCH  25  26
ATOM     26  C   UNL A   1      42.508  19.157  26.579  1.00  0.00     0.116 C 
BRANCH  26  27
ATOM     27  N   UNL A   1      43.362  18.770  25.467  1.00  0.00    -0.352 N 
ATOM     28  C   UNL A   1      44.136  19.551  24.646  1.00  0.00     0.251 C 
ATOM     29  H   UNL A   1      43.390  17.805  25.275  1.00  0.00     0.163 HD
ATOM     30  O   UNL A   1      44.600  19.086  23.611  1.00  0.00    -0.269 OA
BRANCH  28  31
ATOM     31  C   UNL A   1      44.406  20.957  25.005  1.00  0.00     0.039 A 
ATOM     32  C   UNL A   1      43.902  21.973  24.189  1.00  0.00     0.014 A 
ATOM     33  C   UNL A   1      45.180  21.272  26.126  1.00  0.00     0.014 A 
ATOM     34  C   UNL A   1      44.131  23.308  24.527  1.00  0.00     0.010 A 
ATOM     35  C   UNL A   1      45.345  22.602  26.502  1.00  0.00     0.010 A 
ATOM     36  C   UNL A   1      44.831  23.633  25.701  1.00  0.00    -0.014 A 
BRANCH  36  37
ATOM     37  C   UNL A   1      45.035  25.045  26.106  1.00  0.00     0.031 A 
ATOM     38  C   UNL A   1      46.399  25.669  26.016  1.00  0.00     0.074 A 
ATOM     39  C   UNL A   1      44.007  25.740  26.627  1.00  0.00     0.049 A 
ATOM     40  N   UNL A   1      46.792  26.862  26.384  1.00  0.00    -0.248 NA
ATOM     41  C   UNL A   1      47.473  24.827  25.464  1.00  0.00     0.031 C 
ATOM     42  C   UNL A   1      42.653  25.223  26.823  1.00  0.00     0.029 A 
ATOM     43  N   UNL A   1      43.945  27.026  27.103  1.00  0.00    -0.354 N 
ATOM     44  C   UNL A   1      48.155  26.907  26.128  1.00  0.00     0.074 A 
ATOM     45  C   UNL A   1      48.534  25.604  25.625  1.00  0.00     0.031 C 
ATOM     46  C   UNL A   1      41.891  26.182  27.370  1.00  0.00     0.029 A 
ATOM     47  C   UNL A   1      42.711  27.370  27.596  1.00  0.00     0.049 A 
ATOM     48  H   UNL A   1      44.713  27.642  27.094  1.00  0.00     0.167 HD
ATOM     49  C   UNL A   1      49.009  27.948  26.277  1.00  0.00     0.037 A 
ATOM     50  C   UNL A   1      42.289  28.510  28.175  1.00  0.00     0.037 A 
ATOM     51  C   UNL A   1      48.620  29.248  26.759  1.00  0.00     0.049 A 
ATOM     52  C   UNL A   1      43.251  29.657  28.320  1.00  0.00     0.074 A 
ATOM     53  C   UNL A   1      49.390  30.391  26.876  1.00  0.00     0.029 A 
ATOM     54  N   UNL A   1      47.349  29.572  27.217  1.00  0.00    -0.354 N 
ATOM     55  N   UNL A   1      44.519  29.719  27.992  1.00  0.00    -0.248 NA
ATOM     56  C   UNL A   1      42.720  30.895  28.904  1.00  0.00     0.031 C 
ATOM     57  C   UNL A   1      48.600  31.392  27.455  1.00  0.00     0.029 A 
ATOM     58  C   UNL A   1      47.322  30.890  27.645  1.00  0.00     0.049 A 
ATOM     59  H   UNL A   1      46.582  28.956  27.235  1.00  0.00     0.167 HD
ATOM     60  C   UNL A   1      44.934  31.005  28.309  1.00  0.00     0.074 A 
ATOM     61  C   UNL A   1      43.776  31.696  28.839  1.00  0.00     0.031 C 
ATOM     62  C   UNL A   1      46.163  31.563  28.174  1.00  0.00     0.037 A 
BRANCH  49  63
ATOM     63  C   UNL A   1      50.450  27.717  25.921  1.00  0.00     0.064 A 
ATOM     64  C   UNL A   1      51.411  27.391  26.892  1.00  0.00     0.173 A 
ATOM     65  C   UNL A   1      50.878  27.809  24.587  1.00  0.00     0.173 A 
ATOM     66  F   UNL A   1      51.059  27.299  28.184  1.00  0.00    -0.203 F 
ATOM     67  C   UNL A   1      52.748  27.211  26.549  1.00  0.00     0.198 A 
ATOM     68  C   UNL A   1      52.209  27.593  24.242  1.00  0.00     0.198 A 
ATOM     69  F   UNL A   1      50.003  28.111  23.615  1.00  0.00    -0.203 F 
ATOM     70  F   UNL A   1      53.656  26.965  27.504  1.00  0.00    -0.200 F 
ATOM     71  C   UNL A   1      53.146  27.306  25.223  1.00  0.00     0.200 A 
ATOM     72  F   UNL A   1      52.589  27.672  22.959  1.00  0.00    -0.200 F 
ATOM     73  F   UNL A   1      54.433  27.132  24.895  1.00  0.00    -0.200 F 
ENDBRANCH  49  63
BRANCH  50  74
ATOM     74  C   UNL A   1      40.884  28.617  28.643  1.00  0.00     0.064 A 
ATOM     75  C   UNL A   1      39.859  29.005  27.769  1.00  0.00     0.173 A 
ATOM     76  C   UNL A   1      40.533  28.307  29.965  1.00  0.00     0.173 A 
ATOM     77  F   UNL A   1      40.148  29.328  26.500  1.00  0.00    -0.203 F 
ATOM     78  C   UNL A   1      38.538  29.091  28.203  1.00  0.00     0.198 A 
ATOM     79  C   UNL A   1      39.208  28.368  30.390  1.00  0.00     0.198 A 
ATOM     80  F   UNL A   1      41.475  27.924  30.838  1.00  0.00    -0.203 F 
ATOM     81  F   UNL A   1      37.583  29.500  27.357  1.00  0.00    -0.200 F 
ATOM     82  C   UNL A   1      38.212  28.765  29.512  1.00  0.00     0.200 A 
ATOM     83  F   UNL A   1      38.895  28.034  31.651  1.00  0.00    -0.200 F 
ATOM     84  F   UNL A   1      36.940  28.838  29.925  1.00  0.00    -0.200 F 
ENDBRANCH  50  74
BRANCH  62  85
ATOM     85  C   UNL A   1      46.314  33.000  28.585  1.00  0.00     0.064 A 
ATOM     86  C   UNL A   1      46.705  33.359  29.883  1.00  0.00     0.173 A 
ATOM     87  C   UNL A   1      46.104  34.029  27.654  1.00  0.00     0.173 A 
ATOM     88  F   UNL A   1      46.904  32.412  30.814  1.00  0.00    -0.203 F 
ATOM     89  C   UNL A   1      46.856  34.696  30.241  1.00  0.00     0.198 A 
ATOM     90  C   UNL A   1      46.286  35.363  28.006  1.00  0.00     0.198 A 
ATOM     91  F   UNL A   1      45.734  33.740  26.397  1.00  0.00    -0.203 F 
ATOM     92  F   UNL A   1      47.183  35.017  31.500  1.00  0.00    -0.200 F 
ATOM     93  C   UNL A   1      46.654  35.696  29.301  1.00  0.00     0.200 A 
ATOM     94  F   UNL A   1      46.106  36.327  27.094  1.00  0.00    -0.200 F 
ATOM     95  F   UNL A   1      46.809  36.981  29.646  1.00  0.00    -0.200 F 
ENDBRANCH  62  85
ENDBRANCH  36  37
ENDBRANCH  28  31
ENDBRANCH  26  27
ENDBRANCH  25  26
ENDBRANCH  24  25
ENDBRANCH  23  24
ENDBRANCH   1  23
TORSDOF 17
ENDMDL
