MODEL 1
REMARK VINA RESULT:     -12.2      0.000      0.000
REMARK SMILES C[C@@H](CC(=O)NCCCCCCNC(=O)c1ccc(-c2c3nc(c(-c4c(F)c(F)c(F)c(F)c4F)c4ccc([nH]4)c(-c4c(F)c(F)c(F)c(F)c4F)c4nc(c(-c5c(F)c(F)c(F)c(F)c5F)c5ccc2[nH]5)C=C4)C=C3)cc1)Cc1nnc(C2C(C)(C)C2(C)C)o1
REMARK SMILES IDX 8 1 7 2 6 3 4 4 5 5 3 7 2 8 1 9 79 10 80 11 81 12 91 13
REMARK SMILES IDX 82 14 83 15 84 16 85 17 88 18 86 19 87 20 89 21 90 22 9 23
REMARK SMILES IDX 10 24 11 25 12 26 13 27 14 28 15 30 16 31 17 32 78 33 18 34
REMARK SMILES IDX 77 35 19 36 20 37 21 38 71 39 22 40 76 41 70 42 72 43 23 44
REMARK SMILES IDX 75 45 69 46 68 47 24 49 56 50 36 51 55 52 37 53 40 54 54 55
REMARK SMILES IDX 73 56 38 57 39 58 53 60 74 61 41 62 25 63 26 64 34 65 27 66
REMARK SMILES IDX 28 67 32 68 35 69 29 70 30 71 33 72 31 73 57 74 58 75 66 76
REMARK SMILES IDX 59 77 60 78 64 79 67 80 61 81 62 82 65 83 63 84 42 85 43 86
REMARK SMILES IDX 51 87 44 88 45 89 49 90 52 91 46 92 47 93 50 94 48 95
REMARK H PARENT 6 6 13 29 72 48 40 59
REMARK Flexibility Score: inf
ROOT
ATOM      1  C   UNL A   1      33.671  28.910  26.931  1.00  0.00     0.021 C 
ENDROOT
BRANCH   1   2
ATOM      2  C   UNL A   1      33.085  27.551  26.544  1.00  0.00     0.116 C 
BRANCH   2   3
ATOM      3  N   UNL A   1      33.277  27.307  25.130  1.00  0.00    -0.356 N 
ATOM      4  C   UNL A   1      32.363  27.195  24.132  1.00  0.00     0.220 C 
ATOM      5  O   UNL A   1      32.758  26.848  23.018  1.00  0.00    -0.275 OA
ATOM      6  H   UNL A   1      34.215  27.205  24.848  1.00  0.00     0.163 HD
BRANCH   4   7
ATOM      7  C   UNL A   1      30.891  27.491  24.372  1.00  0.00     0.103 C 
BRANCH   7   8
ATOM      8  C   UNL A   1      29.936  26.281  24.505  1.00  0.00     0.004 C 
ATOM      9  C   UNL A   1      28.557  26.558  23.895  1.00  0.00     0.009 C 
BRANCH   8  10
ATOM     10  C   UNL A   1      29.884  25.722  25.941  1.00  0.00     0.103 C 
BRANCH  10  11
ATOM     11  C   UNL A   1      30.705  24.505  26.138  1.00  0.00     0.216 A 
ATOM     12  N   UNL A   1      31.362  24.067  27.187  1.00  0.00    -0.113 NA
ATOM     13  O   UNL A   1      30.842  23.693  25.049  1.00  0.00    -0.425 OA
ATOM     14  N   UNL A   1      31.941  22.873  26.801  1.00  0.00    -0.113 NA
ATOM     15  C   UNL A   1      31.606  22.671  25.540  1.00  0.00     0.220 A 
BRANCH  15  16
ATOM     16  C   UNL A   1      31.993  21.411  24.778  1.00  0.00     0.090 C 
ATOM     17  C   UNL A   1      32.629  21.519  23.382  1.00  0.00    -0.017 C 
ATOM     18  C   UNL A   1      33.435  20.949  24.548  1.00  0.00    -0.017 C 
ATOM     19  C   UNL A   1      32.034  20.605  22.328  1.00  0.00     0.012 C 
ATOM     20  C   UNL A   1      33.055  22.838  22.768  1.00  0.00     0.012 C 
ATOM     21  C   UNL A   1      34.595  21.718  25.142  1.00  0.00     0.012 C 
ATOM     22  C   UNL A   1      33.699  19.454  24.569  1.00  0.00     0.012 C 
ENDBRANCH  15  16
ENDBRANCH  10  11
ENDBRANCH   8  10
ENDBRANCH   7   8
ENDBRANCH   4   7
ENDBRANCH   2   3
ENDBRANCH   1   2
BRANCH   1  23
ATOM     23  C   UNL A   1      33.099  30.086  26.132  1.00  0.00     0.002 C 
BRANCH  23  24
ATOM     24  C   UNL A   1      31.686  30.517  26.539  1.00  0.00     0.002 C 
BRANCH  24  25
ATOM     25  C   UNL A   1      31.498  32.020  26.765  1.00  0.00     0.021 C 
BRANCH  25  26
ATOM     26  C   UNL A   1      32.757  32.763  27.210  1.00  0.00     0.116 C 
BRANCH  26  27
ATOM     27  N   UNL A   1      32.475  34.143  27.574  1.00  0.00    -0.352 N 
ATOM     28  C   UNL A   1      32.997  34.902  28.588  1.00  0.00     0.251 C 
ATOM     29  H   UNL A   1      31.811  34.599  27.009  1.00  0.00     0.163 HD
ATOM     30  O   UNL A   1      32.479  35.981  28.883  1.00  0.00    -0.269 OA
BRANCH  28  31
ATOM     31  C   UNL A   1      34.172  34.428  29.345  1.00  0.00     0.039 A 
ATOM     32  C   UNL A   1      33.981  33.859  30.606  1.00  0.00     0.014 A 
ATOM     33  C   UNL A   1      35.461  34.551  28.818  1.00  0.00     0.014 A 
ATOM     34  C   UNL A   1      35.074  33.346  31.308  1.00  0.00     0.010 A 
ATOM     35  C   UNL A   1      36.541  33.983  29.489  1.00  0.00     0.010 A 
ATOM     36  C   UNL A   1      36.356  33.366  30.736  1.00  0.00    -0.014 A 
BRANCH  36  37
ATOM     37  C   UNL A   1      37.507  32.711  31.411  1.00  0.00     0.031 A 
ATOM     38  C   UNL A   1      38.197  31.538  30.776  1.00  0.00     0.074 A 
ATOM     39  C   UNL A   1      37.878  33.134  32.635  1.00  0.00     0.049 A 
ATOM     40  N   UNL A   1      39.168  30.796  31.247  1.00  0.00    -0.248 NA
ATOM     41  C   UNL A   1      37.720  31.127  29.447  1.00  0.00     0.031 C 
ATOM     42  C   UNL A   1      37.251  34.229  33.376  1.00  0.00     0.029 A 
ATOM     43  N   UNL A   1      38.862  32.683  33.481  1.00  0.00    -0.354 N 
ATOM     44  C   UNL A   1      39.410  29.828  30.282  1.00  0.00     0.074 A 
ATOM     45  C   UNL A   1      38.454  30.047  29.217  1.00  0.00     0.031 C 
ATOM     46  C   UNL A   1      37.873  34.375  34.557  1.00  0.00     0.029 A 
ATOM     47  C   UNL A   1      38.914  33.359  34.675  1.00  0.00     0.049 A 
ATOM     48  H   UNL A   1      39.473  31.945  33.252  1.00  0.00     0.167 HD
ATOM     49  C   UNL A   1      40.356  28.859  30.277  1.00  0.00     0.037 A 
ATOM     50  C   UNL A   1      39.701  33.171  35.752  1.00  0.00     0.037 A 
ATOM     51  C   UNL A   1      41.319  28.660  31.329  1.00  0.00     0.049 A 
ATOM     52  C   UNL A   1      40.735  32.079  35.722  1.00  0.00     0.074 A 
ATOM     53  C   UNL A   1      42.363  27.754  31.381  1.00  0.00     0.029 A 
ATOM     54  N   UNL A   1      41.350  29.374  32.518  1.00  0.00    -0.354 N 
ATOM     55  N   UNL A   1      41.009  31.223  34.767  1.00  0.00    -0.248 NA
ATOM     56  C   UNL A   1      41.574  31.929  36.919  1.00  0.00     0.031 C 
ATOM     57  C   UNL A   1      42.993  27.881  32.624  1.00  0.00     0.029 A 
ATOM     58  C   UNL A   1      42.376  28.904  33.324  1.00  0.00     0.049 A 
ATOM     59  H   UNL A   1      40.734  30.105  32.755  1.00  0.00     0.167 HD
ATOM     60  C   UNL A   1      42.061  30.450  35.236  1.00  0.00     0.074 A 
ATOM     61  C   UNL A   1      42.393  30.952  36.554  1.00  0.00     0.031 C 
ATOM     62  C   UNL A   1      42.693  29.415  34.634  1.00  0.00     0.037 A 
BRANCH  49  63
ATOM     63  C   UNL A   1      40.405  27.933  29.097  1.00  0.00     0.064 A 
ATOM     64  C   UNL A   1      39.644  26.755  29.054  1.00  0.00     0.173 A 
ATOM     65  C   UNL A   1      41.172  28.260  27.967  1.00  0.00     0.173 A 
ATOM     66  F   UNL A   1      38.901  26.392  30.110  1.00  0.00    -0.203 F 
ATOM     67  C   UNL A   1      39.665  25.928  27.932  1.00  0.00     0.198 A 
ATOM     68  C   UNL A   1      41.168  27.447  26.837  1.00  0.00     0.198 A 
ATOM     69  F   UNL A   1      41.913  29.378  27.953  1.00  0.00    -0.203 F 
ATOM     70  F   UNL A   1      38.961  24.788  27.930  1.00  0.00    -0.200 F 
ATOM     71  C   UNL A   1      40.420  26.280  26.823  1.00  0.00     0.200 A 
ATOM     72  F   UNL A   1      41.885  27.794  25.760  1.00  0.00    -0.200 F 
ATOM     73  F   UNL A   1      40.427  25.490  25.740  1.00  0.00    -0.200 F 
ENDBRANCH  49  63
BRANCH  50  74
ATOM     74  C   UNL A   1      39.544  34.039  36.948  1.00  0.00     0.064 A 
ATOM     75  C   UNL A   1      40.181  35.286  37.025  1.00  0.00     0.173 A 
ATOM     76  C   UNL A   1      38.770  33.635  38.046  1.00  0.00     0.173 A 
ATOM     77  F   UNL A   1      40.950  35.708  36.010  1.00  0.00    -0.203 F 
ATOM     78  C   UNL A   1      40.069  36.083  38.162  1.00  0.00     0.198 A 
ATOM     79  C   UNL A   1      38.633  34.447  39.169  1.00  0.00     0.198 A 
ATOM     80  F   UNL A   1      38.135  32.454  38.022  1.00  0.00    -0.203 F 
ATOM     81  F   UNL A   1      40.732  37.247  38.229  1.00  0.00    -0.200 F 
ATOM     82  C   UNL A   1      39.292  35.666  39.231  1.00  0.00     0.200 A 
ATOM     83  F   UNL A   1      37.866  34.047  40.193  1.00  0.00    -0.200 F 
ATOM     84  F   UNL A   1      39.182  36.434  40.323  1.00  0.00    -0.200 F 
ENDBRANCH  50  74
BRANCH  62  85
ATOM     85  C   UNL A   1      43.823  28.769  35.383  1.00  0.00     0.064 A 
ATOM     86  C   UNL A   1      45.153  29.177  35.200  1.00  0.00     0.173 A 
ATOM     87  C   UNL A   1      43.570  27.757  36.321  1.00  0.00     0.173 A 
ATOM     88  F   UNL A   1      45.450  30.129  34.303  1.00  0.00    -0.203 F 
ATOM     89  C   UNL A   1      46.189  28.576  35.910  1.00  0.00     0.198 A 
ATOM     90  C   UNL A   1      44.605  27.182  37.051  1.00  0.00     0.198 A 
ATOM     91  F   UNL A   1      42.315  27.335  36.538  1.00  0.00    -0.203 F 
ATOM     92  F   UNL A   1      47.457  28.947  35.682  1.00  0.00    -0.200 F 
ATOM     93  C   UNL A   1      45.914  27.586  36.840  1.00  0.00     0.200 A 
ATOM     94  F   UNL A   1      44.335  26.233  37.960  1.00  0.00    -0.200 F 
ATOM     95  F   UNL A   1      46.912  27.014  37.528  1.00  0.00    -0.200 F 
ENDBRANCH  62  85
ENDBRANCH  36  37
ENDBRANCH  28  31
ENDBRANCH  26  27
ENDBRANCH  25  26
ENDBRANCH  24  25
ENDBRANCH  23  24
ENDBRANCH   1  23
TORSDOF 17
ENDMDL
MODEL 2
REMARK VINA RESULT:     -12.0      0.791      2.181
REMARK SMILES C[C@@H](CC(=O)NCCCCCCNC(=O)c1ccc(-c2c3nc(c(-c4c(F)c(F)c(F)c(F)c4F)c4ccc([nH]4)c(-c4c(F)c(F)c(F)c(F)c4F)c4nc(c(-c5c(F)c(F)c(F)c(F)c5F)c5ccc2[nH]5)C=C4)C=C3)cc1)Cc1nnc(C2C(C)(C)C2(C)C)o1
REMARK SMILES IDX 8 1 7 2 6 3 4 4 5 5 3 7 2 8 1 9 79 10 80 11 81 12 91 13
REMARK SMILES IDX 82 14 83 15 84 16 85 17 88 18 86 19 87 20 89 21 90 22 9 23
REMARK SMILES IDX 10 24 11 25 12 26 13 27 14 28 15 30 16 31 17 32 78 33 18 34
REMARK SMILES IDX 77 35 19 36 20 37 21 38 71 39 22 40 76 41 70 42 72 43 23 44
REMARK SMILES IDX 75 45 69 46 68 47 24 49 56 50 36 51 55 52 37 53 40 54 54 55
REMARK SMILES IDX 73 56 38 57 39 58 53 60 74 61 41 62 25 63 26 64 34 65 27 66
REMARK SMILES IDX 28 67 32 68 35 69 29 70 30 71 33 72 31 73 57 74 58 75 66 76
REMARK SMILES IDX 59 77 60 78 64 79 67 80 61 81 62 82 65 83 63 84 42 85 43 86
REMARK SMILES IDX 51 87 44 88 45 89 49 90 52 91 46 92 47 93 50 94 48 95
REMARK H PARENT 6 6 13 29 72 48 40 59
REMARK Flexibility Score: inf
ROOT
ATOM      1  C   UNL A   1      33.039  29.308  25.092  1.00  0.00     0.021 C 
ENDROOT
BRANCH   1   2
ATOM      2  C   UNL A   1      33.110  28.667  23.704  1.00  0.00     0.116 C 
BRANCH   2   3
ATOM      3  N   UNL A   1      31.866  28.872  22.993  1.00  0.00    -0.356 N 
ATOM      4  C   UNL A   1      30.957  27.968  22.544  1.00  0.00     0.220 C 
ATOM      5  O   UNL A   1      30.032  28.374  21.839  1.00  0.00    -0.275 OA
ATOM      6  H   UNL A   1      31.645  29.813  22.805  1.00  0.00     0.163 HD
BRANCH   4   7
ATOM      7  C   UNL A   1      31.068  26.493  22.899  1.00  0.00     0.103 C 
BRANCH   7   8
ATOM      8  C   UNL A   1      30.203  25.978  24.072  1.00  0.00     0.004 C 
ATOM      9  C   UNL A   1      28.771  26.525  24.024  1.00  0.00     0.009 C 
BRANCH   8  10
ATOM     10  C   UNL A   1      30.893  26.153  25.440  1.00  0.00     0.103 C 
BRANCH  10  11
ATOM     11  C   UNL A   1      31.402  24.887  26.018  1.00  0.00     0.216 A 
ATOM     12  N   UNL A   1      31.021  24.205  27.073  1.00  0.00    -0.113 NA
ATOM     13  O   UNL A   1      32.467  24.323  25.377  1.00  0.00    -0.425 OA
ATOM     14  N   UNL A   1      31.847  23.097  27.127  1.00  0.00    -0.113 NA
ATOM     15  C   UNL A   1      32.680  23.187  26.107  1.00  0.00     0.220 A 
BRANCH  15  16
ATOM     16  C   UNL A   1      33.700  22.104  25.782  1.00  0.00     0.090 C 
ATOM     17  C   UNL A   1      33.454  21.140  24.610  1.00  0.00    -0.017 C 
ATOM     18  C   UNL A   1      34.621  22.125  24.559  1.00  0.00    -0.017 C 
ATOM     19  C   UNL A   1      33.687  19.673  24.919  1.00  0.00     0.012 C 
ATOM     20  C   UNL A   1      32.308  21.306  23.631  1.00  0.00     0.012 C 
ATOM     21  C   UNL A   1      34.608  23.299  23.604  1.00  0.00     0.012 C 
ATOM     22  C   UNL A   1      36.025  21.576  24.735  1.00  0.00     0.012 C 
ENDBRANCH  15  16
ENDBRANCH  10  11
ENDBRANCH   8  10
ENDBRANCH   7   8
ENDBRANCH   4   7
ENDBRANCH   2   3
ENDBRANCH   1   2
BRANCH   1  23
ATOM     23  C   UNL A   1      31.679  29.931  25.422  1.00  0.00     0.002 C 
BRANCH  23  24
ATOM     24  C   UNL A   1      31.585  30.580  26.808  1.00  0.00     0.002 C 
BRANCH  24  25
ATOM     25  C   UNL A   1      31.446  32.104  26.810  1.00  0.00     0.021 C 
BRANCH  25  26
ATOM     26  C   UNL A   1      32.719  32.863  27.181  1.00  0.00     0.116 C 
BRANCH  26  27
ATOM     27  N   UNL A   1      32.440  34.233  27.584  1.00  0.00    -0.352 N 
ATOM     28  C   UNL A   1      32.972  34.967  28.610  1.00  0.00     0.251 C 
ATOM     29  H   UNL A   1      31.769  34.702  27.038  1.00  0.00     0.163 HD
ATOM     30  O   UNL A   1      32.456  36.038  28.938  1.00  0.00    -0.269 OA
BRANCH  28  31
ATOM     31  C   UNL A   1      34.157  34.476  29.342  1.00  0.00     0.039 A 
ATOM     32  C   UNL A   1      33.977  33.839  30.572  1.00  0.00     0.014 A 
ATOM     33  C   UNL A   1      35.443  34.650  28.821  1.00  0.00     0.014 A 
ATOM     34  C   UNL A   1      35.080  33.311  31.246  1.00  0.00     0.010 A 
ATOM     35  C   UNL A   1      36.533  34.067  29.462  1.00  0.00     0.010 A 
ATOM     36  C   UNL A   1      36.361  33.384  30.676  1.00  0.00    -0.014 A 
BRANCH  36  37
ATOM     37  C   UNL A   1      37.524  32.716  31.315  1.00  0.00     0.031 A 
ATOM     38  C   UNL A   1      38.205  31.558  30.643  1.00  0.00     0.074 A 
ATOM     39  C   UNL A   1      37.917  33.112  32.542  1.00  0.00     0.049 A 
ATOM     40  N   UNL A   1      39.185  30.808  31.081  1.00  0.00    -0.248 NA
ATOM     41  C   UNL A   1      37.704  31.176  29.313  1.00  0.00     0.031 C 
ATOM     42  C   UNL A   1      37.301  34.190  33.318  1.00  0.00     0.029 A 
ATOM     43  N   UNL A   1      38.916  32.644  33.360  1.00  0.00    -0.354 N 
ATOM     44  C   UNL A   1      39.411  29.862  30.090  1.00  0.00     0.074 A 
ATOM     45  C   UNL A   1      38.436  30.103  29.047  1.00  0.00     0.031 C 
ATOM     46  C   UNL A   1      37.943  34.311  34.491  1.00  0.00     0.029 A 
ATOM     47  C   UNL A   1      38.988  33.294  34.568  1.00  0.00     0.049 A 
ATOM     48  H   UNL A   1      39.523  31.913  33.104  1.00  0.00     0.167 HD
ATOM     49  C   UNL A   1      40.358  28.895  30.047  1.00  0.00     0.037 A 
ATOM     50  C   UNL A   1      39.794  33.084  35.626  1.00  0.00     0.037 A 
ATOM     51  C   UNL A   1      41.339  28.674  31.078  1.00  0.00     0.049 A 
ATOM     52  C   UNL A   1      40.828  31.994  35.555  1.00  0.00     0.074 A 
ATOM     53  C   UNL A   1      42.386  27.769  31.091  1.00  0.00     0.029 A 
ATOM     54  N   UNL A   1      41.390  29.361  32.281  1.00  0.00    -0.354 N 
ATOM     55  N   UNL A   1      41.086  31.160  34.576  1.00  0.00    -0.248 NA
ATOM     56  C   UNL A   1      41.689  31.819  36.733  1.00  0.00     0.031 C 
ATOM     57  C   UNL A   1      43.036  27.870  32.325  1.00  0.00     0.029 A 
ATOM     58  C   UNL A   1      42.431  28.876  33.059  1.00  0.00     0.049 A 
ATOM     59  H   UNL A   1      40.778  30.086  32.545  1.00  0.00     0.167 HD
ATOM     60  C   UNL A   1      42.148  30.379  35.010  1.00  0.00     0.074 A 
ATOM     61  C   UNL A   1      42.502  30.852  36.332  1.00  0.00     0.031 C 
ATOM     62  C   UNL A   1      42.771  29.358  34.373  1.00  0.00     0.037 A 
BRANCH  49  63
ATOM     63  C   UNL A   1      40.387  27.995  28.846  1.00  0.00     0.064 A 
ATOM     64  C   UNL A   1      41.154  28.303  27.713  1.00  0.00     0.173 A 
ATOM     65  C   UNL A   1      39.689  26.776  28.854  1.00  0.00     0.173 A 
ATOM     66  F   UNL A   1      41.833  29.458  27.651  1.00  0.00    -0.203 F 
ATOM     67  C   UNL A   1      41.206  27.435  26.624  1.00  0.00     0.198 A 
ATOM     68  C   UNL A   1      39.767  25.898  27.776  1.00  0.00     0.198 A 
ATOM     69  F   UNL A   1      38.945  26.429  29.915  1.00  0.00    -0.203 F 
ATOM     70  F   UNL A   1      41.916  27.769  25.537  1.00  0.00    -0.200 F 
ATOM     71  C   UNL A   1      40.520  26.230  26.661  1.00  0.00     0.200 A 
ATOM     72  F   UNL A   1      39.115  24.728  27.818  1.00  0.00    -0.200 F 
ATOM     73  F   UNL A   1      40.584  25.391  25.618  1.00  0.00    -0.200 F 
ENDBRANCH  49  63
BRANCH  50  74
ATOM     74  C   UNL A   1      39.657  33.925  36.845  1.00  0.00     0.064 A 
ATOM     75  C   UNL A   1      38.851  33.517  37.917  1.00  0.00     0.173 A 
ATOM     76  C   UNL A   1      40.313  35.159  36.955  1.00  0.00     0.173 A 
ATOM     77  F   UNL A   1      38.186  32.355  37.850  1.00  0.00    -0.203 F 
ATOM     78  C   UNL A   1      38.689  34.322  39.043  1.00  0.00     0.198 A 
ATOM     79  C   UNL A   1      40.176  35.949  38.094  1.00  0.00     0.198 A 
ATOM     80  F   UNL A   1      41.101  35.594  35.960  1.00  0.00    -0.203 F 
ATOM     81  F   UNL A   1      37.871  33.932  40.030  1.00  0.00    -0.200 F 
ATOM     82  C   UNL A   1      39.355  35.535  39.133  1.00  0.00     0.200 A 
ATOM     83  F   UNL A   1      40.834  37.113  38.185  1.00  0.00    -0.200 F 
ATOM     84  F   UNL A   1      39.200  36.308  40.216  1.00  0.00    -0.200 F 
ENDBRANCH  50  74
BRANCH  62  85
ATOM     85  C   UNL A   1      43.914  28.697  35.088  1.00  0.00     0.064 A 
ATOM     86  C   UNL A   1      43.716  27.586  35.921  1.00  0.00     0.173 A 
ATOM     87  C   UNL A   1      45.227  29.158  34.909  1.00  0.00     0.173 A 
ATOM     88  F   UNL A   1      42.478  27.118  36.139  1.00  0.00    -0.203 F 
ATOM     89  C   UNL A   1      44.788  26.978  36.570  1.00  0.00     0.198 A 
ATOM     90  C   UNL A   1      46.299  28.527  35.533  1.00  0.00     0.198 A 
ATOM     91  F   UNL A   1      45.472  30.213  34.117  1.00  0.00    -0.203 F 
ATOM     92  F   UNL A   1      44.568  25.949  37.401  1.00  0.00    -0.200 F 
ATOM     93  C   UNL A   1      46.078  27.443  36.368  1.00  0.00     0.200 A 
ATOM     94  F   UNL A   1      47.548  28.970  35.326  1.00  0.00    -0.200 F 
ATOM     95  F   UNL A   1      47.109  26.851  36.987  1.00  0.00    -0.200 F 
ENDBRANCH  62  85
ENDBRANCH  36  37
ENDBRANCH  28  31
ENDBRANCH  26  27
ENDBRANCH  25  26
ENDBRANCH  24  25
ENDBRANCH  23  24
ENDBRANCH   1  23
TORSDOF 17
ENDMDL
MODEL 3
REMARK VINA RESULT:     -11.9      1.015      7.395
REMARK SMILES C[C@@H](CC(=O)NCCCCCCNC(=O)c1ccc(-c2c3nc(c(-c4c(F)c(F)c(F)c(F)c4F)c4ccc([nH]4)c(-c4c(F)c(F)c(F)c(F)c4F)c4nc(c(-c5c(F)c(F)c(F)c(F)c5F)c5ccc2[nH]5)C=C4)C=C3)cc1)Cc1nnc(C2C(C)(C)C2(C)C)o1
REMARK SMILES IDX 8 1 7 2 6 3 4 4 5 5 3 7 2 8 1 9 79 10 80 11 81 12 91 13
REMARK SMILES IDX 82 14 83 15 84 16 85 17 88 18 86 19 87 20 89 21 90 22 9 23
REMARK SMILES IDX 10 24 11 25 12 26 13 27 14 28 15 30 16 31 17 32 78 33 18 34
REMARK SMILES IDX 77 35 19 36 20 37 21 38 71 39 22 40 76 41 70 42 72 43 23 44
REMARK SMILES IDX 75 45 69 46 68 47 24 49 56 50 36 51 55 52 37 53 40 54 54 55
REMARK SMILES IDX 73 56 38 57 39 58 53 60 74 61 41 62 25 63 26 64 34 65 27 66
REMARK SMILES IDX 28 67 32 68 35 69 29 70 30 71 33 72 31 73 57 74 58 75 66 76
REMARK SMILES IDX 59 77 60 78 64 79 67 80 61 81 62 82 65 83 63 84 42 85 43 86
REMARK SMILES IDX 51 87 44 88 45 89 49 90 52 91 46 92 47 93 50 94 48 95
REMARK H PARENT 6 6 13 29 72 48 40 59
REMARK Flexibility Score: inf
ROOT
ATOM      1  C   UNL A   1      32.994  29.418  25.014  1.00  0.00     0.021 C 
ENDROOT
BRANCH   1   2
ATOM      2  C   UNL A   1      32.986  28.850  23.593  1.00  0.00     0.116 C 
BRANCH   2   3
ATOM      3  N   UNL A   1      31.711  29.109  22.957  1.00  0.00    -0.356 N 
ATOM      4  C   UNL A   1      30.784  28.242  22.474  1.00  0.00     0.220 C 
ATOM      5  O   UNL A   1      29.828  28.703  21.847  1.00  0.00    -0.275 OA
ATOM      6  H   UNL A   1      31.481  30.061  22.859  1.00  0.00     0.163 HD
BRANCH   4   7
ATOM      7  C   UNL A   1      30.912  26.744  22.697  1.00  0.00     0.103 C 
BRANCH   7   8
ATOM      8  C   UNL A   1      30.149  26.137  23.898  1.00  0.00     0.004 C 
ATOM      9  C   UNL A   1      28.701  26.635  23.979  1.00  0.00     0.009 C 
BRANCH   8  10
ATOM     10  C   UNL A   1      30.929  26.263  25.222  1.00  0.00     0.103 C 
BRANCH  10  11
ATOM     11  C   UNL A   1      31.265  24.961  25.843  1.00  0.00     0.216 A 
ATOM     12  N   UNL A   1      30.886  24.424  26.980  1.00  0.00    -0.113 NA
ATOM     13  O   UNL A   1      32.137  24.174  25.148  1.00  0.00    -0.425 OA
ATOM     14  N   UNL A   1      31.503  23.187  27.038  1.00  0.00    -0.113 NA
ATOM     15  C   UNL A   1      32.223  23.062  25.939  1.00  0.00     0.220 A 
BRANCH  15  16
ATOM     16  C   UNL A   1      32.993  21.793  25.600  1.00  0.00     0.090 C 
ATOM     17  C   UNL A   1      32.897  21.186  24.191  1.00  0.00    -0.017 C 
ATOM     18  C   UNL A   1      34.226  21.747  24.694  1.00  0.00    -0.017 C 
ATOM     19  C   UNL A   1      32.652  19.690  24.147  1.00  0.00     0.012 C 
ATOM     20  C   UNL A   1      32.195  21.878  23.039  1.00  0.00     0.012 C 
ATOM     21  C   UNL A   1      34.804  23.019  24.114  1.00  0.00     0.012 C 
ATOM     22  C   UNL A   1      35.323  20.763  25.060  1.00  0.00     0.012 C 
ENDBRANCH  15  16
ENDBRANCH  10  11
ENDBRANCH   8  10
ENDBRANCH   7   8
ENDBRANCH   4   7
ENDBRANCH   2   3
ENDBRANCH   1   2
BRANCH   1  23
ATOM     23  C   UNL A   1      31.629  29.923  25.492  1.00  0.00     0.002 C 
BRANCH  23  24
ATOM     24  C   UNL A   1      31.634  30.592  26.871  1.00  0.00     0.002 C 
BRANCH  24  25
ATOM     25  C   UNL A   1      31.478  32.115  26.861  1.00  0.00     0.021 C 
BRANCH  25  26
ATOM     26  C   UNL A   1      32.774  32.894  27.073  1.00  0.00     0.116 C 
BRANCH  26  27
ATOM     27  N   UNL A   1      32.528  34.239  27.571  1.00  0.00    -0.352 N 
ATOM     28  C   UNL A   1      33.062  34.880  28.656  1.00  0.00     0.251 C 
ATOM     29  H   UNL A   1      31.880  34.766  27.049  1.00  0.00     0.163 HD
ATOM     30  O   UNL A   1      32.571  35.939  29.053  1.00  0.00    -0.269 OA
BRANCH  28  31
ATOM     31  C   UNL A   1      34.218  34.301  29.369  1.00  0.00     0.039 A 
ATOM     32  C   UNL A   1      33.992  33.519  30.503  1.00  0.00     0.014 A 
ATOM     33  C   UNL A   1      35.523  34.537  28.925  1.00  0.00     0.014 A 
ATOM     34  C   UNL A   1      35.070  32.911  31.151  1.00  0.00     0.010 A 
ATOM     35  C   UNL A   1      36.590  33.878  29.533  1.00  0.00     0.010 A 
ATOM     36  C   UNL A   1      36.372  33.052  30.646  1.00  0.00    -0.014 A 
BRANCH  36  37
ATOM     37  C   UNL A   1      37.511  32.308  31.245  1.00  0.00     0.031 A 
ATOM     38  C   UNL A   1      38.047  32.691  32.595  1.00  0.00     0.074 A 
ATOM     39  C   UNL A   1      38.107  31.333  30.531  1.00  0.00     0.049 A 
ATOM     40  N   UNL A   1      39.076  32.205  33.243  1.00  0.00    -0.248 NA
ATOM     41  C   UNL A   1      37.352  33.777  33.301  1.00  0.00     0.031 C 
ATOM     42  C   UNL A   1      37.710  30.907  29.188  1.00  0.00     0.029 A 
ATOM     43  N   UNL A   1      39.185  30.534  30.826  1.00  0.00    -0.354 N 
ATOM     44  C   UNL A   1      39.159  32.931  34.423  1.00  0.00     0.074 A 
ATOM     45  C   UNL A   1      38.104  33.921  34.384  1.00  0.00     0.031 C 
ATOM     46  C   UNL A   1      38.521  29.917  28.782  1.00  0.00     0.029 A 
ATOM     47  C   UNL A   1      39.520  29.666  29.817  1.00  0.00     0.049 A 
ATOM     48  H   UNL A   1      39.670  30.579  31.682  1.00  0.00     0.167 HD
ATOM     49  C   UNL A   1      40.023  32.771  35.454  1.00  0.00     0.037 A 
ATOM     50  C   UNL A   1      40.529  28.779  29.726  1.00  0.00     0.037 A 
ATOM     51  C   UNL A   1      41.057  31.769  35.497  1.00  0.00     0.049 A 
ATOM     52  C   UNL A   1      41.482  28.632  30.882  1.00  0.00     0.074 A 
ATOM     53  C   UNL A   1      41.934  31.480  36.528  1.00  0.00     0.029 A 
ATOM     54  N   UNL A   1      41.358  30.898  34.461  1.00  0.00    -0.354 N 
ATOM     55  N   UNL A   1      41.497  29.268  32.028  1.00  0.00    -0.248 NA
ATOM     56  C   UNL A   1      42.555  27.639  30.733  1.00  0.00     0.031 C 
ATOM     57  C   UNL A   1      42.801  30.471  36.096  1.00  0.00     0.029 A 
ATOM     58  C   UNL A   1      42.430  30.093  34.817  1.00  0.00     0.049 A 
ATOM     59  H   UNL A   1      40.882  30.857  33.600  1.00  0.00     0.167 HD
ATOM     60  C   UNL A   1      42.562  28.740  32.743  1.00  0.00     0.074 A 
ATOM     61  C   UNL A   1      43.157  27.715  31.911  1.00  0.00     0.031 C 
ATOM     62  C   UNL A   1      43.011  29.077  33.977  1.00  0.00     0.037 A 
BRANCH  49  63
ATOM     63  C   UNL A   1      39.895  33.698  36.627  1.00  0.00     0.064 A 
ATOM     64  C   UNL A   1      40.612  34.902  36.697  1.00  0.00     0.173 A 
ATOM     65  C   UNL A   1      38.994  33.410  37.665  1.00  0.00     0.173 A 
ATOM     66  F   UNL A   1      41.492  35.219  35.736  1.00  0.00    -0.203 F 
ATOM     67  C   UNL A   1      40.448  35.773  37.771  1.00  0.00     0.198 A 
ATOM     68  C   UNL A   1      38.811  34.298  38.723  1.00  0.00     0.198 A 
ATOM     69  F   UNL A   1      38.278  32.276  37.645  1.00  0.00    -0.203 F 
ATOM     70  F   UNL A   1      41.173  36.899  37.835  1.00  0.00    -0.200 F 
ATOM     71  C   UNL A   1      39.541  35.475  38.778  1.00  0.00     0.200 A 
ATOM     72  F   UNL A   1      37.924  34.016  39.687  1.00  0.00    -0.200 F 
ATOM     73  F   UNL A   1      39.375  36.322  39.802  1.00  0.00    -0.200 F 
ENDBRANCH  49  63
BRANCH  50  74
ATOM     74  C   UNL A   1      40.690  27.958  28.497  1.00  0.00     0.064 A 
ATOM     75  C   UNL A   1      40.097  26.692  28.391  1.00  0.00     0.173 A 
ATOM     76  C   UNL A   1      41.453  28.413  27.412  1.00  0.00     0.173 A 
ATOM     77  F   UNL A   1      39.376  26.204  29.411  1.00  0.00    -0.203 F 
ATOM     78  C   UNL A   1      40.280  25.904  27.257  1.00  0.00     0.198 A 
ATOM     79  C   UNL A   1      41.610  27.637  26.265  1.00  0.00     0.198 A 
ATOM     80  F   UNL A   1      42.037  29.619  27.459  1.00  0.00    -0.203 F 
ATOM     81  F   UNL A   1      39.745  24.675  27.205  1.00  0.00    -0.200 F 
ATOM     82  C   UNL A   1      41.032  26.378  26.193  1.00  0.00     0.200 A 
ATOM     83  F   UNL A   1      42.323  28.106  25.232  1.00  0.00    -0.200 F 
ATOM     84  F   UNL A   1      41.206  25.620  25.103  1.00  0.00    -0.200 F 
ENDBRANCH  50  74
BRANCH  62  85
ATOM     85  C   UNL A   1      44.190  28.315  34.511  1.00  0.00     0.064 A 
ATOM     86  C   UNL A   1      45.502  28.783  34.348  1.00  0.00     0.173 A 
ATOM     87  C   UNL A   1      44.002  27.122  35.225  1.00  0.00     0.173 A 
ATOM     88  F   UNL A   1      45.736  29.910  33.658  1.00  0.00    -0.203 F 
ATOM     89  C   UNL A   1      46.584  28.071  34.859  1.00  0.00     0.198 A 
ATOM     90  C   UNL A   1      45.083  26.431  35.762  1.00  0.00     0.198 A 
ATOM     91  F   UNL A   1      42.766  26.634  35.415  1.00  0.00    -0.203 F 
ATOM     92  F   UNL A   1      47.832  28.512  34.647  1.00  0.00    -0.200 F 
ATOM     93  C   UNL A   1      46.374  26.901  35.572  1.00  0.00     0.200 A 
ATOM     94  F   UNL A   1      44.877  25.306  36.463  1.00  0.00    -0.200 F 
ATOM     95  F   UNL A   1      47.416  26.221  36.069  1.00  0.00    -0.200 F 
ENDBRANCH  62  85
ENDBRANCH  36  37
ENDBRANCH  28  31
ENDBRANCH  26  27
ENDBRANCH  25  26
ENDBRANCH  24  25
ENDBRANCH  23  24
ENDBRANCH   1  23
TORSDOF 17
ENDMDL
