MODEL 1
REMARK VINA RESULT:     -13.1      0.000      0.000
REMARK SMILES COc1ccccc1[C@@H]1C[N@@H+](Cc2cc3c(cc2C)OCO3)C[C@H]1C(=O)NCCCCCCNC(=O)c1ccc(-c2c3nc(c(-c4c(F)c(F)c(F)c(F)c4F)c4ccc([nH]4)c(-c4c(F)c(F)c(F)c(F)c4F)c4nc(c(-c5c(F)c(F)c(F)c(F)c5F)c5ccc2[nH]5)C=C4)C=C3)cc1
REMARK SMILES IDX 30 1 29 2 28 3 27 4 25 5 26 6 24 8 9 9 10 10 11 11 23 12
REMARK SMILES IDX 8 14 3 15 4 16 5 17 7 18 6 19 2 20 1 21 12 22 13 23 14 24
REMARK SMILES IDX 18 25 15 26 17 27 19 28 16 29 22 30 20 31 21 32 31 33 32 34
REMARK SMILES IDX 33 35 34 36 35 37 36 39 37 40 38 41 99 42 39 43 98 44 40 45
REMARK SMILES IDX 41 46 42 47 92 48 43 49 97 50 91 51 93 52 44 53 96 54 90 55
REMARK SMILES IDX 89 56 45 58 77 59 57 60 76 61 58 62 61 63 75 64 94 65 59 66
REMARK SMILES IDX 60 67 74 69 95 70 62 71 46 72 47 73 55 74 48 75 49 76 53 77
REMARK SMILES IDX 56 78 50 79 51 80 54 81 52 82 78 83 79 84 87 85 80 86 81 87
REMARK SMILES IDX 85 88 88 89 82 90 83 91 86 92 84 93 63 94 64 95 72 96 65 97
REMARK SMILES IDX 66 98 70 99 73 100 67 101 68 102 71 103 69 104
REMARK H PARENT 27 7 11 13 34 38 93 57 61 68
REMARK Flexibility Score: inf
ROOT
ATOM      1  C   UNL A   1      34.478  32.189  28.915  1.00  0.00     0.002 C 
ENDROOT
BRANCH   1   2
ATOM      2  C   UNL A   1      34.181  31.296  27.708  1.00  0.00     0.021 C 
BRANCH   2   3
ATOM      3  C   UNL A   1      34.594  29.791  27.593  1.00  0.00     0.116 C 
BRANCH   3   4
ATOM      4  N   UNL A   1      33.495  28.784  27.161  1.00  0.00    -0.356 N 
ATOM      5  C   UNL A   1      32.974  27.797  26.384  1.00  0.00     0.229 C 
ATOM      6  O   UNL A   1      31.897  27.435  26.925  1.00  0.00    -0.275 OA
ATOM      7  H   UNL A   1      32.775  28.955  27.810  1.00  0.00     0.163 HD
BRANCH   5   8
ATOM      8  C   UNL A   1      33.260  26.983  25.027  1.00  0.00     0.146 C 
ATOM      9  C   UNL A   1      32.697  25.527  24.902  1.00  0.00     0.096 C 
ATOM     10  C   UNL A   1      32.701  25.190  23.395  1.00  0.00     0.272 C 
ATOM     11  N   UNL A   1      32.585  26.460  22.677  1.00  0.00    -0.330 N 
ATOM     12  C   UNL A   1      33.238  27.467  23.552  1.00  0.00     0.276 C 
ATOM     13  H   UNL A   1      33.086  26.511  21.791  1.00  0.00     0.348 HD
BRANCH   9  14
ATOM     14  C   UNL A   1      33.156  24.313  25.709  1.00  0.00     0.004 A 
ATOM     15  C   UNL A   1      32.458  23.627  26.723  1.00  0.00     0.122 A 
ATOM     16  C   UNL A   1      33.124  22.679  27.529  1.00  0.00     0.047 A 
ATOM     17  C   UNL A   1      34.487  22.430  27.390  1.00  0.00     0.004 A 
ATOM     18  C   UNL A   1      34.543  24.022  25.591  1.00  0.00     0.008 A 
ATOM     19  C   UNL A   1      35.203  23.118  26.427  1.00  0.00     0.001 A 
BRANCH  15  20
ATOM     20  O   UNL A   1      31.225  23.946  27.228  1.00  0.00    -0.496 OA
ATOM     21  C   UNL A   1      30.147  23.106  26.862  1.00  0.00     0.278 C 
ENDBRANCH  15  20
ENDBRANCH   9  14
BRANCH  11  22
ATOM     22  C   UNL A   1      31.241  26.684  22.076  1.00  0.00     0.299 C 
BRANCH  22  23
ATOM     23  C   UNL A   1      30.406  27.774  22.727  1.00  0.00     0.013 A 
ATOM     24  C   UNL A   1      30.502  29.155  22.430  1.00  0.00     0.060 A 
ATOM     25  C   UNL A   1      29.330  27.344  23.484  1.00  0.00    -0.038 A 
ATOM     26  C   UNL A   1      29.404  29.959  22.693  1.00  0.00     0.166 A 
ATOM     27  C   UNL A   1      28.158  28.054  23.291  1.00  0.00     0.054 A 
ATOM     28  C   UNL A   1      29.460  26.172  24.408  1.00  0.00     0.045 C 
ATOM     29  C   UNL A   1      28.216  29.379  23.005  1.00  0.00     0.166 A 
ATOM     30  O   UNL A   1      29.259  31.307  22.591  1.00  0.00    -0.454 OA
ATOM     31  O   UNL A   1      27.164  30.226  23.049  1.00  0.00    -0.454 OA
ATOM     32  C   UNL A   1      27.884  31.466  23.038  1.00  0.00     0.468 C 
ENDBRANCH  22  23
ENDBRANCH  11  22
ENDBRANCH   5   8
ENDBRANCH   3   4
ENDBRANCH   2   3
ENDBRANCH   1   2
BRANCH   1  33
ATOM     33  C   UNL A   1      34.552  33.709  28.690  1.00  0.00     0.002 C 
BRANCH  33  34
ATOM     34  C   UNL A   1      33.269  34.569  28.742  1.00  0.00     0.021 C 
BRANCH  34  35
ATOM     35  C   UNL A   1      33.338  35.983  29.326  1.00  0.00     0.116 C 
BRANCH  35  36
ATOM     36  N   UNL A   1      32.544  36.149  30.533  1.00  0.00    -0.352 N 
ATOM     37  C   UNL A   1      32.703  35.639  31.788  1.00  0.00     0.251 C 
ATOM     38  H   UNL A   1      31.757  36.730  30.427  1.00  0.00     0.163 HD
ATOM     39  O   UNL A   1      31.788  35.791  32.624  1.00  0.00    -0.269 OA
BRANCH  37  40
ATOM     40  C   UNL A   1      33.915  34.905  32.200  1.00  0.00     0.039 A 
ATOM     41  C   UNL A   1      35.144  35.578  32.208  1.00  0.00     0.014 A 
ATOM     42  C   UNL A   1      33.876  33.536  32.483  1.00  0.00     0.014 A 
ATOM     43  C   UNL A   1      36.318  34.897  32.541  1.00  0.00     0.010 A 
ATOM     44  C   UNL A   1      35.042  32.868  32.865  1.00  0.00     0.010 A 
ATOM     45  C   UNL A   1      36.277  33.538  32.887  1.00  0.00    -0.014 A 
BRANCH  45  46
ATOM     46  C   UNL A   1      37.523  32.806  33.243  1.00  0.00     0.031 A 
ATOM     47  C   UNL A   1      38.233  33.100  34.537  1.00  0.00     0.074 A 
ATOM     48  C   UNL A   1      38.035  31.900  32.386  1.00  0.00     0.049 A 
ATOM     49  N   UNL A   1      39.341  32.586  35.014  1.00  0.00    -0.248 NA
ATOM     50  C   UNL A   1      37.631  34.128  35.400  1.00  0.00     0.031 C 
ATOM     51  C   UNL A   1      37.466  31.558  31.083  1.00  0.00     0.029 A 
ATOM     52  N   UNL A   1      39.151  31.106  32.480  1.00  0.00    -0.354 N 
ATOM     53  C   UNL A   1      39.571  33.236  36.220  1.00  0.00     0.074 A 
ATOM     54  C   UNL A   1      38.522  34.219  36.377  1.00  0.00     0.031 C 
ATOM     55  C   UNL A   1      38.223  30.609  30.508  1.00  0.00     0.029 A 
ATOM     56  C   UNL A   1      39.345  30.296  31.387  1.00  0.00     0.049 A 
ATOM     57  H   UNL A   1      39.756  31.115  33.257  1.00  0.00     0.167 HD
ATOM     58  C   UNL A   1      40.554  33.015  37.128  1.00  0.00     0.037 A 
ATOM     59  C   UNL A   1      40.318  29.401  31.126  1.00  0.00     0.037 A 
ATOM     60  C   UNL A   1      41.583  32.019  36.978  1.00  0.00     0.049 A 
ATOM     61  C   UNL A   1      41.393  29.167  32.155  1.00  0.00     0.074 A 
ATOM     62  C   UNL A   1      42.594  31.680  37.860  1.00  0.00     0.029 A 
ATOM     63  N   UNL A   1      41.730  31.199  35.868  1.00  0.00    -0.354 N 
ATOM     64  N   UNL A   1      41.560  29.738  33.323  1.00  0.00    -0.248 NA
ATOM     65  C   UNL A   1      42.406  28.152  31.834  1.00  0.00     0.031 C 
ATOM     66  C   UNL A   1      43.380  30.688  37.265  1.00  0.00     0.029 A 
ATOM     67  C   UNL A   1      42.826  30.367  36.035  1.00  0.00     0.049 A 
ATOM     68  H   UNL A   1      41.144  31.208  35.078  1.00  0.00     0.167 HD
ATOM     69  C   UNL A   1      42.672  29.131  33.890  1.00  0.00     0.074 A 
ATOM     70  C   UNL A   1      43.132  28.137  32.942  1.00  0.00     0.031 C 
ATOM     71  C   UNL A   1      43.261  29.374  35.087  1.00  0.00     0.037 A 
BRANCH  58  72
ATOM     72  C   UNL A   1      40.559  33.866  38.366  1.00  0.00     0.064 A 
ATOM     73  C   UNL A   1      39.794  33.530  39.494  1.00  0.00     0.173 A 
ATOM     74  C   UNL A   1      41.359  35.017  38.439  1.00  0.00     0.173 A 
ATOM     75  F   UNL A   1      39.004  32.445  39.476  1.00  0.00    -0.203 F 
ATOM     76  C   UNL A   1      39.801  34.332  40.633  1.00  0.00     0.198 A 
ATOM     77  C   UNL A   1      41.389  35.799  39.592  1.00  0.00     0.198 A 
ATOM     78  F   UNL A   1      42.117  35.382  37.395  1.00  0.00    -0.203 F 
ATOM     79  F   UNL A   1      39.018  34.020  41.675  1.00  0.00    -0.200 F 
ATOM     80  C   UNL A   1      40.603  35.462  40.683  1.00  0.00     0.200 A 
ATOM     81  F   UNL A   1      42.175  36.883  39.644  1.00  0.00    -0.200 F 
ATOM     82  F   UNL A   1      40.612  36.231  41.781  1.00  0.00    -0.200 F 
ENDBRANCH  58  72
BRANCH  59  83
ATOM     83  C   UNL A   1      40.299  28.632  29.854  1.00  0.00     0.064 A 
ATOM     84  C   UNL A   1      40.995  29.089  28.725  1.00  0.00     0.173 A 
ATOM     85  C   UNL A   1      39.584  27.432  29.735  1.00  0.00     0.173 A 
ATOM     86  F   UNL A   1      41.679  30.242  28.781  1.00  0.00    -0.203 F 
ATOM     87  C   UNL A   1      40.957  28.388  27.521  1.00  0.00     0.198 A 
ATOM     88  C   UNL A   1      39.571  26.716  28.539  1.00  0.00     0.198 A 
ATOM     89  F   UNL A   1      38.906  26.948  30.786  1.00  0.00    -0.203 F 
ATOM     90  F   UNL A   1      41.592  28.873  26.446  1.00  0.00    -0.200 F 
ATOM     91  C   UNL A   1      40.250  27.199  27.431  1.00  0.00     0.200 A 
ATOM     92  F   UNL A   1      38.899  25.559  28.461  1.00  0.00    -0.200 F 
ATOM     93  F   UNL A   1      40.217  26.523  26.275  1.00  0.00    -0.200 F 
ENDBRANCH  59  83
BRANCH  71  94
ATOM     94  C   UNL A   1      44.438  28.519  35.461  1.00  0.00     0.064 A 
ATOM     95  C   UNL A   1      44.282  27.311  36.156  1.00  0.00     0.173 A 
ATOM     96  C   UNL A   1      45.736  28.899  35.087  1.00  0.00     0.173 A 
ATOM     97  F   UNL A   1      43.063  26.910  36.549  1.00  0.00    -0.203 F 
ATOM     98  C   UNL A   1      45.386  26.530  36.489  1.00  0.00     0.198 A 
ATOM     99  C   UNL A   1      46.833  28.100  35.393  1.00  0.00     0.198 A 
ATOM    100  F   UNL A   1      45.938  30.041  34.414  1.00  0.00    -0.203 F 
ATOM    101  F   UNL A   1      45.219  25.407  37.200  1.00  0.00    -0.200 F 
ATOM    102  C   UNL A   1      46.659  26.922  36.103  1.00  0.00     0.200 A 
ATOM    103  F   UNL A   1      48.061  28.473  35.005  1.00  0.00    -0.200 F 
ATOM    104  F   UNL A   1      47.719  26.166  36.420  1.00  0.00    -0.200 F 
ENDBRANCH  71  94
ENDBRANCH  45  46
ENDBRANCH  37  40
ENDBRANCH  35  36
ENDBRANCH  34  35
ENDBRANCH  33  34
ENDBRANCH   1  33
TORSDOF 17
ENDMDL
MODEL 2
REMARK VINA RESULT:     -12.9      0.609      1.825
REMARK SMILES COc1ccccc1[C@@H]1C[N@@H+](Cc2cc3c(cc2C)OCO3)C[C@H]1C(=O)NCCCCCCNC(=O)c1ccc(-c2c3nc(c(-c4c(F)c(F)c(F)c(F)c4F)c4ccc([nH]4)c(-c4c(F)c(F)c(F)c(F)c4F)c4nc(c(-c5c(F)c(F)c(F)c(F)c5F)c5ccc2[nH]5)C=C4)C=C3)cc1
REMARK SMILES IDX 30 1 29 2 28 3 27 4 25 5 26 6 24 8 9 9 10 10 11 11 23 12
REMARK SMILES IDX 8 14 3 15 4 16 5 17 7 18 6 19 2 20 1 21 12 22 13 23 14 24
REMARK SMILES IDX 18 25 15 26 17 27 19 28 16 29 22 30 20 31 21 32 31 33 32 34
REMARK SMILES IDX 33 35 34 36 35 37 36 39 37 40 38 41 99 42 39 43 98 44 40 45
REMARK SMILES IDX 41 46 42 47 92 48 43 49 97 50 91 51 93 52 44 53 96 54 90 55
REMARK SMILES IDX 89 56 45 58 77 59 57 60 76 61 58 62 61 63 75 64 94 65 59 66
REMARK SMILES IDX 60 67 74 69 95 70 62 71 46 72 47 73 55 74 48 75 49 76 53 77
REMARK SMILES IDX 56 78 50 79 51 80 54 81 52 82 78 83 79 84 87 85 80 86 81 87
REMARK SMILES IDX 85 88 88 89 82 90 83 91 86 92 84 93 63 94 64 95 72 96 65 97
REMARK SMILES IDX 66 98 70 99 73 100 67 101 68 102 71 103 69 104
REMARK H PARENT 27 7 11 13 34 38 93 57 61 68
REMARK Flexibility Score: inf
ROOT
ATOM      1  C   UNL A   1      34.525  32.347  29.119  1.00  0.00     0.002 C 
ENDROOT
BRANCH   1   2
ATOM      2  C   UNL A   1      34.211  31.523  27.868  1.00  0.00     0.021 C 
BRANCH   2   3
ATOM      3  C   UNL A   1      34.663  30.043  27.641  1.00  0.00     0.116 C 
BRANCH   3   4
ATOM      4  N   UNL A   1      33.574  29.026  27.209  1.00  0.00    -0.356 N 
ATOM      5  C   UNL A   1      33.072  28.016  26.448  1.00  0.00     0.229 C 
ATOM      6  O   UNL A   1      31.980  27.672  26.969  1.00  0.00    -0.275 OA
ATOM      7  H   UNL A   1      32.837  29.216  27.833  1.00  0.00     0.163 HD
BRANCH   5   8
ATOM      8  C   UNL A   1      33.393  27.163  25.122  1.00  0.00     0.146 C 
ATOM      9  C   UNL A   1      32.897  25.679  25.058  1.00  0.00     0.096 C 
ATOM     10  C   UNL A   1      32.914  25.282  23.566  1.00  0.00     0.272 C 
ATOM     11  N   UNL A   1      32.739  26.516  22.798  1.00  0.00    -0.330 N 
ATOM     12  C   UNL A   1      33.347  27.586  23.630  1.00  0.00     0.276 C 
ATOM     13  H   UNL A   1      33.236  26.554  21.909  1.00  0.00     0.348 HD
BRANCH   9  14
ATOM     14  C   UNL A   1      33.412  24.521  25.912  1.00  0.00     0.004 A 
ATOM     15  C   UNL A   1      34.691  23.929  25.895  1.00  0.00     0.122 A 
ATOM     16  C   UNL A   1      34.922  22.715  26.578  1.00  0.00     0.047 A 
ATOM     17  C   UNL A   1      33.898  22.040  27.237  1.00  0.00     0.004 A 
ATOM     18  C   UNL A   1      32.396  23.807  26.606  1.00  0.00     0.008 A 
ATOM     19  C   UNL A   1      32.625  22.582  27.236  1.00  0.00     0.001 A 
BRANCH  15  20
ATOM     20  O   UNL A   1      35.731  24.249  25.063  1.00  0.00    -0.496 OA
ATOM     21  C   UNL A   1      36.996  23.701  25.380  1.00  0.00     0.278 C 
ENDBRANCH  15  20
ENDBRANCH   9  14
BRANCH  11  22
ATOM     22  C   UNL A   1      31.385  26.654  22.193  1.00  0.00     0.299 C 
BRANCH  22  23
ATOM     23  C   UNL A   1      30.531  27.780  22.751  1.00  0.00     0.013 A 
ATOM     24  C   UNL A   1      30.633  29.140  22.370  1.00  0.00     0.060 A 
ATOM     25  C   UNL A   1      29.434  27.395  23.502  1.00  0.00    -0.038 A 
ATOM     26  C   UNL A   1      29.527  29.955  22.551  1.00  0.00     0.166 A 
ATOM     27  C   UNL A   1      28.267  28.088  23.232  1.00  0.00     0.054 A 
ATOM     28  C   UNL A   1      29.539  26.283  24.501  1.00  0.00     0.045 C 
ATOM     29  C   UNL A   1      28.332  29.392  22.865  1.00  0.00     0.166 A 
ATOM     30  O   UNL A   1      29.383  31.294  22.360  1.00  0.00    -0.454 OA
ATOM     31  O   UNL A   1      27.277  30.237  22.826  1.00  0.00    -0.454 OA
ATOM     32  C   UNL A   1      27.996  31.476  22.758  1.00  0.00     0.468 C 
ENDBRANCH  22  23
ENDBRANCH  11  22
ENDBRANCH   5   8
ENDBRANCH   3   4
ENDBRANCH   2   3
ENDBRANCH   1   2
BRANCH   1  33
ATOM     33  C   UNL A   1      34.582  33.878  28.983  1.00  0.00     0.002 C 
BRANCH  33  34
ATOM     34  C   UNL A   1      33.278  34.704  28.914  1.00  0.00     0.021 C 
BRANCH  34  35
ATOM     35  C   UNL A   1      33.261  36.126  29.484  1.00  0.00     0.116 C 
BRANCH  35  36
ATOM     36  N   UNL A   1      32.445  36.258  30.681  1.00  0.00    -0.352 N 
ATOM     37  C   UNL A   1      32.589  35.723  31.927  1.00  0.00     0.251 C 
ATOM     38  H   UNL A   1      31.654  36.833  30.573  1.00  0.00     0.163 HD
ATOM     39  O   UNL A   1      31.658  35.848  32.751  1.00  0.00    -0.269 OA
BRANCH  37  40
ATOM     40  C   UNL A   1      33.801  34.994  32.344  1.00  0.00     0.039 A 
ATOM     41  C   UNL A   1      35.046  35.622  32.219  1.00  0.00     0.014 A 
ATOM     42  C   UNL A   1      33.740  33.661  32.764  1.00  0.00     0.014 A 
ATOM     43  C   UNL A   1      36.218  34.938  32.554  1.00  0.00     0.010 A 
ATOM     44  C   UNL A   1      34.907  32.995  33.148  1.00  0.00     0.010 A 
ATOM     45  C   UNL A   1      36.159  33.622  33.036  1.00  0.00    -0.014 A 
BRANCH  45  46
ATOM     46  C   UNL A   1      37.402  32.887  33.395  1.00  0.00     0.031 A 
ATOM     47  C   UNL A   1      38.118  33.190  34.684  1.00  0.00     0.074 A 
ATOM     48  C   UNL A   1      37.906  31.970  32.546  1.00  0.00     0.049 A 
ATOM     49  N   UNL A   1      39.224  32.675  35.162  1.00  0.00    -0.248 NA
ATOM     50  C   UNL A   1      37.524  34.230  35.539  1.00  0.00     0.031 C 
ATOM     51  C   UNL A   1      37.332  31.618  31.248  1.00  0.00     0.029 A 
ATOM     52  N   UNL A   1      39.019  31.171  32.645  1.00  0.00    -0.354 N 
ATOM     53  C   UNL A   1      39.462  33.336  36.361  1.00  0.00     0.074 A 
ATOM     54  C   UNL A   1      38.418  34.326  36.512  1.00  0.00     0.031 C 
ATOM     55  C   UNL A   1      38.082  30.659  30.681  1.00  0.00     0.029 A 
ATOM     56  C   UNL A   1      39.205  30.349  31.559  1.00  0.00     0.049 A 
ATOM     57  H   UNL A   1      39.626  31.185  33.420  1.00  0.00     0.167 HD
ATOM     58  C   UNL A   1      40.446  33.119  37.268  1.00  0.00     0.037 A 
ATOM     59  C   UNL A   1      40.172  29.447  31.304  1.00  0.00     0.037 A 
ATOM     60  C   UNL A   1      41.470  32.117  37.126  1.00  0.00     0.049 A 
ATOM     61  C   UNL A   1      41.249  29.217  32.332  1.00  0.00     0.074 A 
ATOM     62  C   UNL A   1      42.482  31.781  38.008  1.00  0.00     0.029 A 
ATOM     63  N   UNL A   1      41.609  31.284  36.023  1.00  0.00    -0.354 N 
ATOM     64  N   UNL A   1      41.423  29.799  33.494  1.00  0.00    -0.248 NA
ATOM     65  C   UNL A   1      42.257  28.193  32.018  1.00  0.00     0.031 C 
ATOM     66  C   UNL A   1      43.261  30.779  37.420  1.00  0.00     0.029 A 
ATOM     67  C   UNL A   1      42.701  30.449  36.196  1.00  0.00     0.049 A 
ATOM     68  H   UNL A   1      41.020  31.288  35.235  1.00  0.00     0.167 HD
ATOM     69  C   UNL A   1      42.534  29.191  34.063  1.00  0.00     0.074 A 
ATOM     70  C   UNL A   1      42.985  28.185  33.124  1.00  0.00     0.031 C 
ATOM     71  C   UNL A   1      43.128  29.444  35.256  1.00  0.00     0.037 A 
BRANCH  58  72
ATOM     72  C   UNL A   1      40.459  33.983  38.498  1.00  0.00     0.064 A 
ATOM     73  C   UNL A   1      41.196  35.176  38.553  1.00  0.00     0.173 A 
ATOM     74  C   UNL A   1      39.704  33.629  39.627  1.00  0.00     0.173 A 
ATOM     75  F   UNL A   1      41.943  35.557  37.505  1.00  0.00    -0.203 F 
ATOM     76  C   UNL A   1      41.207  35.963  39.702  1.00  0.00     0.198 A 
ATOM     77  C   UNL A   1      39.691  34.436  40.764  1.00  0.00     0.198 A 
ATOM     78  F   UNL A   1      38.973  32.505  39.629  1.00  0.00    -0.203 F 
ATOM     79  F   UNL A   1      41.964  37.068  39.748  1.00  0.00    -0.200 F 
ATOM     80  C   UNL A   1      40.449  35.596  40.803  1.00  0.00     0.200 A 
ATOM     81  F   UNL A   1      38.947  34.088  41.822  1.00  0.00    -0.200 F 
ATOM     82  F   UNL A   1      40.457  36.356  41.907  1.00  0.00    -0.200 F 
ENDBRANCH  58  72
BRANCH  59  83
ATOM     83  C   UNL A   1      40.146  28.665  30.040  1.00  0.00     0.064 A 
ATOM     84  C   UNL A   1      40.760  29.153  28.877  1.00  0.00     0.173 A 
ATOM     85  C   UNL A   1      39.504  27.421  29.963  1.00  0.00     0.173 A 
ATOM     86  F   UNL A   1      41.371  30.347  28.894  1.00  0.00    -0.203 F 
ATOM     87  C   UNL A   1      40.713  28.438  27.682  1.00  0.00     0.198 A 
ATOM     88  C   UNL A   1      39.483  26.693  28.774  1.00  0.00     0.198 A 
ATOM     89  F   UNL A   1      38.906  26.905  31.046  1.00  0.00    -0.203 F 
ATOM     90  F   UNL A   1      41.267  28.952  26.575  1.00  0.00    -0.200 F 
ATOM     91  C   UNL A   1      40.080  27.206  27.633  1.00  0.00     0.200 A 
ATOM     92  F   UNL A   1      38.884  25.495  28.735  1.00  0.00    -0.200 F 
ATOM     93  F   UNL A   1      40.038  26.518  26.484  1.00  0.00    -0.200 F 
ENDBRANCH  59  83
BRANCH  71  94
ATOM     94  C   UNL A   1      44.302  28.586  35.635  1.00  0.00     0.064 A 
ATOM     95  C   UNL A   1      45.616  28.942  35.300  1.00  0.00     0.173 A 
ATOM     96  C   UNL A   1      44.108  27.410  36.376  1.00  0.00     0.173 A 
ATOM     97  F   UNL A   1      45.854  30.049  34.581  1.00  0.00    -0.203 F 
ATOM     98  C   UNL A   1      46.690  28.135  35.666  1.00  0.00     0.198 A 
ATOM     99  C   UNL A   1      45.186  26.623  36.768  1.00  0.00     0.198 A 
ATOM    100  F   UNL A   1      42.871  27.029  36.729  1.00  0.00    -0.203 F 
ATOM    101  F   UNL A   1      47.933  28.466  35.289  1.00  0.00    -0.200 F 
ATOM    102  C   UNL A   1      46.475  26.981  36.404  1.00  0.00     0.200 A 
ATOM    103  F   UNL A   1      44.977  25.516  37.494  1.00  0.00    -0.200 F 
ATOM    104  F   UNL A   1      47.511  26.209  36.759  1.00  0.00    -0.200 F 
ENDBRANCH  71  94
ENDBRANCH  45  46
ENDBRANCH  37  40
ENDBRANCH  35  36
ENDBRANCH  34  35
ENDBRANCH  33  34
ENDBRANCH   1  33
TORSDOF 17
ENDMDL
MODEL 3
REMARK VINA RESULT:     -12.7      6.427     11.950
REMARK SMILES COc1ccccc1[C@@H]1C[N@@H+](Cc2cc3c(cc2C)OCO3)C[C@H]1C(=O)NCCCCCCNC(=O)c1ccc(-c2c3nc(c(-c4c(F)c(F)c(F)c(F)c4F)c4ccc([nH]4)c(-c4c(F)c(F)c(F)c(F)c4F)c4nc(c(-c5c(F)c(F)c(F)c(F)c5F)c5ccc2[nH]5)C=C4)C=C3)cc1
REMARK SMILES IDX 30 1 29 2 28 3 27 4 25 5 26 6 24 8 9 9 10 10 11 11 23 12
REMARK SMILES IDX 8 14 3 15 4 16 5 17 7 18 6 19 2 20 1 21 12 22 13 23 14 24
REMARK SMILES IDX 18 25 15 26 17 27 19 28 16 29 22 30 20 31 21 32 31 33 32 34
REMARK SMILES IDX 33 35 34 36 35 37 36 39 37 40 38 41 99 42 39 43 98 44 40 45
REMARK SMILES IDX 41 46 42 47 92 48 43 49 97 50 91 51 93 52 44 53 96 54 90 55
REMARK SMILES IDX 89 56 45 58 77 59 57 60 76 61 58 62 61 63 75 64 94 65 59 66
REMARK SMILES IDX 60 67 74 69 95 70 62 71 46 72 47 73 55 74 48 75 49 76 53 77
REMARK SMILES IDX 56 78 50 79 51 80 54 81 52 82 78 83 79 84 87 85 80 86 81 87
REMARK SMILES IDX 85 88 88 89 82 90 83 91 86 92 84 93 63 94 64 95 72 96 65 97
REMARK SMILES IDX 66 98 70 99 73 100 67 101 68 102 71 103 69 104
REMARK H PARENT 27 7 11 13 34 38 93 57 61 68
REMARK Flexibility Score: inf
ROOT
ATOM      1  C   UNL A   1      39.731  21.654  26.125  1.00  0.00     0.002 C 
ENDROOT
BRANCH   1   2
ATOM      2  C   UNL A   1      39.409  22.978  26.823  1.00  0.00     0.021 C 
BRANCH   2   3
ATOM      3  C   UNL A   1      38.456  24.077  26.248  1.00  0.00     0.116 C 
BRANCH   3   4
ATOM      4  N   UNL A   1      37.224  23.595  25.437  1.00  0.00    -0.356 N 
ATOM      5  C   UNL A   1      35.893  23.431  25.213  1.00  0.00     0.229 C 
ATOM      6  O   UNL A   1      35.772  22.975  24.046  1.00  0.00    -0.275 OA
ATOM      7  H   UNL A   1      37.632  23.178  24.646  1.00  0.00     0.163 HD
BRANCH   5   8
ATOM      8  C   UNL A   1      34.466  23.596  25.937  1.00  0.00     0.146 C 
ATOM      9  C   UNL A   1      33.370  24.461  25.229  1.00  0.00     0.096 C 
ATOM     10  C   UNL A   1      32.024  24.065  25.872  1.00  0.00     0.272 C 
ATOM     11  N   UNL A   1      32.173  22.690  26.352  1.00  0.00    -0.330 N 
ATOM     12  C   UNL A   1      33.610  22.551  26.701  1.00  0.00     0.276 C 
ATOM     13  H   UNL A   1      31.668  22.467  27.209  1.00  0.00     0.348 HD
BRANCH   9  14
ATOM     14  C   UNL A   1      33.420  25.974  25.013  1.00  0.00     0.004 A 
ATOM     15  C   UNL A   1      33.603  26.675  23.805  1.00  0.00     0.122 A 
ATOM     16  C   UNL A   1      33.863  28.063  23.820  1.00  0.00     0.047 A 
ATOM     17  C   UNL A   1      34.000  28.768  25.013  1.00  0.00     0.004 A 
ATOM     18  C   UNL A   1      33.555  26.731  26.209  1.00  0.00     0.008 A 
ATOM     19  C   UNL A   1      33.862  28.094  26.213  1.00  0.00     0.001 A 
BRANCH  15  20
ATOM     20  O   UNL A   1      33.823  26.131  22.567  1.00  0.00    -0.496 OA
ATOM     21  C   UNL A   1      32.682  25.749  21.823  1.00  0.00     0.278 C 
ENDBRANCH  15  20
ENDBRANCH   9  14
BRANCH  11  22
ATOM     22  C   UNL A   1      31.458  21.685  25.517  1.00  0.00     0.299 C 
BRANCH  22  23
ATOM     23  C   UNL A   1      32.341  20.652  24.838  1.00  0.00     0.013 A 
ATOM     24  C   UNL A   1      32.895  19.515  25.476  1.00  0.00     0.060 A 
ATOM     25  C   UNL A   1      32.401  20.718  23.457  1.00  0.00    -0.038 A 
ATOM     26  C   UNL A   1      33.242  18.428  24.689  1.00  0.00     0.166 A 
ATOM     27  C   UNL A   1      32.316  19.498  22.809  1.00  0.00     0.054 A 
ATOM     28  C   UNL A   1      32.517  22.037  22.755  1.00  0.00     0.045 C 
ATOM     29  C   UNL A   1      32.838  18.391  23.393  1.00  0.00     0.166 A 
ATOM     30  O   UNL A   1      33.865  17.267  25.023  1.00  0.00    -0.454 OA
ATOM     31  O   UNL A   1      33.049  17.213  22.765  1.00  0.00    -0.454 OA
ATOM     32  C   UNL A   1      33.924  16.609  23.727  1.00  0.00     0.468 C 
ENDBRANCH  22  23
ENDBRANCH  11  22
ENDBRANCH   5   8
ENDBRANCH   3   4
ENDBRANCH   2   3
ENDBRANCH   1   2
BRANCH   1  33
ATOM     33  C   UNL A   1      41.046  20.943  26.491  1.00  0.00     0.002 C 
BRANCH  33  34
ATOM     34  C   UNL A   1      41.308  19.496  26.018  1.00  0.00     0.021 C 
BRANCH  34  35
ATOM     35  C   UNL A   1      42.664  18.847  26.308  1.00  0.00     0.116 C 
BRANCH  35  36
ATOM     36  N   UNL A   1      43.529  18.767  25.141  1.00  0.00    -0.352 N 
ATOM     37  C   UNL A   1      44.235  19.730  24.482  1.00  0.00     0.251 C 
ATOM     38  H   UNL A   1      43.620  17.864  24.762  1.00  0.00     0.163 HD
ATOM     39  O   UNL A   1      44.777  19.445  23.394  1.00  0.00    -0.269 OA
BRANCH  37  40
ATOM     40  C   UNL A   1      44.384  21.103  25.000  1.00  0.00     0.039 A 
ATOM     41  C   UNL A   1      43.889  22.170  24.241  1.00  0.00     0.014 A 
ATOM     42  C   UNL A   1      45.093  21.364  26.177  1.00  0.00     0.014 A 
ATOM     43  C   UNL A   1      44.062  23.487  24.678  1.00  0.00     0.010 A 
ATOM     44  C   UNL A   1      45.221  22.677  26.639  1.00  0.00     0.010 A 
ATOM     45  C   UNL A   1      44.717  23.752  25.889  1.00  0.00    -0.014 A 
BRANCH  45  46
ATOM     46  C   UNL A   1      44.906  25.151  26.361  1.00  0.00     0.031 A 
ATOM     47  C   UNL A   1      46.262  25.800  26.288  1.00  0.00     0.074 A 
ATOM     48  C   UNL A   1      43.865  25.826  26.888  1.00  0.00     0.049 A 
ATOM     49  N   UNL A   1      46.632  26.999  26.668  1.00  0.00    -0.248 NA
ATOM     50  C   UNL A   1      47.354  24.985  25.735  1.00  0.00     0.031 C 
ATOM     51  C   UNL A   1      42.514  25.293  27.055  1.00  0.00     0.029 A 
ATOM     52  N   UNL A   1      43.782  27.104  27.384  1.00  0.00    -0.354 N 
ATOM     53  C   UNL A   1      47.996  27.073  26.413  1.00  0.00     0.074 A 
ATOM     54  C   UNL A   1      48.400  25.783  25.897  1.00  0.00     0.031 C 
ATOM     55  C   UNL A   1      41.731  26.241  27.594  1.00  0.00     0.029 A 
ATOM     56  C   UNL A   1      42.529  27.439  27.838  1.00  0.00     0.049 A 
ATOM     57  H   UNL A   1      44.548  27.722  27.413  1.00  0.00     0.167 HD
ATOM     58  C   UNL A   1      48.832  28.129  26.569  1.00  0.00     0.037 A 
ATOM     59  C   UNL A   1      42.077  28.583  28.386  1.00  0.00     0.037 A 
ATOM     60  C   UNL A   1      48.421  29.418  27.061  1.00  0.00     0.049 A 
ATOM     61  C   UNL A   1      43.023  29.745  28.539  1.00  0.00     0.074 A 
ATOM     62  C   UNL A   1      49.176  30.569  27.210  1.00  0.00     0.029 A 
ATOM     63  N   UNL A   1      47.136  29.727  27.485  1.00  0.00    -0.354 N 
ATOM     64  N   UNL A   1      44.294  29.825  28.229  1.00  0.00    -0.248 NA
ATOM     65  C   UNL A   1      42.465  30.982  29.107  1.00  0.00     0.031 C 
ATOM     66  C   UNL A   1      48.360  31.560  27.766  1.00  0.00     0.029 A 
ATOM     67  C   UNL A   1      47.081  31.045  27.912  1.00  0.00     0.049 A 
ATOM     68  H   UNL A   1      46.375  29.102  27.484  1.00  0.00     0.167 HD
ATOM     69  C   UNL A   1      44.680  31.125  28.529  1.00  0.00     0.074 A 
ATOM     70  C   UNL A   1      43.503  31.802  29.035  1.00  0.00     0.031 C 
ATOM     71  C   UNL A   1      45.898  31.706  28.400  1.00  0.00     0.037 A 
BRANCH  58  72
ATOM     72  C   UNL A   1      50.275  27.933  26.200  1.00  0.00     0.064 A 
ATOM     73  C   UNL A   1      51.263  27.719  27.174  1.00  0.00     0.173 A 
ATOM     74  C   UNL A   1      50.674  27.929  24.854  1.00  0.00     0.173 A 
ATOM     75  F   UNL A   1      50.938  27.722  28.476  1.00  0.00    -0.203 F 
ATOM     76  C   UNL A   1      52.598  27.547  26.819  1.00  0.00     0.198 A 
ATOM     77  C   UNL A   1      52.006  27.723  24.500  1.00  0.00     0.198 A 
ATOM     78  F   UNL A   1      49.773  28.119  23.880  1.00  0.00    -0.203 F 
ATOM     79  F   UNL A   1      53.529  27.402  27.771  1.00  0.00    -0.200 F 
ATOM     80  C   UNL A   1      52.968  27.543  25.483  1.00  0.00     0.200 A 
ATOM     81  F   UNL A   1      52.360  27.705  23.208  1.00  0.00    -0.200 F 
ATOM     82  F   UNL A   1      54.253  27.372  25.142  1.00  0.00    -0.200 F 
ENDBRANCH  58  72
BRANCH  59  83
ATOM     83  C   UNL A   1      40.652  28.700  28.793  1.00  0.00     0.064 A 
ATOM     84  C   UNL A   1      39.669  29.097  27.875  1.00  0.00     0.173 A 
ATOM     85  C   UNL A   1      40.242  28.426  30.106  1.00  0.00     0.173 A 
ATOM     86  F   UNL A   1      40.013  29.389  26.611  1.00  0.00    -0.203 F 
ATOM     87  C   UNL A   1      38.337  29.237  28.258  1.00  0.00     0.198 A 
ATOM     88  C   UNL A   1      38.904  28.538  30.481  1.00  0.00     0.198 A 
ATOM     89  F   UNL A   1      41.140  28.038  31.022  1.00  0.00    -0.203 F 
ATOM     90  F   UNL A   1      37.428  29.664  27.372  1.00  0.00    -0.200 F 
ATOM     91  C   UNL A   1      37.955  28.951  29.560  1.00  0.00     0.200 A 
ATOM     92  F   UNL A   1      38.537  28.246  31.737  1.00  0.00    -0.200 F 
ATOM     93  F   UNL A   1      36.673  29.082  29.928  1.00  0.00    -0.200 F 
ENDBRANCH  59  83
BRANCH  71  94
ATOM     94  C   UNL A   1      46.010  33.159  28.764  1.00  0.00     0.064 A 
ATOM     95  C   UNL A   1      46.358  33.571  30.059  1.00  0.00     0.173 A 
ATOM     96  C   UNL A   1      45.800  34.150  27.793  1.00  0.00     0.173 A 
ATOM     97  F   UNL A   1      46.555  32.663  31.027  1.00  0.00    -0.203 F 
ATOM     98  C   UNL A   1      46.461  34.923  30.375  1.00  0.00     0.198 A 
ATOM     99  C   UNL A   1      45.936  35.499  28.105  1.00  0.00     0.198 A 
ATOM    100  F   UNL A   1      45.474  33.808  26.538  1.00  0.00    -0.203 F 
ATOM    101  F   UNL A   1      46.742  35.296  31.631  1.00  0.00    -0.200 F 
ATOM    102  C   UNL A   1      46.256  35.885  29.397  1.00  0.00     0.200 A 
ATOM    103  F   UNL A   1      45.753  36.427  27.154  1.00  0.00    -0.200 F 
ATOM    104  F   UNL A   1      46.362  37.185  29.702  1.00  0.00    -0.200 F 
ENDBRANCH  71  94
ENDBRANCH  45  46
ENDBRANCH  37  40
ENDBRANCH  35  36
ENDBRANCH  34  35
ENDBRANCH  33  34
ENDBRANCH   1  33
TORSDOF 17
ENDMDL
