MODEL 1
REMARK VINA RESULT:     -12.8      0.000      0.000
REMARK SMILES CCN(C(=O)c1ccc(C)cc1F)[C@@H]1COC[C@@H]1C(=O)NCCCCCCNC(=O)c1ccc(-c2c3nc(c(-c4c(F)c(F)c(F)c(F)c4F)c4ccc([nH]4)c(-c4c(F)c(F)c(F)c(F)c4F)c4nc(c(-c5c(F)c(F)c(F)c(F)c5F)c5ccc2[nH]5)C=C4)C=C3)cc1
REMARK SMILES IDX 24 1 23 2 22 3 21 4 19 5 20 6 18 8 14 9 15 10 16 11 17 12
REMARK SMILES IDX 3 13 2 14 1 15 4 16 5 17 6 18 7 19 12 20 8 21 11 22 13 23
REMARK SMILES IDX 9 24 10 25 25 26 26 27 27 28 28 29 29 30 30 32 31 33 32 34
REMARK SMILES IDX 93 35 33 36 92 37 34 38 35 39 36 40 86 41 37 42 91 43 85 44
REMARK SMILES IDX 87 45 38 46 90 47 84 48 83 49 39 51 71 52 51 53 70 54 52 55
REMARK SMILES IDX 55 56 69 57 88 58 53 59 54 60 68 62 89 63 56 64 40 65 41 66
REMARK SMILES IDX 49 67 42 68 43 69 47 70 50 71 44 72 45 73 48 74 46 75 72 76
REMARK SMILES IDX 73 77 81 78 74 79 75 80 79 81 82 82 76 83 77 84 80 85 78 86
REMARK SMILES IDX 57 87 58 88 66 89 59 90 60 91 64 92 67 93 61 94 62 95 65 96
REMARK SMILES IDX 63 97
REMARK H PARENT 21 7 28 31 87 50 55 61
REMARK Flexibility Score: inf
ROOT
ATOM      1  C   UNL A   1      33.024  29.238  24.460  1.00  0.00     0.002 C 
ENDROOT
BRANCH   1   2
ATOM      2  C   UNL A   1      32.744  28.888  22.994  1.00  0.00     0.021 C 
BRANCH   2   3
ATOM      3  C   UNL A   1      33.013  27.440  22.587  1.00  0.00     0.116 C 
BRANCH   3   4
ATOM      4  N   UNL A   1      31.828  26.606  22.696  1.00  0.00    -0.356 N 
ATOM      5  C   UNL A   1      31.421  25.717  23.649  1.00  0.00     0.227 C 
ATOM      6  O   UNL A   1      30.382  25.099  23.411  1.00  0.00    -0.275 OA
ATOM      7  H   UNL A   1      31.203  26.697  21.941  1.00  0.00     0.163 HD
BRANCH   5   8
ATOM      8  C   UNL A   1      32.197  25.560  24.943  1.00  0.00     0.129 C 
ATOM      9  C   UNL A   1      32.689  24.186  25.400  1.00  0.00     0.126 C 
ATOM     10  C   UNL A   1      31.754  23.736  26.520  1.00  0.00     0.186 C 
ATOM     11  O   UNL A   1      30.859  24.812  26.801  1.00  0.00    -0.378 OA
ATOM     12  C   UNL A   1      31.326  25.986  26.126  1.00  0.00     0.176 C 
BRANCH   9  13
ATOM     13  N   UNL A   1      33.057  23.121  24.445  1.00  0.00    -0.333 N 
BRANCH  13  14
ATOM     14  C   UNL A   1      32.100  22.039  24.103  1.00  0.00     0.117 C 
ATOM     15  C   UNL A   1      32.119  21.476  22.693  1.00  0.00     0.027 C 
ENDBRANCH  13  14
BRANCH  13  16
ATOM     16  C   UNL A   1      34.341  23.240  23.862  1.00  0.00     0.257 C 
ATOM     17  O   UNL A   1      34.543  23.546  22.689  1.00  0.00    -0.269 OA
BRANCH  16  18
ATOM     18  C   UNL A   1      35.526  22.848  24.632  1.00  0.00     0.075 A 
ATOM     19  C   UNL A   1      36.339  23.853  25.162  1.00  0.00     0.017 A 
ATOM     20  C   UNL A   1      35.866  21.513  24.794  1.00  0.00     0.136 A 
ATOM     21  C   UNL A   1      37.582  23.519  25.694  1.00  0.00     0.004 A 
ATOM     22  C   UNL A   1      37.098  21.175  25.341  1.00  0.00     0.043 A 
ATOM     23  F   UNL A   1      35.058  20.539  24.356  1.00  0.00    -0.206 F 
ATOM     24  C   UNL A   1      37.995  22.178  25.727  1.00  0.00    -0.048 A 
ATOM     25  C   UNL A   1      39.379  21.803  26.159  1.00  0.00     0.044 C 
ENDBRANCH  16  18
ENDBRANCH  13  16
ENDBRANCH   9  13
ENDBRANCH   5   8
ENDBRANCH   3   4
ENDBRANCH   2   3
ENDBRANCH   1   2
BRANCH   1  26
ATOM     26  C   UNL A   1      31.782  29.519  25.316  1.00  0.00     0.002 C 
BRANCH  26  27
ATOM     27  C   UNL A   1      32.021  29.569  26.830  1.00  0.00     0.021 C 
BRANCH  27  28
ATOM     28  C   UNL A   1      33.494  29.598  27.202  1.00  0.00     0.116 C 
BRANCH  28  29
ATOM     29  N   UNL A   1      33.909  30.877  27.754  1.00  0.00    -0.352 N 
ATOM     30  C   UNL A   1      34.976  31.177  28.575  1.00  0.00     0.251 C 
ATOM     31  H   UNL A   1      33.345  31.645  27.504  1.00  0.00     0.163 HD
ATOM     32  O   UNL A   1      34.999  32.251  29.164  1.00  0.00    -0.269 OA
BRANCH  30  33
ATOM     33  C   UNL A   1      36.131  30.252  28.702  1.00  0.00     0.039 A 
ATOM     34  C   UNL A   1      36.348  29.540  29.895  1.00  0.00     0.014 A 
ATOM     35  C   UNL A   1      37.096  30.213  27.707  1.00  0.00     0.014 A 
ATOM     36  C   UNL A   1      37.556  28.860  30.101  1.00  0.00     0.010 A 
ATOM     37  C   UNL A   1      38.232  29.468  27.863  1.00  0.00     0.010 A 
ATOM     38  C   UNL A   1      38.505  28.875  29.087  1.00  0.00    -0.014 A 
BRANCH  38  39
ATOM     39  C   UNL A   1      39.883  28.432  29.163  1.00  0.00     0.031 A 
ATOM     40  C   UNL A   1      40.241  27.076  28.725  1.00  0.00     0.074 A 
ATOM     41  C   UNL A   1      40.810  29.411  29.271  1.00  0.00     0.049 A 
ATOM     42  N   UNL A   1      41.366  26.510  28.978  1.00  0.00    -0.248 NA
ATOM     43  C   UNL A   1      39.341  26.241  27.940  1.00  0.00     0.031 C 
ATOM     44  C   UNL A   1      42.229  29.363  28.938  1.00  0.00     0.029 A 
ATOM     45  N   UNL A   1      40.636  30.688  29.831  1.00  0.00    -0.354 N 
ATOM     46  C   UNL A   1      41.464  25.388  28.185  1.00  0.00     0.074 A 
ATOM     47  C   UNL A   1      40.146  25.220  27.620  1.00  0.00     0.031 C 
ATOM     48  C   UNL A   1      42.854  30.373  29.570  1.00  0.00     0.029 A 
ATOM     49  C   UNL A   1      41.871  31.009  30.432  1.00  0.00     0.049 A 
ATOM     50  H   UNL A   1      39.822  31.243  29.810  1.00  0.00     0.167 HD
ATOM     51  C   UNL A   1      42.697  24.828  28.007  1.00  0.00     0.037 A 
ATOM     52  C   UNL A   1      41.953  31.064  31.796  1.00  0.00     0.037 A 
ATOM     53  C   UNL A   1      43.698  25.581  28.767  1.00  0.00     0.049 A 
ATOM     54  C   UNL A   1      42.827  29.978  32.370  1.00  0.00     0.074 A 
ATOM     55  C   UNL A   1      44.579  26.585  28.395  1.00  0.00     0.029 A 
ATOM     56  N   UNL A   1      43.633  25.604  30.157  1.00  0.00    -0.354 N 
ATOM     57  N   UNL A   1      43.085  28.855  31.757  1.00  0.00    -0.248 NA
ATOM     58  C   UNL A   1      43.511  30.089  33.653  1.00  0.00     0.031 C 
ATOM     59  C   UNL A   1      44.976  27.271  29.570  1.00  0.00     0.029 A 
ATOM     60  C   UNL A   1      44.364  26.666  30.655  1.00  0.00     0.049 A 
ATOM     61  H   UNL A   1      43.136  24.956  30.707  1.00  0.00     0.167 HD
ATOM     62  C   UNL A   1      43.964  28.120  32.505  1.00  0.00     0.074 A 
ATOM     63  C   UNL A   1      44.196  28.932  33.686  1.00  0.00     0.031 C 
ATOM     64  C   UNL A   1      44.453  26.914  32.086  1.00  0.00     0.037 A 
BRANCH  51  65
ATOM     65  C   UNL A   1      43.073  23.797  26.960  1.00  0.00     0.064 A 
ATOM     66  C   UNL A   1      42.805  22.424  27.176  1.00  0.00     0.173 A 
ATOM     67  C   UNL A   1      43.716  24.074  25.738  1.00  0.00     0.173 A 
ATOM     68  F   UNL A   1      42.111  22.005  28.243  1.00  0.00    -0.203 F 
ATOM     69  C   UNL A   1      43.232  21.420  26.302  1.00  0.00     0.198 A 
ATOM     70  C   UNL A   1      44.178  23.066  24.881  1.00  0.00     0.198 A 
ATOM     71  F   UNL A   1      43.870  25.324  25.294  1.00  0.00    -0.203 F 
ATOM     72  F   UNL A   1      42.951  20.138  26.574  1.00  0.00    -0.200 F 
ATOM     73  C   UNL A   1      43.945  21.739  25.167  1.00  0.00     0.200 A 
ATOM     74  F   UNL A   1      44.846  23.400  23.766  1.00  0.00    -0.200 F 
ATOM     75  F   UNL A   1      44.377  20.778  24.340  1.00  0.00    -0.200 F 
ENDBRANCH  51  65
BRANCH  52  76
ATOM     76  C   UNL A   1      40.715  31.634  32.401  1.00  0.00     0.064 A 
ATOM     77  C   UNL A   1      40.448  32.991  32.126  1.00  0.00     0.173 A 
ATOM     78  C   UNL A   1      39.625  30.822  32.749  1.00  0.00     0.173 A 
ATOM     79  F   UNL A   1      41.457  33.814  31.797  1.00  0.00    -0.203 F 
ATOM     80  C   UNL A   1      39.143  33.471  32.036  1.00  0.00     0.198 A 
ATOM     81  C   UNL A   1      38.317  31.314  32.677  1.00  0.00     0.198 A 
ATOM     82  F   UNL A   1      39.809  29.521  33.018  1.00  0.00    -0.203 F 
ATOM     83  F   UNL A   1      38.921  34.728  31.627  1.00  0.00    -0.200 F 
ATOM     84  C   UNL A   1      38.078  32.620  32.272  1.00  0.00     0.200 A 
ATOM     85  F   UNL A   1      37.281  30.495  32.914  1.00  0.00    -0.200 F 
ATOM     86  F   UNL A   1      36.823  33.049  32.073  1.00  0.00    -0.200 F 
ENDBRANCH  52  76
BRANCH  64  87
ATOM     87  C   UNL A   1      45.180  25.915  32.951  1.00  0.00     0.064 A 
ATOM     88  C   UNL A   1      46.564  25.686  32.880  1.00  0.00     0.173 A 
ATOM     89  C   UNL A   1      44.508  25.248  34.005  1.00  0.00     0.173 A 
ATOM     90  F   UNL A   1      47.340  26.363  32.023  1.00  0.00    -0.203 F 
ATOM     91  C   UNL A   1      47.210  24.793  33.736  1.00  0.00     0.198 A 
ATOM     92  C   UNL A   1      45.168  24.410  34.901  1.00  0.00     0.198 A 
ATOM     93  F   UNL A   1      43.194  25.412  34.221  1.00  0.00    -0.203 F 
ATOM     94  F   UNL A   1      48.523  24.566  33.586  1.00  0.00    -0.200 F 
ATOM     95  C   UNL A   1      46.516  24.162  34.750  1.00  0.00     0.200 A 
ATOM     96  F   UNL A   1      44.493  23.862  35.921  1.00  0.00    -0.200 F 
ATOM     97  F   UNL A   1      47.148  23.338  35.596  1.00  0.00    -0.200 F 
ENDBRANCH  64  87
ENDBRANCH  38  39
ENDBRANCH  30  33
ENDBRANCH  28  29
ENDBRANCH  27  28
ENDBRANCH  26  27
ENDBRANCH   1  26
TORSDOF 17
ENDMDL
MODEL 2
REMARK VINA RESULT:     -12.6      3.031      9.193
REMARK SMILES CCN(C(=O)c1ccc(C)cc1F)[C@@H]1COC[C@@H]1C(=O)NCCCCCCNC(=O)c1ccc(-c2c3nc(c(-c4c(F)c(F)c(F)c(F)c4F)c4ccc([nH]4)c(-c4c(F)c(F)c(F)c(F)c4F)c4nc(c(-c5c(F)c(F)c(F)c(F)c5F)c5ccc2[nH]5)C=C4)C=C3)cc1
REMARK SMILES IDX 24 1 23 2 22 3 21 4 19 5 20 6 18 8 14 9 15 10 16 11 17 12
REMARK SMILES IDX 3 13 2 14 1 15 4 16 5 17 6 18 7 19 12 20 8 21 11 22 13 23
REMARK SMILES IDX 9 24 10 25 25 26 26 27 27 28 28 29 29 30 30 32 31 33 32 34
REMARK SMILES IDX 93 35 33 36 92 37 34 38 35 39 36 40 86 41 37 42 91 43 85 44
REMARK SMILES IDX 87 45 38 46 90 47 84 48 83 49 39 51 71 52 51 53 70 54 52 55
REMARK SMILES IDX 55 56 69 57 88 58 53 59 54 60 68 62 89 63 56 64 40 65 41 66
REMARK SMILES IDX 49 67 42 68 43 69 47 70 50 71 44 72 45 73 48 74 46 75 72 76
REMARK SMILES IDX 73 77 81 78 74 79 75 80 79 81 82 82 76 83 77 84 80 85 78 86
REMARK SMILES IDX 57 87 58 88 66 89 59 90 60 91 64 92 67 93 61 94 62 95 65 96
REMARK SMILES IDX 63 97
REMARK H PARENT 21 7 28 31 87 50 55 61
REMARK Flexibility Score: inf
ROOT
ATOM      1  C   UNL A   1      36.669  22.837  23.326  1.00  0.00     0.002 C 
ENDROOT
BRANCH   1   2
ATOM      2  C   UNL A   1      35.227  23.354  23.248  1.00  0.00     0.021 C 
BRANCH   2   3
ATOM      3  C   UNL A   1      34.789  24.290  24.375  1.00  0.00     0.116 C 
BRANCH   3   4
ATOM      4  N   UNL A   1      34.144  25.492  23.875  1.00  0.00    -0.356 N 
ATOM      5  C   UNL A   1      33.390  26.449  24.493  1.00  0.00     0.227 C 
ATOM      6  O   UNL A   1      32.914  27.322  23.768  1.00  0.00    -0.275 OA
ATOM      7  H   UNL A   1      34.274  25.646  22.912  1.00  0.00     0.163 HD
BRANCH   5   8
ATOM      8  C   UNL A   1      33.210  26.438  26.000  1.00  0.00     0.129 C 
ATOM      9  C   UNL A   1      31.825  26.256  26.622  1.00  0.00     0.126 C 
ATOM     10  C   UNL A   1      31.377  27.633  27.105  1.00  0.00     0.186 C 
ATOM     11  O   UNL A   1      32.462  28.540  26.909  1.00  0.00    -0.378 OA
ATOM     12  C   UNL A   1      33.636  27.787  26.583  1.00  0.00     0.176 C 
BRANCH   9  13
ATOM     13  N   UNL A   1      30.764  25.460  25.970  1.00  0.00    -0.333 N 
BRANCH  13  14
ATOM     14  C   UNL A   1      29.922  26.046  24.897  1.00  0.00     0.117 C 
ATOM     15  C   UNL A   1      29.999  25.441  23.507  1.00  0.00     0.027 C 
ENDBRANCH  13  14
BRANCH  13  16
ATOM     16  C   UNL A   1      30.653  24.118  26.404  1.00  0.00     0.257 C 
ATOM     17  O   UNL A   1      29.856  23.729  27.256  1.00  0.00    -0.269 OA
BRANCH  16  18
ATOM     18  C   UNL A   1      31.623  23.122  25.936  1.00  0.00     0.075 A 
ATOM     19  C   UNL A   1      31.494  22.628  24.635  1.00  0.00     0.017 A 
ATOM     20  C   UNL A   1      32.617  22.641  26.775  1.00  0.00     0.136 A 
ATOM     21  C   UNL A   1      32.251  21.524  24.245  1.00  0.00     0.004 A 
ATOM     22  C   UNL A   1      33.386  21.552  26.382  1.00  0.00     0.043 A 
ATOM     23  F   UNL A   1      32.797  23.158  27.997  1.00  0.00    -0.206 F 
ATOM     24  C   UNL A   1      33.156  20.940  25.143  1.00  0.00    -0.048 A 
ATOM     25  C   UNL A   1      33.876  19.671  24.803  1.00  0.00     0.044 C 
ENDBRANCH  16  18
ENDBRANCH  13  16
ENDBRANCH   9  13
ENDBRANCH   5   8
ENDBRANCH   3   4
ENDBRANCH   2   3
ENDBRANCH   1   2
BRANCH   1  26
ATOM     26  C   UNL A   1      36.874  21.601  24.211  1.00  0.00     0.002 C 
BRANCH  26  27
ATOM     27  C   UNL A   1      37.151  21.888  25.692  1.00  0.00     0.021 C 
BRANCH  27  28
ATOM     28  C   UNL A   1      38.029  23.109  25.911  1.00  0.00     0.116 C 
BRANCH  28  29
ATOM     29  N   UNL A   1      39.405  22.763  26.227  1.00  0.00    -0.352 N 
ATOM     30  C   UNL A   1      40.476  23.584  26.512  1.00  0.00     0.251 C 
ATOM     31  H   UNL A   1      39.603  21.798  26.239  1.00  0.00     0.163 HD
ATOM     32  O   UNL A   1      41.612  23.128  26.470  1.00  0.00    -0.269 OA
BRANCH  30  33
ATOM     33  C   UNL A   1      40.272  24.992  26.938  1.00  0.00     0.039 A 
ATOM     34  C   UNL A   1      40.695  26.055  26.120  1.00  0.00     0.014 A 
ATOM     35  C   UNL A   1      39.818  25.266  28.220  1.00  0.00     0.014 A 
ATOM     36  C   UNL A   1      40.722  27.363  26.621  1.00  0.00     0.010 A 
ATOM     37  C   UNL A   1      39.747  26.553  28.677  1.00  0.00     0.010 A 
ATOM     38  C   UNL A   1      40.286  27.584  27.920  1.00  0.00    -0.014 A 
BRANCH  38  39
ATOM     39  C   UNL A   1      40.426  28.795  28.703  1.00  0.00     0.031 A 
ATOM     40  C   UNL A   1      39.304  29.740  28.797  1.00  0.00     0.074 A 
ATOM     41  C   UNL A   1      41.435  28.799  29.605  1.00  0.00     0.049 A 
ATOM     42  N   UNL A   1      39.407  30.937  29.250  1.00  0.00    -0.248 NA
ATOM     43  C   UNL A   1      37.950  29.394  28.388  1.00  0.00     0.031 C 
ATOM     44  C   UNL A   1      41.584  29.619  30.801  1.00  0.00     0.029 A 
ATOM     45  N   UNL A   1      42.636  28.073  29.538  1.00  0.00    -0.354 N 
ATOM     46  C   UNL A   1      38.134  31.422  29.460  1.00  0.00     0.074 A 
ATOM     47  C   UNL A   1      37.265  30.455  28.831  1.00  0.00     0.031 C 
ATOM     48  C   UNL A   1      42.878  29.612  31.168  1.00  0.00     0.029 A 
ATOM     49  C   UNL A   1      43.611  28.900  30.134  1.00  0.00     0.049 A 
ATOM     50  H   UNL A   1      42.770  27.176  29.155  1.00  0.00     0.167 HD
ATOM     51  C   UNL A   1      37.983  32.516  30.263  1.00  0.00     0.037 A 
ATOM     52  C   UNL A   1      44.584  29.453  29.350  1.00  0.00     0.037 A 
ATOM     53  C   UNL A   1      39.294  32.971  30.733  1.00  0.00     0.049 A 
ATOM     54  C   UNL A   1      44.473  30.953  29.256  1.00  0.00     0.074 A 
ATOM     55  C   UNL A   1      39.985  32.740  31.911  1.00  0.00     0.029 A 
ATOM     56  N   UNL A   1      40.221  33.460  29.818  1.00  0.00    -0.354 N 
ATOM     57  N   UNL A   1      43.366  31.613  29.464  1.00  0.00    -0.248 NA
ATOM     58  C   UNL A   1      45.602  31.829  28.966  1.00  0.00     0.031 C 
ATOM     59  C   UNL A   1      41.356  33.011  31.671  1.00  0.00     0.029 A 
ATOM     60  C   UNL A   1      41.491  33.436  30.360  1.00  0.00     0.049 A 
ATOM     61  H   UNL A   1      40.002  33.778  28.912  1.00  0.00     0.167 HD
ATOM     62  C   UNL A   1      43.613  32.956  29.378  1.00  0.00     0.074 A 
ATOM     63  C   UNL A   1      45.026  33.041  29.057  1.00  0.00     0.031 C 
ATOM     64  C   UNL A   1      42.645  33.895  29.601  1.00  0.00     0.037 A 
BRANCH  51  65
ATOM     65  C   UNL A   1      36.682  33.020  30.859  1.00  0.00     0.064 A 
ATOM     66  C   UNL A   1      35.803  33.820  30.089  1.00  0.00     0.173 A 
ATOM     67  C   UNL A   1      36.242  32.784  32.175  1.00  0.00     0.173 A 
ATOM     68  F   UNL A   1      36.027  34.056  28.789  1.00  0.00    -0.203 F 
ATOM     69  C   UNL A   1      34.651  34.408  30.618  1.00  0.00     0.198 A 
ATOM     70  C   UNL A   1      35.109  33.403  32.718  1.00  0.00     0.198 A 
ATOM     71  F   UNL A   1      36.852  31.899  32.969  1.00  0.00    -0.203 F 
ATOM     72  F   UNL A   1      33.868  35.163  29.834  1.00  0.00    -0.200 F 
ATOM     73  C   UNL A   1      34.318  34.223  31.943  1.00  0.00     0.200 A 
ATOM     74  F   UNL A   1      34.786  33.187  34.002  1.00  0.00    -0.200 F 
ATOM     75  F   UNL A   1      33.228  34.806  32.460  1.00  0.00    -0.200 F 
ENDBRANCH  51  65
BRANCH  52  76
ATOM     76  C   UNL A   1      45.027  28.517  28.276  1.00  0.00     0.064 A 
ATOM     77  C   UNL A   1      45.678  27.339  28.698  1.00  0.00     0.173 A 
ATOM     78  C   UNL A   1      44.405  28.494  27.019  1.00  0.00     0.173 A 
ATOM     79  F   UNL A   1      46.297  27.312  29.890  1.00  0.00    -0.203 F 
ATOM     80  C   UNL A   1      45.566  26.151  27.980  1.00  0.00     0.198 A 
ATOM     81  C   UNL A   1      44.314  27.301  26.291  1.00  0.00     0.198 A 
ATOM     82  F   UNL A   1      43.764  29.578  26.559  1.00  0.00    -0.203 F 
ATOM     83  F   UNL A   1      46.072  25.017  28.484  1.00  0.00    -0.200 F 
ATOM     84  C   UNL A   1      44.849  26.125  26.796  1.00  0.00     0.200 A 
ATOM     85  F   UNL A   1      43.627  27.273  25.139  1.00  0.00    -0.200 F 
ATOM     86  F   UNL A   1      44.645  24.961  26.165  1.00  0.00    -0.200 F 
ENDBRANCH  52  76
BRANCH  64  87
ATOM     87  C   UNL A   1      42.745  35.358  29.247  1.00  0.00     0.064 A 
ATOM     88  C   UNL A   1      42.093  35.938  28.147  1.00  0.00     0.173 A 
ATOM     89  C   UNL A   1      43.398  36.268  30.115  1.00  0.00     0.173 A 
ATOM     90  F   UNL A   1      41.320  35.210  27.330  1.00  0.00    -0.203 F 
ATOM     91  C   UNL A   1      42.164  37.307  27.884  1.00  0.00     0.198 A 
ATOM     92  C   UNL A   1      43.409  37.642  29.887  1.00  0.00     0.198 A 
ATOM     93  F   UNL A   1      44.021  35.858  31.230  1.00  0.00    -0.203 F 
ATOM     94  F   UNL A   1      41.573  37.801  26.787  1.00  0.00    -0.200 F 
ATOM     95  C   UNL A   1      42.814  38.159  28.756  1.00  0.00     0.200 A 
ATOM     96  F   UNL A   1      43.983  38.461  30.780  1.00  0.00    -0.200 F 
ATOM     97  F   UNL A   1      42.843  39.478  28.522  1.00  0.00    -0.200 F 
ENDBRANCH  64  87
ENDBRANCH  38  39
ENDBRANCH  30  33
ENDBRANCH  28  29
ENDBRANCH  27  28
ENDBRANCH  26  27
ENDBRANCH   1  26
TORSDOF 17
ENDMDL
MODEL 3
REMARK VINA RESULT:     -12.3      3.328      9.698
REMARK SMILES CCN(C(=O)c1ccc(C)cc1F)[C@@H]1COC[C@@H]1C(=O)NCCCCCCNC(=O)c1ccc(-c2c3nc(c(-c4c(F)c(F)c(F)c(F)c4F)c4ccc([nH]4)c(-c4c(F)c(F)c(F)c(F)c4F)c4nc(c(-c5c(F)c(F)c(F)c(F)c5F)c5ccc2[nH]5)C=C4)C=C3)cc1
REMARK SMILES IDX 24 1 23 2 22 3 21 4 19 5 20 6 18 8 14 9 15 10 16 11 17 12
REMARK SMILES IDX 3 13 2 14 1 15 4 16 5 17 6 18 7 19 12 20 8 21 11 22 13 23
REMARK SMILES IDX 9 24 10 25 25 26 26 27 27 28 28 29 29 30 30 32 31 33 32 34
REMARK SMILES IDX 93 35 33 36 92 37 34 38 35 39 36 40 86 41 37 42 91 43 85 44
REMARK SMILES IDX 87 45 38 46 90 47 84 48 83 49 39 51 71 52 51 53 70 54 52 55
REMARK SMILES IDX 55 56 69 57 88 58 53 59 54 60 68 62 89 63 56 64 40 65 41 66
REMARK SMILES IDX 49 67 42 68 43 69 47 70 50 71 44 72 45 73 48 74 46 75 72 76
REMARK SMILES IDX 73 77 81 78 74 79 75 80 79 81 82 82 76 83 77 84 80 85 78 86
REMARK SMILES IDX 57 87 58 88 66 89 59 90 60 91 64 92 67 93 61 94 62 95 65 96
REMARK SMILES IDX 63 97
REMARK H PARENT 21 7 28 31 87 50 55 61
REMARK Flexibility Score: inf
ROOT
ATOM      1  C   UNL A   1      36.499  22.958  23.342  1.00  0.00     0.002 C 
ENDROOT
BRANCH   1   2
ATOM      2  C   UNL A   1      34.985  23.089  23.144  1.00  0.00     0.021 C 
BRANCH   2   3
ATOM      3  C   UNL A   1      34.288  24.156  23.988  1.00  0.00     0.116 C 
BRANCH   3   4
ATOM      4  N   UNL A   1      34.133  23.750  25.374  1.00  0.00    -0.356 N 
ATOM      5  C   UNL A   1      33.027  23.528  26.143  1.00  0.00     0.227 C 
ATOM      6  O   UNL A   1      33.230  23.261  27.328  1.00  0.00    -0.275 OA
ATOM      7  H   UNL A   1      34.985  23.609  25.848  1.00  0.00     0.163 HD
BRANCH   5   8
ATOM      8  C   UNL A   1      31.639  23.565  25.532  1.00  0.00     0.129 C 
ATOM      9  C   UNL A   1      30.853  24.875  25.450  1.00  0.00     0.126 C 
ATOM     10  C   UNL A   1      29.796  24.822  26.550  1.00  0.00     0.186 C 
ATOM     11  O   UNL A   1      29.856  23.529  27.152  1.00  0.00    -0.378 OA
ATOM     12  C   UNL A   1      30.689  22.686  26.347  1.00  0.00     0.176 C 
BRANCH   9  13
ATOM     13  N   UNL A   1      31.517  26.187  25.303  1.00  0.00    -0.333 N 
BRANCH  13  14
ATOM     14  C   UNL A   1      32.305  26.773  26.416  1.00  0.00     0.117 C 
ATOM     15  C   UNL A   1      33.657  27.387  26.100  1.00  0.00     0.027 C 
ENDBRANCH  13  14
BRANCH  13  16
ATOM     16  C   UNL A   1      31.387  26.799  24.033  1.00  0.00     0.257 C 
ATOM     17  O   UNL A   1      32.143  26.597  23.086  1.00  0.00    -0.269 OA
BRANCH  16  18
ATOM     18  C   UNL A   1      30.382  27.849  23.835  1.00  0.00     0.075 A 
ATOM     19  C   UNL A   1      29.079  27.471  23.501  1.00  0.00     0.017 A 
ATOM     20  C   UNL A   1      30.721  29.191  23.926  1.00  0.00     0.136 A 
ATOM     21  C   UNL A   1      28.170  28.441  23.085  1.00  0.00     0.004 A 
ATOM     22  C   UNL A   1      29.812  30.163  23.528  1.00  0.00     0.043 A 
ATOM     23  F   UNL A   1      31.946  29.566  24.317  1.00  0.00    -0.206 F 
ATOM     24  C   UNL A   1      28.556  29.789  23.035  1.00  0.00    -0.048 A 
ATOM     25  C   UNL A   1      27.650  30.834  22.457  1.00  0.00     0.044 C 
ENDBRANCH  16  18
ENDBRANCH  13  16
ENDBRANCH   9  13
ENDBRANCH   5   8
ENDBRANCH   3   4
ENDBRANCH   2   3
ENDBRANCH   1   2
BRANCH   1  26
ATOM     26  C   UNL A   1      36.943  21.811  24.259  1.00  0.00     0.002 C 
BRANCH  26  27
ATOM     27  C   UNL A   1      37.062  22.164  25.747  1.00  0.00     0.021 C 
BRANCH  27  28
ATOM     28  C   UNL A   1      37.953  23.368  26.006  1.00  0.00     0.116 C 
BRANCH  28  29
ATOM     29  N   UNL A   1      39.208  23.012  26.647  1.00  0.00    -0.352 N 
ATOM     30  C   UNL A   1      40.207  23.825  27.138  1.00  0.00     0.251 C 
ATOM     31  H   UNL A   1      39.369  22.045  26.747  1.00  0.00     0.163 HD
ATOM     32  O   UNL A   1      41.308  23.347  27.381  1.00  0.00    -0.269 OA
BRANCH  30  33
ATOM     33  C   UNL A   1      39.953  25.256  27.444  1.00  0.00     0.039 A 
ATOM     34  C   UNL A   1      40.404  26.264  26.574  1.00  0.00     0.014 A 
ATOM     35  C   UNL A   1      39.417  25.613  28.673  1.00  0.00     0.014 A 
ATOM     36  C   UNL A   1      40.377  27.607  26.976  1.00  0.00     0.010 A 
ATOM     37  C   UNL A   1      39.295  26.928  29.027  1.00  0.00     0.010 A 
ATOM     38  C   UNL A   1      39.859  27.912  28.228  1.00  0.00    -0.014 A 
BRANCH  38  39
ATOM     39  C   UNL A   1      39.930  29.182  28.925  1.00  0.00     0.031 A 
ATOM     40  C   UNL A   1      38.847  30.163  28.769  1.00  0.00     0.074 A 
ATOM     41  C   UNL A   1      40.791  29.232  29.967  1.00  0.00     0.049 A 
ATOM     42  N   UNL A   1      38.930  31.391  29.136  1.00  0.00    -0.248 NA
ATOM     43  C   UNL A   1      37.557  29.823  28.186  1.00  0.00     0.031 C 
ATOM     44  C   UNL A   1      40.792  30.146  31.104  1.00  0.00     0.029 A 
ATOM     45  N   UNL A   1      41.957  28.469  30.144  1.00  0.00    -0.354 N 
ATOM     46  C   UNL A   1      37.661  31.928  29.109  1.00  0.00     0.074 A 
ATOM     47  C   UNL A   1      36.857  30.937  28.432  1.00  0.00     0.031 C 
ATOM     48  C   UNL A   1      42.014  30.134  31.664  1.00  0.00     0.029 A 
ATOM     49  C   UNL A   1      42.865  29.315  30.815  1.00  0.00     0.049 A 
ATOM     50  H   UNL A   1      42.110  27.539  29.858  1.00  0.00     0.167 HD
ATOM     51  C   UNL A   1      37.436  33.090  29.790  1.00  0.00     0.037 A 
ATOM     52  C   UNL A   1      43.967  29.771  30.148  1.00  0.00     0.037 A 
ATOM     53  C   UNL A   1      38.679  33.546  30.418  1.00  0.00     0.049 A 
ATOM     54  C   UNL A   1      43.933  31.260  29.920  1.00  0.00     0.074 A 
ATOM     55  C   UNL A   1      39.175  33.396  31.703  1.00  0.00     0.029 A 
ATOM     56  N   UNL A   1      39.753  33.928  29.620  1.00  0.00    -0.354 N 
ATOM     57  N   UNL A   1      42.836  31.967  29.902  1.00  0.00    -0.248 NA
ATOM     58  C   UNL A   1      45.129  32.075  29.738  1.00  0.00     0.031 C 
ATOM     59  C   UNL A   1      40.576  33.606  31.655  1.00  0.00     0.029 A 
ATOM     60  C   UNL A   1      40.925  33.914  30.352  1.00  0.00     0.049 A 
ATOM     61  H   UNL A   1      39.687  34.174  28.669  1.00  0.00     0.167 HD
ATOM     62  C   UNL A   1      43.149  33.291  29.748  1.00  0.00     0.074 A 
ATOM     63  C   UNL A   1      44.596  33.307  29.643  1.00  0.00     0.031 C 
ATOM     64  C   UNL A   1      42.198  34.273  29.744  1.00  0.00     0.037 A 
BRANCH  51  65
ATOM     65  C   UNL A   1      36.083  33.681  30.137  1.00  0.00     0.064 A 
ATOM     66  C   UNL A   1      35.241  34.192  29.119  1.00  0.00     0.173 A 
ATOM     67  C   UNL A   1      35.555  33.802  31.436  1.00  0.00     0.173 A 
ATOM     68  F   UNL A   1      35.553  34.064  27.822  1.00  0.00    -0.203 F 
ATOM     69  C   UNL A   1      34.038  34.851  29.388  1.00  0.00     0.198 A 
ATOM     70  C   UNL A   1      34.369  34.496  31.710  1.00  0.00     0.198 A 
ATOM     71  F   UNL A   1      36.128  33.205  32.484  1.00  0.00    -0.203 F 
ATOM     72  F   UNL A   1      33.295  35.319  28.375  1.00  0.00    -0.200 F 
ATOM     73  C   UNL A   1      33.615  35.029  30.687  1.00  0.00     0.200 A 
ATOM     74  F   UNL A   1      33.960  34.634  32.980  1.00  0.00    -0.200 F 
ATOM     75  F   UNL A   1      32.475  35.682  30.950  1.00  0.00    -0.200 F 
ENDBRANCH  51  65
BRANCH  52  76
ATOM     76  C   UNL A   1      44.527  28.735  29.233  1.00  0.00     0.064 A 
ATOM     77  C   UNL A   1      45.118  27.610  29.845  1.00  0.00     0.173 A 
ATOM     78  C   UNL A   1      44.057  28.582  27.920  1.00  0.00     0.173 A 
ATOM     79  F   UNL A   1      45.594  27.706  31.097  1.00  0.00    -0.203 F 
ATOM     80  C   UNL A   1      45.085  26.355  29.241  1.00  0.00     0.198 A 
ATOM     81  C   UNL A   1      44.045  27.322  27.310  1.00  0.00     0.198 A 
ATOM     82  F   UNL A   1      43.479  29.610  27.283  1.00  0.00    -0.203 F 
ATOM     83  F   UNL A   1      45.523  25.280  29.912  1.00  0.00    -0.200 F 
ATOM     84  C   UNL A   1      44.512  26.205  27.991  1.00  0.00     0.200 A 
ATOM     85  F   UNL A   1      43.497  27.174  26.095  1.00  0.00    -0.200 F 
ATOM     86  F   UNL A   1      44.376  24.982  27.459  1.00  0.00    -0.200 F 
ENDBRANCH  52  76
BRANCH  64  87
ATOM     87  C   UNL A   1      42.411  35.697  29.295  1.00  0.00     0.064 A 
ATOM     88  C   UNL A   1      43.183  36.629  30.008  1.00  0.00     0.173 A 
ATOM     89  C   UNL A   1      41.952  36.131  28.027  1.00  0.00     0.173 A 
ATOM     90  F   UNL A   1      43.797  36.299  31.152  1.00  0.00    -0.203 F 
ATOM     91  C   UNL A   1      43.404  37.923  29.531  1.00  0.00     0.198 A 
ATOM     92  C   UNL A   1      42.232  37.400  27.525  1.00  0.00     0.198 A 
ATOM     93  F   UNL A   1      41.243  35.328  27.220  1.00  0.00    -0.203 F 
ATOM     94  F   UNL A   1      44.099  38.792  30.279  1.00  0.00    -0.200 F 
ATOM     95  C   UNL A   1      42.936  38.306  28.289  1.00  0.00     0.200 A 
ATOM     96  F   UNL A   1      41.830  37.730  26.289  1.00  0.00    -0.200 F 
ATOM     97  F   UNL A   1      43.187  39.535  27.819  1.00  0.00    -0.200 F 
ENDBRANCH  64  87
ENDBRANCH  38  39
ENDBRANCH  30  33
ENDBRANCH  28  29
ENDBRANCH  27  28
ENDBRANCH  26  27
ENDBRANCH   1  26
TORSDOF 17
ENDMDL
