MODEL 1
REMARK VINA RESULT:     -11.9      0.000      0.000
REMARK SMILES CCc1c(C)nc(Nc2cc(Cl)ccc2C)nc1OCC(=O)NCCCCCCNC(=O)c1ccc(-c2c3nc(c(-c4c(F)c(F)c(F)c(F)c4F)c4ccc([nH]4)c(-c4c(F)c(F)c(F)c(F)c4F)c4nc(c(-c5c(F)c(F)c(F)c(F)c5F)c5ccc2[nH]5)C=C4)C=C3)cc1
REMARK SMILES IDX 25 1 24 2 23 3 21 4 22 5 20 7 19 8 18 9 3 10 4 11 5 12 6 13
REMARK SMILES IDX 17 14 7 15 2 16 1 17 8 18 9 20 10 21 15 22 11 23 14 24 16 25
REMARK SMILES IDX 12 26 13 27 26 28 27 29 28 30 29 31 30 32 31 33 32 35 33 36
REMARK SMILES IDX 34 37 95 38 35 39 94 40 36 41 37 42 38 43 88 44 39 45 93 46
REMARK SMILES IDX 87 47 89 48 40 49 92 50 86 51 85 52 41 54 73 55 53 56 72 57
REMARK SMILES IDX 54 58 57 59 71 60 90 61 55 62 56 63 70 65 91 66 58 67 42 68
REMARK SMILES IDX 43 69 51 70 44 71 45 72 49 73 52 74 46 75 47 76 50 77 48 78
REMARK SMILES IDX 74 79 75 80 83 81 76 82 77 83 81 84 84 85 78 86 79 87 82 88
REMARK SMILES IDX 80 89 59 90 60 91 68 92 61 93 62 94 66 95 69 96 63 97 64 98
REMARK SMILES IDX 67 99 65 100
REMARK H PARENT 23 6 8 19 30 34 89 53 57 64
REMARK Flexibility Score: inf
ROOT
ATOM      1  C   UNL A   1      33.175  26.363  25.830  1.00  0.00     0.021 C 
ENDROOT
BRANCH   1   2
ATOM      2  C   UNL A   1      31.909  25.525  25.958  1.00  0.00     0.116 C 
BRANCH   2   3
ATOM      3  N   UNL A   1      32.023  24.527  26.994  1.00  0.00    -0.353 N 
ATOM      4  C   UNL A   1      31.694  23.213  26.954  1.00  0.00     0.258 C 
ATOM      5  O   UNL A   1      32.086  22.511  27.888  1.00  0.00    -0.271 OA
ATOM      6  H   UNL A   1      32.391  24.846  27.849  1.00  0.00     0.163 HD
BRANCH   4   7
ATOM      7  C   UNL A   1      30.966  22.628  25.734  1.00  0.00     0.331 C 
BRANCH   7   8
ATOM      8  O   UNL A   1      31.571  22.225  24.538  1.00  0.00    -0.467 OA
BRANCH   8   9
ATOM      9  C   UNL A   1      32.680  22.733  23.961  1.00  0.00     0.222 A 
ATOM     10  C   UNL A   1      34.024  22.460  24.183  1.00  0.00     0.035 A 
ATOM     11  C   UNL A   1      34.887  23.251  23.397  1.00  0.00     0.050 A 
ATOM     12  C   UNL A   1      36.391  23.172  23.420  1.00  0.00     0.067 C 
ATOM     13  N   UNL A   1      34.469  24.238  22.589  1.00  0.00    -0.218 NA
ATOM     14  N   UNL A   1      32.269  23.750  23.146  1.00  0.00    -0.177 NA
ATOM     15  C   UNL A   1      33.173  24.484  22.497  1.00  0.00     0.230 A 
BRANCH  10  16
ATOM     16  C   UNL A   1      34.727  21.510  25.122  1.00  0.00     0.040 C 
ATOM     17  C   UNL A   1      34.970  20.034  24.895  1.00  0.00     0.009 C 
ENDBRANCH  10  16
BRANCH  15  18
ATOM     18  N   UNL A   1      32.747  25.592  21.755  1.00  0.00    -0.324 N 
ATOM     19  H   UNL A   1      32.945  25.580  20.791  1.00  0.00     0.170 HD
BRANCH  18  20
ATOM     20  C   UNL A   1      32.063  26.722  22.245  1.00  0.00     0.045 A 
ATOM     21  C   UNL A   1      30.685  26.623  22.506  1.00  0.00     0.047 A 
ATOM     22  C   UNL A   1      32.731  27.915  22.605  1.00  0.00    -0.027 A 
ATOM     23  C   UNL A   1      30.002  27.662  23.144  1.00  0.00     0.043 A 
ATOM     24  C   UNL A   1      32.032  28.942  23.264  1.00  0.00     0.007 A 
ATOM     25  C   UNL A   1      34.190  28.133  22.301  1.00  0.00     0.046 C 
ATOM     26  Cl  UNL A   1      28.320  27.504  23.482  1.00  0.00    -0.084 Cl
ATOM     27  C   UNL A   1      30.671  28.815  23.536  1.00  0.00     0.021 A 
ENDBRANCH  18  20
ENDBRANCH  15  18
ENDBRANCH   8   9
ENDBRANCH   7   8
ENDBRANCH   4   7
ENDBRANCH   2   3
ENDBRANCH   1   2
BRANCH   1  28
ATOM     28  C   UNL A   1      33.144  27.738  26.513  1.00  0.00     0.002 C 
BRANCH  28  29
ATOM     29  C   UNL A   1      31.792  28.213  27.057  1.00  0.00     0.002 C 
BRANCH  29  30
ATOM     30  C   UNL A   1      31.627  29.721  27.220  1.00  0.00     0.021 C 
BRANCH  30  31
ATOM     31  C   UNL A   1      32.675  30.565  26.509  1.00  0.00     0.116 C 
BRANCH  31  32
ATOM     32  N   UNL A   1      32.547  31.980  26.805  1.00  0.00    -0.352 N 
ATOM     33  C   UNL A   1      33.373  32.788  27.556  1.00  0.00     0.251 C 
ATOM     34  H   UNL A   1      31.761  32.426  26.413  1.00  0.00     0.163 HD
ATOM     35  O   UNL A   1      33.046  33.924  27.841  1.00  0.00    -0.269 OA
BRANCH  33  36
ATOM     36  C   UNL A   1      34.657  32.237  28.047  1.00  0.00     0.039 A 
ATOM     37  C   UNL A   1      35.788  33.056  28.036  1.00  0.00     0.014 A 
ATOM     38  C   UNL A   1      34.729  30.937  28.554  1.00  0.00     0.014 A 
ATOM     39  C   UNL A   1      36.975  32.599  28.616  1.00  0.00     0.010 A 
ATOM     40  C   UNL A   1      35.890  30.511  29.191  1.00  0.00     0.010 A 
ATOM     41  C   UNL A   1      37.020  31.343  29.241  1.00  0.00    -0.014 A 
BRANCH  41  42
ATOM     42  C   UNL A   1      38.220  30.891  29.988  1.00  0.00     0.031 A 
ATOM     43  C   UNL A   1      39.144  29.869  29.387  1.00  0.00     0.074 A 
ATOM     44  C   UNL A   1      38.419  31.327  31.249  1.00  0.00     0.049 A 
ATOM     45  N   UNL A   1      40.165  29.256  29.931  1.00  0.00    -0.248 NA
ATOM     46  C   UNL A   1      38.868  29.463  28.001  1.00  0.00     0.031 C 
ATOM     47  C   UNL A   1      37.566  32.281  31.959  1.00  0.00     0.029 A 
ATOM     48  N   UNL A   1      39.388  31.002  32.169  1.00  0.00    -0.354 N 
ATOM     49  C   UNL A   1      40.636  28.378  28.964  1.00  0.00     0.074 A 
ATOM     50  C   UNL A   1      39.773  28.512  27.811  1.00  0.00     0.031 C 
ATOM     51  C   UNL A   1      38.045  32.464  33.200  1.00  0.00     0.029 A 
ATOM     52  C   UNL A   1      39.211  31.606  33.390  1.00  0.00     0.049 A 
ATOM     53  H   UNL A   1      40.136  30.394  31.972  1.00  0.00     0.167 HD
ATOM     54  C   UNL A   1      41.701  27.545  29.033  1.00  0.00     0.037 A 
ATOM     55  C   UNL A   1      39.893  31.464  34.543  1.00  0.00     0.037 A 
ATOM     56  C   UNL A   1      42.579  27.444  30.169  1.00  0.00     0.049 A 
ATOM     57  C   UNL A   1      41.070  30.525  34.587  1.00  0.00     0.074 A 
ATOM     58  C   UNL A   1      43.743  26.705  30.293  1.00  0.00     0.029 A 
ATOM     59  N   UNL A   1      42.385  28.092  31.379  1.00  0.00    -0.354 N 
ATOM     60  N   UNL A   1      41.562  29.770  33.636  1.00  0.00    -0.248 NA
ATOM     61  C   UNL A   1      41.786  30.415  35.868  1.00  0.00     0.031 C 
ATOM     62  C   UNL A   1      44.221  26.859  31.598  1.00  0.00     0.029 A 
ATOM     63  C   UNL A   1      43.385  27.738  32.268  1.00  0.00     0.049 A 
ATOM     64  H   UNL A   1      41.646  28.712  31.577  1.00  0.00     0.167 HD
ATOM     65  C   UNL A   1      42.654  29.117  34.193  1.00  0.00     0.074 A 
ATOM     66  C   UNL A   1      42.767  29.580  35.559  1.00  0.00     0.031 C 
ATOM     67  C   UNL A   1      43.486  28.211  33.625  1.00  0.00     0.037 A 
BRANCH  54  68
ATOM     68  C   UNL A   1      41.989  26.667  27.852  1.00  0.00     0.064 A 
ATOM     69  C   UNL A   1      42.934  27.024  26.880  1.00  0.00     0.173 A 
ATOM     70  C   UNL A   1      41.375  25.409  27.741  1.00  0.00     0.173 A 
ATOM     71  F   UNL A   1      43.542  28.218  26.935  1.00  0.00    -0.203 F 
ATOM     72  C   UNL A   1      43.245  26.159  25.833  1.00  0.00     0.198 A 
ATOM     73  C   UNL A   1      41.708  24.537  26.709  1.00  0.00     0.198 A 
ATOM     74  F   UNL A   1      40.468  25.018  28.649  1.00  0.00    -0.203 F 
ATOM     75  F   UNL A   1      44.132  26.532  24.899  1.00  0.00    -0.200 F 
ATOM     76  C   UNL A   1      42.641  24.913  25.755  1.00  0.00     0.200 A 
ATOM     77  F   UNL A   1      41.135  23.328  26.644  1.00  0.00    -0.200 F 
ATOM     78  F   UNL A   1      42.958  24.074  24.759  1.00  0.00    -0.200 F 
ENDBRANCH  54  68
BRANCH  55  79
ATOM     79  C   UNL A   1      39.474  32.208  35.761  1.00  0.00     0.064 A 
ATOM     80  C   UNL A   1      40.058  33.438  36.096  1.00  0.00     0.173 A 
ATOM     81  C   UNL A   1      38.512  31.686  36.638  1.00  0.00     0.173 A 
ATOM     82  F   UNL A   1      41.000  33.970  35.302  1.00  0.00    -0.203 F 
ATOM     83  C   UNL A   1      39.718  34.100  37.274  1.00  0.00     0.198 A 
ATOM     84  C   UNL A   1      38.149  32.364  37.799  1.00  0.00     0.198 A 
ATOM     85  F   UNL A   1      37.919  30.514  36.364  1.00  0.00    -0.203 F 
ATOM     86  F   UNL A   1      40.339  35.243  37.599  1.00  0.00    -0.200 F 
ATOM     87  C   UNL A   1      38.762  33.565  38.122  1.00  0.00     0.200 A 
ATOM     88  F   UNL A   1      37.214  31.850  38.608  1.00  0.00    -0.200 F 
ATOM     89  F   UNL A   1      38.440  34.199  39.259  1.00  0.00    -0.200 F 
ENDBRANCH  55  79
BRANCH  67  90
ATOM     90  C   UNL A   1      44.604  27.675  34.470  1.00  0.00     0.064 A 
ATOM     91  C   UNL A   1      44.466  26.486  35.202  1.00  0.00     0.173 A 
ATOM     92  C   UNL A   1      45.843  28.333  34.512  1.00  0.00     0.173 A 
ATOM     93  F   UNL A   1      43.297  25.830  35.208  1.00  0.00    -0.203 F 
ATOM     94  C   UNL A   1      45.521  25.988  35.961  1.00  0.00     0.198 A 
ATOM     95  C   UNL A   1      46.905  27.814  35.247  1.00  0.00     0.198 A 
ATOM     96  F   UNL A   1      46.028  29.470  33.825  1.00  0.00    -0.203 F 
ATOM     97  F   UNL A   1      45.352  24.875  36.688  1.00  0.00    -0.200 F 
ATOM     98  C   UNL A   1      46.741  26.647  35.976  1.00  0.00     0.200 A 
ATOM     99  F   UNL A   1      48.088  28.444  35.248  1.00  0.00    -0.200 F 
ATOM    100  F   UNL A   1      47.759  26.158  36.699  1.00  0.00    -0.200 F 
ENDBRANCH  67  90
ENDBRANCH  41  42
ENDBRANCH  33  36
ENDBRANCH  31  32
ENDBRANCH  30  31
ENDBRANCH  29  30
ENDBRANCH  28  29
ENDBRANCH   1  28
TORSDOF 18
ENDMDL
MODEL 2
REMARK VINA RESULT:     -11.7      4.790      9.892
REMARK SMILES CCc1c(C)nc(Nc2cc(Cl)ccc2C)nc1OCC(=O)NCCCCCCNC(=O)c1ccc(-c2c3nc(c(-c4c(F)c(F)c(F)c(F)c4F)c4ccc([nH]4)c(-c4c(F)c(F)c(F)c(F)c4F)c4nc(c(-c5c(F)c(F)c(F)c(F)c5F)c5ccc2[nH]5)C=C4)C=C3)cc1
REMARK SMILES IDX 25 1 24 2 23 3 21 4 22 5 20 7 19 8 18 9 3 10 4 11 5 12 6 13
REMARK SMILES IDX 17 14 7 15 2 16 1 17 8 18 9 20 10 21 15 22 11 23 14 24 16 25
REMARK SMILES IDX 12 26 13 27 26 28 27 29 28 30 29 31 30 32 31 33 32 35 33 36
REMARK SMILES IDX 34 37 95 38 35 39 94 40 36 41 37 42 38 43 88 44 39 45 93 46
REMARK SMILES IDX 87 47 89 48 40 49 92 50 86 51 85 52 41 54 73 55 53 56 72 57
REMARK SMILES IDX 54 58 57 59 71 60 90 61 55 62 56 63 70 65 91 66 58 67 42 68
REMARK SMILES IDX 43 69 51 70 44 71 45 72 49 73 52 74 46 75 47 76 50 77 48 78
REMARK SMILES IDX 74 79 75 80 83 81 76 82 77 83 81 84 84 85 78 86 79 87 82 88
REMARK SMILES IDX 80 89 59 90 60 91 68 92 61 93 62 94 66 95 69 96 63 97 64 98
REMARK SMILES IDX 67 99 65 100
REMARK H PARENT 23 6 8 19 30 34 89 53 57 64
REMARK Flexibility Score: inf
ROOT
ATOM      1  C   UNL A   1      36.202  23.296  24.719  1.00  0.00     0.021 C 
ENDROOT
BRANCH   1   2
ATOM      2  C   UNL A   1      35.403  22.664  23.586  1.00  0.00     0.116 C 
BRANCH   2   3
ATOM      3  N   UNL A   1      34.808  23.657  22.724  1.00  0.00    -0.353 N 
ATOM      4  C   UNL A   1      33.560  23.692  22.197  1.00  0.00     0.258 C 
ATOM      5  O   UNL A   1      33.206  24.749  21.672  1.00  0.00    -0.271 OA
ATOM      6  H   UNL A   1      35.390  24.414  22.487  1.00  0.00     0.163 HD
BRANCH   4   7
ATOM      7  C   UNL A   1      32.610  22.496  22.361  1.00  0.00     0.331 C 
BRANCH   7   8
ATOM      8  O   UNL A   1      31.770  22.264  23.457  1.00  0.00    -0.467 OA
BRANCH   8   9
ATOM      9  C   UNL A   1      31.960  22.645  24.737  1.00  0.00     0.222 A 
ATOM     10  C   UNL A   1      32.584  21.993  25.795  1.00  0.00     0.035 A 
ATOM     11  C   UNL A   1      32.528  22.718  27.002  1.00  0.00     0.050 A 
ATOM     12  C   UNL A   1      33.122  22.264  28.310  1.00  0.00     0.067 C 
ATOM     13  N   UNL A   1      31.856  23.870  27.154  1.00  0.00    -0.218 NA
ATOM     14  N   UNL A   1      31.268  23.810  24.908  1.00  0.00    -0.177 NA
ATOM     15  C   UNL A   1      31.221  24.382  26.112  1.00  0.00     0.230 A 
BRANCH  10  16
ATOM     16  C   UNL A   1      33.275  20.655  25.898  1.00  0.00     0.040 C 
ATOM     17  C   UNL A   1      33.313  19.576  24.839  1.00  0.00     0.009 C 
ENDBRANCH  10  16
BRANCH  15  18
ATOM     18  N   UNL A   1      30.419  25.513  26.300  1.00  0.00    -0.324 N 
ATOM     19  H   UNL A   1      29.562  25.375  26.763  1.00  0.00     0.170 HD
BRANCH  18  20
ATOM     20  C   UNL A   1      30.712  26.831  25.894  1.00  0.00     0.045 A 
ATOM     21  C   UNL A   1      31.549  27.621  26.701  1.00  0.00     0.047 A 
ATOM     22  C   UNL A   1      30.300  27.348  24.643  1.00  0.00    -0.027 A 
ATOM     23  C   UNL A   1      31.997  28.868  26.259  1.00  0.00     0.043 A 
ATOM     24  C   UNL A   1      30.777  28.597  24.207  1.00  0.00     0.007 A 
ATOM     25  C   UNL A   1      29.350  26.599  23.746  1.00  0.00     0.046 C 
ATOM     26  Cl  UNL A   1      33.048  29.805  27.252  1.00  0.00    -0.084 Cl
ATOM     27  C   UNL A   1      31.626  29.355  25.011  1.00  0.00     0.021 A 
ENDBRANCH  18  20
ENDBRANCH  15  18
ENDBRANCH   8   9
ENDBRANCH   7   8
ENDBRANCH   4   7
ENDBRANCH   2   3
ENDBRANCH   1   2
BRANCH   1  28
ATOM     28  C   UNL A   1      37.011  22.327  25.594  1.00  0.00     0.002 C 
BRANCH  28  29
ATOM     29  C   UNL A   1      36.839  20.830  25.314  1.00  0.00     0.002 C 
BRANCH  29  30
ATOM     30  C   UNL A   1      38.106  20.070  24.930  1.00  0.00     0.021 C 
BRANCH  30  31
ATOM     31  C   UNL A   1      39.294  20.289  25.855  1.00  0.00     0.116 C 
BRANCH  31  32
ATOM     32  N   UNL A   1      40.203  19.158  25.874  1.00  0.00    -0.352 N 
ATOM     33  C   UNL A   1      41.568  19.144  26.069  1.00  0.00     0.251 C 
ATOM     34  H   UNL A   1      39.788  18.277  25.728  1.00  0.00     0.163 HD
ATOM     35  O   UNL A   1      42.213  18.126  25.901  1.00  0.00    -0.269 OA
BRANCH  33  36
ATOM     36  C   UNL A   1      42.248  20.402  26.452  1.00  0.00     0.039 A 
ATOM     37  C   UNL A   1      42.862  21.164  25.456  1.00  0.00     0.014 A 
ATOM     38  C   UNL A   1      42.238  20.844  27.777  1.00  0.00     0.014 A 
ATOM     39  C   UNL A   1      43.393  22.417  25.776  1.00  0.00     0.010 A 
ATOM     40  C   UNL A   1      42.704  22.119  28.080  1.00  0.00     0.010 A 
ATOM     41  C   UNL A   1      43.273  22.924  27.080  1.00  0.00    -0.014 A 
BRANCH  41  42
ATOM     42  C   UNL A   1      43.698  24.307  27.416  1.00  0.00     0.031 A 
ATOM     43  C   UNL A   1      42.680  25.325  27.848  1.00  0.00     0.074 A 
ATOM     44  C   UNL A   1      44.984  24.668  27.232  1.00  0.00     0.049 A 
ATOM     45  N   UNL A   1      42.832  26.608  28.058  1.00  0.00    -0.248 NA
ATOM     46  C   UNL A   1      41.305  24.843  28.045  1.00  0.00     0.031 C 
ATOM     47  C   UNL A   1      46.054  23.783  26.771  1.00  0.00     0.029 A 
ATOM     48  N   UNL A   1      45.604  25.885  27.385  1.00  0.00    -0.354 N 
ATOM     49  C   UNL A   1      41.572  27.089  28.386  1.00  0.00     0.074 A 
ATOM     50  C   UNL A   1      40.659  25.969  28.318  1.00  0.00     0.031 C 
ATOM     51  C   UNL A   1      47.196  24.483  26.676  1.00  0.00     0.029 A 
ATOM     52  C   UNL A   1      46.931  25.875  27.025  1.00  0.00     0.049 A 
ATOM     53  H   UNL A   1      45.143  26.687  27.719  1.00  0.00     0.167 HD
ATOM     54  C   UNL A   1      41.216  28.350  28.726  1.00  0.00     0.037 A 
ATOM     55  C   UNL A   1      47.826  26.879  26.955  1.00  0.00     0.037 A 
ATOM     56  C   UNL A   1      42.136  29.452  28.830  1.00  0.00     0.049 A 
ATOM     57  C   UNL A   1      47.395  28.272  27.334  1.00  0.00     0.074 A 
ATOM     58  C   UNL A   1      41.887  30.741  29.267  1.00  0.00     0.029 A 
ATOM     59  N   UNL A   1      43.478  29.398  28.484  1.00  0.00    -0.354 N 
ATOM     60  N   UNL A   1      46.221  28.695  27.734  1.00  0.00    -0.248 NA
ATOM     61  C   UNL A   1      48.415  29.329  27.250  1.00  0.00     0.031 C 
ATOM     62  C   UNL A   1      43.063  31.484  29.128  1.00  0.00     0.029 A 
ATOM     63  C   UNL A   1      44.059  30.643  28.659  1.00  0.00     0.049 A 
ATOM     64  H   UNL A   1      43.947  28.594  28.162  1.00  0.00     0.167 HD
ATOM     65  C   UNL A   1      46.366  30.056  27.971  1.00  0.00     0.074 A 
ATOM     66  C   UNL A   1      47.747  30.385  27.691  1.00  0.00     0.031 C 
ATOM     67  C   UNL A   1      45.436  30.953  28.379  1.00  0.00     0.037 A 
BRANCH  54  68
ATOM     68  C   UNL A   1      39.769  28.623  29.013  1.00  0.00     0.064 A 
ATOM     69  C   UNL A   1      39.225  28.447  30.293  1.00  0.00     0.173 A 
ATOM     70  C   UNL A   1      38.940  29.153  28.013  1.00  0.00     0.173 A 
ATOM     71  F   UNL A   1      39.973  27.936  31.281  1.00  0.00    -0.203 F 
ATOM     72  C   UNL A   1      37.898  28.782  30.557  1.00  0.00     0.198 A 
ATOM     73  C   UNL A   1      37.623  29.512  28.287  1.00  0.00     0.198 A 
ATOM     74  F   UNL A   1      39.414  29.346  26.773  1.00  0.00    -0.203 F 
ATOM     75  F   UNL A   1      37.391  28.581  31.782  1.00  0.00    -0.200 F 
ATOM     76  C   UNL A   1      37.103  29.324  29.559  1.00  0.00     0.200 A 
ATOM     77  F   UNL A   1      36.862  30.049  27.325  1.00  0.00    -0.200 F 
ATOM     78  F   UNL A   1      35.834  29.665  29.822  1.00  0.00    -0.200 F 
ENDBRANCH  54  68
BRANCH  55  79
ATOM     79  C   UNL A   1      49.214  26.619  26.487  1.00  0.00     0.064 A 
ATOM     80  C   UNL A   1      50.208  26.185  27.374  1.00  0.00     0.173 A 
ATOM     81  C   UNL A   1      49.584  26.837  25.151  1.00  0.00     0.173 A 
ATOM     82  F   UNL A   1      49.910  25.984  28.667  1.00  0.00    -0.203 F 
ATOM     83  C   UNL A   1      51.525  26.011  26.952  1.00  0.00     0.198 A 
ATOM     84  C   UNL A   1      50.893  26.631  24.723  1.00  0.00     0.198 A 
ATOM     85  F   UNL A   1      48.671  27.249  24.259  1.00  0.00    -0.203 F 
ATOM     86  F   UNL A   1      52.468  25.657  27.837  1.00  0.00    -0.200 F 
ATOM     87  C   UNL A   1      51.865  26.230  25.627  1.00  0.00     0.200 A 
ATOM     88  F   UNL A   1      51.214  26.829  23.438  1.00  0.00    -0.200 F 
ATOM     89  F   UNL A   1      53.133  26.068  25.222  1.00  0.00    -0.200 F 
ENDBRANCH  55  79
BRANCH  67  90
ATOM     90  C   UNL A   1      45.885  32.373  28.568  1.00  0.00     0.064 A 
ATOM     91  C   UNL A   1      46.433  32.813  29.782  1.00  0.00     0.173 A 
ATOM     92  C   UNL A   1      45.808  33.292  27.510  1.00  0.00     0.173 A 
ATOM     93  F   UNL A   1      46.511  31.979  30.829  1.00  0.00    -0.203 F 
ATOM     94  C   UNL A   1      46.868  34.127  29.935  1.00  0.00     0.198 A 
ATOM     95  C   UNL A   1      46.274  34.595  27.657  1.00  0.00     0.198 A 
ATOM     96  F   UNL A   1      45.298  32.919  26.327  1.00  0.00    -0.203 F 
ATOM     97  F   UNL A   1      47.346  34.538  31.118  1.00  0.00    -0.200 F 
ATOM     98  C   UNL A   1      46.797  35.013  28.871  1.00  0.00     0.200 A 
ATOM     99  F   UNL A   1      46.219  35.445  26.623  1.00  0.00    -0.200 F 
ATOM    100  F   UNL A   1      47.228  36.274  29.018  1.00  0.00    -0.200 F 
ENDBRANCH  67  90
ENDBRANCH  41  42
ENDBRANCH  33  36
ENDBRANCH  31  32
ENDBRANCH  30  31
ENDBRANCH  29  30
ENDBRANCH  28  29
ENDBRANCH   1  28
TORSDOF 18
ENDMDL
MODEL 3
REMARK VINA RESULT:     -11.5      1.358      2.464
REMARK SMILES CCc1c(C)nc(Nc2cc(Cl)ccc2C)nc1OCC(=O)NCCCCCCNC(=O)c1ccc(-c2c3nc(c(-c4c(F)c(F)c(F)c(F)c4F)c4ccc([nH]4)c(-c4c(F)c(F)c(F)c(F)c4F)c4nc(c(-c5c(F)c(F)c(F)c(F)c5F)c5ccc2[nH]5)C=C4)C=C3)cc1
REMARK SMILES IDX 25 1 24 2 23 3 21 4 22 5 20 7 19 8 18 9 3 10 4 11 5 12 6 13
REMARK SMILES IDX 17 14 7 15 2 16 1 17 8 18 9 20 10 21 15 22 11 23 14 24 16 25
REMARK SMILES IDX 12 26 13 27 26 28 27 29 28 30 29 31 30 32 31 33 32 35 33 36
REMARK SMILES IDX 34 37 95 38 35 39 94 40 36 41 37 42 38 43 88 44 39 45 93 46
REMARK SMILES IDX 87 47 89 48 40 49 92 50 86 51 85 52 41 54 73 55 53 56 72 57
REMARK SMILES IDX 54 58 57 59 71 60 90 61 55 62 56 63 70 65 91 66 58 67 42 68
REMARK SMILES IDX 43 69 51 70 44 71 45 72 49 73 52 74 46 75 47 76 50 77 48 78
REMARK SMILES IDX 74 79 75 80 83 81 76 82 77 83 81 84 84 85 78 86 79 87 82 88
REMARK SMILES IDX 80 89 59 90 60 91 68 92 61 93 62 94 66 95 69 96 63 97 64 98
REMARK SMILES IDX 67 99 65 100
REMARK H PARENT 23 6 8 19 30 34 89 53 57 64
REMARK Flexibility Score: inf
ROOT
ATOM      1  C   UNL A   1      33.984  25.566  25.222  1.00  0.00     0.021 C 
ENDROOT
BRANCH   1   2
ATOM      2  C   UNL A   1      34.919  24.624  25.972  1.00  0.00     0.116 C 
BRANCH   2   3
ATOM      3  N   UNL A   1      35.873  23.995  25.091  1.00  0.00    -0.353 N 
ATOM      4  C   UNL A   1      36.163  22.679  24.946  1.00  0.00     0.258 C 
ATOM      5  O   UNL A   1      36.854  22.364  23.976  1.00  0.00    -0.271 OA
ATOM      6  H   UNL A   1      36.384  24.608  24.514  1.00  0.00     0.163 HD
BRANCH   4   7
ATOM      7  C   UNL A   1      35.550  21.637  25.893  1.00  0.00     0.331 C 
BRANCH   7   8
ATOM      8  O   UNL A   1      34.227  21.181  25.861  1.00  0.00    -0.467 OA
BRANCH   8   9
ATOM      9  C   UNL A   1      33.503  20.824  24.780  1.00  0.00     0.222 A 
ATOM     10  C   UNL A   1      33.249  19.573  24.231  1.00  0.00     0.035 A 
ATOM     11  C   UNL A   1      32.475  19.632  23.054  1.00  0.00     0.050 A 
ATOM     12  C   UNL A   1      32.041  18.437  22.245  1.00  0.00     0.067 C 
ATOM     13  N   UNL A   1      32.102  20.776  22.460  1.00  0.00    -0.218 NA
ATOM     14  N   UNL A   1      33.129  21.981  24.158  1.00  0.00    -0.177 NA
ATOM     15  C   UNL A   1      32.455  21.926  23.009  1.00  0.00     0.230 A 
BRANCH  10  16
ATOM     16  C   UNL A   1      33.671  18.181  24.635  1.00  0.00     0.040 C 
ATOM     17  C   UNL A   1      35.067  17.604  24.558  1.00  0.00     0.009 C 
ENDBRANCH  10  16
BRANCH  15  18
ATOM     18  N   UNL A   1      32.175  23.115  22.325  1.00  0.00    -0.324 N 
ATOM     19  H   UNL A   1      32.448  23.155  21.380  1.00  0.00     0.170 HD
BRANCH  18  20
ATOM     20  C   UNL A   1      31.542  24.260  22.848  1.00  0.00     0.045 A 
ATOM     21  C   UNL A   1      30.829  24.151  24.055  1.00  0.00     0.047 A 
ATOM     22  C   UNL A   1      31.701  25.543  22.274  1.00  0.00    -0.027 A 
ATOM     23  C   UNL A   1      30.327  25.289  24.693  1.00  0.00     0.043 A 
ATOM     24  C   UNL A   1      31.206  26.678  22.940  1.00  0.00     0.007 A 
ATOM     25  C   UNL A   1      32.390  25.742  20.950  1.00  0.00     0.046 C 
ATOM     26  Cl  UNL A   1      29.485  25.134  26.188  1.00  0.00    -0.084 Cl
ATOM     27  C   UNL A   1      30.523  26.553  24.148  1.00  0.00     0.021 A 
ENDBRANCH  18  20
ENDBRANCH  15  18
ENDBRANCH   8   9
ENDBRANCH   7   8
ENDBRANCH   4   7
ENDBRANCH   2   3
ENDBRANCH   1   2
BRANCH   1  28
ATOM     28  C   UNL A   1      33.752  26.939  25.870  1.00  0.00     0.002 C 
BRANCH  28  29
ATOM     29  C   UNL A   1      33.938  28.170  24.975  1.00  0.00     0.002 C 
BRANCH  29  30
ATOM     30  C   UNL A   1      32.881  29.262  25.108  1.00  0.00     0.021 C 
BRANCH  30  31
ATOM     31  C   UNL A   1      32.530  29.649  26.537  1.00  0.00     0.116 C 
BRANCH  31  32
ATOM     32  N   UNL A   1      32.329  31.079  26.694  1.00  0.00    -0.352 N 
ATOM     33  C   UNL A   1      33.134  32.004  27.323  1.00  0.00     0.251 C 
ATOM     34  H   UNL A   1      31.503  31.437  26.296  1.00  0.00     0.163 HD
ATOM     35  O   UNL A   1      32.751  33.144  27.506  1.00  0.00    -0.269 OA
BRANCH  33  36
ATOM     36  C   UNL A   1      34.467  31.579  27.807  1.00  0.00     0.039 A 
ATOM     37  C   UNL A   1      35.465  32.544  27.963  1.00  0.00     0.014 A 
ATOM     38  C   UNL A   1      34.713  30.246  28.145  1.00  0.00     0.014 A 
ATOM     39  C   UNL A   1      36.685  32.186  28.543  1.00  0.00     0.010 A 
ATOM     40  C   UNL A   1      35.900  29.906  28.785  1.00  0.00     0.010 A 
ATOM     41  C   UNL A   1      36.893  30.875  29.002  1.00  0.00    -0.014 A 
BRANCH  41  42
ATOM     42  C   UNL A   1      38.120  30.501  29.750  1.00  0.00     0.031 A 
ATOM     43  C   UNL A   1      39.078  29.497  29.173  1.00  0.00     0.074 A 
ATOM     44  C   UNL A   1      38.316  30.991  30.991  1.00  0.00     0.049 A 
ATOM     45  N   UNL A   1      40.130  28.946  29.725  1.00  0.00    -0.248 NA
ATOM     46  C   UNL A   1      38.803  29.029  27.806  1.00  0.00     0.031 C 
ATOM     47  C   UNL A   1      37.432  31.934  31.677  1.00  0.00     0.029 A 
ATOM     48  N   UNL A   1      39.308  30.739  31.908  1.00  0.00    -0.354 N 
ATOM     49  C   UNL A   1      40.626  28.053  28.785  1.00  0.00     0.074 A 
ATOM     50  C   UNL A   1      39.744  28.110  27.639  1.00  0.00     0.031 C 
ATOM     51  C   UNL A   1      37.918  32.182  32.904  1.00  0.00     0.029 A 
ATOM     52  C   UNL A   1      39.121  31.381  33.110  1.00  0.00     0.049 A 
ATOM     53  H   UNL A   1      40.078  30.156  31.723  1.00  0.00     0.167 HD
ATOM     54  C   UNL A   1      41.725  27.268  28.869  1.00  0.00     0.037 A 
ATOM     55  C   UNL A   1      39.822  31.309  34.257  1.00  0.00     0.037 A 
ATOM     56  C   UNL A   1      42.620  27.245  29.996  1.00  0.00     0.049 A 
ATOM     57  C   UNL A   1      41.037  30.421  34.320  1.00  0.00     0.074 A 
ATOM     58  C   UNL A   1      43.816  26.560  30.131  1.00  0.00     0.029 A 
ATOM     59  N   UNL A   1      42.414  27.929  31.184  1.00  0.00    -0.354 N 
ATOM     60  N   UNL A   1      41.549  29.653  33.390  1.00  0.00    -0.248 NA
ATOM     61  C   UNL A   1      41.772  30.388  35.594  1.00  0.00     0.031 C 
ATOM     62  C   UNL A   1      44.302  26.782  31.423  1.00  0.00     0.029 A 
ATOM     63  C   UNL A   1      43.439  27.649  32.072  1.00  0.00     0.049 A 
ATOM     64  H   UNL A   1      41.652  28.525  31.369  1.00  0.00     0.167 HD
ATOM     65  C   UNL A   1      42.674  29.066  33.955  1.00  0.00     0.074 A 
ATOM     66  C   UNL A   1      42.783  29.583  35.302  1.00  0.00     0.031 C 
ATOM     67  C   UNL A   1      43.536  28.175  33.409  1.00  0.00     0.037 A 
BRANCH  54  68
ATOM     68  C   UNL A   1      42.036  26.360  27.716  1.00  0.00     0.064 A 
ATOM     69  C   UNL A   1      42.980  26.705  26.738  1.00  0.00     0.173 A 
ATOM     70  C   UNL A   1      41.446  25.089  27.641  1.00  0.00     0.173 A 
ATOM     71  F   UNL A   1      43.566  27.911  26.761  1.00  0.00    -0.203 F 
ATOM     72  C   UNL A   1      43.312  25.814  25.720  1.00  0.00     0.198 A 
ATOM     73  C   UNL A   1      41.800  24.192  26.638  1.00  0.00     0.198 A 
ATOM     74  F   UNL A   1      40.541  24.708  28.556  1.00  0.00    -0.203 F 
ATOM     75  F   UNL A   1      44.197  26.175  24.780  1.00  0.00    -0.200 F 
ATOM     76  C   UNL A   1      42.731  24.556  25.677  1.00  0.00     0.200 A 
ATOM     77  F   UNL A   1      41.248  22.971  26.607  1.00  0.00    -0.200 F 
ATOM     78  F   UNL A   1      43.068  23.693  24.708  1.00  0.00    -0.200 F 
ENDBRANCH  54  68
BRANCH  55  79
ATOM     79  C   UNL A   1      39.387  32.079  35.454  1.00  0.00     0.064 A 
ATOM     80  C   UNL A   1      38.528  31.513  36.407  1.00  0.00     0.173 A 
ATOM     81  C   UNL A   1      39.789  33.409  35.649  1.00  0.00     0.173 A 
ATOM     82  F   UNL A   1      38.097  30.252  36.255  1.00  0.00    -0.203 F 
ATOM     83  C   UNL A   1      38.063  32.257  37.490  1.00  0.00     0.198 A 
ATOM     84  C   UNL A   1      39.350  34.141  36.749  1.00  0.00     0.198 A 
ATOM     85  F   UNL A   1      40.614  33.997  34.770  1.00  0.00    -0.203 F 
ATOM     86  F   UNL A   1      37.192  31.710  38.350  1.00  0.00    -0.200 F 
ATOM     87  C   UNL A   1      38.477  33.569  37.662  1.00  0.00     0.200 A 
ATOM     88  F   UNL A   1      39.764  35.403  36.920  1.00  0.00    -0.200 F 
ATOM     89  F   UNL A   1      38.024  34.285  38.700  1.00  0.00    -0.200 F 
ENDBRANCH  55  79
BRANCH  67  90
ATOM     90  C   UNL A   1      44.685  27.717  34.258  1.00  0.00     0.064 A 
ATOM     91  C   UNL A   1      45.892  28.431  34.306  1.00  0.00     0.173 A 
ATOM     92  C   UNL A   1      44.563  26.578  35.069  1.00  0.00     0.173 A 
ATOM     93  F   UNL A   1      46.064  29.517  33.538  1.00  0.00    -0.203 F 
ATOM     94  C   UNL A   1      46.941  28.009  35.119  1.00  0.00     0.198 A 
ATOM     95  C   UNL A   1      45.603  26.178  35.903  1.00  0.00     0.198 A 
ATOM     96  F   UNL A   1      43.428  25.864  35.064  1.00  0.00    -0.203 F 
ATOM     97  F   UNL A   1      48.100  28.681  35.114  1.00  0.00    -0.200 F 
ATOM     98  C   UNL A   1      46.792  26.889  35.923  1.00  0.00     0.200 A 
ATOM     99  F   UNL A   1      45.452  25.104  36.691  1.00  0.00    -0.200 F 
ATOM    100  F   UNL A   1      47.799  26.492  36.712  1.00  0.00    -0.200 F 
ENDBRANCH  67  90
ENDBRANCH  41  42
ENDBRANCH  33  36
ENDBRANCH  31  32
ENDBRANCH  30  31
ENDBRANCH  29  30
ENDBRANCH  28  29
ENDBRANCH   1  28
TORSDOF 18
ENDMDL
