MODEL 1
REMARK VINA RESULT:     -14.6      0.000      0.000
REMARK SMILES Cc1ccccc1OC1(C(=O)NCCCCCCNC(=O)c2ccc(-c3c4nc(c(-c5c(F)c(F)c(F)c(F)c5F)c5ccc([nH]5)c(-c5c(F)c(F)c(F)c(F)c5F)c5nc(c(-c6c(F)c(F)c(F)c(F)c6F)c6ccc3[nH]6)C=C5)C=C4)cc2)CCN(C(=O)[C@H]2CCCCO2)CC1
REMARK SMILES IDX 15 1 14 2 13 3 12 4 10 5 11 6 9 8 85 9 97 10 86 11 96 12
REMARK SMILES IDX 87 13 88 14 89 15 8 16 7 17 1 18 2 19 3 20 4 21 6 22 5 23
REMARK SMILES IDX 90 24 91 25 95 26 92 27 94 28 93 29 16 30 17 31 18 32 19 33
REMARK SMILES IDX 20 34 21 36 22 37 23 38 84 39 24 40 83 41 25 42 26 43 27 44
REMARK SMILES IDX 77 45 28 46 82 47 76 48 78 49 29 50 81 51 75 52 74 53 30 55
REMARK SMILES IDX 62 56 42 57 61 58 43 59 46 60 60 61 79 62 44 63 45 64 59 66
REMARK SMILES IDX 80 67 47 68 31 69 32 70 40 71 33 72 34 73 38 74 41 75 35 76
REMARK SMILES IDX 36 77 39 78 37 79 63 80 64 81 72 82 65 83 66 84 70 85 73 86
REMARK SMILES IDX 67 87 68 88 71 89 69 90 48 91 49 92 57 93 50 94 51 95 55 96
REMARK SMILES IDX 58 97 52 98 53 99 56 100 54 101
REMARK H PARENT 12 7 19 35 78 54 46 65
REMARK Flexibility Score: inf
ROOT
ATOM      1  C   UNL A   1      31.763  28.561  25.945  1.00  0.00     0.002 C 
ENDROOT
BRANCH   1   2
ATOM      2  C   UNL A   1      33.034  27.761  25.628  1.00  0.00     0.021 C 
BRANCH   2   3
ATOM      3  C   UNL A   1      33.084  26.348  26.216  1.00  0.00     0.116 C 
BRANCH   3   4
ATOM      4  N   UNL A   1      31.783  25.842  26.587  1.00  0.00    -0.353 N 
ATOM      5  C   UNL A   1      31.089  24.722  26.222  1.00  0.00     0.264 C 
ATOM      6  O   UNL A   1      30.052  24.538  26.875  1.00  0.00    -0.270 OA
ATOM      7  H   UNL A   1      31.303  26.417  27.227  1.00  0.00     0.163 HD
BRANCH   5   8
ATOM      8  C   UNL A   1      31.550  23.739  25.069  1.00  0.00     0.190 C 
ATOM      9  C   UNL A   1      33.038  23.976  24.824  1.00  0.00     0.080 C 
ATOM     10  C   UNL A   1      31.058  22.330  25.414  1.00  0.00     0.080 C 
ATOM     11  C   UNL A   1      33.979  22.869  25.272  1.00  0.00     0.124 C 
ATOM     12  C   UNL A   1      32.099  21.227  25.588  1.00  0.00     0.124 C 
ATOM     13  N   UNL A   1      33.461  21.508  25.155  1.00  0.00    -0.340 N 
ATOM     14  C   UNL A   1      34.401  20.503  24.873  1.00  0.00     0.251 C 
ATOM     15  O   UNL A   1      35.593  20.790  24.719  1.00  0.00    -0.272 OA
BRANCH   8  16
ATOM     16  O   UNL A   1      30.787  24.282  23.955  1.00  0.00    -0.477 OA
BRANCH  16  17
ATOM     17  C   UNL A   1      30.636  25.526  23.428  1.00  0.00     0.123 A 
ATOM     18  C   UNL A   1      32.830  26.029  22.136  1.00  0.00     0.048 C 
ATOM     19  C   UNL A   1      31.460  26.335  22.634  1.00  0.00    -0.009 A 
ATOM     20  C   UNL A   1      31.033  27.644  22.293  1.00  0.00     0.007 A 
ATOM     21  C   UNL A   1      29.816  28.158  22.720  1.00  0.00     0.001 A 
ATOM     22  C   UNL A   1      29.406  26.075  23.847  1.00  0.00     0.047 A 
ATOM     23  C   UNL A   1      28.996  27.367  23.503  1.00  0.00     0.004 A 
ENDBRANCH  16  17
ENDBRANCH   8  16
BRANCH  14  24
ATOM     24  C   UNL A   1      33.915  19.034  24.731  1.00  0.00     0.207 C 
ATOM     25  C   UNL A   1      33.029  18.912  23.482  1.00  0.00     0.042 C 
ATOM     26  O   UNL A   1      35.068  18.190  24.624  1.00  0.00    -0.368 OA
ATOM     27  C   UNL A   1      32.740  17.464  23.106  1.00  0.00     0.006 C 
ATOM     28  C   UNL A   1      34.764  16.820  24.393  1.00  0.00     0.161 C 
ATOM     29  C   UNL A   1      34.028  16.656  23.075  1.00  0.00     0.029 C 
ENDBRANCH  14  24
ENDBRANCH   5   8
ENDBRANCH   3   4
ENDBRANCH   2   3
ENDBRANCH   1   2
BRANCH   1  30
ATOM     30  C   UNL A   1      31.831  30.085  25.735  1.00  0.00     0.002 C 
BRANCH  30  31
ATOM     31  C   UNL A   1      32.311  30.919  26.927  1.00  0.00     0.021 C 
BRANCH  31  32
ATOM     32  C   UNL A   1      33.751  30.651  27.344  1.00  0.00     0.116 C 
BRANCH  32  33
ATOM     33  N   UNL A   1      34.267  31.578  28.344  1.00  0.00    -0.352 N 
ATOM     34  C   UNL A   1      35.368  31.444  29.179  1.00  0.00     0.251 C 
ATOM     35  H   UNL A   1      33.763  32.418  28.440  1.00  0.00     0.163 HD
ATOM     36  O   UNL A   1      35.638  32.303  29.993  1.00  0.00    -0.269 OA
BRANCH  34  37
ATOM     37  C   UNL A   1      36.281  30.292  28.973  1.00  0.00     0.039 A 
ATOM     38  C   UNL A   1      36.639  29.530  30.092  1.00  0.00     0.014 A 
ATOM     39  C   UNL A   1      36.925  30.098  27.755  1.00  0.00     0.014 A 
ATOM     40  C   UNL A   1      37.798  28.758  30.048  1.00  0.00     0.010 A 
ATOM     41  C   UNL A   1      38.125  29.417  27.737  1.00  0.00     0.010 A 
ATOM     42  C   UNL A   1      38.596  28.807  28.904  1.00  0.00    -0.014 A 
BRANCH  42  43
ATOM     43  C   UNL A   1      39.973  28.327  28.862  1.00  0.00     0.031 A 
ATOM     44  C   UNL A   1      40.262  26.917  28.533  1.00  0.00     0.074 A 
ATOM     45  C   UNL A   1      40.979  29.210  29.038  1.00  0.00     0.049 A 
ATOM     46  N   UNL A   1      41.380  26.324  28.780  1.00  0.00    -0.248 NA
ATOM     47  C   UNL A   1      39.271  26.044  27.918  1.00  0.00     0.031 C 
ATOM     48  C   UNL A   1      42.404  29.000  28.793  1.00  0.00     0.029 A 
ATOM     49  N   UNL A   1      40.922  30.445  29.709  1.00  0.00    -0.354 N 
ATOM     50  C   UNL A   1      41.351  25.087  28.178  1.00  0.00     0.074 A 
ATOM     51  C   UNL A   1      40.002  24.951  27.675  1.00  0.00     0.031 C 
ATOM     52  C   UNL A   1      43.100  29.854  29.562  1.00  0.00     0.029 A 
ATOM     53  C   UNL A   1      42.146  30.535  30.418  1.00  0.00     0.049 A 
ATOM     54  H   UNL A   1      40.190  31.102  29.690  1.00  0.00     0.167 HD
ATOM     55  C   UNL A   1      42.500  24.356  28.098  1.00  0.00     0.037 A 
ATOM     56  C   UNL A   1      42.155  30.517  31.783  1.00  0.00     0.037 A 
ATOM     57  C   UNL A   1      43.590  25.000  28.828  1.00  0.00     0.049 A 
ATOM     58  C   UNL A   1      42.886  29.340  32.392  1.00  0.00     0.074 A 
ATOM     59  C   UNL A   1      44.626  25.848  28.473  1.00  0.00     0.029 A 
ATOM     60  N   UNL A   1      43.515  25.042  30.208  1.00  0.00    -0.354 N 
ATOM     61  N   UNL A   1      43.371  28.340  31.708  1.00  0.00    -0.248 NA
ATOM     62  C   UNL A   1      43.042  29.154  33.837  1.00  0.00     0.031 C 
ATOM     63  C   UNL A   1      45.134  26.446  29.663  1.00  0.00     0.029 A 
ATOM     64  C   UNL A   1      44.415  25.947  30.734  1.00  0.00     0.049 A 
ATOM     65  H   UNL A   1      42.899  24.496  30.748  1.00  0.00     0.167 HD
ATOM     66  C   UNL A   1      43.857  27.399  32.571  1.00  0.00     0.074 A 
ATOM     67  C   UNL A   1      43.628  27.946  33.894  1.00  0.00     0.031 C 
ATOM     68  C   UNL A   1      44.389  26.216  32.159  1.00  0.00     0.037 A 
BRANCH  55  69
ATOM     69  C   UNL A   1      42.698  23.157  27.200  1.00  0.00     0.064 A 
ATOM     70  C   UNL A   1      42.049  21.936  27.482  1.00  0.00     0.173 A 
ATOM     71  C   UNL A   1      43.541  23.128  26.074  1.00  0.00     0.173 A 
ATOM     72  F   UNL A   1      41.142  21.837  28.465  1.00  0.00    -0.203 F 
ATOM     73  C   UNL A   1      42.309  20.763  26.768  1.00  0.00     0.198 A 
ATOM     74  C   UNL A   1      43.850  21.943  25.398  1.00  0.00     0.198 A 
ATOM     75  F   UNL A   1      44.041  24.253  25.548  1.00  0.00    -0.203 F 
ATOM     76  F   UNL A   1      41.657  19.634  27.081  1.00  0.00    -0.200 F 
ATOM     77  C   UNL A   1      43.240  20.757  25.751  1.00  0.00     0.200 A 
ATOM     78  F   UNL A   1      44.739  21.964  24.395  1.00  0.00    -0.200 F 
ATOM     79  F   UNL A   1      43.526  19.624  25.095  1.00  0.00    -0.200 F 
ENDBRANCH  55  69
BRANCH  56  80
ATOM     80  C   UNL A   1      40.957  31.176  32.370  1.00  0.00     0.064 A 
ATOM     81  C   UNL A   1      40.839  32.576  32.250  1.00  0.00     0.173 A 
ATOM     82  C   UNL A   1      39.800  30.456  32.688  1.00  0.00     0.173 A 
ATOM     83  F   UNL A   1      41.919  33.317  31.954  1.00  0.00    -0.203 F 
ATOM     84  C   UNL A   1      39.598  33.206  32.301  1.00  0.00     0.198 A 
ATOM     85  C   UNL A   1      38.562  31.095  32.766  1.00  0.00     0.198 A 
ATOM     86  F   UNL A   1      39.841  29.121  32.805  1.00  0.00    -0.203 F 
ATOM     87  F   UNL A   1      39.504  34.518  32.046  1.00  0.00    -0.200 F 
ATOM     88  C   UNL A   1      38.457  32.458  32.531  1.00  0.00     0.200 A 
ATOM     89  F   UNL A   1      37.454  30.369  32.972  1.00  0.00    -0.200 F 
ATOM     90  F   UNL A   1      37.252  33.043  32.485  1.00  0.00    -0.200 F 
ENDBRANCH  56  80
BRANCH  68  91
ATOM     91  C   UNL A   1      44.948  25.218  33.116  1.00  0.00     0.064 A 
ATOM     92  C   UNL A   1      46.323  24.951  33.174  1.00  0.00     0.173 A 
ATOM     93  C   UNL A   1      44.108  24.420  33.913  1.00  0.00     0.173 A 
ATOM     94  F   UNL A   1      47.185  25.649  32.420  1.00  0.00    -0.203 F 
ATOM     95  C   UNL A   1      46.833  23.954  34.005  1.00  0.00     0.198 A 
ATOM     96  C   UNL A   1      44.615  23.396  34.709  1.00  0.00     0.198 A 
ATOM     97  F   UNL A   1      42.782  24.631  33.949  1.00  0.00    -0.203 F 
ATOM     98  F   UNL A   1      48.157  23.753  34.068  1.00  0.00    -0.200 F 
ATOM     99  C   UNL A   1      45.978  23.169  34.761  1.00  0.00     0.200 A 
ATOM    100  F   UNL A   1      43.778  22.635  35.427  1.00  0.00    -0.200 F 
ATOM    101  F   UNL A   1      46.468  22.198  35.543  1.00  0.00    -0.200 F 
ENDBRANCH  68  91
ENDBRANCH  42  43
ENDBRANCH  34  37
ENDBRANCH  32  33
ENDBRANCH  31  32
ENDBRANCH  30  31
ENDBRANCH   1  30
TORSDOF 16
ENDMDL
MODEL 2
REMARK VINA RESULT:     -14.3      1.784      3.753
REMARK SMILES Cc1ccccc1OC1(C(=O)NCCCCCCNC(=O)c2ccc(-c3c4nc(c(-c5c(F)c(F)c(F)c(F)c5F)c5ccc([nH]5)c(-c5c(F)c(F)c(F)c(F)c5F)c5nc(c(-c6c(F)c(F)c(F)c(F)c6F)c6ccc3[nH]6)C=C5)C=C4)cc2)CCN(C(=O)[C@H]2CCCCO2)CC1
REMARK SMILES IDX 15 1 14 2 13 3 12 4 10 5 11 6 9 8 85 9 97 10 86 11 96 12
REMARK SMILES IDX 87 13 88 14 89 15 8 16 7 17 1 18 2 19 3 20 4 21 6 22 5 23
REMARK SMILES IDX 90 24 91 25 95 26 92 27 94 28 93 29 16 30 17 31 18 32 19 33
REMARK SMILES IDX 20 34 21 36 22 37 23 38 84 39 24 40 83 41 25 42 26 43 27 44
REMARK SMILES IDX 77 45 28 46 82 47 76 48 78 49 29 50 81 51 75 52 74 53 30 55
REMARK SMILES IDX 62 56 42 57 61 58 43 59 46 60 60 61 79 62 44 63 45 64 59 66
REMARK SMILES IDX 80 67 47 68 31 69 32 70 40 71 33 72 34 73 38 74 41 75 35 76
REMARK SMILES IDX 36 77 39 78 37 79 63 80 64 81 72 82 65 83 66 84 70 85 73 86
REMARK SMILES IDX 67 87 68 88 71 89 69 90 48 91 49 92 57 93 50 94 51 95 55 96
REMARK SMILES IDX 58 97 52 98 53 99 56 100 54 101
REMARK H PARENT 12 7 19 35 78 54 46 65
REMARK Flexibility Score: inf
ROOT
ATOM      1  C   UNL A   1      32.612  27.100  26.744  1.00  0.00     0.002 C 
ENDROOT
BRANCH   1   2
ATOM      2  C   UNL A   1      32.311  25.931  25.796  1.00  0.00     0.021 C 
BRANCH   2   3
ATOM      3  C   UNL A   1      32.547  24.535  26.378  1.00  0.00     0.116 C 
BRANCH   3   4
ATOM      4  N   UNL A   1      31.440  23.634  26.155  1.00  0.00    -0.353 N 
ATOM      5  C   UNL A   1      31.380  22.314  25.804  1.00  0.00     0.264 C 
ATOM      6  O   UNL A   1      30.241  21.830  25.860  1.00  0.00    -0.270 OA
ATOM      7  H   UNL A   1      30.557  24.053  26.280  1.00  0.00     0.163 HD
BRANCH   5   8
ATOM      8  C   UNL A   1      32.642  21.464  25.360  1.00  0.00     0.190 C 
ATOM      9  C   UNL A   1      33.191  22.084  24.078  1.00  0.00     0.080 C 
ATOM     10  C   UNL A   1      33.561  21.301  26.574  1.00  0.00     0.080 C 
ATOM     11  C   UNL A   1      34.521  22.811  24.199  1.00  0.00     0.124 C 
ATOM     12  C   UNL A   1      34.982  21.853  26.479  1.00  0.00     0.124 C 
ATOM     13  N   UNL A   1      35.465  22.255  25.165  1.00  0.00    -0.340 N 
ATOM     14  C   UNL A   1      36.828  22.385  24.854  1.00  0.00     0.251 C 
ATOM     15  O   UNL A   1      37.179  22.930  23.802  1.00  0.00    -0.272 OA
BRANCH   8  16
ATOM     16  O   UNL A   1      31.994  20.199  25.044  1.00  0.00    -0.477 OA
BRANCH  16  17
ATOM     17  C   UNL A   1      32.443  18.983  24.635  1.00  0.00     0.123 A 
ATOM     18  C   UNL A   1      32.263  18.983  22.046  1.00  0.00     0.048 C 
ATOM     19  C   UNL A   1      32.596  18.394  23.373  1.00  0.00    -0.009 A 
ATOM     20  C   UNL A   1      33.041  17.050  23.279  1.00  0.00     0.007 A 
ATOM     21  C   UNL A   1      33.337  16.290  24.402  1.00  0.00     0.001 A 
ATOM     22  C   UNL A   1      32.750  18.186  25.758  1.00  0.00     0.047 A 
ATOM     23  C   UNL A   1      33.190  16.863  25.652  1.00  0.00     0.004 A 
ENDBRANCH  16  17
ENDBRANCH   8  16
BRANCH  14  24
ATOM     24  C   UNL A   1      37.885  21.809  25.838  1.00  0.00     0.207 C 
ATOM     25  C   UNL A   1      38.579  20.603  25.188  1.00  0.00     0.042 C 
ATOM     26  O   UNL A   1      38.831  22.844  26.134  1.00  0.00    -0.368 OA
ATOM     27  C   UNL A   1      39.814  20.152  25.957  1.00  0.00     0.006 C 
ATOM     28  C   UNL A   1      39.913  22.422  26.955  1.00  0.00     0.161 C 
ATOM     29  C   UNL A   1      40.716  21.338  26.258  1.00  0.00     0.029 C 
ENDBRANCH  14  24
ENDBRANCH   5   8
ENDBRANCH   3   4
ENDBRANCH   2   3
ENDBRANCH   1   2
BRANCH   1  30
ATOM     30  C   UNL A   1      32.165  28.500  26.285  1.00  0.00     0.002 C 
BRANCH  30  31
ATOM     31  C   UNL A   1      33.172  29.638  26.476  1.00  0.00     0.021 C 
BRANCH  31  32
ATOM     32  C   UNL A   1      34.282  29.336  27.474  1.00  0.00     0.116 C 
BRANCH  32  33
ATOM     33  N   UNL A   1      34.706  30.485  28.264  1.00  0.00    -0.352 N 
ATOM     34  C   UNL A   1      35.909  30.701  28.923  1.00  0.00     0.251 C 
ATOM     35  H   UNL A   1      34.047  31.212  28.339  1.00  0.00     0.163 HD
ATOM     36  O   UNL A   1      36.087  31.708  29.577  1.00  0.00    -0.269 OA
BRANCH  34  37
ATOM     37  C   UNL A   1      37.019  29.739  28.712  1.00  0.00     0.039 A 
ATOM     38  C   UNL A   1      37.286  28.811  29.726  1.00  0.00     0.014 A 
ATOM     39  C   UNL A   1      37.897  29.881  27.642  1.00  0.00     0.014 A 
ATOM     40  C   UNL A   1      38.543  28.214  29.791  1.00  0.00     0.010 A 
ATOM     41  C   UNL A   1      39.174  29.372  27.756  1.00  0.00     0.010 A 
ATOM     42  C   UNL A   1      39.517  28.596  28.868  1.00  0.00    -0.014 A 
BRANCH  42  43
ATOM     43  C   UNL A   1      40.938  28.309  29.032  1.00  0.00     0.031 A 
ATOM     44  C   UNL A   1      41.533  27.109  28.412  1.00  0.00     0.074 A 
ATOM     45  C   UNL A   1      41.716  29.203  29.679  1.00  0.00     0.049 A 
ATOM     46  N   UNL A   1      42.667  26.597  28.750  1.00  0.00    -0.248 NA
ATOM     47  C   UNL A   1      40.855  26.360  27.361  1.00  0.00     0.031 C 
ATOM     48  C   UNL A   1      43.175  29.239  29.739  1.00  0.00     0.029 A 
ATOM     49  N   UNL A   1      41.308  30.159  30.626  1.00  0.00    -0.354 N 
ATOM     50  C   UNL A   1      42.978  25.608  27.846  1.00  0.00     0.074 A 
ATOM     51  C   UNL A   1      41.802  25.483  27.015  1.00  0.00     0.031 C 
ATOM     52  C   UNL A   1      43.541  29.889  30.856  1.00  0.00     0.029 A 
ATOM     53  C   UNL A   1      42.330  30.165  31.607  1.00  0.00     0.049 A 
ATOM     54  H   UNL A   1      40.489  30.706  30.610  1.00  0.00     0.167 HD
ATOM     55  C   UNL A   1      44.232  25.069  27.851  1.00  0.00     0.037 A 
ATOM     56  C   UNL A   1      42.071  29.732  32.876  1.00  0.00     0.037 A 
ATOM     57  C   UNL A   1      45.022  25.578  28.970  1.00  0.00     0.049 A 
ATOM     58  C   UNL A   1      42.865  28.515  33.300  1.00  0.00     0.074 A 
ATOM     59  C   UNL A   1      45.941  26.604  29.122  1.00  0.00     0.029 A 
ATOM     60  N   UNL A   1      44.669  25.188  30.249  1.00  0.00    -0.354 N 
ATOM     61  N   UNL A   1      43.646  27.833  32.508  1.00  0.00    -0.248 NA
ATOM     62  C   UNL A   1      42.761  27.916  34.632  1.00  0.00     0.031 C 
ATOM     63  C   UNL A   1      46.088  26.862  30.515  1.00  0.00     0.029 A 
ATOM     64  C   UNL A   1      45.271  25.983  31.203  1.00  0.00     0.049 A 
ATOM     65  H   UNL A   1      44.066  24.437  30.454  1.00  0.00     0.167 HD
ATOM     66  C   UNL A   1      44.110  26.733  33.174  1.00  0.00     0.074 A 
ATOM     67  C   UNL A   1      43.529  26.821  34.499  1.00  0.00     0.031 C 
ATOM     68  C   UNL A   1      44.915  25.800  32.596  1.00  0.00     0.037 A 
BRANCH  55  69
ATOM     69  C   UNL A   1      44.814  24.232  26.736  1.00  0.00     0.064 A 
ATOM     70  C   UNL A   1      44.505  22.858  26.636  1.00  0.00     0.173 A 
ATOM     71  C   UNL A   1      45.712  24.705  25.762  1.00  0.00     0.173 A 
ATOM     72  F   UNL A   1      43.592  22.287  27.434  1.00  0.00    -0.203 F 
ATOM     73  C   UNL A   1      45.126  22.013  25.713  1.00  0.00     0.198 A 
ATOM     74  C   UNL A   1      46.381  23.850  24.879  1.00  0.00     0.198 A 
ATOM     75  F   UNL A   1      45.922  26.015  25.585  1.00  0.00    -0.203 F 
ATOM     76  F   UNL A   1      44.787  20.717  25.663  1.00  0.00    -0.200 F 
ATOM     77  C   UNL A   1      46.095  22.501  24.861  1.00  0.00     0.200 A 
ATOM     78  F   UNL A   1      47.301  24.350  24.041  1.00  0.00    -0.200 F 
ATOM     79  F   UNL A   1      46.726  21.684  24.007  1.00  0.00    -0.200 F 
ENDBRANCH  55  69
BRANCH  56  80
ATOM     80  C   UNL A   1      40.683  30.043  33.312  1.00  0.00     0.064 A 
ATOM     81  C   UNL A   1      40.335  31.393  33.521  1.00  0.00     0.173 A 
ATOM     82  C   UNL A   1      39.639  29.123  33.161  1.00  0.00     0.173 A 
ATOM     83  F   UNL A   1      41.296  32.317  33.680  1.00  0.00    -0.203 F 
ATOM     84  C   UNL A   1      39.013  31.822  33.435  1.00  0.00     0.198 A 
ATOM     85  C   UNL A   1      38.313  29.553  33.105  1.00  0.00     0.198 A 
ATOM     86  F   UNL A   1      39.902  27.826  32.947  1.00  0.00    -0.203 F 
ATOM     87  F   UNL A   1      38.729  33.130  33.501  1.00  0.00    -0.200 F 
ATOM     88  C   UNL A   1      38.006  30.903  33.198  1.00  0.00     0.200 A 
ATOM     89  F   UNL A   1      37.338  28.666  32.858  1.00  0.00    -0.200 F 
ATOM     90  F   UNL A   1      36.745  31.321  33.019  1.00  0.00    -0.200 F 
ENDBRANCH  56  80
BRANCH  68  91
ATOM     91  C   UNL A   1      45.441  24.626  33.351  1.00  0.00     0.064 A 
ATOM     92  C   UNL A   1      44.673  23.467  33.530  1.00  0.00     0.173 A 
ATOM     93  C   UNL A   1      46.681  24.679  34.014  1.00  0.00     0.173 A 
ATOM     94  F   UNL A   1      43.466  23.354  32.954  1.00  0.00    -0.203 F 
ATOM     95  C   UNL A   1      45.131  22.407  34.311  1.00  0.00     0.198 A 
ATOM     96  C   UNL A   1      47.117  23.638  34.829  1.00  0.00     0.198 A 
ATOM     97  F   UNL A   1      47.499  25.733  33.868  1.00  0.00    -0.203 F 
ATOM     98  F   UNL A   1      44.389  21.296  34.427  1.00  0.00    -0.200 F 
ATOM     99  C   UNL A   1      46.345  22.498  34.970  1.00  0.00     0.200 A 
ATOM    100  F   UNL A   1      48.288  23.741  35.471  1.00  0.00    -0.200 F 
ATOM    101  F   UNL A   1      46.775  21.487  35.737  1.00  0.00    -0.200 F 
ENDBRANCH  68  91
ENDBRANCH  42  43
ENDBRANCH  34  37
ENDBRANCH  32  33
ENDBRANCH  31  32
ENDBRANCH  30  31
ENDBRANCH   1  30
TORSDOF 16
ENDMDL
MODEL 3
REMARK VINA RESULT:     -14.2      3.375     10.147
REMARK SMILES Cc1ccccc1OC1(C(=O)NCCCCCCNC(=O)c2ccc(-c3c4nc(c(-c5c(F)c(F)c(F)c(F)c5F)c5ccc([nH]5)c(-c5c(F)c(F)c(F)c(F)c5F)c5nc(c(-c6c(F)c(F)c(F)c(F)c6F)c6ccc3[nH]6)C=C5)C=C4)cc2)CCN(C(=O)[C@H]2CCCCO2)CC1
REMARK SMILES IDX 15 1 14 2 13 3 12 4 10 5 11 6 9 8 85 9 97 10 86 11 96 12
REMARK SMILES IDX 87 13 88 14 89 15 8 16 7 17 1 18 2 19 3 20 4 21 6 22 5 23
REMARK SMILES IDX 90 24 91 25 95 26 92 27 94 28 93 29 16 30 17 31 18 32 19 33
REMARK SMILES IDX 20 34 21 36 22 37 23 38 84 39 24 40 83 41 25 42 26 43 27 44
REMARK SMILES IDX 77 45 28 46 82 47 76 48 78 49 29 50 81 51 75 52 74 53 30 55
REMARK SMILES IDX 62 56 42 57 61 58 43 59 46 60 60 61 79 62 44 63 45 64 59 66
REMARK SMILES IDX 80 67 47 68 31 69 32 70 40 71 33 72 34 73 38 74 41 75 35 76
REMARK SMILES IDX 36 77 39 78 37 79 63 80 64 81 72 82 65 83 66 84 70 85 73 86
REMARK SMILES IDX 67 87 68 88 71 89 69 90 48 91 49 92 57 93 50 94 51 95 55 96
REMARK SMILES IDX 58 97 52 98 53 99 56 100 54 101
REMARK H PARENT 12 7 19 35 78 54 46 65
REMARK Flexibility Score: inf
ROOT
ATOM      1  C   UNL A   1      36.829  23.144  24.392  1.00  0.00     0.002 C 
ENDROOT
BRANCH   1   2
ATOM      2  C   UNL A   1      35.620  23.647  25.192  1.00  0.00     0.021 C 
BRANCH   2   3
ATOM      3  C   UNL A   1      34.850  24.809  24.559  1.00  0.00     0.116 C 
BRANCH   3   4
ATOM      4  N   UNL A   1      34.404  24.526  23.214  1.00  0.00    -0.353 N 
ATOM      5  C   UNL A   1      33.241  24.801  22.550  1.00  0.00     0.264 C 
ATOM      6  O   UNL A   1      33.279  24.538  21.340  1.00  0.00    -0.270 OA
ATOM      7  H   UNL A   1      35.066  24.039  22.671  1.00  0.00     0.163 HD
BRANCH   5   8
ATOM      8  C   UNL A   1      31.950  25.399  23.248  1.00  0.00     0.190 C 
ATOM      9  C   UNL A   1      32.409  26.198  24.466  1.00  0.00     0.080 C 
ATOM     10  C   UNL A   1      31.098  26.083  22.175  1.00  0.00     0.080 C 
ATOM     11  C   UNL A   1      32.277  27.709  24.369  1.00  0.00     0.124 C 
ATOM     12  C   UNL A   1      30.813  27.576  22.326  1.00  0.00     0.124 C 
ATOM     13  N   UNL A   1      31.134  28.199  23.603  1.00  0.00    -0.340 N 
ATOM     14  C   UNL A   1      30.572  29.415  24.027  1.00  0.00     0.251 C 
ATOM     15  O   UNL A   1      31.032  30.005  25.010  1.00  0.00    -0.272 OA
BRANCH   8  16
ATOM     16  O   UNL A   1      31.311  24.169  23.692  1.00  0.00    -0.477 OA
BRANCH  16  17
ATOM     17  C   UNL A   1      31.758  23.036  24.297  1.00  0.00     0.123 A 
ATOM     18  C   UNL A   1      31.950  23.599  26.823  1.00  0.00     0.048 C 
ATOM     19  C   UNL A   1      32.045  22.713  25.630  1.00  0.00    -0.009 A 
ATOM     20  C   UNL A   1      32.570  21.432  25.941  1.00  0.00     0.007 A 
ATOM     21  C   UNL A   1      32.808  20.476  24.963  1.00  0.00     0.001 A 
ATOM     22  C   UNL A   1      32.011  22.045  23.326  1.00  0.00     0.047 A 
ATOM     23  C   UNL A   1      32.527  20.785  23.646  1.00  0.00     0.004 A 
ENDBRANCH  16  17
ENDBRANCH   8  16
BRANCH  14  24
ATOM     24  C   UNL A   1      29.350  29.990  23.258  1.00  0.00     0.207 C 
ATOM     25  C   UNL A   1      28.903  31.301  23.924  1.00  0.00     0.042 C 
ATOM     26  O   UNL A   1      29.742  30.216  21.898  1.00  0.00    -0.368 OA
ATOM     27  C   UNL A   1      27.899  32.076  23.079  1.00  0.00     0.006 C 
ATOM     28  C   UNL A   1      28.739  30.833  21.101  1.00  0.00     0.161 C 
ATOM     29  C   UNL A   1      28.397  32.207  21.649  1.00  0.00     0.029 C 
ENDBRANCH  14  24
ENDBRANCH   5   8
ENDBRANCH   3   4
ENDBRANCH   2   3
ENDBRANCH   1   2
BRANCH   1  30
ATOM     30  C   UNL A   1      37.255  21.682  24.622  1.00  0.00     0.002 C 
BRANCH  30  31
ATOM     31  C   UNL A   1      38.454  21.456  25.548  1.00  0.00     0.021 C 
BRANCH  31  32
ATOM     32  C   UNL A   1      38.937  22.706  26.271  1.00  0.00     0.116 C 
BRANCH  32  33
ATOM     33  N   UNL A   1      40.384  22.878  26.270  1.00  0.00    -0.352 N 
ATOM     34  C   UNL A   1      41.131  24.031  26.470  1.00  0.00     0.251 C 
ATOM     35  H   UNL A   1      40.906  22.060  26.105  1.00  0.00     0.163 HD
ATOM     36  O   UNL A   1      42.342  24.007  26.396  1.00  0.00    -0.269 OA
BRANCH  34  37
ATOM     37  C   UNL A   1      40.431  25.267  26.901  1.00  0.00     0.039 A 
ATOM     38  C   UNL A   1      40.747  26.463  26.246  1.00  0.00     0.014 A 
ATOM     39  C   UNL A   1      39.644  25.281  28.048  1.00  0.00     0.014 A 
ATOM     40  C   UNL A   1      40.483  27.676  26.878  1.00  0.00     0.010 A 
ATOM     41  C   UNL A   1      39.471  26.472  28.722  1.00  0.00     0.010 A 
ATOM     42  C   UNL A   1      39.955  27.661  28.169  1.00  0.00    -0.014 A 
BRANCH  42  43
ATOM     43  C   UNL A   1      39.951  28.824  29.050  1.00  0.00     0.031 A 
ATOM     44  C   UNL A   1      38.901  29.853  28.923  1.00  0.00     0.074 A 
ATOM     45  C   UNL A   1      40.865  28.897  30.041  1.00  0.00     0.049 A 
ATOM     46  N   UNL A   1      38.981  31.044  29.411  1.00  0.00    -0.248 NA
ATOM     47  C   UNL A   1      37.666  29.617  28.186  1.00  0.00     0.031 C 
ATOM     48  C   UNL A   1      40.888  29.824  31.169  1.00  0.00     0.029 A 
ATOM     49  N   UNL A   1      42.118  28.260  30.092  1.00  0.00    -0.354 N 
ATOM     50  C   UNL A   1      37.758  31.655  29.256  1.00  0.00     0.074 A 
ATOM     51  C   UNL A   1      36.980  30.731  28.462  1.00  0.00     0.031 C 
ATOM     52  C   UNL A   1      42.156  29.952  31.593  1.00  0.00     0.029 A 
ATOM     53  C   UNL A   1      42.994  29.217  30.663  1.00  0.00     0.049 A 
ATOM     54  H   UNL A   1      42.339  27.348  29.796  1.00  0.00     0.167 HD
ATOM     55  C   UNL A   1      37.517  32.838  29.894  1.00  0.00     0.037 A 
ATOM     56  C   UNL A   1      44.009  29.752  29.922  1.00  0.00     0.037 A 
ATOM     57  C   UNL A   1      38.719  33.336  30.557  1.00  0.00     0.049 A 
ATOM     58  C   UNL A   1      43.910  31.247  29.705  1.00  0.00     0.074 A 
ATOM     59  C   UNL A   1      39.222  33.251  31.845  1.00  0.00     0.029 A 
ATOM     60  N   UNL A   1      39.763  33.784  29.767  1.00  0.00    -0.354 N 
ATOM     61  N   UNL A   1      42.893  31.978  30.070  1.00  0.00    -0.248 NA
ATOM     62  C   UNL A   1      44.915  32.017  28.969  1.00  0.00     0.031 C 
ATOM     63  C   UNL A   1      40.603  33.600  31.804  1.00  0.00     0.029 A 
ATOM     64  C   UNL A   1      40.929  33.908  30.496  1.00  0.00     0.049 A 
ATOM     65  H   UNL A   1      39.685  33.988  28.808  1.00  0.00     0.167 HD
ATOM     66  C   UNL A   1      43.073  33.255  29.618  1.00  0.00     0.074 A 
ATOM     67  C   UNL A   1      44.349  33.236  28.931  1.00  0.00     0.031 C 
ATOM     68  C   UNL A   1      42.157  34.245  29.803  1.00  0.00     0.037 A 
BRANCH  55  69
ATOM     69  C   UNL A   1      36.149  33.449  30.084  1.00  0.00     0.064 A 
ATOM     70  C   UNL A   1      35.421  33.936  28.977  1.00  0.00     0.173 A 
ATOM     71  C   UNL A   1      35.515  33.626  31.327  1.00  0.00     0.173 A 
ATOM     72  F   UNL A   1      35.854  33.753  27.721  1.00  0.00    -0.203 F 
ATOM     73  C   UNL A   1      34.220  34.636  29.116  1.00  0.00     0.198 A 
ATOM     74  C   UNL A   1      34.346  34.380  31.474  1.00  0.00     0.198 A 
ATOM     75  F   UNL A   1      35.966  33.020  32.433  1.00  0.00    -0.203 F 
ATOM     76  F   UNL A   1      33.573  35.070  28.025  1.00  0.00    -0.200 F 
ATOM     77  C   UNL A   1      33.703  34.894  30.368  1.00  0.00     0.200 A 
ATOM     78  F   UNL A   1      33.845  34.597  32.699  1.00  0.00    -0.200 F 
ATOM     79  F   UNL A   1      32.576  35.605  30.506  1.00  0.00    -0.200 F 
ENDBRANCH  55  69
BRANCH  56  80
ATOM     80  C   UNL A   1      44.575  28.782  28.946  1.00  0.00     0.064 A 
ATOM     81  C   UNL A   1      45.397  27.747  29.435  1.00  0.00     0.173 A 
ATOM     82  C   UNL A   1      44.038  28.629  27.663  1.00  0.00     0.173 A 
ATOM     83  F   UNL A   1      45.944  27.844  30.657  1.00  0.00    -0.203 F 
ATOM     84  C   UNL A   1      45.555  26.554  28.733  1.00  0.00     0.198 A 
ATOM     85  C   UNL A   1      44.223  27.444  26.950  1.00  0.00     0.198 A 
ATOM     86  F   UNL A   1      43.238  29.572  27.144  1.00  0.00    -0.203 F 
ATOM     87  F   UNL A   1      46.231  25.537  29.286  1.00  0.00    -0.200 F 
ATOM     88  C   UNL A   1      44.943  26.394  27.502  1.00  0.00     0.200 A 
ATOM     89  F   UNL A   1      43.616  27.282  25.765  1.00  0.00    -0.200 F 
ATOM     90  F   UNL A   1      45.012  25.216  26.867  1.00  0.00    -0.200 F 
ENDBRANCH  56  80
BRANCH  68  91
ATOM     91  C   UNL A   1      42.389  35.642  29.333  1.00  0.00     0.064 A 
ATOM     92  C   UNL A   1      41.855  36.104  28.122  1.00  0.00     0.173 A 
ATOM     93  C   UNL A   1      43.248  36.513  30.026  1.00  0.00     0.173 A 
ATOM     94  F   UNL A   1      41.050  35.320  27.388  1.00  0.00    -0.203 F 
ATOM     95  C   UNL A   1      42.147  37.380  27.642  1.00  0.00     0.198 A 
ATOM     96  C   UNL A   1      43.573  37.770  29.524  1.00  0.00     0.198 A 
ATOM     97  F   UNL A   1      43.774  36.167  31.212  1.00  0.00    -0.203 F 
ATOM     98  F   UNL A   1      41.586  37.807  26.501  1.00  0.00    -0.200 F 
ATOM     99  C   UNL A   1      43.015  38.206  28.335  1.00  0.00     0.200 A 
ATOM    100  F   UNL A   1      44.424  38.556  30.196  1.00  0.00    -0.200 F 
ATOM    101  F   UNL A   1      43.312  39.424  27.863  1.00  0.00    -0.200 F 
ENDBRANCH  68  91
ENDBRANCH  42  43
ENDBRANCH  34  37
ENDBRANCH  32  33
ENDBRANCH  31  32
ENDBRANCH  30  31
ENDBRANCH   1  30
TORSDOF 16
ENDMDL
