MODEL 1
REMARK VINA RESULT:     -12.5      0.000      0.000
REMARK SMILES Cc1cc(C(=O)NCCCCCCNC(=O)c2ccc(-c3c4nc(c(-c5c(F)c(F)c(F)c(F)c5F)c5ccc([nH]5)c(-c5c(F)c(F)c(F)c(F)c5F)c5nc(c(-c6c(F)c(F)c(F)c(F)c6F)c6ccc3[nH]6)C=C5)C=C4)cc2)nc(N2CCN(c3ccccc3Cl)CC2)n1
REMARK SMILES IDX 10 1 9 2 8 3 7 4 5 5 6 6 4 8 1 9 2 10 3 11 95 12 81 13 80 14
REMARK SMILES IDX 82 15 83 16 94 17 84 18 93 19 85 20 86 21 87 22 91 23 88 24
REMARK SMILES IDX 90 25 92 26 89 27 11 28 12 29 13 30 14 31 15 32 16 34 17 35
REMARK SMILES IDX 18 36 79 37 19 38 78 39 20 40 21 41 22 42 72 43 23 44 77 45
REMARK SMILES IDX 71 46 73 47 24 48 76 49 70 50 69 51 25 53 57 54 37 55 56 56
REMARK SMILES IDX 38 57 41 58 55 59 74 60 39 61 40 62 54 64 75 65 42 66 26 67
REMARK SMILES IDX 27 68 35 69 28 70 29 71 33 72 36 73 30 74 31 75 34 76 32 77
REMARK SMILES IDX 58 78 59 79 67 80 60 81 61 82 65 83 68 84 62 85 63 86 66 87
REMARK SMILES IDX 64 88 43 89 44 90 52 91 45 92 46 93 50 94 53 95 47 96 48 97
REMARK SMILES IDX 51 98 49 99
REMARK H PARENT 7 7 14 33 73 52 41 63
REMARK Flexibility Score: inf
ROOT
ATOM      1  C   UNL A   1      35.066  32.536  28.357  1.00  0.00     0.002 C 
ENDROOT
BRANCH   1   2
ATOM      2  C   UNL A   1      33.715  31.851  28.104  1.00  0.00     0.021 C 
BRANCH   2   3
ATOM      3  C   UNL A   1      33.849  30.601  27.234  1.00  0.00     0.116 C 
BRANCH   3   4
ATOM      4  N   UNL A   1      32.965  29.582  27.741  1.00  0.00    -0.351 N 
ATOM      5  C   UNL A   1      32.386  28.478  27.168  1.00  0.00     0.270 C 
ATOM      6  O   UNL A   1      31.525  27.912  27.847  1.00  0.00    -0.268 OA
ATOM      7  H   UNL A   1      32.727  29.702  28.689  1.00  0.00     0.163 HD
BRANCH   5   8
ATOM      8  C   UNL A   1      32.790  27.905  25.840  1.00  0.00     0.133 A 
ATOM      9  C   UNL A   1      34.100  28.530  22.404  1.00  0.00     0.067 C 
ATOM     10  C   UNL A   1      33.630  27.862  23.662  1.00  0.00     0.044 A 
ATOM     11  C   UNL A   1      33.115  28.606  24.706  1.00  0.00     0.058 A 
ATOM     12  N   UNL A   1      33.705  26.514  23.699  1.00  0.00    -0.218 NA
ATOM     13  C   UNL A   1      33.227  25.904  24.788  1.00  0.00     0.226 A 
ATOM     14  N   UNL A   1      32.812  26.564  25.866  1.00  0.00    -0.208 NA
BRANCH  13  15
ATOM     15  N   UNL A   1      33.085  24.544  24.840  1.00  0.00    -0.337 N 
ATOM     16  C   UNL A   1      33.579  23.784  25.983  1.00  0.00     0.141 C 
ATOM     17  C   UNL A   1      33.211  23.896  23.524  1.00  0.00     0.141 C 
ATOM     18  C   UNL A   1      32.894  22.391  26.007  1.00  0.00     0.138 C 
ATOM     19  C   UNL A   1      32.573  22.498  23.540  1.00  0.00     0.138 C 
ATOM     20  N   UNL A   1      33.055  21.740  24.701  1.00  0.00    -0.367 N 
BRANCH  20  21
ATOM     21  C   UNL A   1      33.370  20.405  24.580  1.00  0.00     0.056 A 
ATOM     22  C   UNL A   1      32.371  19.472  24.267  1.00  0.00     0.027 A 
ATOM     23  C   UNL A   1      34.681  19.916  24.771  1.00  0.00     0.064 A 
ATOM     24  C   UNL A   1      32.659  18.110  24.145  1.00  0.00     0.002 A 
ATOM     25  C   UNL A   1      34.970  18.552  24.658  1.00  0.00     0.023 A 
ATOM     26  Cl  UNL A   1      35.989  20.959  25.230  1.00  0.00    -0.082 Cl
ATOM     27  C   UNL A   1      33.958  17.650  24.344  1.00  0.00     0.002 A 
ENDBRANCH  20  21
ENDBRANCH  13  15
ENDBRANCH   5   8
ENDBRANCH   3   4
ENDBRANCH   2   3
ENDBRANCH   1   2
BRANCH   1  28
ATOM     28  C   UNL A   1      34.962  34.011  28.764  1.00  0.00     0.002 C 
BRANCH  28  29
ATOM     29  C   UNL A   1      33.544  34.480  29.097  1.00  0.00     0.021 C 
BRANCH  29  30
ATOM     30  C   UNL A   1      33.445  35.966  29.418  1.00  0.00     0.116 C 
BRANCH  30  31
ATOM     31  N   UNL A   1      32.572  36.206  30.555  1.00  0.00    -0.352 N 
ATOM     32  C   UNL A   1      32.627  35.673  31.817  1.00  0.00     0.251 C 
ATOM     33  H   UNL A   1      31.837  36.842  30.397  1.00  0.00     0.163 HD
ATOM     34  O   UNL A   1      31.678  35.787  32.583  1.00  0.00    -0.269 OA
BRANCH  32  35
ATOM     35  C   UNL A   1      33.840  34.947  32.249  1.00  0.00     0.039 A 
ATOM     36  C   UNL A   1      33.729  33.605  32.619  1.00  0.00     0.014 A 
ATOM     37  C   UNL A   1      35.077  35.597  32.308  1.00  0.00     0.014 A 
ATOM     38  C   UNL A   1      34.870  32.898  33.003  1.00  0.00     0.010 A 
ATOM     39  C   UNL A   1      36.222  34.875  32.624  1.00  0.00     0.010 A 
ATOM     40  C   UNL A   1      36.130  33.521  32.982  1.00  0.00    -0.014 A 
BRANCH  40  41
ATOM     41  C   UNL A   1      37.360  32.776  33.344  1.00  0.00     0.031 A 
ATOM     42  C   UNL A   1      38.080  33.087  34.627  1.00  0.00     0.074 A 
ATOM     43  C   UNL A   1      37.862  31.866  32.487  1.00  0.00     0.049 A 
ATOM     44  N   UNL A   1      39.204  32.598  35.084  1.00  0.00    -0.248 NA
ATOM     45  C   UNL A   1      37.468  34.102  35.499  1.00  0.00     0.031 C 
ATOM     46  C   UNL A   1      37.276  31.509  31.194  1.00  0.00     0.029 A 
ATOM     47  N   UNL A   1      38.984  31.081  32.570  1.00  0.00    -0.354 N 
ATOM     48  C   UNL A   1      39.442  33.257  36.283  1.00  0.00     0.074 A 
ATOM     49  C   UNL A   1      38.371  34.213  36.461  1.00  0.00     0.031 C 
ATOM     50  C   UNL A   1      38.032  30.562  30.615  1.00  0.00     0.029 A 
ATOM     51  C   UNL A   1      39.173  30.272  31.477  1.00  0.00     0.049 A 
ATOM     52  H   UNL A   1      39.595  31.096  33.342  1.00  0.00     0.167 HD
ATOM     53  C   UNL A   1      40.449  33.063  37.167  1.00  0.00     0.037 A 
ATOM     54  C   UNL A   1      40.161  29.401  31.200  1.00  0.00     0.037 A 
ATOM     55  C   UNL A   1      41.494  32.086  37.001  1.00  0.00     0.049 A 
ATOM     56  C   UNL A   1      41.270  29.208  32.199  1.00  0.00     0.074 A 
ATOM     57  C   UNL A   1      42.522  31.765  37.870  1.00  0.00     0.029 A 
ATOM     58  N   UNL A   1      41.642  31.271  35.888  1.00  0.00    -0.354 N 
ATOM     59  N   UNL A   1      41.446  29.784  33.363  1.00  0.00    -0.248 NA
ATOM     60  C   UNL A   1      42.316  28.237  31.848  1.00  0.00     0.031 C 
ATOM     61  C   UNL A   1      43.320  30.791  37.264  1.00  0.00     0.029 A 
ATOM     62  C   UNL A   1      42.758  30.465  36.038  1.00  0.00     0.049 A 
ATOM     63  H   UNL A   1      41.042  31.267  35.107  1.00  0.00     0.167 HD
ATOM     64  C   UNL A   1      42.599  29.226  33.896  1.00  0.00     0.074 A 
ATOM     65  C   UNL A   1      43.074  28.254  32.934  1.00  0.00     0.031 C 
ATOM     66  C   UNL A   1      43.210  29.494  35.076  1.00  0.00     0.037 A 
BRANCH  53  67
ATOM     67  C   UNL A   1      40.473  33.921  38.398  1.00  0.00     0.064 A 
ATOM     68  C   UNL A   1      41.197  35.123  38.444  1.00  0.00     0.173 A 
ATOM     69  C   UNL A   1      39.724  33.565  39.530  1.00  0.00     0.173 A 
ATOM     70  F   UNL A   1      41.938  35.504  37.393  1.00  0.00    -0.203 F 
ATOM     71  C   UNL A   1      41.190  35.921  39.585  1.00  0.00     0.198 A 
ATOM     72  C   UNL A   1      39.695  34.380  40.658  1.00  0.00     0.198 A 
ATOM     73  F   UNL A   1      39.009  32.429  39.537  1.00  0.00    -0.203 F 
ATOM     74  F   UNL A   1      41.924  37.041  39.621  1.00  0.00    -0.200 F 
ATOM     75  C   UNL A   1      40.433  35.554  40.688  1.00  0.00     0.200 A 
ATOM     76  F   UNL A   1      38.952  34.030  41.716  1.00  0.00    -0.200 F 
ATOM     77  F   UNL A   1      40.418  36.329  41.781  1.00  0.00    -0.200 F 
ENDBRANCH  53  67
BRANCH  54  78
ATOM     78  C   UNL A   1      40.137  28.625  29.932  1.00  0.00     0.064 A 
ATOM     79  C   UNL A   1      39.484  27.387  29.859  1.00  0.00     0.173 A 
ATOM     80  C   UNL A   1      40.776  29.094  28.775  1.00  0.00     0.173 A 
ATOM     81  F   UNL A   1      38.876  26.887  30.945  1.00  0.00    -0.203 F 
ATOM     82  C   UNL A   1      39.493  26.635  28.686  1.00  0.00     0.198 A 
ATOM     83  C   UNL A   1      40.759  28.356  27.594  1.00  0.00     0.198 A 
ATOM     84  F   UNL A   1      41.411  30.276  28.790  1.00  0.00    -0.203 F 
ATOM     85  F   UNL A   1      38.904  25.433  28.660  1.00  0.00    -0.200 F 
ATOM     86  C   UNL A   1      40.125  27.122  27.553  1.00  0.00     0.200 A 
ATOM     87  F   UNL A   1      41.359  28.837  26.497  1.00  0.00    -0.200 F 
ATOM     88  F   UNL A   1      40.133  26.400  26.425  1.00  0.00    -0.200 F 
ENDBRANCH  54  78
BRANCH  66  89
ATOM     89  C   UNL A   1      44.436  28.696  35.412  1.00  0.00     0.064 A 
ATOM     90  C   UNL A   1      44.360  27.501  36.142  1.00  0.00     0.173 A 
ATOM     91  C   UNL A   1      45.699  29.114  34.965  1.00  0.00     0.173 A 
ATOM     92  F   UNL A   1      43.178  27.068  36.607  1.00  0.00    -0.203 F 
ATOM     93  C   UNL A   1      45.506  26.766  36.433  1.00  0.00     0.198 A 
ATOM     94  C   UNL A   1      46.838  28.361  35.231  1.00  0.00     0.198 A 
ATOM     95  F   UNL A   1      45.825  30.246  34.256  1.00  0.00    -0.203 F 
ATOM     96  F   UNL A   1      45.416  25.653  37.174  1.00  0.00    -0.200 F 
ATOM     97  C   UNL A   1      46.742  27.192  35.971  1.00  0.00     0.200 A 
ATOM     98  F   UNL A   1      48.030  28.766  34.770  1.00  0.00    -0.200 F 
ATOM     99  F   UNL A   1      47.843  26.479  36.245  1.00  0.00    -0.200 F 
ENDBRANCH  66  89
ENDBRANCH  40  41
ENDBRANCH  32  35
ENDBRANCH  30  31
ENDBRANCH  29  30
ENDBRANCH  28  29
ENDBRANCH   1  28
TORSDOF 15
ENDMDL
MODEL 2
REMARK VINA RESULT:     -12.4      4.727      8.726
REMARK SMILES Cc1cc(C(=O)NCCCCCCNC(=O)c2ccc(-c3c4nc(c(-c5c(F)c(F)c(F)c(F)c5F)c5ccc([nH]5)c(-c5c(F)c(F)c(F)c(F)c5F)c5nc(c(-c6c(F)c(F)c(F)c(F)c6F)c6ccc3[nH]6)C=C5)C=C4)cc2)nc(N2CCN(c3ccccc3Cl)CC2)n1
REMARK SMILES IDX 10 1 9 2 8 3 7 4 5 5 6 6 4 8 1 9 2 10 3 11 95 12 81 13 80 14
REMARK SMILES IDX 82 15 83 16 94 17 84 18 93 19 85 20 86 21 87 22 91 23 88 24
REMARK SMILES IDX 90 25 92 26 89 27 11 28 12 29 13 30 14 31 15 32 16 34 17 35
REMARK SMILES IDX 18 36 79 37 19 38 78 39 20 40 21 41 22 42 72 43 23 44 77 45
REMARK SMILES IDX 71 46 73 47 24 48 76 49 70 50 69 51 25 53 57 54 37 55 56 56
REMARK SMILES IDX 38 57 41 58 55 59 74 60 39 61 40 62 54 64 75 65 42 66 26 67
REMARK SMILES IDX 27 68 35 69 28 70 29 71 33 72 36 73 30 74 31 75 34 76 32 77
REMARK SMILES IDX 58 78 59 79 67 80 60 81 61 82 65 83 68 84 62 85 63 86 66 87
REMARK SMILES IDX 64 88 43 89 44 90 52 91 45 92 46 93 50 94 53 95 47 96 48 97
REMARK SMILES IDX 51 98 49 99
REMARK H PARENT 7 7 14 33 73 52 41 63
REMARK Flexibility Score: inf
ROOT
ATOM      1  C   UNL A   1      37.426  33.344  28.987  1.00  0.00     0.002 C 
ENDROOT
BRANCH   1   2
ATOM      2  C   UNL A   1      38.588  34.157  29.579  1.00  0.00     0.021 C 
BRANCH   2   3
ATOM      3  C   UNL A   1      38.382  34.476  31.059  1.00  0.00     0.116 C 
BRANCH   3   4
ATOM      4  N   UNL A   1      37.348  33.618  31.583  1.00  0.00    -0.351 N 
ATOM      5  C   UNL A   1      37.301  32.758  32.650  1.00  0.00     0.270 C 
ATOM      6  O   UNL A   1      36.305  32.032  32.708  1.00  0.00    -0.268 OA
ATOM      7  H   UNL A   1      36.509  33.655  31.070  1.00  0.00     0.163 HD
BRANCH   5   8
ATOM      8  C   UNL A   1      38.324  32.716  33.748  1.00  0.00     0.133 A 
ATOM      9  C   UNL A   1      39.771  34.349  36.774  1.00  0.00     0.067 C 
ATOM     10  C   UNL A   1      39.460  33.370  35.681  1.00  0.00     0.044 A 
ATOM     11  C   UNL A   1      38.605  33.711  34.651  1.00  0.00     0.058 A 
ATOM     12  N   UNL A   1      40.081  32.173  35.741  1.00  0.00    -0.218 NA
ATOM     13  C   UNL A   1      39.864  31.318  34.737  1.00  0.00     0.226 A 
ATOM     14  N   UNL A   1      38.978  31.545  33.772  1.00  0.00    -0.208 NA
BRANCH  13  15
ATOM     15  N   UNL A   1      40.589  30.165  34.611  1.00  0.00    -0.337 N 
ATOM     16  C   UNL A   1      40.256  29.180  33.587  1.00  0.00     0.141 C 
ATOM     17  C   UNL A   1      41.059  29.630  35.900  1.00  0.00     0.141 C 
ATOM     18  C   UNL A   1      41.473  28.242  33.364  1.00  0.00     0.138 C 
ATOM     19  C   UNL A   1      42.238  28.667  35.695  1.00  0.00     0.138 C 
ATOM     20  N   UNL A   1      41.911  27.687  34.651  1.00  0.00    -0.367 N 
BRANCH  20  21
ATOM     21  C   UNL A   1      42.266  26.365  34.798  1.00  0.00     0.056 A 
ATOM     22  C   UNL A   1      41.416  25.480  35.477  1.00  0.00     0.027 A 
ATOM     23  C   UNL A   1      43.479  25.846  34.295  1.00  0.00     0.064 A 
ATOM     24  C   UNL A   1      41.753  24.135  35.648  1.00  0.00     0.002 A 
ATOM     25  C   UNL A   1      43.822  24.502  34.472  1.00  0.00     0.023 A 
ATOM     26  Cl  UNL A   1      44.645  26.854  33.498  1.00  0.00    -0.082 Cl
ATOM     27  C   UNL A   1      42.957  23.647  35.149  1.00  0.00     0.002 A 
ENDBRANCH  20  21
ENDBRANCH  13  15
ENDBRANCH   5   8
ENDBRANCH   3   4
ENDBRANCH   2   3
ENDBRANCH   1   2
BRANCH   1  28
ATOM     28  C   UNL A   1      36.268  34.194  28.450  1.00  0.00     0.002 C 
BRANCH  28  29
ATOM     29  C   UNL A   1      35.023  33.395  28.057  1.00  0.00     0.021 C 
BRANCH  29  30
ATOM     30  C   UNL A   1      34.582  32.383  29.108  1.00  0.00     0.116 C 
BRANCH  30  31
ATOM     31  N   UNL A   1      33.977  31.212  28.496  1.00  0.00    -0.352 N 
ATOM     32  C   UNL A   1      34.581  30.083  28.004  1.00  0.00     0.251 C 
ATOM     33  H   UNL A   1      32.996  31.232  28.424  1.00  0.00     0.163 HD
ATOM     34  O   UNL A   1      33.955  29.299  27.301  1.00  0.00    -0.269 OA
BRANCH  32  35
ATOM     35  C   UNL A   1      36.000  29.818  28.322  1.00  0.00     0.039 A 
ATOM     36  C   UNL A   1      36.330  29.328  29.587  1.00  0.00     0.014 A 
ATOM     37  C   UNL A   1      37.001  30.073  27.379  1.00  0.00     0.014 A 
ATOM     38  C   UNL A   1      37.663  29.046  29.892  1.00  0.00     0.010 A 
ATOM     39  C   UNL A   1      38.319  29.728  27.660  1.00  0.00     0.010 A 
ATOM     40  C   UNL A   1      38.664  29.219  28.921  1.00  0.00    -0.014 A 
BRANCH  40  41
ATOM     41  C   UNL A   1      40.079  28.884  29.211  1.00  0.00     0.031 A 
ATOM     42  C   UNL A   1      40.943  29.852  29.970  1.00  0.00     0.074 A 
ATOM     43  C   UNL A   1      40.601  27.737  28.734  1.00  0.00     0.049 A 
ATOM     44  N   UNL A   1      42.217  29.774  30.259  1.00  0.00    -0.248 NA
ATOM     45  C   UNL A   1      40.294  31.085  30.444  1.00  0.00     0.031 C 
ATOM     46  C   UNL A   1      39.874  26.739  27.949  1.00  0.00     0.029 A 
ATOM     47  N   UNL A   1      41.869  27.222  28.834  1.00  0.00    -0.354 N 
ATOM     48  C   UNL A   1      42.524  30.950  30.931  1.00  0.00     0.074 A 
ATOM     49  C   UNL A   1      41.317  31.746  30.965  1.00  0.00     0.031 C 
ATOM     50  C   UNL A   1      40.702  25.723  27.655  1.00  0.00     0.029 A 
ATOM     51  C   UNL A   1      42.024  26.014  28.199  1.00  0.00     0.049 A 
ATOM     52  H   UNL A   1      42.598  27.675  29.316  1.00  0.00     0.167 HD
ATOM     53  C   UNL A   1      43.701  31.320  31.489  1.00  0.00     0.037 A 
ATOM     54  C   UNL A   1      43.114  25.235  28.065  1.00  0.00     0.037 A 
ATOM     55  C   UNL A   1      44.890  30.509  31.480  1.00  0.00     0.049 A 
ATOM     56  C   UNL A   1      44.410  25.673  28.693  1.00  0.00     0.074 A 
ATOM     57  C   UNL A   1      46.113  30.764  32.075  1.00  0.00     0.029 A 
ATOM     58  N   UNL A   1      45.004  29.282  30.842  1.00  0.00    -0.354 N 
ATOM     59  N   UNL A   1      44.670  26.753  29.387  1.00  0.00    -0.248 NA
ATOM     60  C   UNL A   1      45.563  24.777  28.523  1.00  0.00     0.031 C 
ATOM     61  C   UNL A   1      46.982  29.715  31.758  1.00  0.00     0.029 A 
ATOM     62  C   UNL A   1      46.284  28.780  31.010  1.00  0.00     0.049 A 
ATOM     63  H   UNL A   1      44.281  28.835  30.344  1.00  0.00     0.167 HD
ATOM     64  C   UNL A   1      46.002  26.654  29.763  1.00  0.00     0.074 A 
ATOM     65  C   UNL A   1      46.493  25.400  29.232  1.00  0.00     0.031 C 
ATOM     66  C   UNL A   1      46.752  27.523  30.484  1.00  0.00     0.037 A 
BRANCH  53  67
ATOM     67  C   UNL A   1      43.764  32.661  32.160  1.00  0.00     0.064 A 
ATOM     68  C   UNL A   1      44.080  33.827  31.446  1.00  0.00     0.173 A 
ATOM     69  C   UNL A   1      43.458  32.790  33.523  1.00  0.00     0.173 A 
ATOM     70  F   UNL A   1      44.391  33.758  30.144  1.00  0.00    -0.203 F 
ATOM     71  C   UNL A   1      44.111  35.069  32.078  1.00  0.00     0.198 A 
ATOM     72  C   UNL A   1      43.460  34.036  34.145  1.00  0.00     0.198 A 
ATOM     73  F   UNL A   1      43.143  31.708  34.251  1.00  0.00    -0.203 F 
ATOM     74  F   UNL A   1      44.459  36.162  31.386  1.00  0.00    -0.200 F 
ATOM     75  C   UNL A   1      43.793  35.173  33.424  1.00  0.00     0.200 A 
ATOM     76  F   UNL A   1      43.140  34.137  35.441  1.00  0.00    -0.200 F 
ATOM     77  F   UNL A   1      43.813  36.369  34.027  1.00  0.00    -0.200 F 
ENDBRANCH  53  67
BRANCH  54  78
ATOM     78  C   UNL A   1      43.024  23.948  27.326  1.00  0.00     0.064 A 
ATOM     79  C   UNL A   1      42.593  22.779  27.969  1.00  0.00     0.173 A 
ATOM     80  C   UNL A   1      43.379  23.855  25.972  1.00  0.00     0.173 A 
ATOM     81  F   UNL A   1      42.262  22.813  29.268  1.00  0.00    -0.203 F 
ATOM     82  C   UNL A   1      42.546  21.561  27.294  1.00  0.00     0.198 A 
ATOM     83  C   UNL A   1      43.303  22.642  25.290  1.00  0.00     0.198 A 
ATOM     84  F   UNL A   1      43.793  24.945  25.310  1.00  0.00    -0.203 F 
ATOM     85  F   UNL A   1      42.179  20.450  27.946  1.00  0.00    -0.200 F 
ATOM     86  C   UNL A   1      42.895  21.495  25.954  1.00  0.00     0.200 A 
ATOM     87  F   UNL A   1      43.627  22.586  23.992  1.00  0.00    -0.200 F 
ATOM     88  F   UNL A   1      42.849  20.324  25.304  1.00  0.00    -0.200 F 
ENDBRANCH  54  78
BRANCH  66  89
ATOM     89  C   UNL A   1      48.171  27.130  30.776  1.00  0.00     0.064 A 
ATOM     90  C   UNL A   1      48.495  26.284  31.846  1.00  0.00     0.173 A 
ATOM     91  C   UNL A   1      49.215  27.575  29.950  1.00  0.00     0.173 A 
ATOM     92  F   UNL A   1      47.535  25.845  32.675  1.00  0.00    -0.203 F 
ATOM     93  C   UNL A   1      49.815  25.918  32.094  1.00  0.00     0.198 A 
ATOM     94  C   UNL A   1      50.529  27.182  30.182  1.00  0.00     0.198 A 
ATOM     95  F   UNL A   1      48.956  28.380  28.908  1.00  0.00    -0.203 F 
ATOM     96  F   UNL A   1      50.108  25.149  33.151  1.00  0.00    -0.200 F 
ATOM     97  C   UNL A   1      50.829  26.360  31.258  1.00  0.00     0.200 A 
ATOM     98  F   UNL A   1      51.505  27.598  29.364  1.00  0.00    -0.200 F 
ATOM     99  F   UNL A   1      52.098  26.000  31.494  1.00  0.00    -0.200 F 
ENDBRANCH  66  89
ENDBRANCH  40  41
ENDBRANCH  32  35
ENDBRANCH  30  31
ENDBRANCH  29  30
ENDBRANCH  28  29
ENDBRANCH   1  28
TORSDOF 15
ENDMDL
MODEL 3
REMARK VINA RESULT:     -12.4      1.281      2.139
REMARK SMILES Cc1cc(C(=O)NCCCCCCNC(=O)c2ccc(-c3c4nc(c(-c5c(F)c(F)c(F)c(F)c5F)c5ccc([nH]5)c(-c5c(F)c(F)c(F)c(F)c5F)c5nc(c(-c6c(F)c(F)c(F)c(F)c6F)c6ccc3[nH]6)C=C5)C=C4)cc2)nc(N2CCN(c3ccccc3Cl)CC2)n1
REMARK SMILES IDX 10 1 9 2 8 3 7 4 5 5 6 6 4 8 1 9 2 10 3 11 95 12 81 13 80 14
REMARK SMILES IDX 82 15 83 16 94 17 84 18 93 19 85 20 86 21 87 22 91 23 88 24
REMARK SMILES IDX 90 25 92 26 89 27 11 28 12 29 13 30 14 31 15 32 16 34 17 35
REMARK SMILES IDX 18 36 79 37 19 38 78 39 20 40 21 41 22 42 72 43 23 44 77 45
REMARK SMILES IDX 71 46 73 47 24 48 76 49 70 50 69 51 25 53 57 54 37 55 56 56
REMARK SMILES IDX 38 57 41 58 55 59 74 60 39 61 40 62 54 64 75 65 42 66 26 67
REMARK SMILES IDX 27 68 35 69 28 70 29 71 33 72 36 73 30 74 31 75 34 76 32 77
REMARK SMILES IDX 58 78 59 79 67 80 60 81 61 82 65 83 68 84 62 85 63 86 66 87
REMARK SMILES IDX 64 88 43 89 44 90 52 91 45 92 46 93 50 94 53 95 47 96 48 97
REMARK SMILES IDX 51 98 49 99
REMARK H PARENT 7 7 14 33 73 52 41 63
REMARK Flexibility Score: inf
ROOT
ATOM      1  C   UNL A   1      34.826  31.853  28.545  1.00  0.00     0.002 C 
ENDROOT
BRANCH   1   2
ATOM      2  C   UNL A   1      34.894  30.607  27.649  1.00  0.00     0.021 C 
BRANCH   2   3
ATOM      3  C   UNL A   1      33.597  30.374  26.875  1.00  0.00     0.116 C 
BRANCH   3   4
ATOM      4  N   UNL A   1      32.736  29.519  27.654  1.00  0.00    -0.351 N 
ATOM      5  C   UNL A   1      31.851  28.528  27.315  1.00  0.00     0.270 C 
ATOM      6  O   UNL A   1      31.133  28.116  28.231  1.00  0.00    -0.268 OA
ATOM      7  H   UNL A   1      32.795  29.679  28.623  1.00  0.00     0.163 HD
BRANCH   5   8
ATOM      8  C   UNL A   1      31.771  27.894  25.956  1.00  0.00     0.133 A 
ATOM      9  C   UNL A   1      30.658  28.172  22.407  1.00  0.00     0.067 C 
ATOM     10  C   UNL A   1      31.300  27.699  23.678  1.00  0.00     0.044 A 
ATOM     11  C   UNL A   1      31.073  28.358  24.870  1.00  0.00     0.058 A 
ATOM     12  N   UNL A   1      32.068  26.592  23.595  1.00  0.00    -0.218 NA
ATOM     13  C   UNL A   1      32.590  26.123  24.733  1.00  0.00     0.226 A 
ATOM     14  N   UNL A   1      32.493  26.764  25.894  1.00  0.00    -0.208 NA
BRANCH  13  15
ATOM     15  N   UNL A   1      33.220  24.909  24.782  1.00  0.00    -0.337 N 
ATOM     16  C   UNL A   1      33.566  24.298  26.061  1.00  0.00     0.141 C 
ATOM     17  C   UNL A   1      34.179  24.707  23.683  1.00  0.00     0.141 C 
ATOM     18  C   UNL A   1      33.825  22.782  25.851  1.00  0.00     0.138 C 
ATOM     19  C   UNL A   1      34.479  23.213  23.487  1.00  0.00     0.138 C 
ATOM     20  N   UNL A   1      34.808  22.593  24.777  1.00  0.00    -0.367 N 
BRANCH  20  21
ATOM     21  C   UNL A   1      35.828  21.673  24.868  1.00  0.00     0.056 A 
ATOM     22  C   UNL A   1      35.552  20.303  24.748  1.00  0.00     0.027 A 
ATOM     23  C   UNL A   1      37.170  22.050  25.093  1.00  0.00     0.064 A 
ATOM     24  C   UNL A   1      36.565  19.345  24.844  1.00  0.00     0.002 A 
ATOM     25  C   UNL A   1      38.184  21.092  25.197  1.00  0.00     0.023 A 
ATOM     26  Cl  UNL A   1      37.629  23.706  25.327  1.00  0.00    -0.082 Cl
ATOM     27  C   UNL A   1      37.881  19.739  25.072  1.00  0.00     0.002 A 
ENDBRANCH  20  21
ENDBRANCH  13  15
ENDBRANCH   5   8
ENDBRANCH   3   4
ENDBRANCH   2   3
ENDBRANCH   1   2
BRANCH   1  28
ATOM     28  C   UNL A   1      35.456  33.110  27.932  1.00  0.00     0.002 C 
BRANCH  28  29
ATOM     29  C   UNL A   1      34.539  34.336  27.916  1.00  0.00     0.021 C 
BRANCH  29  30
ATOM     30  C   UNL A   1      33.145  34.072  28.472  1.00  0.00     0.116 C 
BRANCH  30  31
ATOM     31  N   UNL A   1      32.755  35.090  29.433  1.00  0.00    -0.352 N 
ATOM     32  C   UNL A   1      33.165  35.257  30.731  1.00  0.00     0.251 C 
ATOM     33  H   UNL A   1      32.106  35.754  29.106  1.00  0.00     0.163 HD
ATOM     34  O   UNL A   1      32.560  36.013  31.481  1.00  0.00    -0.269 OA
BRANCH  32  35
ATOM     35  C   UNL A   1      34.339  34.510  31.227  1.00  0.00     0.039 A 
ATOM     36  C   UNL A   1      34.138  33.314  31.919  1.00  0.00     0.014 A 
ATOM     37  C   UNL A   1      35.633  35.001  31.025  1.00  0.00     0.014 A 
ATOM     38  C   UNL A   1      35.238  32.583  32.370  1.00  0.00     0.010 A 
ATOM     39  C   UNL A   1      36.730  34.238  31.414  1.00  0.00     0.010 A 
ATOM     40  C   UNL A   1      36.543  33.027  32.096  1.00  0.00    -0.014 A 
BRANCH  40  41
ATOM     41  C   UNL A   1      37.726  32.242  32.528  1.00  0.00     0.031 A 
ATOM     42  C   UNL A   1      38.407  32.560  33.830  1.00  0.00     0.074 A 
ATOM     43  C   UNL A   1      38.222  31.289  31.717  1.00  0.00     0.049 A 
ATOM     44  N   UNL A   1      39.491  32.039  34.345  1.00  0.00    -0.248 NA
ATOM     45  C   UNL A   1      37.805  33.624  34.648  1.00  0.00     0.031 C 
ATOM     46  C   UNL A   1      37.673  30.919  30.411  1.00  0.00     0.029 A 
ATOM     47  N   UNL A   1      39.306  30.461  31.867  1.00  0.00    -0.354 N 
ATOM     48  C   UNL A   1      39.709  32.722  35.535  1.00  0.00     0.074 A 
ATOM     49  C   UNL A   1      38.674  33.726  35.643  1.00  0.00     0.031 C 
ATOM     50  C   UNL A   1      38.411  29.925  29.890  1.00  0.00     0.029 A 
ATOM     51  C   UNL A   1      39.504  29.614  30.804  1.00  0.00     0.049 A 
ATOM     52  H   UNL A   1      39.887  30.473  32.662  1.00  0.00     0.167 HD
ATOM     53  C   UNL A   1      40.672  32.512  36.463  1.00  0.00     0.037 A 
ATOM     54  C   UNL A   1      40.465  28.695  30.591  1.00  0.00     0.037 A 
ATOM     55  C   UNL A   1      41.680  31.489  36.367  1.00  0.00     0.049 A 
ATOM     56  C   UNL A   1      41.525  28.486  31.639  1.00  0.00     0.074 A 
ATOM     57  C   UNL A   1      42.659  31.152  37.285  1.00  0.00     0.029 A 
ATOM     58  N   UNL A   1      41.838  30.637  35.282  1.00  0.00    -0.354 N 
ATOM     59  N   UNL A   1      41.679  29.088  32.793  1.00  0.00    -0.248 NA
ATOM     60  C   UNL A   1      42.542  27.463  31.357  1.00  0.00     0.031 C 
ATOM     61  C   UNL A   1      43.439  30.128  36.738  1.00  0.00     0.029 A 
ATOM     62  C   UNL A   1      42.912  29.791  35.500  1.00  0.00     0.049 A 
ATOM     63  H   UNL A   1      41.270  30.635  34.478  1.00  0.00     0.167 HD
ATOM     64  C   UNL A   1      42.785  28.499  33.387  1.00  0.00     0.074 A 
ATOM     65  C   UNL A   1      43.257  27.480  32.472  1.00  0.00     0.031 C 
ATOM     66  C   UNL A   1      43.361  28.775  34.583  1.00  0.00     0.037 A 
BRANCH  53  67
ATOM     67  C   UNL A   1      40.683  33.404  37.671  1.00  0.00     0.064 A 
ATOM     68  C   UNL A   1      39.802  33.202  38.744  1.00  0.00     0.173 A 
ATOM     69  C   UNL A   1      41.619  34.444  37.779  1.00  0.00     0.173 A 
ATOM     70  F   UNL A   1      38.880  32.229  38.686  1.00  0.00    -0.203 F 
ATOM     71  C   UNL A   1      39.840  34.023  39.868  1.00  0.00     0.198 A 
ATOM     72  C   UNL A   1      41.675  35.244  38.917  1.00  0.00     0.198 A 
ATOM     73  F   UNL A   1      42.489  34.677  36.784  1.00  0.00    -0.203 F 
ATOM     74  F   UNL A   1      38.959  33.839  40.860  1.00  0.00    -0.200 F 
ATOM     75  C   UNL A   1      40.782  35.038  39.958  1.00  0.00     0.200 A 
ATOM     76  F   UNL A   1      42.594  36.214  39.008  1.00  0.00    -0.200 F 
ATOM     77  F   UNL A   1      40.825  35.820  41.045  1.00  0.00    -0.200 F 
ENDBRANCH  53  67
BRANCH  54  78
ATOM     78  C   UNL A   1      40.458  27.885  29.345  1.00  0.00     0.064 A 
ATOM     79  C   UNL A   1      41.249  28.250  28.246  1.00  0.00     0.173 A 
ATOM     80  C   UNL A   1      39.654  26.743  29.218  1.00  0.00     0.173 A 
ATOM     81  F   UNL A   1      42.019  29.346  28.311  1.00  0.00    -0.203 F 
ATOM     82  C   UNL A   1      41.216  27.520  27.060  1.00  0.00     0.198 A 
ATOM     83  C   UNL A   1      39.644  25.996  28.042  1.00  0.00     0.198 A 
ATOM     84  F   UNL A   1      38.883  26.347  30.242  1.00  0.00    -0.203 F 
ATOM     85  F   UNL A   1      41.943  27.921  26.009  1.00  0.00    -0.200 F 
ATOM     86  C   UNL A   1      40.418  26.391  26.961  1.00  0.00     0.200 A 
ATOM     87  F   UNL A   1      38.883  24.897  27.956  1.00  0.00    -0.200 F 
ATOM     88  F   UNL A   1      40.387  25.687  25.821  1.00  0.00    -0.200 F 
ENDBRANCH  54  78
BRANCH  66  89
ATOM     89  C   UNL A   1      44.538  27.937  34.990  1.00  0.00     0.064 A 
ATOM     90  C   UNL A   1      44.377  26.728  35.681  1.00  0.00     0.173 A 
ATOM     91  C   UNL A   1      45.841  28.333  34.650  1.00  0.00     0.173 A 
ATOM     92  F   UNL A   1      43.154  26.314  36.043  1.00  0.00    -0.203 F 
ATOM     93  C   UNL A   1      45.480  25.956  36.039  1.00  0.00     0.198 A 
ATOM     94  C   UNL A   1      46.938  27.544  34.982  1.00  0.00     0.198 A 
ATOM     95  F   UNL A   1      46.047  29.478  33.983  1.00  0.00    -0.203 F 
ATOM     96  F   UNL A   1      45.307  24.829  36.741  1.00  0.00    -0.200 F 
ATOM     97  C   UNL A   1      46.758  26.361  35.683  1.00  0.00     0.200 A 
ATOM     98  F   UNL A   1      48.171  27.929  34.623  1.00  0.00    -0.200 F 
ATOM     99  F   UNL A   1      47.817  25.613  36.020  1.00  0.00    -0.200 F 
ENDBRANCH  66  89
ENDBRANCH  40  41
ENDBRANCH  32  35
ENDBRANCH  30  31
ENDBRANCH  29  30
ENDBRANCH  28  29
ENDBRANCH   1  28
TORSDOF 15
ENDMDL
