MODEL 1
REMARK VINA RESULT:     -13.4      0.000      0.000
REMARK SMILES O=C(NCCCCCCNC(=O)[C@H]1C[N@H+](Cc2cccc(Cl)c2)CC12CCCCC2)c1ccc(-c2c3nc(c(-c4c(F)c(F)c(F)c(F)c4F)c4ccc([nH]4)c(-c4c(F)c(F)c(F)c(F)c4F)c4nc(c(-c5c(F)c(F)c(F)c(F)c5F)c5ccc2[nH]5)C=C4)C=C3)cc1
REMARK SMILES IDX 6 1 5 2 4 3 3 4 1 5 2 6 31 8 32 9 93 10 33 11 92 12 34 13
REMARK SMILES IDX 35 14 36 15 86 16 37 17 91 18 85 19 87 20 38 21 90 22 84 23
REMARK SMILES IDX 83 24 39 26 71 27 51 28 70 29 52 30 55 31 69 32 88 33 53 34
REMARK SMILES IDX 54 35 68 37 89 38 56 39 40 40 41 41 49 42 42 43 43 44 47 45
REMARK SMILES IDX 50 46 44 47 45 48 48 49 46 50 72 51 73 52 81 53 74 54 75 55
REMARK SMILES IDX 79 56 82 57 76 58 77 59 80 60 78 61 57 62 58 63 66 64 59 65
REMARK SMILES IDX 60 66 64 67 67 68 61 69 62 70 65 71 63 72 7 73 8 74 9 75
REMARK SMILES IDX 10 76 11 77 12 79 13 80 14 81 25 82 15 83 24 84 26 85 30 86
REMARK SMILES IDX 27 88 29 89 28 90 16 91 17 92 18 93 23 94 19 95 21 96 20 97
REMARK SMILES IDX 22 98
REMARK H PARENT 3 7 87 25 55 36 10 78 15 87
REMARK Flexibility Score: inf
ROOT
ATOM      1  C   UNL A   1      31.690  30.704  26.210  1.00  0.00     0.002 C 
ENDROOT
BRANCH   1   2
ATOM      2  C   UNL A   1      31.481  32.163  26.614  1.00  0.00     0.021 C 
BRANCH   2   3
ATOM      3  C   UNL A   1      32.666  32.806  27.315  1.00  0.00     0.116 C 
BRANCH   3   4
ATOM      4  N   UNL A   1      32.428  34.203  27.626  1.00  0.00    -0.352 N 
ATOM      5  O   UNL A   1      32.594  36.084  28.868  1.00  0.00    -0.269 OA
ATOM      6  C   UNL A   1      33.025  34.968  28.593  1.00  0.00     0.251 C 
ATOM      7  H   UNL A   1      31.751  34.658  27.074  1.00  0.00     0.163 HD
BRANCH   6   8
ATOM      8  C   UNL A   1      34.197  34.428  29.308  1.00  0.00     0.039 A 
ATOM      9  C   UNL A   1      34.028  33.761  30.526  1.00  0.00     0.014 A 
ATOM     10  C   UNL A   1      35.468  34.579  28.751  1.00  0.00     0.014 A 
ATOM     11  C   UNL A   1      35.140  33.326  31.233  1.00  0.00     0.010 A 
ATOM     12  C   UNL A   1      36.577  34.058  29.419  1.00  0.00     0.010 A 
ATOM     13  C   UNL A   1      36.417  33.424  30.661  1.00  0.00    -0.014 A 
BRANCH  13  14
ATOM     14  C   UNL A   1      37.545  32.707  31.301  1.00  0.00     0.031 A 
ATOM     15  C   UNL A   1      38.232  31.559  30.626  1.00  0.00     0.074 A 
ATOM     16  C   UNL A   1      37.923  33.114  32.529  1.00  0.00     0.049 A 
ATOM     17  N   UNL A   1      39.205  30.809  31.078  1.00  0.00    -0.248 NA
ATOM     18  C   UNL A   1      37.770  31.197  29.277  1.00  0.00     0.031 C 
ATOM     19  C   UNL A   1      37.300  34.210  33.280  1.00  0.00     0.029 A 
ATOM     20  N   UNL A   1      38.912  32.664  33.365  1.00  0.00    -0.354 N 
ATOM     21  C   UNL A   1      39.458  29.874  30.083  1.00  0.00     0.074 A 
ATOM     22  C   UNL A   1      38.529  30.143  29.005  1.00  0.00     0.031 C 
ATOM     23  C   UNL A   1      37.935  34.363  34.448  1.00  0.00     0.029 A 
ATOM     24  C   UNL A   1      38.955  33.330  34.565  1.00  0.00     0.049 A 
ATOM     25  H   UNL A   1      39.529  31.935  33.129  1.00  0.00     0.167 HD
ATOM     26  C   UNL A   1      40.385  28.887  30.083  1.00  0.00     0.037 A 
ATOM     27  C   UNL A   1      39.703  33.106  35.660  1.00  0.00     0.037 A 
ATOM     28  C   UNL A   1      41.312  28.648  31.160  1.00  0.00     0.049 A 
ATOM     29  C   UNL A   1      40.692  31.978  35.635  1.00  0.00     0.074 A 
ATOM     30  C   UNL A   1      42.340  27.723  31.221  1.00  0.00     0.029 A 
ATOM     31  N   UNL A   1      41.315  29.327  32.371  1.00  0.00    -0.354 N 
ATOM     32  N   UNL A   1      40.976  31.151  34.658  1.00  0.00    -0.248 NA
ATOM     33  C   UNL A   1      41.460  31.744  36.864  1.00  0.00     0.031 C 
ATOM     34  C   UNL A   1      42.918  27.795  32.492  1.00  0.00     0.029 A 
ATOM     35  C   UNL A   1      42.294  28.807  33.202  1.00  0.00     0.049 A 
ATOM     36  H   UNL A   1      40.709  30.069  32.603  1.00  0.00     0.167 HD
ATOM     37  C   UNL A   1      41.960  30.307  35.150  1.00  0.00     0.074 A 
ATOM     38  C   UNL A   1      42.250  30.746  36.500  1.00  0.00     0.031 C 
ATOM     39  C   UNL A   1      42.562  29.255  34.545  1.00  0.00     0.037 A 
BRANCH  26  40
ATOM     40  C   UNL A   1      40.448  27.965  28.900  1.00  0.00     0.064 A 
ATOM     41  C   UNL A   1      39.671  26.801  28.827  1.00  0.00     0.173 A 
ATOM     42  C   UNL A   1      41.214  28.316  27.776  1.00  0.00     0.173 A 
ATOM     43  F   UNL A   1      38.928  26.418  29.876  1.00  0.00    -0.203 F 
ATOM     44  C   UNL A   1      39.659  26.020  27.673  1.00  0.00     0.198 A 
ATOM     45  C   UNL A   1      41.180  27.547  26.616  1.00  0.00     0.198 A 
ATOM     46  F   UNL A   1      41.969  29.424  27.792  1.00  0.00    -0.203 F 
ATOM     47  F   UNL A   1      38.921  24.902  27.630  1.00  0.00    -0.200 F 
ATOM     48  C   UNL A   1      40.403  26.400  26.566  1.00  0.00     0.200 A 
ATOM     49  F   UNL A   1      41.887  27.925  25.542  1.00  0.00    -0.200 F 
ATOM     50  F   UNL A   1      40.369  25.661  25.447  1.00  0.00    -0.200 F 
ENDBRANCH  26  40
BRANCH  27  51
ATOM     51  C   UNL A   1      39.507  33.931  36.882  1.00  0.00     0.064 A 
ATOM     52  C   UNL A   1      38.733  33.469  37.953  1.00  0.00     0.173 A 
ATOM     53  C   UNL A   1      40.071  35.213  36.990  1.00  0.00     0.173 A 
ATOM     54  F   UNL A   1      38.160  32.258  37.891  1.00  0.00    -0.203 F 
ATOM     55  C   UNL A   1      38.500  34.269  39.070  1.00  0.00     0.198 A 
ATOM     56  C   UNL A   1      39.871  35.995  38.124  1.00  0.00     0.198 A 
ATOM     57  F   UNL A   1      40.828  35.701  35.996  1.00  0.00    -0.203 F 
ATOM     58  F   UNL A   1      37.702  33.828  40.051  1.00  0.00    -0.200 F 
ATOM     59  C   UNL A   1      39.073  35.529  39.156  1.00  0.00     0.200 A 
ATOM     60  F   UNL A   1      40.444  37.203  38.211  1.00  0.00    -0.200 F 
ATOM     61  F   UNL A   1      38.846  36.298  40.230  1.00  0.00    -0.200 F 
ENDBRANCH  27  51
BRANCH  39  62
ATOM     62  C   UNL A   1      43.599  28.517  35.338  1.00  0.00     0.064 A 
ATOM     63  C   UNL A   1      44.960  28.841  35.243  1.00  0.00     0.173 A 
ATOM     64  C   UNL A   1      43.226  27.495  36.223  1.00  0.00     0.173 A 
ATOM     65  F   UNL A   1      45.368  29.796  34.393  1.00  0.00    -0.203 F 
ATOM     66  C   UNL A   1      45.914  28.151  35.986  1.00  0.00     0.198 A 
ATOM     67  C   UNL A   1      44.178  26.831  36.991  1.00  0.00     0.198 A 
ATOM     68  F   UNL A   1      41.937  27.149  36.355  1.00  0.00    -0.203 F 
ATOM     69  F   UNL A   1      47.213  28.441  35.837  1.00  0.00    -0.200 F 
ATOM     70  C   UNL A   1      45.521  27.154  36.865  1.00  0.00     0.200 A 
ATOM     71  F   UNL A   1      43.796  25.877  37.851  1.00  0.00    -0.200 F 
ATOM     72  F   UNL A   1      46.439  26.497  37.586  1.00  0.00    -0.200 F 
ENDBRANCH  39  62
ENDBRANCH  13  14
ENDBRANCH   6   8
ENDBRANCH   3   4
ENDBRANCH   2   3
ENDBRANCH   1   2
BRANCH   1  73
ATOM     73  C   UNL A   1      32.383  29.821  27.251  1.00  0.00     0.002 C 
BRANCH  73  74
ATOM     74  C   UNL A   1      33.853  29.511  26.981  1.00  0.00     0.021 C 
BRANCH  74  75
ATOM     75  C   UNL A   1      34.123  28.203  26.253  1.00  0.00     0.116 C 
BRANCH  75  76
ATOM     76  N   UNL A   1      34.336  28.386  24.833  1.00  0.00    -0.356 N 
ATOM     77  C   UNL A   1      33.513  28.402  23.758  1.00  0.00     0.229 C 
ATOM     78  H   UNL A   1      35.282  28.530  24.600  1.00  0.00     0.163 HD
ATOM     79  O   UNL A   1      34.083  28.516  22.665  1.00  0.00    -0.275 OA
BRANCH  77  80
ATOM     80  C   UNL A   1      31.993  28.227  23.800  1.00  0.00     0.145 C 
ATOM     81  C   UNL A   1      31.180  28.591  22.569  1.00  0.00     0.276 C 
ATOM     82  C   UNL A   1      31.464  26.805  24.199  1.00  0.00     0.037 C 
ATOM     83  N   UNL A   1      29.903  27.914  22.670  1.00  0.00    -0.330 N 
ATOM     84  C   UNL A   1      30.200  26.629  23.296  1.00  0.00     0.270 C 
ATOM     85  C   UNL A   1      32.496  25.671  23.963  1.00  0.00     0.014 C 
ATOM     86  C   UNL A   1      31.091  26.753  25.700  1.00  0.00     0.014 C 
ATOM     87  H   UNL A   1      29.491  27.747  21.752  1.00  0.00     0.348 HD
ATOM     88  C   UNL A   1      32.002  24.292  24.410  1.00  0.00     0.001 C 
ATOM     89  C   UNL A   1      30.514  25.403  26.126  1.00  0.00     0.001 C 
ATOM     90  C   UNL A   1      31.508  24.285  25.855  1.00  0.00     0.000 C 
BRANCH  83  91
ATOM     91  C   UNL A   1      28.762  28.701  23.147  1.00  0.00     0.299 C 
BRANCH  91  92
ATOM     92  C   UNL A   1      28.521  30.061  22.530  1.00  0.00     0.008 A 
ATOM     93  C   UNL A   1      28.028  30.197  21.222  1.00  0.00     0.009 A 
ATOM     94  C   UNL A   1      28.844  31.223  23.250  1.00  0.00     0.030 A 
ATOM     95  C   UNL A   1      27.989  31.449  20.600  1.00  0.00     0.002 A 
ATOM     96  C   UNL A   1      28.778  32.474  22.633  1.00  0.00     0.041 A 
ATOM     97  C   UNL A   1      28.381  32.588  21.302  1.00  0.00     0.020 A 
ATOM     98  Cl  UNL A   1      29.269  33.875  23.501  1.00  0.00    -0.084 Cl
ENDBRANCH  91  92
ENDBRANCH  83  91
ENDBRANCH  77  80
ENDBRANCH  75  76
ENDBRANCH  74  75
ENDBRANCH  73  74
ENDBRANCH   1  73
TORSDOF 15
ENDMDL
MODEL 2
REMARK VINA RESULT:     -13.3      0.519      7.175
REMARK SMILES O=C(NCCCCCCNC(=O)[C@H]1C[N@H+](Cc2cccc(Cl)c2)CC12CCCCC2)c1ccc(-c2c3nc(c(-c4c(F)c(F)c(F)c(F)c4F)c4ccc([nH]4)c(-c4c(F)c(F)c(F)c(F)c4F)c4nc(c(-c5c(F)c(F)c(F)c(F)c5F)c5ccc2[nH]5)C=C4)C=C3)cc1
REMARK SMILES IDX 6 1 5 2 4 3 3 4 1 5 2 6 31 8 32 9 93 10 33 11 92 12 34 13
REMARK SMILES IDX 35 14 36 15 86 16 37 17 91 18 85 19 87 20 38 21 90 22 84 23
REMARK SMILES IDX 83 24 39 26 71 27 51 28 70 29 52 30 55 31 69 32 88 33 53 34
REMARK SMILES IDX 54 35 68 37 89 38 56 39 40 40 41 41 49 42 42 43 43 44 47 45
REMARK SMILES IDX 50 46 44 47 45 48 48 49 46 50 72 51 73 52 81 53 74 54 75 55
REMARK SMILES IDX 79 56 82 57 76 58 77 59 80 60 78 61 57 62 58 63 66 64 59 65
REMARK SMILES IDX 60 66 64 67 67 68 61 69 62 70 65 71 63 72 7 73 8 74 9 75
REMARK SMILES IDX 10 76 11 77 12 79 13 80 14 81 25 82 15 83 24 84 26 85 30 86
REMARK SMILES IDX 27 88 29 89 28 90 16 91 17 92 18 93 23 94 19 95 21 96 20 97
REMARK SMILES IDX 22 98
REMARK H PARENT 3 7 87 25 55 36 10 78 15 87
REMARK Flexibility Score: inf
ROOT
ATOM      1  C   UNL A   1      31.577  30.789  26.182  1.00  0.00     0.002 C 
ENDROOT
BRANCH   1   2
ATOM      2  C   UNL A   1      31.430  32.264  26.551  1.00  0.00     0.021 C 
BRANCH   2   3
ATOM      3  C   UNL A   1      32.612  32.852  27.305  1.00  0.00     0.116 C 
BRANCH   3   4
ATOM      4  N   UNL A   1      32.414  34.252  27.631  1.00  0.00    -0.352 N 
ATOM      5  O   UNL A   1      32.619  36.111  28.900  1.00  0.00    -0.269 OA
ATOM      6  C   UNL A   1      33.019  34.984  28.619  1.00  0.00     0.251 C 
ATOM      7  H   UNL A   1      31.763  34.736  27.074  1.00  0.00     0.163 HD
BRANCH   6   8
ATOM      8  C   UNL A   1      34.160  34.397  29.347  1.00  0.00     0.039 A 
ATOM      9  C   UNL A   1      33.942  33.678  30.526  1.00  0.00     0.014 A 
ATOM     10  C   UNL A   1      35.450  34.556  28.839  1.00  0.00     0.014 A 
ATOM     11  C   UNL A   1      35.025  33.197  31.249  1.00  0.00     0.010 A 
ATOM     12  C   UNL A   1      36.530  33.991  29.518  1.00  0.00     0.010 A 
ATOM     13  C   UNL A   1      36.322  33.304  30.724  1.00  0.00    -0.014 A 
BRANCH  13  14
ATOM     14  C   UNL A   1      37.419  32.544  31.368  1.00  0.00     0.031 A 
ATOM     15  C   UNL A   1      37.923  32.896  32.734  1.00  0.00     0.074 A 
ATOM     16  C   UNL A   1      37.966  31.530  30.669  1.00  0.00     0.049 A 
ATOM     17  N   UNL A   1      38.903  32.351  33.410  1.00  0.00    -0.248 NA
ATOM     18  C   UNL A   1      37.253  34.003  33.435  1.00  0.00     0.031 C 
ATOM     19  C   UNL A   1      37.559  31.124  29.319  1.00  0.00     0.029 A 
ATOM     20  N   UNL A   1      38.974  30.657  30.984  1.00  0.00    -0.354 N 
ATOM     21  C   UNL A   1      38.982  33.057  34.602  1.00  0.00     0.074 A 
ATOM     22  C   UNL A   1      37.958  34.080  34.556  1.00  0.00     0.031 C 
ATOM     23  C   UNL A   1      38.290  30.070  28.934  1.00  0.00     0.029 A 
ATOM     24  C   UNL A   1      39.267  29.775  29.972  1.00  0.00     0.049 A 
ATOM     25  H   UNL A   1      39.443  30.662  31.849  1.00  0.00     0.167 HD
ATOM     26  C   UNL A   1      39.838  32.859  35.633  1.00  0.00     0.037 A 
ATOM     27  C   UNL A   1      40.245  28.858  29.871  1.00  0.00     0.037 A 
ATOM     28  C   UNL A   1      40.839  31.822  35.665  1.00  0.00     0.049 A 
ATOM     29  C   UNL A   1      41.198  28.695  31.020  1.00  0.00     0.074 A 
ATOM     30  C   UNL A   1      41.701  31.491  36.696  1.00  0.00     0.029 A 
ATOM     31  N   UNL A   1      41.123  30.961  34.615  1.00  0.00    -0.354 N 
ATOM     32  N   UNL A   1      41.213  29.317  32.174  1.00  0.00    -0.248 NA
ATOM     33  C   UNL A   1      42.273  27.710  30.851  1.00  0.00     0.031 C 
ATOM     34  C   UNL A   1      42.551  30.477  36.247  1.00  0.00     0.029 A 
ATOM     35  C   UNL A   1      42.180  30.132  34.957  1.00  0.00     0.049 A 
ATOM     36  H   UNL A   1      40.644  30.941  33.755  1.00  0.00     0.167 HD
ATOM     37  C   UNL A   1      42.290  28.793  32.872  1.00  0.00     0.074 A 
ATOM     38  C   UNL A   1      42.882  27.776  32.026  1.00  0.00     0.031 C 
ATOM     39  C   UNL A   1      42.757  29.131  34.098  1.00  0.00     0.037 A 
BRANCH  26  40
ATOM     40  C   UNL A   1      39.761  33.783  36.814  1.00  0.00     0.064 A 
ATOM     41  C   UNL A   1      40.396  35.032  36.818  1.00  0.00     0.173 A 
ATOM     42  C   UNL A   1      38.945  33.456  37.909  1.00  0.00     0.173 A 
ATOM     43  F   UNL A   1      41.193  35.389  35.800  1.00  0.00    -0.203 F 
ATOM     44  C   UNL A   1      40.219  35.920  37.877  1.00  0.00     0.198 A 
ATOM     45  C   UNL A   1      38.750  34.357  38.953  1.00  0.00     0.198 A 
ATOM     46  F   UNL A   1      38.309  32.275  37.950  1.00  0.00    -0.203 F 
ATOM     47  F   UNL A   1      40.849  37.104  37.869  1.00  0.00    -0.200 F 
ATOM     48  C   UNL A   1      39.387  35.587  38.936  1.00  0.00     0.200 A 
ATOM     49  F   UNL A   1      37.933  34.039  39.967  1.00  0.00    -0.200 F 
ATOM     50  F   UNL A   1      39.198  36.455  39.940  1.00  0.00    -0.200 F 
ENDBRANCH  26  40
BRANCH  27  51
ATOM     51  C   UNL A   1      40.403  28.067  28.622  1.00  0.00     0.064 A 
ATOM     52  C   UNL A   1      39.818  26.802  28.486  1.00  0.00     0.173 A 
ATOM     53  C   UNL A   1      41.166  28.552  27.547  1.00  0.00     0.173 A 
ATOM     54  F   UNL A   1      39.092  26.288  29.489  1.00  0.00    -0.203 F 
ATOM     55  C   UNL A   1      40.019  26.036  27.338  1.00  0.00     0.198 A 
ATOM     56  C   UNL A   1      41.333  27.803  26.385  1.00  0.00     0.198 A 
ATOM     57  F   UNL A   1      41.742  29.760  27.623  1.00  0.00    -0.203 F 
ATOM     58  F   UNL A   1      39.502  24.804  27.261  1.00  0.00    -0.200 F 
ATOM     59  C   UNL A   1      40.771  26.540  26.288  1.00  0.00     0.200 A 
ATOM     60  F   UNL A   1      42.043  28.303  25.366  1.00  0.00    -0.200 F 
ATOM     61  F   UNL A   1      40.966  25.802  25.186  1.00  0.00    -0.200 F 
ENDBRANCH  27  51
BRANCH  39  62
ATOM     62  C   UNL A   1      43.959  28.385  34.596  1.00  0.00     0.064 A 
ATOM     63  C   UNL A   1      45.258  28.878  34.402  1.00  0.00     0.173 A 
ATOM     64  C   UNL A   1      43.811  27.180  35.299  1.00  0.00     0.173 A 
ATOM     65  F   UNL A   1      45.453  30.014  33.716  1.00  0.00    -0.203 F 
ATOM     66  C   UNL A   1      46.366  28.178  34.871  1.00  0.00     0.198 A 
ATOM     67  C   UNL A   1      44.919  26.502  35.798  1.00  0.00     0.198 A 
ATOM     68  F   UNL A   1      42.590  26.668  35.516  1.00  0.00    -0.203 F 
ATOM     69  F   UNL A   1      47.600  28.640  34.625  1.00  0.00    -0.200 F 
ATOM     70  C   UNL A   1      46.195  26.996  35.576  1.00  0.00     0.200 A 
ATOM     71  F   UNL A   1      44.751  25.367  36.491  1.00  0.00    -0.200 F 
ATOM     72  F   UNL A   1      47.262  26.329  36.034  1.00  0.00    -0.200 F 
ENDBRANCH  39  62
ENDBRANCH  13  14
ENDBRANCH   6   8
ENDBRANCH   3   4
ENDBRANCH   2   3
ENDBRANCH   1   2
BRANCH   1  73
ATOM     73  C   UNL A   1      32.301  29.917  27.210  1.00  0.00     0.002 C 
BRANCH  73  74
ATOM     74  C   UNL A   1      33.781  29.660  26.933  1.00  0.00     0.021 C 
BRANCH  74  75
ATOM     75  C   UNL A   1      34.097  28.347  26.234  1.00  0.00     0.116 C 
BRANCH  75  76
ATOM     76  N   UNL A   1      34.329  28.512  24.814  1.00  0.00    -0.356 N 
ATOM     77  C   UNL A   1      33.521  28.508  23.728  1.00  0.00     0.229 C 
ATOM     78  H   UNL A   1      35.277  28.658  24.592  1.00  0.00     0.163 HD
ATOM     79  O   UNL A   1      34.106  28.610  22.642  1.00  0.00    -0.275 OA
BRANCH  77  80
ATOM     80  C   UNL A   1      32.001  28.325  23.751  1.00  0.00     0.145 C 
ATOM     81  C   UNL A   1      31.196  28.734  22.530  1.00  0.00     0.276 C 
ATOM     82  C   UNL A   1      31.476  26.887  24.092  1.00  0.00     0.037 C 
ATOM     83  N   UNL A   1      29.921  28.048  22.595  1.00  0.00    -0.330 N 
ATOM     84  C   UNL A   1      30.219  26.741  23.173  1.00  0.00     0.270 C 
ATOM     85  C   UNL A   1      32.514  25.767  23.819  1.00  0.00     0.014 C 
ATOM     86  C   UNL A   1      31.091  26.776  25.586  1.00  0.00     0.014 C 
ATOM     87  H   UNL A   1      29.517  27.915  21.668  1.00  0.00     0.348 HD
ATOM     88  C   UNL A   1      32.023  24.370  24.209  1.00  0.00     0.001 C 
ATOM     89  C   UNL A   1      30.518  25.408  25.955  1.00  0.00     0.001 C 
ATOM     90  C   UNL A   1      31.518  24.305  25.649  1.00  0.00     0.000 C 
BRANCH  83  91
ATOM     91  C   UNL A   1      28.774  28.812  23.092  1.00  0.00     0.299 C 
BRANCH  91  92
ATOM     92  C   UNL A   1      28.497  30.169  22.486  1.00  0.00     0.008 A 
ATOM     93  C   UNL A   1      27.946  30.301  21.200  1.00  0.00     0.009 A 
ATOM     94  C   UNL A   1      28.844  31.334  23.190  1.00  0.00     0.030 A 
ATOM     95  C   UNL A   1      27.872  31.551  20.580  1.00  0.00     0.002 A 
ATOM     96  C   UNL A   1      28.744  32.583  22.575  1.00  0.00     0.041 A 
ATOM     97  C   UNL A   1      28.288  32.694  21.263  1.00  0.00     0.020 A 
ATOM     98  Cl  UNL A   1      29.264  33.989  23.419  1.00  0.00    -0.084 Cl
ENDBRANCH  91  92
ENDBRANCH  83  91
ENDBRANCH  77  80
ENDBRANCH  75  76
ENDBRANCH  74  75
ENDBRANCH  73  74
ENDBRANCH   1  73
TORSDOF 15
ENDMDL
MODEL 3
REMARK VINA RESULT:     -13.3      0.587      2.054
REMARK SMILES O=C(NCCCCCCNC(=O)[C@H]1C[N@H+](Cc2cccc(Cl)c2)CC12CCCCC2)c1ccc(-c2c3nc(c(-c4c(F)c(F)c(F)c(F)c4F)c4ccc([nH]4)c(-c4c(F)c(F)c(F)c(F)c4F)c4nc(c(-c5c(F)c(F)c(F)c(F)c5F)c5ccc2[nH]5)C=C4)C=C3)cc1
REMARK SMILES IDX 6 1 5 2 4 3 3 4 1 5 2 6 31 8 32 9 93 10 33 11 92 12 34 13
REMARK SMILES IDX 35 14 36 15 86 16 37 17 91 18 85 19 87 20 38 21 90 22 84 23
REMARK SMILES IDX 83 24 39 26 71 27 51 28 70 29 52 30 55 31 69 32 88 33 53 34
REMARK SMILES IDX 54 35 68 37 89 38 56 39 40 40 41 41 49 42 42 43 43 44 47 45
REMARK SMILES IDX 50 46 44 47 45 48 48 49 46 50 72 51 73 52 81 53 74 54 75 55
REMARK SMILES IDX 79 56 82 57 76 58 77 59 80 60 78 61 57 62 58 63 66 64 59 65
REMARK SMILES IDX 60 66 64 67 67 68 61 69 62 70 65 71 63 72 7 73 8 74 9 75
REMARK SMILES IDX 10 76 11 77 12 79 13 80 14 81 25 82 15 83 24 84 26 85 30 86
REMARK SMILES IDX 27 88 29 89 28 90 16 91 17 92 18 93 23 94 19 95 21 96 20 97
REMARK SMILES IDX 22 98
REMARK H PARENT 3 7 87 25 55 36 10 78 15 87
REMARK Flexibility Score: inf
ROOT
ATOM      1  C   UNL A   1      31.649  30.728  26.184  1.00  0.00     0.002 C 
ENDROOT
BRANCH   1   2
ATOM      2  C   UNL A   1      31.417  32.166  26.643  1.00  0.00     0.021 C 
BRANCH   2   3
ATOM      3  C   UNL A   1      32.614  32.821  27.314  1.00  0.00     0.116 C 
BRANCH   3   4
ATOM      4  N   UNL A   1      32.368  34.214  27.638  1.00  0.00    -0.352 N 
ATOM      5  O   UNL A   1      32.534  36.088  28.891  1.00  0.00    -0.269 OA
ATOM      6  C   UNL A   1      32.972  34.977  28.603  1.00  0.00     0.251 C 
ATOM      7  H   UNL A   1      31.680  34.667  27.099  1.00  0.00     0.163 HD
BRANCH   6   8
ATOM      8  C   UNL A   1      34.159  34.442  29.298  1.00  0.00     0.039 A 
ATOM      9  C   UNL A   1      34.008  33.732  30.493  1.00  0.00     0.014 A 
ATOM     10  C   UNL A   1      35.424  34.643  28.744  1.00  0.00     0.014 A 
ATOM     11  C   UNL A   1      35.132  33.301  31.184  1.00  0.00     0.010 A 
ATOM     12  C   UNL A   1      36.547  34.127  29.392  1.00  0.00     0.010 A 
ATOM     13  C   UNL A   1      36.406  33.449  30.613  1.00  0.00    -0.014 A 
BRANCH  13  14
ATOM     14  C   UNL A   1      37.552  32.739  31.227  1.00  0.00     0.031 A 
ATOM     15  C   UNL A   1      38.201  31.566  30.558  1.00  0.00     0.074 A 
ATOM     16  C   UNL A   1      37.983  33.176  32.427  1.00  0.00     0.049 A 
ATOM     17  N   UNL A   1      39.185  30.819  30.991  1.00  0.00    -0.248 NA
ATOM     18  C   UNL A   1      37.682  31.171  29.240  1.00  0.00     0.031 C 
ATOM     19  C   UNL A   1      37.399  34.298  33.172  1.00  0.00     0.029 A 
ATOM     20  N   UNL A   1      39.000  32.740  33.235  1.00  0.00    -0.354 N 
ATOM     21  C   UNL A   1      39.390  29.855  30.013  1.00  0.00     0.074 A 
ATOM     22  C   UNL A   1      38.421  30.103  28.967  1.00  0.00     0.031 C 
ATOM     23  C   UNL A   1      38.082  34.477  34.309  1.00  0.00     0.029 A 
ATOM     24  C   UNL A   1      39.097  33.439  34.414  1.00  0.00     0.049 A 
ATOM     25  H   UNL A   1      39.601  31.999  32.995  1.00  0.00     0.167 HD
ATOM     26  C   UNL A   1      40.307  28.860  30.004  1.00  0.00     0.037 A 
ATOM     27  C   UNL A   1      39.887  33.238  35.484  1.00  0.00     0.037 A 
ATOM     28  C   UNL A   1      41.275  28.641  31.050  1.00  0.00     0.049 A 
ATOM     29  C   UNL A   1      40.864  32.099  35.451  1.00  0.00     0.074 A 
ATOM     30  C   UNL A   1      42.296  27.708  31.096  1.00  0.00     0.029 A 
ATOM     31  N   UNL A   1      41.332  29.353  32.240  1.00  0.00    -0.354 N 
ATOM     32  N   UNL A   1      41.102  31.243  34.487  1.00  0.00    -0.248 NA
ATOM     33  C   UNL A   1      41.679  31.892  36.655  1.00  0.00     0.031 C 
ATOM     34  C   UNL A   1      42.926  27.809  32.340  1.00  0.00     0.029 A 
ATOM     35  C   UNL A   1      42.339  28.847  33.046  1.00  0.00     0.049 A 
ATOM     36  H   UNL A   1      40.743  30.107  32.476  1.00  0.00     0.167 HD
ATOM     37  C   UNL A   1      42.097  30.404  34.963  1.00  0.00     0.074 A 
ATOM     38  C   UNL A   1      42.445  30.876  36.287  1.00  0.00     0.031 C 
ATOM     39  C   UNL A   1      42.665  29.329  34.364  1.00  0.00     0.037 A 
BRANCH  26  40
ATOM     40  C   UNL A   1      40.314  27.904  28.846  1.00  0.00     0.064 A 
ATOM     41  C   UNL A   1      41.073  28.145  27.693  1.00  0.00     0.173 A 
ATOM     42  C   UNL A   1      39.641  26.675  28.945  1.00  0.00     0.173 A 
ATOM     43  F   UNL A   1      41.729  29.306  27.546  1.00  0.00    -0.203 F 
ATOM     44  C   UNL A   1      41.155  27.193  26.679  1.00  0.00     0.198 A 
ATOM     45  C   UNL A   1      39.746  25.717  27.941  1.00  0.00     0.198 A 
ATOM     46  F   UNL A   1      38.907  26.392  30.032  1.00  0.00    -0.203 F 
ATOM     47  F   UNL A   1      41.872  27.451  25.576  1.00  0.00    -0.200 F 
ATOM     48  C   UNL A   1      40.502  25.976  26.809  1.00  0.00     0.200 A 
ATOM     49  F   UNL A   1      39.128  24.536  28.078  1.00  0.00    -0.200 F 
ATOM     50  F   UNL A   1      40.605  25.052  25.844  1.00  0.00    -0.200 F 
ENDBRANCH  26  40
BRANCH  27  51
ATOM     51  C   UNL A   1      39.747  34.098  36.689  1.00  0.00     0.064 A 
ATOM     52  C   UNL A   1      40.461  35.296  36.812  1.00  0.00     0.173 A 
ATOM     53  C   UNL A   1      38.914  33.723  37.755  1.00  0.00     0.173 A 
ATOM     54  F   UNL A   1      41.282  35.690  35.828  1.00  0.00    -0.203 F 
ATOM     55  C   UNL A   1      40.376  36.069  37.969  1.00  0.00     0.198 A 
ATOM     56  C   UNL A   1      38.798  34.516  38.894  1.00  0.00     0.198 A 
ATOM     57  F   UNL A   1      38.201  32.589  37.686  1.00  0.00    -0.203 F 
ATOM     58  F   UNL A   1      41.119  37.176  38.087  1.00  0.00    -0.200 F 
ATOM     59  C   UNL A   1      39.540  35.680  39.006  1.00  0.00     0.200 A 
ATOM     60  F   UNL A   1      37.974  34.147  39.883  1.00  0.00    -0.200 F 
ATOM     61  F   UNL A   1      39.461  36.423  40.119  1.00  0.00    -0.200 F 
ENDBRANCH  27  51
BRANCH  39  62
ATOM     62  C   UNL A   1      43.726  28.603  35.135  1.00  0.00     0.064 A 
ATOM     63  C   UNL A   1      43.412  27.521  35.970  1.00  0.00     0.173 A 
ATOM     64  C   UNL A   1      45.074  28.973  35.018  1.00  0.00     0.173 A 
ATOM     65  F   UNL A   1      42.135  27.142  36.133  1.00  0.00    -0.203 F 
ATOM     66  C   UNL A   1      44.406  26.852  36.680  1.00  0.00     0.198 A 
ATOM     67  C   UNL A   1      46.068  28.281  35.701  1.00  0.00     0.198 A 
ATOM     68  F   UNL A   1      45.427  29.999  34.228  1.00  0.00    -0.203 F 
ATOM     69  F   UNL A   1      44.075  25.857  37.514  1.00  0.00    -0.200 F 
ATOM     70  C   UNL A   1      45.733  27.228  36.537  1.00  0.00     0.200 A 
ATOM     71  F   UNL A   1      47.352  28.635  35.551  1.00  0.00    -0.200 F 
ATOM     72  F   UNL A   1      46.689  26.578  37.214  1.00  0.00    -0.200 F 
ENDBRANCH  39  62
ENDBRANCH  13  14
ENDBRANCH   6   8
ENDBRANCH   3   4
ENDBRANCH   2   3
ENDBRANCH   1   2
BRANCH   1  73
ATOM     73  C   UNL A   1      32.203  29.774  27.245  1.00  0.00     0.002 C 
BRANCH  73  74
ATOM     74  C   UNL A   1      33.646  29.319  27.036  1.00  0.00     0.021 C 
BRANCH  74  75
ATOM     75  C   UNL A   1      33.814  27.943  26.412  1.00  0.00     0.116 C 
BRANCH  75  76
ATOM     76  N   UNL A   1      34.085  28.003  24.991  1.00  0.00    -0.356 N 
ATOM     77  C   UNL A   1      33.301  27.991  23.888  1.00  0.00     0.229 C 
ATOM     78  H   UNL A   1      35.045  28.065  24.784  1.00  0.00     0.163 HD
ATOM     79  O   UNL A   1      33.913  27.983  22.812  1.00  0.00    -0.275 OA
BRANCH  77  80
ATOM     80  C   UNL A   1      31.771  27.921  23.885  1.00  0.00     0.145 C 
ATOM     81  C   UNL A   1      31.022  28.322  22.626  1.00  0.00     0.276 C 
ATOM     82  C   UNL A   1      31.134  26.545  24.286  1.00  0.00     0.037 C 
ATOM     83  N   UNL A   1      29.699  27.736  22.696  1.00  0.00    -0.330 N 
ATOM     84  C   UNL A   1      29.888  26.443  23.347  1.00  0.00     0.270 C 
ATOM     85  C   UNL A   1      32.092  25.340  24.096  1.00  0.00     0.014 C 
ATOM     86  C   UNL A   1      30.714  26.541  25.775  1.00  0.00     0.014 C 
ATOM     87  H   UNL A   1      29.304  27.584  21.768  1.00  0.00     0.348 HD
ATOM     88  C   UNL A   1      31.491  24.004  24.545  1.00  0.00     0.001 C 
ATOM     89  C   UNL A   1      30.033  25.240  26.201  1.00  0.00     0.001 C 
ATOM     90  C   UNL A   1      30.955  24.052  25.975  1.00  0.00     0.000 C 
BRANCH  83  91
ATOM     91  C   UNL A   1      28.602  28.606  23.128  1.00  0.00     0.299 C 
BRANCH  91  92
ATOM     92  C   UNL A   1      28.673  30.076  22.781  1.00  0.00     0.008 A 
ATOM     93  C   UNL A   1      28.995  31.044  23.747  1.00  0.00     0.009 A 
ATOM     94  C   UNL A   1      28.360  30.505  21.480  1.00  0.00     0.030 A 
ATOM     95  C   UNL A   1      28.873  32.407  23.461  1.00  0.00     0.002 A 
ATOM     96  C   UNL A   1      28.265  31.867  21.192  1.00  0.00     0.041 A 
ATOM     97  C   UNL A   1      28.490  32.820  22.185  1.00  0.00     0.020 A 
ATOM     98  Cl  UNL A   1      27.786  32.371  19.619  1.00  0.00    -0.084 Cl
ENDBRANCH  91  92
ENDBRANCH  83  91
ENDBRANCH  77  80
ENDBRANCH  75  76
ENDBRANCH  74  75
ENDBRANCH  73  74
ENDBRANCH   1  73
TORSDOF 15
ENDMDL
