MODEL 1
REMARK VINA RESULT:     -11.3      0.000      0.000
REMARK SMILES CC[C@@H](C)[C@H](NC(=O)CCc1ccc(F)c(F)c1)C(=O)NCCCCCCNC(=O)c1ccc(-c2c3nc(c(-c4c(F)c(F)c(F)c(F)c4F)c4ccc([nH]4)c(-c4c(F)c(F)c(F)c(F)c4F)c4nc(c(-c5c(F)c(F)c(F)c(F)c5F)c5ccc2[nH]5)C=C4)C=C3)cc1
REMARK SMILES IDX 23 1 22 2 21 3 19 4 20 5 5 7 3 8 4 9 2 10 1 11 6 12 7 13
REMARK SMILES IDX 8 15 9 16 10 17 11 18 12 19 18 20 13 21 16 22 14 23 17 24
REMARK SMILES IDX 15 25 24 26 25 27 26 28 27 29 28 30 29 31 30 33 31 34 32 35
REMARK SMILES IDX 93 36 33 37 92 38 34 39 35 40 36 41 86 42 37 43 91 44 85 45
REMARK SMILES IDX 87 46 38 47 90 48 84 49 83 50 39 52 71 53 51 54 70 55 52 56
REMARK SMILES IDX 55 57 69 58 88 59 53 60 54 61 68 63 89 64 56 65 40 66 41 67
REMARK SMILES IDX 49 68 42 69 43 70 47 71 50 72 44 73 45 74 48 75 46 76 72 77
REMARK SMILES IDX 73 78 81 79 74 80 75 81 79 82 82 83 76 84 77 85 80 86 78 87
REMARK SMILES IDX 57 88 58 89 66 90 59 91 60 92 64 93 67 94 61 95 62 96 65 97
REMARK SMILES IDX 63 98
REMARK H PARENT 21 6 6 14 28 32 87 51 55 62
REMARK Flexibility Score: inf
ROOT
ATOM      1  C   UNL A   1      36.974  23.402  24.750  1.00  0.00     0.021 C 
ENDROOT
BRANCH   1   2
ATOM      2  C   UNL A   1      35.894  24.078  25.574  1.00  0.00     0.116 C 
BRANCH   2   3
ATOM      3  N   UNL A   1      35.424  23.236  26.650  1.00  0.00    -0.354 N 
ATOM      4  C   UNL A   1      34.206  22.656  26.815  1.00  0.00     0.242 C 
ATOM      5  O   UNL A   1      34.131  21.724  27.617  1.00  0.00    -0.273 OA
ATOM      6  H   UNL A   1      36.078  23.057  27.363  1.00  0.00     0.163 HD
BRANCH   4   7
ATOM      7  C   UNL A   1      33.007  23.068  25.939  1.00  0.00     0.174 C 
BRANCH   7   8
ATOM      8  C   UNL A   1      31.883  23.786  26.755  1.00  0.00     0.018 C 
ATOM      9  C   UNL A   1      30.528  23.067  26.812  1.00  0.00     0.010 C 
BRANCH   8  10
ATOM     10  C   UNL A   1      31.707  25.270  26.369  1.00  0.00     0.002 C 
ATOM     11  C   UNL A   1      30.328  25.597  25.811  1.00  0.00     0.004 C 
ENDBRANCH   8  10
ENDBRANCH   7   8
BRANCH   7  12
ATOM     12  N   UNL A   1      32.591  22.000  25.022  1.00  0.00    -0.344 N 
ATOM     13  C   UNL A   1      32.779  21.916  23.672  1.00  0.00     0.220 C 
ATOM     14  H   UNL A   1      32.111  21.246  25.434  1.00  0.00     0.164 HD
ATOM     15  O   UNL A   1      32.187  21.021  23.064  1.00  0.00    -0.275 OA
BRANCH  13  16
ATOM     16  C   UNL A   1      33.733  22.847  22.937  1.00  0.00     0.105 C 
BRANCH  16  17
ATOM     17  C   UNL A   1      33.049  23.802  21.951  1.00  0.00     0.045 C 
BRANCH  17  18
ATOM     18  C   UNL A   1      32.757  25.176  22.512  1.00  0.00    -0.044 A 
ATOM     19  C   UNL A   1      33.713  25.831  23.304  1.00  0.00     0.007 A 
ATOM     20  C   UNL A   1      31.562  25.848  22.198  1.00  0.00     0.046 A 
ATOM     21  C   UNL A   1      33.530  27.166  23.677  1.00  0.00     0.043 A 
ATOM     22  C   UNL A   1      31.406  27.189  22.544  1.00  0.00     0.159 A 
ATOM     23  C   UNL A   1      32.393  27.847  23.262  1.00  0.00     0.158 A 
ATOM     24  F   UNL A   1      30.326  27.858  22.117  1.00  0.00    -0.204 F 
ATOM     25  F   UNL A   1      32.271  29.154  23.538  1.00  0.00    -0.204 F 
ENDBRANCH  17  18
ENDBRANCH  16  17
ENDBRANCH  13  16
ENDBRANCH   7  12
ENDBRANCH   4   7
ENDBRANCH   2   3
ENDBRANCH   1   2
BRANCH   1  26
ATOM     26  C   UNL A   1      37.587  22.165  25.414  1.00  0.00     0.002 C 
BRANCH  26  27
ATOM     27  C   UNL A   1      37.246  20.820  24.762  1.00  0.00     0.002 C 
BRANCH  27  28
ATOM     28  C   UNL A   1      38.226  19.681  25.042  1.00  0.00     0.021 C 
BRANCH  28  29
ATOM     29  C   UNL A   1      39.458  20.089  25.831  1.00  0.00     0.116 C 
BRANCH  29  30
ATOM     30  N   UNL A   1      40.439  19.022  25.907  1.00  0.00    -0.352 N 
ATOM     31  C   UNL A   1      41.789  19.127  26.119  1.00  0.00     0.251 C 
ATOM     32  H   UNL A   1      40.091  18.109  25.794  1.00  0.00     0.163 HD
ATOM     33  O   UNL A   1      42.525  18.156  25.984  1.00  0.00    -0.269 OA
BRANCH  31  34
ATOM     34  C   UNL A   1      42.349  20.444  26.480  1.00  0.00     0.039 A 
ATOM     35  C   UNL A   1      42.792  21.291  25.464  1.00  0.00     0.014 A 
ATOM     36  C   UNL A   1      42.392  20.850  27.818  1.00  0.00     0.014 A 
ATOM     37  C   UNL A   1      43.234  22.573  25.787  1.00  0.00     0.010 A 
ATOM     38  C   UNL A   1      42.756  22.155  28.129  1.00  0.00     0.010 A 
ATOM     39  C   UNL A   1      43.188  23.026  27.116  1.00  0.00    -0.014 A 
BRANCH  39  40
ATOM     40  C   UNL A   1      43.608  24.403  27.473  1.00  0.00     0.031 A 
ATOM     41  C   UNL A   1      42.571  25.433  27.821  1.00  0.00     0.074 A 
ATOM     42  C   UNL A   1      44.914  24.730  27.446  1.00  0.00     0.049 A 
ATOM     43  N   UNL A   1      42.727  26.703  28.094  1.00  0.00    -0.248 NA
ATOM     44  C   UNL A   1      41.168  24.984  27.845  1.00  0.00     0.031 C 
ATOM     45  C   UNL A   1      46.007  23.821  27.101  1.00  0.00     0.029 A 
ATOM     46  N   UNL A   1      45.545  25.919  27.714  1.00  0.00    -0.354 N 
ATOM     47  C   UNL A   1      41.451  27.199  28.320  1.00  0.00     0.074 A 
ATOM     48  C   UNL A   1      40.524  26.114  28.090  1.00  0.00     0.031 C 
ATOM     49  C   UNL A   1      47.176  24.471  27.217  1.00  0.00     0.029 A 
ATOM     50  C   UNL A   1      46.913  25.855  27.598  1.00  0.00     0.049 A 
ATOM     51  H   UNL A   1      45.064  26.740  27.965  1.00  0.00     0.167 HD
ATOM     52  C   UNL A   1      41.089  28.441  28.718  1.00  0.00     0.037 A 
ATOM     53  C   UNL A   1      47.847  26.809  27.778  1.00  0.00     0.037 A 
ATOM     54  C   UNL A   1      42.019  29.510  28.969  1.00  0.00     0.049 A 
ATOM     55  C   UNL A   1      47.409  28.194  28.174  1.00  0.00     0.074 A 
ATOM     56  C   UNL A   1      41.752  30.798  29.394  1.00  0.00     0.029 A 
ATOM     57  N   UNL A   1      43.394  29.411  28.823  1.00  0.00    -0.354 N 
ATOM     58  N   UNL A   1      46.203  28.643  28.417  1.00  0.00    -0.248 NA
ATOM     59  C   UNL A   1      48.466  29.207  28.319  1.00  0.00     0.031 C 
ATOM     60  C   UNL A   1      42.961  31.494  29.465  1.00  0.00     0.029 A 
ATOM     61  C   UNL A   1      43.988  30.623  29.136  1.00  0.00     0.049 A 
ATOM     62  H   UNL A   1      43.877  28.602  28.539  1.00  0.00     0.167 HD
ATOM     63  C   UNL A   1      46.355  29.975  28.776  1.00  0.00     0.074 A 
ATOM     64  C   UNL A   1      47.774  30.260  28.733  1.00  0.00     0.031 C 
ATOM     65  C   UNL A   1      45.404  30.882  29.108  1.00  0.00     0.037 A 
BRANCH  52  66
ATOM     66  C   UNL A   1      39.630  28.712  28.940  1.00  0.00     0.064 A 
ATOM     67  C   UNL A   1      38.836  29.242  27.913  1.00  0.00     0.173 A 
ATOM     68  C   UNL A   1      39.042  28.534  30.201  1.00  0.00     0.173 A 
ATOM     69  F   UNL A   1      39.352  29.434  26.689  1.00  0.00    -0.203 F 
ATOM     70  C   UNL A   1      37.513  29.607  28.146  1.00  0.00     0.198 A 
ATOM     71  C   UNL A   1      37.710  28.873  30.423  1.00  0.00     0.198 A 
ATOM     72  F   UNL A   1      39.754  28.017  31.213  1.00  0.00    -0.203 F 
ATOM     73  F   UNL A   1      36.785  30.151  27.161  1.00  0.00    -0.200 F 
ATOM     74  C   UNL A   1      36.951  29.421  29.401  1.00  0.00     0.200 A 
ATOM     75  F   UNL A   1      37.161  28.669  31.629  1.00  0.00    -0.200 F 
ATOM     76  F   UNL A   1      35.676  29.770  29.623  1.00  0.00    -0.200 F 
ENDBRANCH  52  66
BRANCH  53  77
ATOM     77  C   UNL A   1      49.289  26.480  27.622  1.00  0.00     0.064 A 
ATOM     78  C   UNL A   1      49.884  26.347  26.358  1.00  0.00     0.173 A 
ATOM     79  C   UNL A   1      50.104  26.288  28.747  1.00  0.00     0.173 A 
ATOM     80  F   UNL A   1      49.149  26.517  25.250  1.00  0.00    -0.203 F 
ATOM     81  C   UNL A   1      51.233  26.025  26.227  1.00  0.00     0.198 A 
ATOM     82  C   UNL A   1      51.460  25.996  28.614  1.00  0.00     0.198 A 
ATOM     83  F   UNL A   1      49.588  26.424  29.978  1.00  0.00    -0.203 F 
ATOM     84  F   UNL A   1      51.768  25.875  25.008  1.00  0.00    -0.200 F 
ATOM     85  C   UNL A   1      52.022  25.858  27.354  1.00  0.00     0.200 A 
ATOM     86  F   UNL A   1      52.225  25.863  29.707  1.00  0.00    -0.200 F 
ATOM     87  F   UNL A   1      53.325  25.569  27.227  1.00  0.00    -0.200 F 
ENDBRANCH  53  77
BRANCH  65  88
ATOM     88  C   UNL A   1      45.857  32.263  29.486  1.00  0.00     0.064 A 
ATOM     89  C   UNL A   1      46.168  32.567  30.820  1.00  0.00     0.173 A 
ATOM     90  C   UNL A   1      45.905  33.303  28.547  1.00  0.00     0.173 A 
ATOM     91  F   UNL A   1      46.127  31.609  31.759  1.00  0.00    -0.203 F 
ATOM     92  C   UNL A   1      46.491  33.865  31.203  1.00  0.00     0.198 A 
ATOM     93  C   UNL A   1      46.261  34.593  28.927  1.00  0.00     0.198 A 
ATOM     94  F   UNL A   1      45.628  33.061  27.256  1.00  0.00    -0.203 F 
ATOM     95  F   UNL A   1      46.742  34.139  32.491  1.00  0.00    -0.200 F 
ATOM     96  C   UNL A   1      46.542  34.876  30.256  1.00  0.00     0.200 A 
ATOM     97  F   UNL A   1      46.335  35.564  28.007  1.00  0.00    -0.200 F 
ATOM     98  F   UNL A   1      46.864  36.124  30.624  1.00  0.00    -0.200 F 
ENDBRANCH  65  88
ENDBRANCH  39  40
ENDBRANCH  31  34
ENDBRANCH  29  30
ENDBRANCH  28  29
ENDBRANCH  27  28
ENDBRANCH  26  27
ENDBRANCH   1  26
TORSDOF 19
ENDMDL
MODEL 2
REMARK VINA RESULT:     -11.2      1.006      7.298
REMARK SMILES CC[C@@H](C)[C@H](NC(=O)CCc1ccc(F)c(F)c1)C(=O)NCCCCCCNC(=O)c1ccc(-c2c3nc(c(-c4c(F)c(F)c(F)c(F)c4F)c4ccc([nH]4)c(-c4c(F)c(F)c(F)c(F)c4F)c4nc(c(-c5c(F)c(F)c(F)c(F)c5F)c5ccc2[nH]5)C=C4)C=C3)cc1
REMARK SMILES IDX 23 1 22 2 21 3 19 4 20 5 5 7 3 8 4 9 2 10 1 11 6 12 7 13
REMARK SMILES IDX 8 15 9 16 10 17 11 18 12 19 18 20 13 21 16 22 14 23 17 24
REMARK SMILES IDX 15 25 24 26 25 27 26 28 27 29 28 30 29 31 30 33 31 34 32 35
REMARK SMILES IDX 93 36 33 37 92 38 34 39 35 40 36 41 86 42 37 43 91 44 85 45
REMARK SMILES IDX 87 46 38 47 90 48 84 49 83 50 39 52 71 53 51 54 70 55 52 56
REMARK SMILES IDX 55 57 69 58 88 59 53 60 54 61 68 63 89 64 56 65 40 66 41 67
REMARK SMILES IDX 49 68 42 69 43 70 47 71 50 72 44 73 45 74 48 75 46 76 72 77
REMARK SMILES IDX 73 78 81 79 74 80 75 81 79 82 82 83 76 84 77 85 80 86 78 87
REMARK SMILES IDX 57 88 58 89 66 90 59 91 60 92 64 93 67 94 61 95 62 96 65 97
REMARK SMILES IDX 63 98
REMARK H PARENT 21 6 6 14 28 32 87 51 55 62
REMARK Flexibility Score: inf
ROOT
ATOM      1  C   UNL A   1      36.796  23.081  24.623  1.00  0.00     0.021 C 
ENDROOT
BRANCH   1   2
ATOM      2  C   UNL A   1      36.174  24.039  25.622  1.00  0.00     0.116 C 
BRANCH   2   3
ATOM      3  N   UNL A   1      35.431  23.345  26.649  1.00  0.00    -0.354 N 
ATOM      4  C   UNL A   1      34.102  23.071  26.707  1.00  0.00     0.242 C 
ATOM      5  O   UNL A   1      33.743  22.194  27.494  1.00  0.00    -0.273 OA
ATOM      6  H   UNL A   1      35.963  23.027  27.414  1.00  0.00     0.163 HD
BRANCH   4   7
ATOM      7  C   UNL A   1      33.111  23.741  25.736  1.00  0.00     0.174 C 
BRANCH   7   8
ATOM      8  C   UNL A   1      31.813  24.242  26.451  1.00  0.00     0.018 C 
ATOM      9  C   UNL A   1      30.657  23.236  26.531  1.00  0.00     0.010 C 
BRANCH   8  10
ATOM     10  C   UNL A   1      31.323  25.609  25.928  1.00  0.00     0.002 C 
ATOM     11  C   UNL A   1      31.884  26.795  26.703  1.00  0.00     0.004 C 
ENDBRANCH   8  10
ENDBRANCH   7   8
BRANCH   7  12
ATOM     12  N   UNL A   1      32.939  22.976  24.496  1.00  0.00    -0.344 N 
ATOM     13  C   UNL A   1      33.064  23.408  23.206  1.00  0.00     0.220 C 
ATOM     14  H   UNL A   1      32.700  22.028  24.608  1.00  0.00     0.164 HD
ATOM     15  O   UNL A   1      32.694  22.647  22.307  1.00  0.00    -0.275 OA
BRANCH  13  16
ATOM     16  C   UNL A   1      33.693  24.752  22.869  1.00  0.00     0.105 C 
BRANCH  16  17
ATOM     17  C   UNL A   1      32.888  25.593  21.870  1.00  0.00     0.045 C 
BRANCH  17  18
ATOM     18  C   UNL A   1      32.283  26.849  22.456  1.00  0.00    -0.044 A 
ATOM     19  C   UNL A   1      30.891  27.027  22.452  1.00  0.00     0.007 A 
ATOM     20  C   UNL A   1      33.089  27.823  23.072  1.00  0.00     0.046 A 
ATOM     21  C   UNL A   1      30.311  28.093  23.146  1.00  0.00     0.043 A 
ATOM     22  C   UNL A   1      32.500  28.861  23.791  1.00  0.00     0.159 A 
ATOM     23  C   UNL A   1      31.120  28.983  23.843  1.00  0.00     0.158 A 
ATOM     24  F   UNL A   1      33.275  29.700  24.491  1.00  0.00    -0.204 F 
ATOM     25  F   UNL A   1      30.552  29.943  24.588  1.00  0.00    -0.204 F 
ENDBRANCH  17  18
ENDBRANCH  16  17
ENDBRANCH  13  16
ENDBRANCH   7  12
ENDBRANCH   4   7
ENDBRANCH   2   3
ENDBRANCH   1   2
BRANCH   1  26
ATOM     26  C   UNL A   1      37.581  21.930  25.261  1.00  0.00     0.002 C 
BRANCH  26  27
ATOM     27  C   UNL A   1      37.209  20.522  24.784  1.00  0.00     0.002 C 
BRANCH  27  28
ATOM     28  C   UNL A   1      38.272  19.446  25.001  1.00  0.00     0.021 C 
BRANCH  28  29
ATOM     29  C   UNL A   1      39.435  19.877  25.877  1.00  0.00     0.116 C 
BRANCH  29  30
ATOM     30  N   UNL A   1      40.481  18.873  25.934  1.00  0.00    -0.352 N 
ATOM     31  C   UNL A   1      41.832  19.065  26.055  1.00  0.00     0.251 C 
ATOM     32  H   UNL A   1      40.182  17.937  25.879  1.00  0.00     0.163 HD
ATOM     33  O   UNL A   1      42.616  18.132  25.913  1.00  0.00    -0.269 OA
BRANCH  31  34
ATOM     34  C   UNL A   1      42.334  20.426  26.328  1.00  0.00     0.039 A 
ATOM     35  C   UNL A   1      42.710  21.234  25.255  1.00  0.00     0.014 A 
ATOM     36  C   UNL A   1      42.387  20.910  27.639  1.00  0.00     0.014 A 
ATOM     37  C   UNL A   1      43.094  22.552  25.494  1.00  0.00     0.010 A 
ATOM     38  C   UNL A   1      42.691  22.247  27.867  1.00  0.00     0.010 A 
ATOM     39  C   UNL A   1      43.055  23.078  26.797  1.00  0.00    -0.014 A 
BRANCH  39  40
ATOM     40  C   UNL A   1      43.413  24.492  27.065  1.00  0.00     0.031 A 
ATOM     41  C   UNL A   1      44.810  24.973  26.793  1.00  0.00     0.074 A 
ATOM     42  C   UNL A   1      42.493  25.325  27.589  1.00  0.00     0.049 A 
ATOM     43  N   UNL A   1      45.338  26.148  27.022  1.00  0.00    -0.248 NA
ATOM     44  C   UNL A   1      45.746  24.001  26.203  1.00  0.00     0.031 C 
ATOM     45  C   UNL A   1      41.114  24.964  27.916  1.00  0.00     0.029 A 
ATOM     46  N   UNL A   1      42.579  26.650  27.936  1.00  0.00    -0.354 N 
ATOM     47  C   UNL A   1      46.660  26.054  26.607  1.00  0.00     0.074 A 
ATOM     48  C   UNL A   1      46.875  24.693  26.172  1.00  0.00     0.031 C 
ATOM     49  C   UNL A   1      40.471  26.048  28.378  1.00  0.00     0.029 A 
ATOM     50  C   UNL A   1      41.405  27.169  28.425  1.00  0.00     0.049 A 
ATOM     51  H   UNL A   1      43.405  27.179  27.844  1.00  0.00     0.167 HD
ATOM     52  C   UNL A   1      47.598  27.028  26.561  1.00  0.00     0.037 A 
ATOM     53  C   UNL A   1      41.116  28.410  28.862  1.00  0.00     0.037 A 
ATOM     54  C   UNL A   1      47.371  28.387  26.972  1.00  0.00     0.049 A 
ATOM     55  C   UNL A   1      42.197  29.459  28.844  1.00  0.00     0.074 A 
ATOM     56  C   UNL A   1      48.253  29.452  26.945  1.00  0.00     0.029 A 
ATOM     57  N   UNL A   1      46.173  28.870  27.478  1.00  0.00    -0.354 N 
ATOM     58  N   UNL A   1      43.432  29.368  28.418  1.00  0.00    -0.248 NA
ATOM     59  C   UNL A   1      41.840  30.786  29.368  1.00  0.00     0.031 C 
ATOM     60  C   UNL A   1      47.604  30.569  27.476  1.00  0.00     0.029 A 
ATOM     61  C   UNL A   1      46.299  30.215  27.782  1.00  0.00     0.049 A 
ATOM     62  H   UNL A   1      45.355  28.336  27.604  1.00  0.00     0.167 HD
ATOM     63  C   UNL A   1      43.991  30.627  28.590  1.00  0.00     0.074 A 
ATOM     64  C   UNL A   1      42.954  31.471  29.147  1.00  0.00     0.031 C 
ATOM     65  C   UNL A   1      45.251  31.045  28.316  1.00  0.00     0.037 A 
BRANCH  52  66
ATOM     66  C   UNL A   1      48.952  26.675  26.020  1.00  0.00     0.064 A 
ATOM     67  C   UNL A   1      49.943  26.143  26.859  1.00  0.00     0.173 A 
ATOM     68  C   UNL A   1      49.298  26.952  24.689  1.00  0.00     0.173 A 
ATOM     69  F   UNL A   1      49.663  25.862  28.141  1.00  0.00    -0.203 F 
ATOM     70  C   UNL A   1      51.236  25.924  26.392  1.00  0.00     0.198 A 
ATOM     71  C   UNL A   1      50.585  26.705  24.217  1.00  0.00     0.198 A 
ATOM     72  F   UNL A   1      48.384  27.448  23.842  1.00  0.00    -0.203 F 
ATOM     73  F   UNL A   1      52.177  25.455  27.223  1.00  0.00    -0.200 F 
ATOM     74  C   UNL A   1      51.555  26.205  25.071  1.00  0.00     0.200 A 
ATOM     75  F   UNL A   1      50.884  26.954  22.935  1.00  0.00    -0.200 F 
ATOM     76  F   UNL A   1      52.800  25.992  24.622  1.00  0.00    -0.200 F 
ENDBRANCH  52  66
BRANCH  53  77
ATOM     77  C   UNL A   1      39.740  28.740  29.319  1.00  0.00     0.064 A 
ATOM     78  C   UNL A   1      38.785  29.289  28.450  1.00  0.00     0.173 A 
ATOM     79  C   UNL A   1      39.354  28.511  30.648  1.00  0.00     0.173 A 
ATOM     80  F   UNL A   1      39.103  29.530  27.170  1.00  0.00    -0.203 F 
ATOM     81  C   UNL A   1      37.504  29.606  28.895  1.00  0.00     0.198 A 
ATOM     82  C   UNL A   1      38.063  28.800  31.084  1.00  0.00     0.198 A 
ATOM     83  F   UNL A   1      40.224  27.970  31.513  1.00  0.00    -0.203 F 
ATOM     84  F   UNL A   1      36.621  30.157  28.051  1.00  0.00    -0.200 F 
ATOM     85  C   UNL A   1      37.141  29.354  30.209  1.00  0.00     0.200 A 
ATOM     86  F   UNL A   1      37.708  28.529  32.348  1.00  0.00    -0.200 F 
ATOM     87  F   UNL A   1      35.901  29.640  30.631  1.00  0.00    -0.200 F 
ENDBRANCH  53  77
BRANCH  65  88
ATOM     88  C   UNL A   1      45.580  32.487  28.577  1.00  0.00     0.064 A 
ATOM     89  C   UNL A   1      45.384  33.451  27.576  1.00  0.00     0.173 A 
ATOM     90  C   UNL A   1      46.166  32.899  29.782  1.00  0.00     0.173 A 
ATOM     91  F   UNL A   1      44.838  33.105  26.401  1.00  0.00    -0.203 F 
ATOM     92  C   UNL A   1      45.779  34.771  27.767  1.00  0.00     0.198 A 
ATOM     93  C   UNL A   1      46.528  34.227  29.982  1.00  0.00     0.198 A 
ATOM     94  F   UNL A   1      46.363  32.017  30.774  1.00  0.00    -0.203 F 
ATOM     95  F   UNL A   1      45.621  35.666  26.781  1.00  0.00    -0.200 F 
ATOM     96  C   UNL A   1      46.346  35.160  28.971  1.00  0.00     0.200 A 
ATOM     97  F   UNL A   1      47.053  34.607  31.155  1.00  0.00    -0.200 F 
ATOM     98  F   UNL A   1      46.717  36.434  29.158  1.00  0.00    -0.200 F 
ENDBRANCH  65  88
ENDBRANCH  39  40
ENDBRANCH  31  34
ENDBRANCH  29  30
ENDBRANCH  28  29
ENDBRANCH  27  28
ENDBRANCH  26  27
ENDBRANCH   1  26
TORSDOF 19
ENDMDL
MODEL 3
REMARK VINA RESULT:     -11.2      5.610     10.459
REMARK SMILES CC[C@@H](C)[C@H](NC(=O)CCc1ccc(F)c(F)c1)C(=O)NCCCCCCNC(=O)c1ccc(-c2c3nc(c(-c4c(F)c(F)c(F)c(F)c4F)c4ccc([nH]4)c(-c4c(F)c(F)c(F)c(F)c4F)c4nc(c(-c5c(F)c(F)c(F)c(F)c5F)c5ccc2[nH]5)C=C4)C=C3)cc1
REMARK SMILES IDX 23 1 22 2 21 3 19 4 20 5 5 7 3 8 4 9 2 10 1 11 6 12 7 13
REMARK SMILES IDX 8 15 9 16 10 17 11 18 12 19 18 20 13 21 16 22 14 23 17 24
REMARK SMILES IDX 15 25 24 26 25 27 26 28 27 29 28 30 29 31 30 33 31 34 32 35
REMARK SMILES IDX 93 36 33 37 92 38 34 39 35 40 36 41 86 42 37 43 91 44 85 45
REMARK SMILES IDX 87 46 38 47 90 48 84 49 83 50 39 52 71 53 51 54 70 55 52 56
REMARK SMILES IDX 55 57 69 58 88 59 53 60 54 61 68 63 89 64 56 65 40 66 41 67
REMARK SMILES IDX 49 68 42 69 43 70 47 71 50 72 44 73 45 74 48 75 46 76 72 77
REMARK SMILES IDX 73 78 81 79 74 80 75 81 79 82 82 83 76 84 77 85 80 86 78 87
REMARK SMILES IDX 57 88 58 89 66 90 59 91 60 92 64 93 67 94 61 95 62 96 65 97
REMARK SMILES IDX 63 98
REMARK H PARENT 21 6 6 14 28 32 87 51 55 62
REMARK Flexibility Score: inf
ROOT
ATOM      1  C   UNL A   1      32.829  28.555  27.001  1.00  0.00     0.021 C 
ENDROOT
BRANCH   1   2
ATOM      2  C   UNL A   1      33.533  27.929  25.811  1.00  0.00     0.116 C 
BRANCH   2   3
ATOM      3  N   UNL A   1      34.083  26.631  26.126  1.00  0.00    -0.354 N 
ATOM      4  C   UNL A   1      33.900  25.446  25.488  1.00  0.00     0.242 C 
ATOM      5  O   UNL A   1      34.714  24.550  25.721  1.00  0.00    -0.273 OA
ATOM      6  H   UNL A   1      34.672  26.601  26.914  1.00  0.00     0.163 HD
BRANCH   4   7
ATOM      7  C   UNL A   1      32.799  25.279  24.424  1.00  0.00     0.174 C 
BRANCH   7   8
ATOM      8  C   UNL A   1      31.906  24.019  24.672  1.00  0.00     0.018 C 
ATOM      9  C   UNL A   1      31.470  23.245  23.420  1.00  0.00     0.010 C 
BRANCH   8  10
ATOM     10  C   UNL A   1      30.703  24.301  25.597  1.00  0.00     0.002 C 
ATOM     11  C   UNL A   1      30.508  25.779  25.911  1.00  0.00     0.004 C 
ENDBRANCH   8  10
ENDBRANCH   7   8
BRANCH   7  12
ATOM     12  N   UNL A   1      33.301  25.486  23.060  1.00  0.00    -0.344 N 
ATOM     13  C   UNL A   1      32.883  26.392  22.128  1.00  0.00     0.220 C 
ATOM     14  H   UNL A   1      34.034  24.891  22.781  1.00  0.00     0.164 HD
ATOM     15  O   UNL A   1      33.315  26.273  20.978  1.00  0.00    -0.275 OA
BRANCH  13  16
ATOM     16  C   UNL A   1      31.966  27.551  22.492  1.00  0.00     0.105 C 
BRANCH  16  17
ATOM     17  C   UNL A   1      30.489  27.165  22.637  1.00  0.00     0.045 C 
BRANCH  17  18
ATOM     18  C   UNL A   1      29.533  28.337  22.631  1.00  0.00    -0.044 A 
ATOM     19  C   UNL A   1      28.216  28.173  23.087  1.00  0.00     0.007 A 
ATOM     20  C   UNL A   1      29.960  29.618  22.237  1.00  0.00     0.046 A 
ATOM     21  C   UNL A   1      27.381  29.283  23.254  1.00  0.00     0.043 A 
ATOM     22  C   UNL A   1      29.134  30.721  22.442  1.00  0.00     0.159 A 
ATOM     23  C   UNL A   1      27.860  30.555  22.965  1.00  0.00     0.158 A 
ATOM     24  F   UNL A   1      29.603  31.951  22.196  1.00  0.00    -0.204 F 
ATOM     25  F   UNL A   1      27.089  31.622  23.222  1.00  0.00    -0.204 F 
ENDBRANCH  17  18
ENDBRANCH  16  17
ENDBRANCH  13  16
ENDBRANCH   7  12
ENDBRANCH   4   7
ENDBRANCH   2   3
ENDBRANCH   1   2
BRANCH   1  26
ATOM     26  C   UNL A   1      32.833  30.087  26.999  1.00  0.00     0.002 C 
BRANCH  26  27
ATOM     27  C   UNL A   1      31.633  30.756  26.320  1.00  0.00     0.002 C 
BRANCH  27  28
ATOM     28  C   UNL A   1      31.458  32.248  26.604  1.00  0.00     0.021 C 
BRANCH  28  29
ATOM     29  C   UNL A   1      32.596  32.878  27.388  1.00  0.00     0.116 C 
BRANCH  29  30
ATOM     30  N   UNL A   1      32.360  34.283  27.664  1.00  0.00    -0.352 N 
ATOM     31  C   UNL A   1      32.970  35.074  28.602  1.00  0.00     0.251 C 
ATOM     32  H   UNL A   1      31.678  34.722  27.108  1.00  0.00     0.163 HD
ATOM     33  O   UNL A   1      32.549  36.200  28.845  1.00  0.00    -0.269 OA
BRANCH  31  34
ATOM     34  C   UNL A   1      34.128  34.535  29.341  1.00  0.00     0.039 A 
ATOM     35  C   UNL A   1      33.908  33.876  30.551  1.00  0.00     0.014 A 
ATOM     36  C   UNL A   1      35.418  34.644  28.812  1.00  0.00     0.014 A 
ATOM     37  C   UNL A   1      34.982  33.279  31.209  1.00  0.00     0.010 A 
ATOM     38  C   UNL A   1      36.472  33.980  29.428  1.00  0.00     0.010 A 
ATOM     39  C   UNL A   1      36.265  33.298  30.637  1.00  0.00    -0.014 A 
BRANCH  39  40
ATOM     40  C   UNL A   1      37.411  32.627  31.297  1.00  0.00     0.031 A 
ATOM     41  C   UNL A   1      38.118  31.499  30.601  1.00  0.00     0.074 A 
ATOM     42  C   UNL A   1      37.785  33.009  32.534  1.00  0.00     0.049 A 
ATOM     43  N   UNL A   1      39.093  30.742  31.035  1.00  0.00    -0.248 NA
ATOM     44  C   UNL A   1      37.655  31.160  29.245  1.00  0.00     0.031 C 
ATOM     45  C   UNL A   1      37.159  34.075  33.315  1.00  0.00     0.029 A 
ATOM     46  N   UNL A   1      38.785  32.543  33.350  1.00  0.00    -0.354 N 
ATOM     47  C   UNL A   1      39.357  29.844  30.010  1.00  0.00     0.074 A 
ATOM     48  C   UNL A   1      38.401  30.103  28.958  1.00  0.00     0.031 C 
ATOM     49  C   UNL A   1      37.812  34.211  34.480  1.00  0.00     0.029 A 
ATOM     50  C   UNL A   1      38.873  33.210  34.548  1.00  0.00     0.049 A 
ATOM     51  H   UNL A   1      39.383  31.802  33.101  1.00  0.00     0.167 HD
ATOM     52  C   UNL A   1      40.334  28.910  29.941  1.00  0.00     0.037 A 
ATOM     53  C   UNL A   1      39.715  33.031  35.585  1.00  0.00     0.037 A 
ATOM     54  C   UNL A   1      41.298  28.673  30.982  1.00  0.00     0.049 A 
ATOM     55  C   UNL A   1      40.760  31.951  35.497  1.00  0.00     0.074 A 
ATOM     56  C   UNL A   1      42.339  27.763  30.998  1.00  0.00     0.029 A 
ATOM     57  N   UNL A   1      41.343  29.357  32.187  1.00  0.00    -0.354 N 
ATOM     58  N   UNL A   1      41.022  31.131  34.510  1.00  0.00    -0.248 NA
ATOM     59  C   UNL A   1      41.628  31.772  36.671  1.00  0.00     0.031 C 
ATOM     60  C   UNL A   1      42.988  27.864  32.230  1.00  0.00     0.029 A 
ATOM     61  C   UNL A   1      42.387  28.876  32.962  1.00  0.00     0.049 A 
ATOM     62  H   UNL A   1      40.726  30.076  32.454  1.00  0.00     0.167 HD
ATOM     63  C   UNL A   1      42.101  30.363  34.926  1.00  0.00     0.074 A 
ATOM     64  C   UNL A   1      42.456  30.825  36.251  1.00  0.00     0.031 C 
ATOM     65  C   UNL A   1      42.739  29.362  34.270  1.00  0.00     0.037 A 
BRANCH  52  66
ATOM     66  C   UNL A   1      40.437  28.090  28.689  1.00  0.00     0.064 A 
ATOM     67  C   UNL A   1      39.834  26.825  28.610  1.00  0.00     0.173 A 
ATOM     68  C   UNL A   1      41.211  28.517  27.601  1.00  0.00     0.173 A 
ATOM     69  F   UNL A   1      39.083  26.369  29.624  1.00  0.00    -0.203 F 
ATOM     70  C   UNL A   1      40.023  26.010  27.497  1.00  0.00     0.198 A 
ATOM     71  C   UNL A   1      41.376  27.711  26.478  1.00  0.00     0.198 A 
ATOM     72  F   UNL A   1      41.798  29.724  27.621  1.00  0.00    -0.203 F 
ATOM     73  F   UNL A   1      39.472  24.789  27.462  1.00  0.00    -0.200 F 
ATOM     74  C   UNL A   1      40.793  26.454  26.433  1.00  0.00     0.200 A 
ATOM     75  F   UNL A   1      42.100  28.152  25.440  1.00  0.00    -0.200 F 
ATOM     76  F   UNL A   1      40.973  25.668  25.361  1.00  0.00    -0.200 F 
ENDBRANCH  52  66
BRANCH  53  77
ATOM     77  C   UNL A   1      39.630  33.916  36.777  1.00  0.00     0.064 A 
ATOM     78  C   UNL A   1      40.308  35.143  36.835  1.00  0.00     0.173 A 
ATOM     79  C   UNL A   1      38.863  33.544  37.890  1.00  0.00     0.173 A 
ATOM     80  F   UNL A   1      41.058  35.546  35.799  1.00  0.00    -0.203 F 
ATOM     81  C   UNL A   1      40.231  35.956  37.964  1.00  0.00     0.198 A 
ATOM     82  C   UNL A   1      38.762  34.373  39.006  1.00  0.00     0.198 A 
ATOM     83  F   UNL A   1      38.179  32.390  37.876  1.00  0.00    -0.203 F 
ATOM     84  F   UNL A   1      40.913  37.109  38.005  1.00  0.00    -0.200 F 
ATOM     85  C   UNL A   1      39.452  35.575  39.045  1.00  0.00     0.200 A 
ATOM     86  F   UNL A   1      37.985  34.012  40.037  1.00  0.00    -0.200 F 
ATOM     87  F   UNL A   1      39.361  36.367  40.122  1.00  0.00    -0.200 F 
ENDBRANCH  53  77
BRANCH  65  88
ATOM     88  C   UNL A   1      43.909  28.714  34.953  1.00  0.00     0.064 A 
ATOM     89  C   UNL A   1      43.714  27.616  35.804  1.00  0.00     0.173 A 
ATOM     90  C   UNL A   1      45.207  29.229  34.830  1.00  0.00     0.173 A 
ATOM     91  F   UNL A   1      42.489  27.094  35.965  1.00  0.00    -0.203 F 
ATOM     92  C   UNL A   1      44.773  27.070  36.522  1.00  0.00     0.198 A 
ATOM     93  C   UNL A   1      46.270  28.658  35.523  1.00  0.00     0.198 A 
ATOM     94  F   UNL A   1      45.447  30.270  34.018  1.00  0.00    -0.203 F 
ATOM     95  F   UNL A   1      44.555  26.048  37.362  1.00  0.00    -0.200 F 
ATOM     96  C   UNL A   1      46.051  27.587  36.377  1.00  0.00     0.200 A 
ATOM     97  F   UNL A   1      47.509  29.143  35.362  1.00  0.00    -0.200 F 
ATOM     98  F   UNL A   1      47.073  27.054  37.061  1.00  0.00    -0.200 F 
ENDBRANCH  65  88
ENDBRANCH  39  40
ENDBRANCH  31  34
ENDBRANCH  29  30
ENDBRANCH  28  29
ENDBRANCH  27  28
ENDBRANCH  26  27
ENDBRANCH   1  26
TORSDOF 19
ENDMDL
