MODEL 1
REMARK VINA RESULT:     -11.1      0.000      0.000
REMARK SMILES C[C@@H](CC(=O)NCCCCCCNC(=O)c1ccc(-c2c3nc(c(-c4c(F)c(F)c(F)c(F)c4F)c4ccc([nH]4)c(-c4c(F)c(F)c(F)c(F)c4F)c4nc(c(-c5c(F)c(F)c(F)c(F)c5F)c5ccc2[nH]5)C=C4)C=C3)cc1)NC(=O)[C@@H]1CCCN(C(N)=O)C1
REMARK SMILES IDX 8 1 7 2 6 3 4 4 5 5 3 7 2 8 1 9 79 10 80 11 81 13 82 14
REMARK SMILES IDX 83 15 90 16 84 17 86 18 85 19 87 20 88 21 89 22 9 25 10 26
REMARK SMILES IDX 11 27 12 28 13 29 14 30 15 32 16 33 17 34 78 35 18 36 77 37
REMARK SMILES IDX 19 38 20 39 21 40 71 41 22 42 76 43 70 44 72 45 23 46 75 47
REMARK SMILES IDX 69 48 68 49 24 51 56 52 36 53 55 54 37 55 40 56 54 57 73 58
REMARK SMILES IDX 38 59 39 60 53 62 74 63 41 64 25 65 26 66 34 67 27 68 28 69
REMARK SMILES IDX 32 70 35 71 29 72 30 73 33 74 31 75 57 76 58 77 66 78 59 79
REMARK SMILES IDX 60 80 64 81 67 82 61 83 62 84 65 85 63 86 42 87 43 88 51 89
REMARK SMILES IDX 44 90 45 91 49 92 52 93 46 94 47 95 50 96 48 97
REMARK H PARENT 6 6 79 12 88 23 88 24 13 31 72 50 40 61
REMARK Flexibility Score: inf
ROOT
ATOM      1  C   UNL A   1      35.364  31.446  28.019  1.00  0.00     0.021 C 
ENDROOT
BRANCH   1   2
ATOM      2  C   UNL A   1      34.924  30.083  27.474  1.00  0.00     0.116 C 
BRANCH   2   3
ATOM      3  N   UNL A   1      33.964  30.250  26.395  1.00  0.00    -0.356 N 
ATOM      4  C   UNL A   1      33.255  29.324  25.690  1.00  0.00     0.222 C 
ATOM      5  O   UNL A   1      32.639  29.689  24.689  1.00  0.00    -0.275 OA
ATOM      6  H   UNL A   1      33.801  31.184  26.130  1.00  0.00     0.163 HD
BRANCH   4   7
ATOM      7  C   UNL A   1      33.191  27.894  26.165  1.00  0.00     0.124 C 
BRANCH   7   8
ATOM      8  C   UNL A   1      33.292  26.793  25.109  1.00  0.00     0.088 C 
ATOM      9  C   UNL A   1      34.111  25.558  25.438  1.00  0.00     0.031 C 
BRANCH   8  10
ATOM     10  N   UNL A   1      33.676  27.243  23.783  1.00  0.00    -0.353 N 
ATOM     11  C   UNL A   1      33.242  26.734  22.593  1.00  0.00     0.225 C 
ATOM     12  H   UNL A   1      34.314  27.991  23.738  1.00  0.00     0.163 HD
ATOM     13  O   UNL A   1      34.023  26.807  21.639  1.00  0.00    -0.275 OA
BRANCH  11  14
ATOM     14  C   UNL A   1      31.814  26.197  22.359  1.00  0.00     0.098 C 
ATOM     15  C   UNL A   1      30.792  27.333  22.419  1.00  0.00     0.017 C 
ATOM     16  C   UNL A   1      31.348  24.922  23.077  1.00  0.00     0.134 C 
ATOM     17  C   UNL A   1      30.229  27.538  23.815  1.00  0.00     0.022 C 
ATOM     18  N   UNL A   1      30.599  25.120  24.330  1.00  0.00    -0.324 N 
ATOM     19  C   UNL A   1      29.658  26.242  24.382  1.00  0.00     0.121 C 
BRANCH  18  20
ATOM     20  C   UNL A   1      30.654  24.285  25.427  1.00  0.00     0.314 C 
ATOM     21  N   UNL A   1      29.908  24.628  26.500  1.00  0.00    -0.351 N 
ATOM     22  O   UNL A   1      31.298  23.241  25.475  1.00  0.00    -0.249 OA
ATOM     23  H   UNL A   1      29.382  25.460  26.487  1.00  0.00     0.161 HD
ATOM     24  H   UNL A   1      29.891  24.047  27.294  1.00  0.00     0.161 HD
ENDBRANCH  18  20
ENDBRANCH  11  14
ENDBRANCH   8  10
ENDBRANCH   7   8
ENDBRANCH   4   7
ENDBRANCH   2   3
ENDBRANCH   1   2
BRANCH   1  25
ATOM     25  C   UNL A   1      34.296  32.184  28.824  1.00  0.00     0.002 C 
BRANCH  25  26
ATOM     26  C   UNL A   1      34.531  33.686  28.951  1.00  0.00     0.002 C 
BRANCH  26  27
ATOM     27  C   UNL A   1      33.266  34.544  28.862  1.00  0.00     0.021 C 
BRANCH  27  28
ATOM     28  C   UNL A   1      33.428  35.980  29.354  1.00  0.00     0.116 C 
BRANCH  28  29
ATOM     29  N   UNL A   1      32.529  36.283  30.457  1.00  0.00    -0.352 N 
ATOM     30  C   UNL A   1      32.559  35.817  31.743  1.00  0.00     0.251 C 
ATOM     31  H   UNL A   1      31.798  36.909  30.249  1.00  0.00     0.163 HD
ATOM     32  O   UNL A   1      31.603  35.993  32.498  1.00  0.00    -0.269 OA
BRANCH  30  33
ATOM     33  C   UNL A   1      33.749  35.090  32.221  1.00  0.00     0.039 A 
ATOM     34  C   UNL A   1      33.599  33.794  32.719  1.00  0.00     0.014 A 
ATOM     35  C   UNL A   1      35.010  35.690  32.167  1.00  0.00     0.014 A 
ATOM     36  C   UNL A   1      34.727  33.078  33.119  1.00  0.00     0.010 A 
ATOM     37  C   UNL A   1      36.139  34.951  32.503  1.00  0.00     0.010 A 
ATOM     38  C   UNL A   1      36.008  33.640  32.989  1.00  0.00    -0.014 A 
BRANCH  38  39
ATOM     39  C   UNL A   1      37.223  32.879  33.367  1.00  0.00     0.031 A 
ATOM     40  C   UNL A   1      37.924  33.181  34.662  1.00  0.00     0.074 A 
ATOM     41  C   UNL A   1      37.727  31.961  32.520  1.00  0.00     0.049 A 
ATOM     42  N   UNL A   1      39.035  32.681  35.139  1.00  0.00    -0.248 NA
ATOM     43  C   UNL A   1      37.305  34.199  35.526  1.00  0.00     0.031 C 
ATOM     44  C   UNL A   1      37.158  31.611  31.217  1.00  0.00     0.029 A 
ATOM     45  N   UNL A   1      38.837  31.162  32.623  1.00  0.00    -0.354 N 
ATOM     46  C   UNL A   1      39.253  33.329  36.347  1.00  0.00     0.074 A 
ATOM     47  C   UNL A   1      38.191  34.298  36.506  1.00  0.00     0.031 C 
ATOM     48  C   UNL A   1      37.911  30.653  30.652  1.00  0.00     0.029 A 
ATOM     49  C   UNL A   1      39.034  30.350  31.533  1.00  0.00     0.049 A 
ATOM     50  H   UNL A   1      39.437  31.170  33.404  1.00  0.00     0.167 HD
ATOM     51  C   UNL A   1      40.237  33.116  37.254  1.00  0.00     0.037 A 
ATOM     52  C   UNL A   1      40.016  29.466  31.274  1.00  0.00     0.037 A 
ATOM     53  C   UNL A   1      41.278  32.136  37.101  1.00  0.00     0.049 A 
ATOM     54  C   UNL A   1      41.105  29.261  32.292  1.00  0.00     0.074 A 
ATOM     55  C   UNL A   1      42.293  31.810  37.983  1.00  0.00     0.029 A 
ATOM     56  N   UNL A   1      41.436  31.320  35.990  1.00  0.00    -0.354 N 
ATOM     57  N   UNL A   1      41.267  29.836  33.459  1.00  0.00    -0.248 NA
ATOM     58  C   UNL A   1      42.145  28.278  31.960  1.00  0.00     0.031 C 
ATOM     59  C   UNL A   1      43.091  30.827  37.388  1.00  0.00     0.029 A 
ATOM     60  C   UNL A   1      42.544  30.505  36.156  1.00  0.00     0.049 A 
ATOM     61  H   UNL A   1      40.848  31.320  35.201  1.00  0.00     0.167 HD
ATOM     62  C   UNL A   1      42.405  29.265  34.012  1.00  0.00     0.074 A 
ATOM     63  C   UNL A   1      42.886  28.287  33.059  1.00  0.00     0.031 C 
ATOM     64  C   UNL A   1      42.999  29.526  35.202  1.00  0.00     0.037 A 
BRANCH  51  65
ATOM     65  C   UNL A   1      40.228  33.957  38.497  1.00  0.00     0.064 A 
ATOM     66  C   UNL A   1      39.512  33.570  39.640  1.00  0.00     0.173 A 
ATOM     67  C   UNL A   1      40.976  35.142  38.563  1.00  0.00     0.173 A 
ATOM     68  F   UNL A   1      38.771  32.451  39.625  1.00  0.00    -0.203 F 
ATOM     69  C   UNL A   1      39.525  34.349  40.793  1.00  0.00     0.198 A 
ATOM     70  C   UNL A   1      41.011  35.904  39.729  1.00  0.00     0.198 A 
ATOM     71  F   UNL A   1      41.683  35.557  37.501  1.00  0.00    -0.203 F 
ATOM     72  F   UNL A   1      38.794  33.983  41.856  1.00  0.00    -0.200 F 
ATOM     73  C   UNL A   1      40.280  35.511  40.840  1.00  0.00     0.200 A 
ATOM     74  F   UNL A   1      41.752  37.020  39.776  1.00  0.00    -0.200 F 
ATOM     75  F   UNL A   1      40.298  36.257  41.953  1.00  0.00    -0.200 F 
ENDBRANCH  51  65
BRANCH  52  76
ATOM     76  C   UNL A   1      40.005  28.690  30.005  1.00  0.00     0.064 A 
ATOM     77  C   UNL A   1      39.406  27.424  29.944  1.00  0.00     0.173 A 
ATOM     78  C   UNL A   1      40.606  29.185  28.839  1.00  0.00     0.173 A 
ATOM     79  F   UNL A   1      38.837  26.899  31.038  1.00  0.00    -0.203 F 
ATOM     80  C   UNL A   1      39.428  26.673  28.770  1.00  0.00     0.198 A 
ATOM     81  C   UNL A   1      40.602  28.446  27.658  1.00  0.00     0.198 A 
ATOM     82  F   UNL A   1      41.188  30.393  28.844  1.00  0.00    -0.203 F 
ATOM     83  F   UNL A   1      38.893  25.445  28.753  1.00  0.00    -0.200 F 
ATOM     84  C   UNL A   1      40.022  27.187  27.627  1.00  0.00     0.200 A 
ATOM     85  F   UNL A   1      41.164  28.952  26.552  1.00  0.00    -0.200 F 
ATOM     86  F   UNL A   1      40.044  26.464  26.499  1.00  0.00    -0.200 F 
ENDBRANCH  52  76
BRANCH  64  87
ATOM     87  C   UNL A   1      44.209  28.715  35.560  1.00  0.00     0.064 A 
ATOM     88  C   UNL A   1      44.108  27.516  36.279  1.00  0.00     0.173 A 
ATOM     89  C   UNL A   1      45.484  29.124  35.138  1.00  0.00     0.173 A 
ATOM     90  F   UNL A   1      42.913  27.091  36.717  1.00  0.00    -0.203 F 
ATOM     91  C   UNL A   1      45.242  26.768  36.586  1.00  0.00     0.198 A 
ATOM     92  C   UNL A   1      46.612  28.358  35.421  1.00  0.00     0.198 A 
ATOM     93  F   UNL A   1      45.635  30.259  34.441  1.00  0.00    -0.203 F 
ATOM     94  F   UNL A   1      45.127  25.650  37.317  1.00  0.00    -0.200 F 
ATOM     95  C   UNL A   1      46.491  27.186  36.150  1.00  0.00     0.200 A 
ATOM     96  F   UNL A   1      47.816  28.755  34.986  1.00  0.00    -0.200 F 
ATOM     97  F   UNL A   1      47.580  26.459  36.439  1.00  0.00    -0.200 F 
ENDBRANCH  64  87
ENDBRANCH  38  39
ENDBRANCH  30  33
ENDBRANCH  28  29
ENDBRANCH  27  28
ENDBRANCH  26  27
ENDBRANCH  25  26
ENDBRANCH   1  25
TORSDOF 17
ENDMDL
MODEL 2
REMARK VINA RESULT:     -11.0      1.979      7.642
REMARK SMILES C[C@@H](CC(=O)NCCCCCCNC(=O)c1ccc(-c2c3nc(c(-c4c(F)c(F)c(F)c(F)c4F)c4ccc([nH]4)c(-c4c(F)c(F)c(F)c(F)c4F)c4nc(c(-c5c(F)c(F)c(F)c(F)c5F)c5ccc2[nH]5)C=C4)C=C3)cc1)NC(=O)[C@@H]1CCCN(C(N)=O)C1
REMARK SMILES IDX 8 1 7 2 6 3 4 4 5 5 3 7 2 8 1 9 79 10 80 11 81 13 82 14
REMARK SMILES IDX 83 15 90 16 84 17 86 18 85 19 87 20 88 21 89 22 9 25 10 26
REMARK SMILES IDX 11 27 12 28 13 29 14 30 15 32 16 33 17 34 78 35 18 36 77 37
REMARK SMILES IDX 19 38 20 39 21 40 71 41 22 42 76 43 70 44 72 45 23 46 75 47
REMARK SMILES IDX 69 48 68 49 24 51 56 52 36 53 55 54 37 55 40 56 54 57 73 58
REMARK SMILES IDX 38 59 39 60 53 62 74 63 41 64 25 65 26 66 34 67 27 68 28 69
REMARK SMILES IDX 32 70 35 71 29 72 30 73 33 74 31 75 57 76 58 77 66 78 59 79
REMARK SMILES IDX 60 80 64 81 67 82 61 83 62 84 65 85 63 86 42 87 43 88 51 89
REMARK SMILES IDX 44 90 45 91 49 92 52 93 46 94 47 95 50 96 48 97
REMARK H PARENT 6 6 79 12 88 23 88 24 13 31 72 50 40 61
REMARK Flexibility Score: inf
ROOT
ATOM      1  C   UNL A   1      33.647  29.556  26.988  1.00  0.00     0.021 C 
ENDROOT
BRANCH   1   2
ATOM      2  C   UNL A   1      34.063  28.231  26.339  1.00  0.00     0.116 C 
BRANCH   2   3
ATOM      3  N   UNL A   1      34.034  28.343  24.889  1.00  0.00    -0.356 N 
ATOM      4  C   UNL A   1      33.300  27.662  23.964  1.00  0.00     0.222 C 
ATOM      5  O   UNL A   1      33.582  27.796  22.773  1.00  0.00    -0.275 OA
ATOM      6  H   UNL A   1      34.644  29.019  24.515  1.00  0.00     0.163 HD
BRANCH   4   7
ATOM      7  C   UNL A   1      32.136  26.806  24.398  1.00  0.00     0.124 C 
BRANCH   7   8
ATOM      8  C   UNL A   1      31.579  25.806  23.385  1.00  0.00     0.088 C 
ATOM      9  C   UNL A   1      30.213  25.202  23.652  1.00  0.00     0.031 C 
BRANCH   8  10
ATOM     10  N   UNL A   1      32.481  24.727  23.021  1.00  0.00    -0.353 N 
ATOM     11  C   UNL A   1      33.120  23.877  23.876  1.00  0.00     0.225 C 
ATOM     12  H   UNL A   1      32.648  24.597  22.060  1.00  0.00     0.163 HD
ATOM     13  O   UNL A   1      34.212  23.433  23.507  1.00  0.00    -0.275 OA
BRANCH  11  14
ATOM     14  C   UNL A   1      32.504  23.362  25.194  1.00  0.00     0.098 C 
ATOM     15  C   UNL A   1      33.302  23.862  26.398  1.00  0.00     0.017 C 
ATOM     16  C   UNL A   1      32.078  21.891  25.317  1.00  0.00     0.134 C 
ATOM     17  C   UNL A   1      34.400  22.897  26.811  1.00  0.00     0.022 C 
ATOM     18  N   UNL A   1      33.062  20.980  25.928  1.00  0.00    -0.324 N 
ATOM     19  C   UNL A   1      33.849  21.496  27.051  1.00  0.00     0.121 C 
BRANCH  18  20
ATOM     20  C   UNL A   1      33.240  19.657  25.580  1.00  0.00     0.314 C 
ATOM     21  N   UNL A   1      32.903  18.728  26.501  1.00  0.00    -0.351 N 
ATOM     22  O   UNL A   1      33.643  19.274  24.485  1.00  0.00    -0.249 OA
ATOM     23  H   UNL A   1      32.577  19.008  27.386  1.00  0.00     0.161 HD
ATOM     24  H   UNL A   1      32.983  17.770  26.286  1.00  0.00     0.161 HD
ENDBRANCH  18  20
ENDBRANCH  11  14
ENDBRANCH   8  10
ENDBRANCH   7   8
ENDBRANCH   4   7
ENDBRANCH   2   3
ENDBRANCH   1   2
BRANCH   1  25
ATOM     25  C   UNL A   1      32.138  29.785  27.055  1.00  0.00     0.002 C 
BRANCH  25  26
ATOM     26  C   UNL A   1      31.613  30.807  26.050  1.00  0.00     0.002 C 
BRANCH  26  27
ATOM     27  C   UNL A   1      31.397  32.212  26.617  1.00  0.00     0.021 C 
BRANCH  27  28
ATOM     28  C   UNL A   1      32.625  32.832  27.280  1.00  0.00     0.116 C 
BRANCH  28  29
ATOM     29  N   UNL A   1      32.410  34.229  27.627  1.00  0.00    -0.352 N 
ATOM     30  C   UNL A   1      32.976  34.960  28.635  1.00  0.00     0.251 C 
ATOM     31  H   UNL A   1      31.769  34.714  27.057  1.00  0.00     0.163 HD
ATOM     32  O   UNL A   1      32.528  36.067  28.937  1.00  0.00    -0.269 OA
BRANCH  30  33
ATOM     33  C   UNL A   1      34.126  34.408  29.372  1.00  0.00     0.039 A 
ATOM     34  C   UNL A   1      33.905  33.738  30.576  1.00  0.00     0.014 A 
ATOM     35  C   UNL A   1      35.421  34.548  28.863  1.00  0.00     0.014 A 
ATOM     36  C   UNL A   1      34.983  33.162  31.250  1.00  0.00     0.010 A 
ATOM     37  C   UNL A   1      36.484  33.917  29.500  1.00  0.00     0.010 A 
ATOM     38  C   UNL A   1      36.276  33.224  30.703  1.00  0.00    -0.014 A 
BRANCH  38  39
ATOM     39  C   UNL A   1      37.427  32.581  31.382  1.00  0.00     0.031 A 
ATOM     40  C   UNL A   1      38.144  31.437  30.720  1.00  0.00     0.074 A 
ATOM     41  C   UNL A   1      37.788  32.987  32.614  1.00  0.00     0.049 A 
ATOM     42  N   UNL A   1      39.122  30.697  31.177  1.00  0.00    -0.248 NA
ATOM     43  C   UNL A   1      37.683  31.058  29.375  1.00  0.00     0.031 C 
ATOM     44  C   UNL A   1      37.142  34.060  33.373  1.00  0.00     0.029 A 
ATOM     45  N   UNL A   1      38.780  32.540  33.449  1.00  0.00    -0.354 N 
ATOM     46  C   UNL A   1      39.384  29.763  30.185  1.00  0.00     0.074 A 
ATOM     47  C   UNL A   1      38.427  29.991  29.124  1.00  0.00     0.031 C 
ATOM     48  C   UNL A   1      37.768  34.201  34.553  1.00  0.00     0.029 A 
ATOM     49  C   UNL A   1      38.831  33.206  34.650  1.00  0.00     0.049 A 
ATOM     50  H   UNL A   1      39.396  31.809  33.212  1.00  0.00     0.167 HD
ATOM     51  C   UNL A   1      40.353  28.817  30.150  1.00  0.00     0.037 A 
ATOM     52  C   UNL A   1      39.643  33.027  35.709  1.00  0.00     0.037 A 
ATOM     53  C   UNL A   1      41.316  28.609  31.198  1.00  0.00     0.049 A 
ATOM     54  C   UNL A   1      40.700  31.958  35.650  1.00  0.00     0.074 A 
ATOM     55  C   UNL A   1      42.367  27.709  31.238  1.00  0.00     0.029 A 
ATOM     56  N   UNL A   1      41.348  29.314  32.392  1.00  0.00    -0.354 N 
ATOM     57  N   UNL A   1      40.978  31.120  34.680  1.00  0.00    -0.248 NA
ATOM     58  C   UNL A   1      41.562  31.813  36.831  1.00  0.00     0.031 C 
ATOM     59  C   UNL A   1      43.007  27.839  32.475  1.00  0.00     0.029 A 
ATOM     60  C   UNL A   1      42.387  28.856  33.184  1.00  0.00     0.049 A 
ATOM     61  H   UNL A   1      40.723  30.033  32.639  1.00  0.00     0.167 HD
ATOM     62  C   UNL A   1      42.062  30.373  35.120  1.00  0.00     0.074 A 
ATOM     63  C   UNL A   1      42.402  30.866  36.438  1.00  0.00     0.031 C 
ATOM     64  C   UNL A   1      42.719  29.369  34.489  1.00  0.00     0.037 A 
BRANCH  51  65
ATOM     65  C   UNL A   1      40.422  27.939  28.935  1.00  0.00     0.064 A 
ATOM     66  C   UNL A   1      39.691  26.744  28.849  1.00  0.00     0.173 A 
ATOM     67  C   UNL A   1      41.197  28.313  27.826  1.00  0.00     0.173 A 
ATOM     68  F   UNL A   1      38.945  26.334  29.887  1.00  0.00    -0.203 F 
ATOM     69  C   UNL A   1      39.752  25.945  27.711  1.00  0.00     0.198 A 
ATOM     70  C   UNL A   1      41.231  27.527  26.677  1.00  0.00     0.198 A 
ATOM     71  F   UNL A   1      41.912  29.448  27.853  1.00  0.00    -0.203 F 
ATOM     72  F   UNL A   1      39.082  24.785  27.672  1.00  0.00    -0.200 F 
ATOM     73  C   UNL A   1      40.515  26.341  26.623  1.00  0.00     0.200 A 
ATOM     74  F   UNL A   1      41.960  27.918  25.622  1.00  0.00    -0.200 F 
ATOM     75  F   UNL A   1      40.566  25.575  25.524  1.00  0.00    -0.200 F 
ENDBRANCH  51  65
BRANCH  52  76
ATOM     76  C   UNL A   1      39.504  33.894  36.910  1.00  0.00     0.064 A 
ATOM     77  C   UNL A   1      38.748  33.476  38.014  1.00  0.00     0.173 A 
ATOM     78  C   UNL A   1      40.106  35.159  36.972  1.00  0.00     0.173 A 
ATOM     79  F   UNL A   1      38.136  32.283  37.993  1.00  0.00    -0.203 F 
ATOM     80  C   UNL A   1      38.580  34.301  39.125  1.00  0.00     0.198 A 
ATOM     81  C   UNL A   1      39.961  35.969  38.095  1.00  0.00     0.198 A 
ATOM     82  F   UNL A   1      40.845  35.603  35.944  1.00  0.00    -0.203 F 
ATOM     83  F   UNL A   1      37.810  33.897  40.144  1.00  0.00    -0.200 F 
ATOM     84  C   UNL A   1      39.190  35.545  39.166  1.00  0.00     0.200 A 
ATOM     85  F   UNL A   1      40.565  37.165  38.138  1.00  0.00    -0.200 F 
ATOM     86  F   UNL A   1      39.028  36.337  40.235  1.00  0.00    -0.200 F 
ENDBRANCH  52  76
BRANCH  64  87
ATOM     87  C   UNL A   1      43.895  28.764  35.197  1.00  0.00     0.064 A 
ATOM     88  C   UNL A   1      43.751  27.676  36.069  1.00  0.00     0.173 A 
ATOM     89  C   UNL A   1      45.190  29.256  34.965  1.00  0.00     0.173 A 
ATOM     90  F   UNL A   1      42.533  27.181  36.335  1.00  0.00    -0.203 F 
ATOM     91  C   UNL A   1      44.857  27.117  36.704  1.00  0.00     0.198 A 
ATOM     92  C   UNL A   1      46.296  28.675  35.577  1.00  0.00     0.198 A 
ATOM     93  F   UNL A   1      45.382  30.290  34.134  1.00  0.00    -0.203 F 
ATOM     94  F   UNL A   1      44.691  26.109  37.571  1.00  0.00    -0.200 F 
ATOM     95  C   UNL A   1      46.129  27.611  36.451  1.00  0.00     0.200 A 
ATOM     96  F   UNL A   1      47.526  29.143  35.321  1.00  0.00    -0.200 F 
ATOM     97  F   UNL A   1      47.193  27.066  37.057  1.00  0.00    -0.200 F 
ENDBRANCH  64  87
ENDBRANCH  38  39
ENDBRANCH  30  33
ENDBRANCH  28  29
ENDBRANCH  27  28
ENDBRANCH  26  27
ENDBRANCH  25  26
ENDBRANCH   1  25
TORSDOF 17
ENDMDL
MODEL 3
REMARK VINA RESULT:     -10.9      1.758      7.808
REMARK SMILES C[C@@H](CC(=O)NCCCCCCNC(=O)c1ccc(-c2c3nc(c(-c4c(F)c(F)c(F)c(F)c4F)c4ccc([nH]4)c(-c4c(F)c(F)c(F)c(F)c4F)c4nc(c(-c5c(F)c(F)c(F)c(F)c5F)c5ccc2[nH]5)C=C4)C=C3)cc1)NC(=O)[C@@H]1CCCN(C(N)=O)C1
REMARK SMILES IDX 8 1 7 2 6 3 4 4 5 5 3 7 2 8 1 9 79 10 80 11 81 13 82 14
REMARK SMILES IDX 83 15 90 16 84 17 86 18 85 19 87 20 88 21 89 22 9 25 10 26
REMARK SMILES IDX 11 27 12 28 13 29 14 30 15 32 16 33 17 34 78 35 18 36 77 37
REMARK SMILES IDX 19 38 20 39 21 40 71 41 22 42 76 43 70 44 72 45 23 46 75 47
REMARK SMILES IDX 69 48 68 49 24 51 56 52 36 53 55 54 37 55 40 56 54 57 73 58
REMARK SMILES IDX 38 59 39 60 53 62 74 63 41 64 25 65 26 66 34 67 27 68 28 69
REMARK SMILES IDX 32 70 35 71 29 72 30 73 33 74 31 75 57 76 58 77 66 78 59 79
REMARK SMILES IDX 60 80 64 81 67 82 61 83 62 84 65 85 63 86 42 87 43 88 51 89
REMARK SMILES IDX 44 90 45 91 49 92 52 93 46 94 47 95 50 96 48 97
REMARK H PARENT 6 6 79 12 88 23 88 24 13 31 72 50 40 61
REMARK Flexibility Score: inf
ROOT
ATOM      1  C   UNL A   1      33.861  29.692  26.733  1.00  0.00     0.021 C 
ENDROOT
BRANCH   1   2
ATOM      2  C   UNL A   1      34.080  28.488  25.811  1.00  0.00     0.116 C 
BRANCH   2   3
ATOM      3  N   UNL A   1      33.898  28.870  24.421  1.00  0.00    -0.356 N 
ATOM      4  C   UNL A   1      32.884  28.593  23.552  1.00  0.00     0.222 C 
ATOM      5  O   UNL A   1      33.036  28.867  22.362  1.00  0.00    -0.275 OA
ATOM      6  H   UNL A   1      34.625  29.417  24.045  1.00  0.00     0.163 HD
BRANCH   4   7
ATOM      7  C   UNL A   1      31.587  28.013  24.059  1.00  0.00     0.124 C 
BRANCH   7   8
ATOM      8  C   UNL A   1      30.720  27.245  23.061  1.00  0.00     0.088 C 
ATOM      9  C   UNL A   1      29.551  26.440  23.600  1.00  0.00     0.031 C 
BRANCH   8  10
ATOM     10  N   UNL A   1      31.448  26.404  22.128  1.00  0.00    -0.353 N 
ATOM     11  C   UNL A   1      32.443  25.522  22.432  1.00  0.00     0.225 C 
ATOM     12  H   UNL A   1      31.198  26.480  21.178  1.00  0.00     0.163 HD
ATOM     13  O   UNL A   1      33.300  25.328  21.564  1.00  0.00    -0.275 OA
BRANCH  11  14
ATOM     14  C   UNL A   1      32.481  24.684  23.728  1.00  0.00     0.098 C 
ATOM     15  C   UNL A   1      33.891  24.660  24.317  1.00  0.00     0.017 C 
ATOM     16  C   UNL A   1      31.778  23.319  23.778  1.00  0.00     0.134 C 
ATOM     17  C   UNL A   1      34.712  23.485  23.815  1.00  0.00     0.022 C 
ATOM     18  N   UNL A   1      32.625  22.144  23.510  1.00  0.00    -0.324 N 
ATOM     19  C   UNL A   1      33.989  22.162  24.045  1.00  0.00     0.121 C 
BRANCH  18  20
ATOM     20  C   UNL A   1      32.208  20.996  22.868  1.00  0.00     0.314 C 
ATOM     21  N   UNL A   1      31.661  21.143  21.640  1.00  0.00    -0.351 N 
ATOM     22  O   UNL A   1      32.336  19.861  23.317  1.00  0.00    -0.249 OA
ATOM     23  H   UNL A   1      31.548  22.042  21.257  1.00  0.00     0.161 HD
ATOM     24  H   UNL A   1      31.378  20.350  21.130  1.00  0.00     0.161 HD
ENDBRANCH  18  20
ENDBRANCH  11  14
ENDBRANCH   8  10
ENDBRANCH   7   8
ENDBRANCH   4   7
ENDBRANCH   2   3
ENDBRANCH   1   2
BRANCH   1  25
ATOM     25  C   UNL A   1      32.408  29.922  27.146  1.00  0.00     0.002 C 
BRANCH  25  26
ATOM     26  C   UNL A   1      31.646  30.893  26.250  1.00  0.00     0.002 C 
BRANCH  26  27
ATOM     27  C   UNL A   1      31.436  32.287  26.847  1.00  0.00     0.021 C 
BRANCH  27  28
ATOM     28  C   UNL A   1      32.718  33.014  27.247  1.00  0.00     0.116 C 
BRANCH  28  29
ATOM     29  N   UNL A   1      32.459  34.383  27.666  1.00  0.00    -0.352 N 
ATOM     30  C   UNL A   1      32.996  35.075  28.717  1.00  0.00     0.251 C 
ATOM     31  H   UNL A   1      31.809  34.880  27.118  1.00  0.00     0.163 HD
ATOM     32  O   UNL A   1      32.514  36.151  29.073  1.00  0.00    -0.269 OA
BRANCH  30  33
ATOM     33  C   UNL A   1      34.157  34.518  29.433  1.00  0.00     0.039 A 
ATOM     34  C   UNL A   1      33.957  33.870  30.654  1.00  0.00     0.014 A 
ATOM     35  C   UNL A   1      35.440  34.631  28.890  1.00  0.00     0.014 A 
ATOM     36  C   UNL A   1      35.043  33.290  31.309  1.00  0.00     0.010 A 
ATOM     37  C   UNL A   1      36.509  33.994  29.510  1.00  0.00     0.010 A 
ATOM     38  C   UNL A   1      36.322  33.323  30.729  1.00  0.00    -0.014 A 
BRANCH  38  39
ATOM     39  C   UNL A   1      37.481  32.674  31.389  1.00  0.00     0.031 A 
ATOM     40  C   UNL A   1      38.186  31.532  30.712  1.00  0.00     0.074 A 
ATOM     41  C   UNL A   1      37.860  33.074  32.618  1.00  0.00     0.049 A 
ATOM     42  N   UNL A   1      39.168  30.787  31.152  1.00  0.00    -0.248 NA
ATOM     43  C   UNL A   1      37.705  31.161  29.371  1.00  0.00     0.031 C 
ATOM     44  C   UNL A   1      37.227  34.144  33.391  1.00  0.00     0.029 A 
ATOM     45  N   UNL A   1      38.862  32.620  33.437  1.00  0.00    -0.354 N 
ATOM     46  C   UNL A   1      39.414  29.857  30.152  1.00  0.00     0.074 A 
ATOM     47  C   UNL A   1      38.443  30.093  29.105  1.00  0.00     0.031 C 
ATOM     48  C   UNL A   1      37.869  34.278  34.563  1.00  0.00     0.029 A 
ATOM     49  C   UNL A   1      38.931  33.279  34.640  1.00  0.00     0.049 A 
ATOM     50  H   UNL A   1      39.473  31.889  33.188  1.00  0.00     0.167 HD
ATOM     51  C   UNL A   1      40.379  28.909  30.099  1.00  0.00     0.037 A 
ATOM     52  C   UNL A   1      39.756  33.093  35.688  1.00  0.00     0.037 A 
ATOM     53  C   UNL A   1      41.357  28.693  31.133  1.00  0.00     0.049 A 
ATOM     54  C   UNL A   1      40.810  32.022  35.609  1.00  0.00     0.074 A 
ATOM     55  C   UNL A   1      42.406  27.790  31.154  1.00  0.00     0.029 A 
ATOM     56  N   UNL A   1      41.406  29.393  32.330  1.00  0.00    -0.354 N 
ATOM     57  N   UNL A   1      41.072  31.188  34.631  1.00  0.00    -0.248 NA
ATOM     58  C   UNL A   1      41.687  31.869  36.777  1.00  0.00     0.031 C 
ATOM     59  C   UNL A   1      43.063  27.913  32.382  1.00  0.00     0.029 A 
ATOM     60  C   UNL A   1      42.455  28.928  33.105  1.00  0.00     0.049 A 
ATOM     61  H   UNL A   1      40.787  30.112  32.589  1.00  0.00     0.167 HD
ATOM     62  C   UNL A   1      42.161  30.436  35.052  1.00  0.00     0.074 A 
ATOM     63  C   UNL A   1      42.520  30.922  36.368  1.00  0.00     0.031 C 
ATOM     64  C   UNL A   1      42.806  29.434  34.408  1.00  0.00     0.037 A 
BRANCH  51  65
ATOM     65  C   UNL A   1      40.430  28.036  28.879  1.00  0.00     0.064 A 
ATOM     66  C   UNL A   1      41.189  28.391  27.753  1.00  0.00     0.173 A 
ATOM     67  C   UNL A   1      39.746  26.811  28.848  1.00  0.00     0.173 A 
ATOM     68  F   UNL A   1      41.852  29.558  27.728  1.00  0.00    -0.203 F 
ATOM     69  C   UNL A   1      41.242  27.566  26.634  1.00  0.00     0.198 A 
ATOM     70  C   UNL A   1      39.825  25.974  27.738  1.00  0.00     0.198 A 
ATOM     71  F   UNL A   1      39.009  26.421  29.898  1.00  0.00    -0.203 F 
ATOM     72  F   UNL A   1      41.935  27.949  25.552  1.00  0.00    -0.200 F 
ATOM     73  C   UNL A   1      40.566  26.355  26.629  1.00  0.00     0.200 A 
ATOM     74  F   UNL A   1      39.181  24.798  27.740  1.00  0.00    -0.200 F 
ATOM     75  F   UNL A   1      40.624  25.557  25.554  1.00  0.00    -0.200 F 
ENDBRANCH  51  65
BRANCH  52  76
ATOM     76  C   UNL A   1      39.637  33.955  36.894  1.00  0.00     0.064 A 
ATOM     77  C   UNL A   1      40.314  35.180  36.972  1.00  0.00     0.173 A 
ATOM     78  C   UNL A   1      38.862  33.567  37.996  1.00  0.00     0.173 A 
ATOM     79  F   UNL A   1      41.084  35.584  35.952  1.00  0.00    -0.203 F 
ATOM     80  C   UNL A   1      40.239  35.972  38.116  1.00  0.00     0.198 A 
ATOM     81  C   UNL A   1      38.764  34.374  39.127  1.00  0.00     0.198 A 
ATOM     82  F   UNL A   1      38.189  32.406  37.970  1.00  0.00    -0.203 F 
ATOM     83  F   UNL A   1      40.938  37.114  38.183  1.00  0.00    -0.200 F 
ATOM     84  C   UNL A   1      39.461  35.571  39.191  1.00  0.00     0.200 A 
ATOM     85  F   UNL A   1      37.999  33.989  40.159  1.00  0.00    -0.200 F 
ATOM     86  F   UNL A   1      39.390  36.333  40.291  1.00  0.00    -0.200 F 
ENDBRANCH  52  76
BRANCH  64  87
ATOM     87  C   UNL A   1      43.990  28.822  35.097  1.00  0.00     0.064 A 
ATOM     88  C   UNL A   1      45.288  29.322  34.916  1.00  0.00     0.173 A 
ATOM     89  C   UNL A   1      43.816  27.749  35.984  1.00  0.00     0.173 A 
ATOM     90  F   UNL A   1      45.508  30.337  34.067  1.00  0.00    -0.203 F 
ATOM     91  C   UNL A   1      46.372  28.752  35.578  1.00  0.00     0.198 A 
ATOM     92  C   UNL A   1      44.897  27.201  36.667  1.00  0.00     0.198 A 
ATOM     93  F   UNL A   1      42.594  27.239  36.198  1.00  0.00    -0.203 F 
ATOM     94  F   UNL A   1      47.610  29.214  35.353  1.00  0.00    -0.200 F 
ATOM     95  C   UNL A   1      46.175  27.698  36.459  1.00  0.00     0.200 A 
ATOM     96  F   UNL A   1      44.704  26.193  37.529  1.00  0.00    -0.200 F 
ATOM     97  F   UNL A   1      47.220  27.157  37.102  1.00  0.00    -0.200 F 
ENDBRANCH  64  87
ENDBRANCH  38  39
ENDBRANCH  30  33
ENDBRANCH  28  29
ENDBRANCH  27  28
ENDBRANCH  26  27
ENDBRANCH  25  26
ENDBRANCH   1  25
TORSDOF 17
ENDMDL
