MODEL 1
REMARK VINA RESULT:     -15.9      0.000      0.000
REMARK SMILES Cc1cc(/C=C2/C(=O)NC(=S)[NH+]=C2NCCCCCCNC(=O)c2ccc(-c3c4nc(c(-c5c(F)c(F)c(F)c(F)c5F)c5ccc([nH]5)c(-c5c(F)c(F)c(F)c(F)c5F)c5nc(c(-c6c(F)c(F)c(F)c(F)c6F)c6ccc3[nH]6)C=C5)C=C4)cc2)c(C)n1-c1cccc(C(=O)[O-])c1
REMARK SMILES IDX 17 1 16 2 15 3 14 4 5 5 6 6 7 7 13 8 8 9 9 10 12 11 10 12
REMARK SMILES IDX 11 16 4 17 1 18 2 19 3 20 89 21 87 22 88 23 90 24 91 25
REMARK SMILES IDX 98 26 92 27 94 28 93 29 95 30 96 31 97 32 18 33 19 34 20 35
REMARK SMILES IDX 21 36 22 37 23 39 24 40 25 41 86 42 26 43 85 44 27 45 28 46
REMARK SMILES IDX 29 47 79 48 30 49 84 50 78 51 80 52 31 53 83 54 77 55 76 56
REMARK SMILES IDX 32 58 64 59 44 60 63 61 45 62 48 63 62 64 81 65 46 66 47 67
REMARK SMILES IDX 61 69 82 70 49 71 33 72 34 73 42 74 35 75 36 76 40 77 43 78
REMARK SMILES IDX 37 79 38 80 41 81 39 82 65 83 66 84 74 85 67 86 68 87 72 88
REMARK SMILES IDX 75 89 69 90 70 91 73 92 71 93 50 94 51 95 59 96 52 97 53 98
REMARK SMILES IDX 57 99 60 100 54 101 55 102 58 103 56 104
REMARK H PARENT 9 13 12 14 14 15 21 38 80 57 48 68
REMARK Flexibility Score: inf
ROOT
ATOM      1  C   UNL A   1      34.330  29.131  26.866  1.00  0.00     0.003 C 
ENDROOT
BRANCH   1   2
ATOM      2  C   UNL A   1      33.179  28.196  27.348  1.00  0.00     0.037 C 
BRANCH   2   3
ATOM      3  C   UNL A   1      31.885  28.266  26.570  1.00  0.00     0.194 C 
BRANCH   3   4
ATOM      4  N   UNL A   1      31.463  29.497  25.965  1.00  0.00    -0.305 N 
ATOM      5  C   UNL A   1      30.713  27.212  23.582  1.00  0.00     0.032 C 
ATOM      6  C   UNL A   1      30.646  28.565  23.651  1.00  0.00     0.128 C 
ATOM      7  C   UNL A   1      30.388  29.163  22.300  1.00  0.00     0.319 C 
ATOM      8  C   UNL A   1      30.794  29.609  24.756  1.00  0.00     0.234 C 
ATOM      9  O   UNL A   1      30.630  28.604  21.234  1.00  0.00    -0.250 OA
ATOM     10  N   UNL A   1      29.831  30.404  22.321  1.00  0.00    -0.229 N 
ATOM     11  N   UNL A   1      30.291  30.810  24.590  1.00  0.00    -0.236 N 
ATOM     12  C   UNL A   1      29.673  31.181  23.429  1.00  0.00     0.295 C 
ATOM     13  H   UNL A   1      29.516  30.770  21.463  1.00  0.00     0.268 HD
ATOM     14  H   UNL A   1      30.358  31.461  25.324  1.00  0.00     0.268 HD
ATOM     15  H   UNL A   1      31.665  30.330  26.448  1.00  0.00     0.256 HD
ATOM     16  S   UNL A   1      28.794  32.599  23.250  1.00  0.00    -0.005 S 
BRANCH   5  17
ATOM     17  C   UNL A   1      31.028  26.194  24.535  1.00  0.00    -0.003 A 
ATOM     18  C   UNL A   1      30.128  23.769  27.179  1.00  0.00     0.065 C 
ATOM     19  C   UNL A   1      30.659  24.579  26.059  1.00  0.00     0.020 A 
ATOM     20  C   UNL A   1      30.069  25.643  25.416  1.00  0.00     0.031 A 
ATOM     21  N   UNL A   1      31.904  24.397  25.496  1.00  0.00    -0.318 N 
ATOM     22  C   UNL A   1      32.250  25.602  24.850  1.00  0.00     0.027 A 
ATOM     23  C   UNL A   1      33.623  25.992  24.403  1.00  0.00     0.065 C 
BRANCH  21  24
ATOM     24  C   UNL A   1      32.600  23.156  25.421  1.00  0.00     0.046 A 
ATOM     25  C   UNL A   1      34.337  23.138  25.886  1.00  0.00     0.026 A 
ATOM     26  C   UNL A   1      31.842  21.669  24.679  1.00  0.00     0.036 A 
ATOM     27  C   UNL A   1      35.300  21.665  25.640  1.00  0.00     0.003 A 
ATOM     28  C   UNL A   1      32.868  20.172  24.436  1.00  0.00    -0.001 A 
ATOM     29  C   UNL A   1      34.598  20.186  24.909  1.00  0.00     0.010 A 
BRANCH  28  30
ATOM     30  C   UNL A   1      32.424  18.897  23.863  1.00  0.00     0.072 C 
ATOM     31  O   UNL A   1      32.436  18.637  22.674  1.00  0.00    -0.545 OA
ATOM     32  O   UNL A   1      32.056  18.016  24.794  1.00  0.00    -0.545 OA
ENDBRANCH  28  30
ENDBRANCH  21  24
ENDBRANCH   5  17
ENDBRANCH   3   4
ENDBRANCH   2   3
ENDBRANCH   1   2
BRANCH   1  33
ATOM     33  C   UNL A   1      35.145  30.402  27.842  1.00  0.00     0.002 C 
BRANCH  33  34
ATOM     34  C   UNL A   1      35.324  32.566  27.756  1.00  0.00     0.021 C 
BRANCH  34  35
ATOM     35  C   UNL A   1      35.196  33.904  28.988  1.00  0.00     0.116 C 
BRANCH  35  36
ATOM     36  N   UNL A   1      34.526  33.725  30.273  1.00  0.00    -0.352 N 
ATOM     37  C   UNL A   1      34.808  32.857  31.344  1.00  0.00     0.251 C 
ATOM     38  H   UNL A   1      33.747  34.309  30.414  1.00  0.00     0.163 HD
ATOM     39  O   UNL A   1      33.891  32.682  32.154  1.00  0.00    -0.269 OA
BRANCH  37  40
ATOM     40  C   UNL A   1      36.096  32.042  31.574  1.00  0.00     0.039 A 
ATOM     41  C   UNL A   1      37.120  32.125  30.644  1.00  0.00     0.014 A 
ATOM     42  C   UNL A   1      36.208  30.904  32.410  1.00  0.00     0.014 A 
ATOM     43  C   UNL A   1      38.233  31.187  30.636  1.00  0.00     0.010 A 
ATOM     44  C   UNL A   1      37.314  29.885  32.335  1.00  0.00     0.010 A 
ATOM     45  C   UNL A   1      38.392  29.973  31.427  1.00  0.00    -0.014 A 
BRANCH  45  46
ATOM     46  C   UNL A   1      39.453  28.774  30.808  1.00  0.00     0.031 A 
ATOM     47  C   UNL A   1      40.428  28.716  31.930  1.00  0.00     0.074 A 
ATOM     48  C   UNL A   1      39.901  27.966  29.721  1.00  0.00     0.049 A 
ATOM     49  N   UNL A   1      41.026  29.828  32.256  1.00  0.00    -0.248 NA
ATOM     50  C   UNL A   1      40.448  27.682  32.964  1.00  0.00     0.031 C 
ATOM     51  C   UNL A   1      39.429  27.934  28.318  1.00  0.00     0.029 A 
ATOM     52  N   UNL A   1      40.942  26.937  29.596  1.00  0.00    -0.354 N 
ATOM     53  C   UNL A   1      41.730  29.575  33.400  1.00  0.00     0.074 A 
ATOM     54  C   UNL A   1      41.163  28.325  33.898  1.00  0.00     0.031 C 
ATOM     55  C   UNL A   1      40.000  26.925  27.580  1.00  0.00     0.029 A 
ATOM     56  C   UNL A   1      40.991  26.163  28.347  1.00  0.00     0.049 A 
ATOM     57  H   UNL A   1      41.587  26.772  30.323  1.00  0.00     0.167 HD
ATOM     58  C   UNL A   1      43.031  29.978  33.337  1.00  0.00     0.037 A 
ATOM     59  C   UNL A   1      41.806  25.088  27.913  1.00  0.00     0.037 A 
ATOM     60  C   UNL A   1      43.891  28.876  33.009  1.00  0.00     0.049 A 
ATOM     61  C   UNL A   1      43.072  25.252  28.627  1.00  0.00     0.074 A 
ATOM     62  C   UNL A   1      43.906  27.555  33.416  1.00  0.00     0.029 A 
ATOM     63  N   UNL A   1      44.530  28.919  31.792  1.00  0.00    -0.354 N 
ATOM     64  N   UNL A   1      43.946  26.128  28.234  1.00  0.00    -0.248 NA
ATOM     65  C   UNL A   1      43.506  24.360  29.696  1.00  0.00     0.031 C 
ATOM     66  C   UNL A   1      43.987  26.833  32.209  1.00  0.00     0.029 A 
ATOM     67  C   UNL A   1      44.492  27.669  31.223  1.00  0.00     0.049 A 
ATOM     68  H   UNL A   1      44.948  29.716  31.393  1.00  0.00     0.167 HD
ATOM     69  C   UNL A   1      44.728  26.268  29.329  1.00  0.00     0.074 A 
ATOM     70  C   UNL A   1      44.619  25.009  30.047  1.00  0.00     0.031 C 
ATOM     71  C   UNL A   1      44.771  27.528  29.821  1.00  0.00     0.037 A 
BRANCH  58  72
ATOM     72  C   UNL A   1      43.167  31.376  32.772  1.00  0.00     0.064 A 
ATOM     73  C   UNL A   1      43.371  32.441  33.650  1.00  0.00     0.173 A 
ATOM     74  C   UNL A   1      42.911  31.697  31.417  1.00  0.00     0.173 A 
ATOM     75  F   UNL A   1      43.684  32.203  34.932  1.00  0.00    -0.203 F 
ATOM     76  C   UNL A   1      43.253  33.762  33.215  1.00  0.00     0.198 A 
ATOM     77  C   UNL A   1      42.712  33.010  31.006  1.00  0.00     0.198 A 
ATOM     78  F   UNL A   1      42.844  30.734  30.482  1.00  0.00    -0.203 F 
ATOM     79  F   UNL A   1      43.493  34.769  34.066  1.00  0.00    -0.200 F 
ATOM     80  C   UNL A   1      42.880  34.043  31.906  1.00  0.00     0.200 A 
ATOM     81  F   UNL A   1      42.357  33.267  29.738  1.00  0.00    -0.200 F 
ATOM     82  F   UNL A   1      42.713  35.312  31.508  1.00  0.00    -0.200 F 
ENDBRANCH  58  72
BRANCH  59  83
ATOM     83  C   UNL A   1      42.077  23.925  26.841  1.00  0.00     0.064 A 
ATOM     84  C   UNL A   1      42.860  24.154  25.638  1.00  0.00     0.173 A 
ATOM     85  C   UNL A   1      42.010  22.561  27.168  1.00  0.00     0.173 A 
ATOM     86  F   UNL A   1      43.012  25.380  25.119  1.00  0.00    -0.203 F 
ATOM     87  C   UNL A   1      43.586  23.161  24.943  1.00  0.00     0.198 A 
ATOM     88  C   UNL A   1      42.714  21.553  26.437  1.00  0.00     0.198 A 
ATOM     89  F   UNL A   1      41.338  22.172  28.257  1.00  0.00    -0.203 F 
ATOM     90  F   UNL A   1      44.394  23.499  23.922  1.00  0.00    -0.200 F 
ATOM     91  C   UNL A   1      43.527  21.857  25.355  1.00  0.00     0.200 A 
ATOM     92  F   UNL A   1      42.653  20.273  26.837  1.00  0.00    -0.200 F 
ATOM     93  F   UNL A   1      44.267  20.915  24.746  1.00  0.00    -0.200 F 
ENDBRANCH  59  83
BRANCH  71  94
ATOM     94  C   UNL A   1      44.936  28.657  28.816  1.00  0.00     0.064 A 
ATOM     95  C   UNL A   1      43.922  29.291  28.054  1.00  0.00     0.173 A 
ATOM     96  C   UNL A   1      46.248  29.070  28.546  1.00  0.00     0.173 A 
ATOM     97  F   UNL A   1      42.618  29.082  28.280  1.00  0.00    -0.203 F 
ATOM     98  C   UNL A   1      44.224  30.201  27.035  1.00  0.00     0.198 A 
ATOM     99  C   UNL A   1      46.541  30.022  27.571  1.00  0.00     0.198 A 
ATOM    100  F   UNL A   1      47.267  28.558  29.253  1.00  0.00    -0.203 F 
ATOM    101  F   UNL A   1      43.241  30.726  26.288  1.00  0.00    -0.200 F 
ATOM    102  C   UNL A   1      45.534  30.566  26.796  1.00  0.00     0.200 A 
ATOM    103  F   UNL A   1      47.811  30.408  27.389  1.00  0.00    -0.200 F 
ATOM    104  F   UNL A   1      45.827  31.453  25.835  1.00  0.00    -0.200 F 
ENDBRANCH  71  94
ENDBRANCH  45  46
ENDBRANCH  37  40
ENDBRANCH  35  36
ENDBRANCH  34  35
ENDBRANCH  33  34
ENDBRANCH   1  33
TORSDOF 15
ENDMDL
MODEL 2
REMARK VINA RESULT:     -15.8      3.726      9.422
REMARK SMILES Cc1cc(/C=C2/C(=O)NC(=S)[NH+]=C2NCCCCCCNC(=O)c2ccc(-c3c4nc(c(-c5c(F)c(F)c(F)c(F)c5F)c5ccc([nH]5)c(-c5c(F)c(F)c(F)c(F)c5F)c5nc(c(-c6c(F)c(F)c(F)c(F)c6F)c6ccc3[nH]6)C=C5)C=C4)cc2)c(C)n1-c1cccc(C(=O)[O-])c1
REMARK SMILES IDX 17 1 16 2 15 3 14 4 5 5 6 6 7 7 13 8 8 9 9 10 12 11 10 12
REMARK SMILES IDX 11 16 4 17 1 18 2 19 3 20 89 21 87 22 88 23 90 24 91 25
REMARK SMILES IDX 98 26 92 27 94 28 93 29 95 30 96 31 97 32 18 33 19 34 20 35
REMARK SMILES IDX 21 36 22 37 23 39 24 40 25 41 86 42 26 43 85 44 27 45 28 46
REMARK SMILES IDX 29 47 79 48 30 49 84 50 78 51 80 52 31 53 83 54 77 55 76 56
REMARK SMILES IDX 32 58 64 59 44 60 63 61 45 62 48 63 62 64 81 65 46 66 47 67
REMARK SMILES IDX 61 69 82 70 49 71 33 72 34 73 42 74 35 75 36 76 40 77 43 78
REMARK SMILES IDX 37 79 38 80 41 81 39 82 65 83 66 84 74 85 67 86 68 87 72 88
REMARK SMILES IDX 75 89 69 90 70 91 73 92 71 93 50 94 51 95 59 96 52 97 53 98
REMARK SMILES IDX 57 99 60 100 54 101 55 102 58 103 56 104
REMARK H PARENT 9 13 12 14 14 15 21 38 80 57 48 68
REMARK Flexibility Score: inf
ROOT
ATOM      1  C   UNL A   1      37.510  23.662  25.644  1.00  0.00     0.003 C 
ENDROOT
BRANCH   1   2
ATOM      2  C   UNL A   1      36.970  22.826  24.443  1.00  0.00     0.037 C 
BRANCH   2   3
ATOM      3  C   UNL A   1      35.850  21.857  24.749  1.00  0.00     0.194 C 
BRANCH   3   4
ATOM      4  N   UNL A   1      36.134  20.480  25.032  1.00  0.00    -0.305 N 
ATOM      5  C   UNL A   1      32.791  20.446  24.497  1.00  0.00     0.032 C 
ATOM      6  C   UNL A   1      33.699  19.512  24.875  1.00  0.00     0.128 C 
ATOM      7  C   UNL A   1      33.021  18.265  25.363  1.00  0.00     0.319 C 
ATOM      8  C   UNL A   1      35.223  19.439  24.947  1.00  0.00     0.234 C 
ATOM      9  O   UNL A   1      31.866  18.219  25.780  1.00  0.00    -0.250 OA
ATOM     10  N   UNL A   1      33.780  17.140  25.300  1.00  0.00    -0.229 N 
ATOM     11  N   UNL A   1      35.817  18.269  24.985  1.00  0.00    -0.236 N 
ATOM     12  C   UNL A   1      35.112  17.099  25.015  1.00  0.00     0.295 C 
ATOM     13  H   UNL A   1      33.330  16.282  25.475  1.00  0.00     0.268 HD
ATOM     14  H   UNL A   1      36.801  18.234  24.992  1.00  0.00     0.268 HD
ATOM     15  H   UNL A   1      37.051  20.256  25.310  1.00  0.00     0.256 HD
ATOM     16  S   UNL A   1      35.805  15.585  24.808  1.00  0.00    -0.005 S 
BRANCH   5  17
ATOM     17  C   UNL A   1      32.900  21.804  24.064  1.00  0.00    -0.003 A 
ATOM     18  C   UNL A   1      33.160  24.416  21.457  1.00  0.00     0.065 C 
ATOM     19  C   UNL A   1      32.936  23.538  22.628  1.00  0.00     0.020 A 
ATOM     20  C   UNL A   1      33.040  22.168  22.704  1.00  0.00     0.031 A 
ATOM     21  N   UNL A   1      32.611  23.996  23.888  1.00  0.00    -0.318 N 
ATOM     22  C   UNL A   1      32.963  22.983  24.804  1.00  0.00     0.027 A 
ATOM     23  C   UNL A   1      33.116  23.155  26.282  1.00  0.00     0.065 C 
BRANCH  21  24
ATOM     24  C   UNL A   1      31.875  25.184  24.167  1.00  0.00     0.046 A 
ATOM     25  C   UNL A   1      30.248  25.357  23.421  1.00  0.00     0.026 A 
ATOM     26  C   UNL A   1      32.618  26.589  25.066  1.00  0.00     0.036 A 
ATOM     27  C   UNL A   1      29.363  26.890  23.583  1.00  0.00     0.003 A 
ATOM     28  C   UNL A   1      31.678  28.154  25.207  1.00  0.00    -0.001 A 
ATOM     29  C   UNL A   1      30.058  28.296  24.452  1.00  0.00     0.010 A 
BRANCH  28  30
ATOM     30  C   UNL A   1      32.117  29.373  25.894  1.00  0.00     0.072 C 
ATOM     31  O   UNL A   1      31.718  29.728  26.987  1.00  0.00    -0.545 OA
ATOM     32  O   UNL A   1      33.058  30.034  25.216  1.00  0.00    -0.545 OA
ENDBRANCH  28  30
ENDBRANCH  21  24
ENDBRANCH   5  17
ENDBRANCH   3   4
ENDBRANCH   2   3
ENDBRANCH   1   2
BRANCH   1  33
ATOM     33  C   UNL A   1      39.020  23.344  26.566  1.00  0.00     0.002 C 
BRANCH  33  34
ATOM     34  C   UNL A   1      40.239  21.604  27.018  1.00  0.00     0.021 C 
BRANCH  34  35
ATOM     35  C   UNL A   1      42.017  21.222  26.873  1.00  0.00     0.116 C 
BRANCH  35  36
ATOM     36  N   UNL A   1      42.770  21.453  25.644  1.00  0.00    -0.352 N 
ATOM     37  C   UNL A   1      43.215  22.648  25.050  1.00  0.00     0.251 C 
ATOM     38  H   UNL A   1      43.006  20.636  25.148  1.00  0.00     0.163 HD
ATOM     39  O   UNL A   1      43.531  22.574  23.856  1.00  0.00    -0.269 OA
BRANCH  37  40
ATOM     40  C   UNL A   1      43.275  24.048  25.692  1.00  0.00     0.039 A 
ATOM     41  C   UNL A   1      42.826  24.211  26.993  1.00  0.00     0.014 A 
ATOM     42  C   UNL A   1      43.356  25.273  24.984  1.00  0.00     0.014 A 
ATOM     43  C   UNL A   1      42.585  25.526  27.567  1.00  0.00     0.010 A 
ATOM     44  C   UNL A   1      43.016  26.623  25.558  1.00  0.00     0.010 A 
ATOM     45  C   UNL A   1      42.601  26.819  26.892  1.00  0.00    -0.014 A 
BRANCH  45  46
ATOM     46  C   UNL A   1      41.715  28.092  27.629  1.00  0.00     0.031 A 
ATOM     47  C   UNL A   1      42.800  29.102  27.744  1.00  0.00     0.074 A 
ATOM     48  C   UNL A   1      40.536  28.555  28.284  1.00  0.00     0.049 A 
ATOM     49  N   UNL A   1      43.868  28.754  28.407  1.00  0.00    -0.248 NA
ATOM     50  C   UNL A   1      42.981  30.238  26.841  1.00  0.00     0.031 C 
ATOM     51  C   UNL A   1      39.322  27.803  28.676  1.00  0.00     0.029 A 
ATOM     52  N   UNL A   1      40.120  29.868  28.795  1.00  0.00    -0.354 N 
ATOM     53  C   UNL A   1      44.781  29.758  28.237  1.00  0.00     0.074 A 
ATOM     54  C   UNL A   1      44.267  30.518  27.102  1.00  0.00     0.031 C 
ATOM     55  C   UNL A   1      38.323  28.609  29.166  1.00  0.00     0.029 A 
ATOM     56  C   UNL A   1      38.728  30.017  29.245  1.00  0.00     0.049 A 
ATOM     57  H   UNL A   1      40.752  30.623  28.836  1.00  0.00     0.167 HD
ATOM     58  C   UNL A   1      45.327  30.197  29.405  1.00  0.00     0.037 A 
ATOM     59  C   UNL A   1      37.988  31.121  29.734  1.00  0.00     0.037 A 
ATOM     60  C   UNL A   1      44.665  31.386  29.862  1.00  0.00     0.049 A 
ATOM     61  C   UNL A   1      38.975  31.993  30.372  1.00  0.00     0.074 A 
ATOM     62  C   UNL A   1      44.199  32.505  29.198  1.00  0.00     0.029 A 
ATOM     63  N   UNL A   1      43.941  31.293  31.029  1.00  0.00    -0.354 N 
ATOM     64  N   UNL A   1      39.433  31.723  31.556  1.00  0.00    -0.248 NA
ATOM     65  C   UNL A   1      39.380  33.279  29.816  1.00  0.00     0.031 C 
ATOM     66  C   UNL A   1      42.878  32.649  29.668  1.00  0.00     0.029 A 
ATOM     67  C   UNL A   1      42.762  31.981  30.879  1.00  0.00     0.049 A 
ATOM     68  H   UNL A   1      44.224  30.811  31.839  1.00  0.00     0.167 HD
ATOM     69  C   UNL A   1      40.562  32.466  31.606  1.00  0.00     0.074 A 
ATOM     70  C   UNL A   1      40.335  33.579  30.699  1.00  0.00     0.031 C 
ATOM     71  C   UNL A   1      41.690  31.746  31.806  1.00  0.00     0.037 A 
BRANCH  58  72
ATOM     72  C   UNL A   1      45.760  29.054  30.298  1.00  0.00     0.064 A 
ATOM     73  C   UNL A   1      47.114  28.723  30.361  1.00  0.00     0.173 A 
ATOM     74  C   UNL A   1      44.851  28.174  30.931  1.00  0.00     0.173 A 
ATOM     75  F   UNL A   1      48.032  29.550  29.838  1.00  0.00    -0.203 F 
ATOM     76  C   UNL A   1      47.535  27.535  30.961  1.00  0.00     0.198 A 
ATOM     77  C   UNL A   1      45.264  26.953  31.454  1.00  0.00     0.198 A 
ATOM     78  F   UNL A   1      43.549  28.489  31.041  1.00  0.00    -0.203 F 
ATOM     79  F   UNL A   1      48.844  27.258  31.046  1.00  0.00    -0.200 F 
ATOM     80  C   UNL A   1      46.608  26.633  31.466  1.00  0.00     0.200 A 
ATOM     81  F   UNL A   1      44.358  26.093  31.943  1.00  0.00    -0.200 F 
ATOM     82  F   UNL A   1      47.013  25.468  31.992  1.00  0.00    -0.200 F 
ENDBRANCH  58  72
BRANCH  59  83
ATOM     83  C   UNL A   1      36.563  31.746  30.125  1.00  0.00     0.064 A 
ATOM     84  C   UNL A   1      36.038  31.682  31.480  1.00  0.00     0.173 A 
ATOM     85  C   UNL A   1      35.950  32.764  29.376  1.00  0.00     0.173 A 
ATOM     86  F   UNL A   1      36.450  30.750  32.350  1.00  0.00    -0.203 F 
ATOM     87  C   UNL A   1      35.124  32.602  32.038  1.00  0.00     0.198 A 
ATOM     88  C   UNL A   1      34.993  33.669  29.935  1.00  0.00     0.198 A 
ATOM     89  F   UNL A   1      36.323  32.972  28.109  1.00  0.00    -0.203 F 
ATOM     90  F   UNL A   1      34.808  32.539  33.345  1.00  0.00    -0.200 F 
ATOM     91  C   UNL A   1      34.613  33.612  31.268  1.00  0.00     0.200 A 
ATOM     92  F   UNL A   1      34.487  34.657  29.179  1.00  0.00    -0.200 F 
ATOM     93  F   UNL A   1      33.797  34.535  31.805  1.00  0.00    -0.200 F 
ENDBRANCH  59  83
BRANCH  71  94
ATOM     94  C   UNL A   1      41.638  30.659  32.868  1.00  0.00     0.064 A 
ATOM     95  C   UNL A   1      41.137  29.339  32.730  1.00  0.00     0.173 A 
ATOM     96  C   UNL A   1      42.058  31.019  34.156  1.00  0.00     0.173 A 
ATOM     97  F   UNL A   1      40.806  28.818  31.540  1.00  0.00    -0.203 F 
ATOM     98  C   UNL A   1      40.986  28.489  33.829  1.00  0.00     0.198 A 
ATOM     99  C   UNL A   1      41.962  30.147  35.239  1.00  0.00     0.198 A 
ATOM    100  F   UNL A   1      42.590  32.232  34.369  1.00  0.00    -0.203 F 
ATOM    101  F   UNL A   1      40.442  27.272  33.671  1.00  0.00    -0.200 F 
ATOM    102  C   UNL A   1      41.400  28.893  35.083  1.00  0.00     0.200 A 
ATOM    103  F   UNL A   1      42.420  30.533  36.437  1.00  0.00    -0.200 F 
ATOM    104  F   UNL A   1      41.276  28.074  36.136  1.00  0.00    -0.200 F 
ENDBRANCH  71  94
ENDBRANCH  45  46
ENDBRANCH  37  40
ENDBRANCH  35  36
ENDBRANCH  34  35
ENDBRANCH  33  34
ENDBRANCH   1  33
TORSDOF 15
ENDMDL
MODEL 3
REMARK VINA RESULT:     -15.7      2.247      4.637
REMARK SMILES Cc1cc(/C=C2/C(=O)NC(=S)[NH+]=C2NCCCCCCNC(=O)c2ccc(-c3c4nc(c(-c5c(F)c(F)c(F)c(F)c5F)c5ccc([nH]5)c(-c5c(F)c(F)c(F)c(F)c5F)c5nc(c(-c6c(F)c(F)c(F)c(F)c6F)c6ccc3[nH]6)C=C5)C=C4)cc2)c(C)n1-c1cccc(C(=O)[O-])c1
REMARK SMILES IDX 17 1 16 2 15 3 14 4 5 5 6 6 7 7 13 8 8 9 9 10 12 11 10 12
REMARK SMILES IDX 11 16 4 17 1 18 2 19 3 20 89 21 87 22 88 23 90 24 91 25
REMARK SMILES IDX 98 26 92 27 94 28 93 29 95 30 96 31 97 32 18 33 19 34 20 35
REMARK SMILES IDX 21 36 22 37 23 39 24 40 25 41 86 42 26 43 85 44 27 45 28 46
REMARK SMILES IDX 29 47 79 48 30 49 84 50 78 51 80 52 31 53 83 54 77 55 76 56
REMARK SMILES IDX 32 58 64 59 44 60 63 61 45 62 48 63 62 64 81 65 46 66 47 67
REMARK SMILES IDX 61 69 82 70 49 71 33 72 34 73 42 74 35 75 36 76 40 77 43 78
REMARK SMILES IDX 37 79 38 80 41 81 39 82 65 83 66 84 74 85 67 86 68 87 72 88
REMARK SMILES IDX 75 89 69 90 70 91 73 92 71 93 50 94 51 95 59 96 52 97 53 98
REMARK SMILES IDX 57 99 60 100 54 101 55 102 58 103 56 104
REMARK H PARENT 9 13 12 14 14 15 21 38 80 57 48 68
REMARK Flexibility Score: inf
ROOT
ATOM      1  C   UNL A   1      32.358  26.791  26.506  1.00  0.00     0.003 C 
ENDROOT
BRANCH   1   2
ATOM      2  C   UNL A   1      33.727  26.158  26.106  1.00  0.00     0.037 C 
BRANCH   2   3
ATOM      3  C   UNL A   1      33.781  24.648  26.057  1.00  0.00     0.194 C 
BRANCH   3   4
ATOM      4  N   UNL A   1      35.001  23.951  26.346  1.00  0.00    -0.305 N 
ATOM      5  C   UNL A   1      33.433  21.835  24.220  1.00  0.00     0.032 C 
ATOM      6  C   UNL A   1      34.586  21.779  24.932  1.00  0.00     0.128 C 
ATOM      7  C   UNL A   1      35.157  20.392  24.929  1.00  0.00     0.319 C 
ATOM      8  C   UNL A   1      35.413  22.772  25.746  1.00  0.00     0.234 C 
ATOM      9  O   UNL A   1      34.506  19.373  24.712  1.00  0.00    -0.250 OA
ATOM     10  N   UNL A   1      36.492  20.323  25.172  1.00  0.00    -0.229 N 
ATOM     11  N   UNL A   1      36.677  22.518  25.992  1.00  0.00    -0.236 N 
ATOM     12  C   UNL A   1      37.275  21.359  25.585  1.00  0.00     0.295 C 
ATOM     13  H   UNL A   1      36.930  19.451  25.039  1.00  0.00     0.268 HD
ATOM     14  H   UNL A   1      37.210  23.183  26.484  1.00  0.00     0.268 HD
ATOM     15  H   UNL A   1      35.594  24.343  27.026  1.00  0.00     0.256 HD
ATOM     16  S   UNL A   1      38.931  21.091  25.643  1.00  0.00    -0.005 S 
BRANCH   5  17
ATOM     17  C   UNL A   1      32.464  22.862  23.995  1.00  0.00    -0.003 A 
ATOM     18  C   UNL A   1      29.568  24.931  25.003  1.00  0.00     0.065 C 
ATOM     19  C   UNL A   1      30.800  24.299  24.477  1.00  0.00     0.020 A 
ATOM     20  C   UNL A   1      31.429  23.155  24.913  1.00  0.00     0.031 A 
ATOM     21  N   UNL A   1      31.509  24.771  23.393  1.00  0.00    -0.318 N 
ATOM     22  C   UNL A   1      32.274  23.696  22.895  1.00  0.00     0.027 A 
ATOM     23  C   UNL A   1      32.923  23.635  21.549  1.00  0.00     0.065 C 
BRANCH  21  24
ATOM     24  C   UNL A   1      31.592  26.137  22.996  1.00  0.00     0.046 A 
ATOM     25  C   UNL A   1      33.229  26.863  22.822  1.00  0.00     0.026 A 
ATOM     26  C   UNL A   1      30.110  27.196  22.870  1.00  0.00     0.036 A 
ATOM     27  C   UNL A   1      33.392  28.604  22.508  1.00  0.00     0.003 A 
ATOM     28  C   UNL A   1      30.318  28.987  22.552  1.00  0.00    -0.001 A 
ATOM     29  C   UNL A   1      31.963  29.681  22.385  1.00  0.00     0.010 A 
BRANCH  28  30
ATOM     30  C   UNL A   1      29.245  29.977  22.418  1.00  0.00     0.072 C 
ATOM     31  O   UNL A   1      28.985  30.826  23.250  1.00  0.00    -0.545 OA
ATOM     32  O   UNL A   1      28.610  29.892  21.247  1.00  0.00    -0.545 OA
ENDBRANCH  28  30
ENDBRANCH  21  24
ENDBRANCH   5  17
ENDBRANCH   3   4
ENDBRANCH   2   3
ENDBRANCH   1   2
BRANCH   1  33
ATOM     33  C   UNL A   1      31.799  28.452  26.109  1.00  0.00     0.002 C 
BRANCH  33  34
ATOM     34  C   UNL A   1      32.223  30.458  26.826  1.00  0.00     0.021 C 
BRANCH  34  35
ATOM     35  C   UNL A   1      33.742  31.343  27.312  1.00  0.00     0.116 C 
BRANCH  35  36
ATOM     36  N   UNL A   1      33.727  32.481  28.228  1.00  0.00    -0.352 N 
ATOM     37  C   UNL A   1      34.520  32.763  29.355  1.00  0.00     0.251 C 
ATOM     38  H   UNL A   1      33.050  33.164  28.022  1.00  0.00     0.163 HD
ATOM     39  O   UNL A   1      34.074  33.617  30.130  1.00  0.00    -0.269 OA
BRANCH  37  40
ATOM     40  C   UNL A   1      35.833  32.073  29.773  1.00  0.00     0.039 A 
ATOM     41  C   UNL A   1      36.929  32.145  28.928  1.00  0.00     0.014 A 
ATOM     42  C   UNL A   1      35.945  31.031  30.726  1.00  0.00     0.014 A 
ATOM     43  C   UNL A   1      38.099  31.298  29.107  1.00  0.00     0.010 A 
ATOM     44  C   UNL A   1      37.120  30.097  30.847  1.00  0.00     0.010 A 
ATOM     45  C   UNL A   1      38.267  30.180  30.028  1.00  0.00    -0.014 A 
BRANCH  45  46
ATOM     46  C   UNL A   1      39.458  29.011  29.624  1.00  0.00     0.031 A 
ATOM     47  C   UNL A   1      40.136  28.895  30.942  1.00  0.00     0.074 A 
ATOM     48  C   UNL A   1      40.162  28.257  28.638  1.00  0.00     0.049 A 
ATOM     49  N   UNL A   1      40.626  29.988  31.457  1.00  0.00    -0.248 NA
ATOM     50  C   UNL A   1      39.917  27.810  31.899  1.00  0.00     0.031 C 
ATOM     51  C   UNL A   1      40.041  28.297  27.163  1.00  0.00     0.029 A 
ATOM     52  N   UNL A   1      41.213  27.234  28.716  1.00  0.00    -0.354 N 
ATOM     53  C   UNL A   1      41.039  29.677  32.723  1.00  0.00     0.074 A 
ATOM     54  C   UNL A   1      40.381  28.405  33.008  1.00  0.00     0.031 C 
ATOM     55  C   UNL A   1      40.782  27.325  26.535  1.00  0.00     0.029 A 
ATOM     56  C   UNL A   1      41.568  26.524  27.479  1.00  0.00     0.049 A 
ATOM     57  H   UNL A   1      41.666  27.032  29.568  1.00  0.00     0.167 HD
ATOM     58  C   UNL A   1      42.312  30.080  32.993  1.00  0.00     0.037 A 
ATOM     59  C   UNL A   1      42.474  25.470  27.201  1.00  0.00     0.037 A 
ATOM     60  C   UNL A   1      43.237  28.994  32.828  1.00  0.00     0.049 A 
ATOM     61  C   UNL A   1      43.530  25.596  28.206  1.00  0.00     0.074 A 
ATOM     62  C   UNL A   1      43.167  27.655  33.161  1.00  0.00     0.029 A 
ATOM     63  N   UNL A   1      44.149  29.097  31.803  1.00  0.00    -0.354 N 
ATOM     64  N   UNL A   1      44.464  26.488  28.077  1.00  0.00    -0.248 NA
ATOM     65  C   UNL A   1      43.704  24.651  29.302  1.00  0.00     0.031 C 
ATOM     66  C   UNL A   1      43.542  26.994  31.975  1.00  0.00     0.029 A 
ATOM     67  C   UNL A   1      44.261  27.877  31.182  1.00  0.00     0.049 A 
ATOM     68  H   UNL A   1      44.641  29.913  31.557  1.00  0.00     0.167 HD
ATOM     69  C   UNL A   1      44.958  26.572  29.334  1.00  0.00     0.074 A 
ATOM     70  C   UNL A   1      44.693  25.279  29.942  1.00  0.00     0.031 C 
ATOM     71  C   UNL A   1      44.870  27.806  29.883  1.00  0.00     0.037 A 
BRANCH  58  72
ATOM     72  C   UNL A   1      42.565  31.504  32.547  1.00  0.00     0.064 A 
ATOM     73  C   UNL A   1      42.562  32.521  33.502  1.00  0.00     0.173 A 
ATOM     74  C   UNL A   1      42.619  31.896  31.188  1.00  0.00     0.173 A 
ATOM     75  F   UNL A   1      42.579  32.215  34.808  1.00  0.00    -0.203 F 
ATOM     76  C   UNL A   1      42.539  33.864  33.121  1.00  0.00     0.198 A 
ATOM     77  C   UNL A   1      42.511  33.230  30.811  1.00  0.00     0.198 A 
ATOM     78  F   UNL A   1      42.769  30.984  30.212  1.00  0.00    -0.203 F 
ATOM     79  F   UNL A   1      42.577  34.823  34.056  1.00  0.00    -0.200 F 
ATOM     80  C   UNL A   1      42.469  34.215  31.779  1.00  0.00     0.200 A 
ATOM     81  F   UNL A   1      42.450  33.555  29.511  1.00  0.00    -0.200 F 
ATOM     82  F   UNL A   1      42.390  35.504  31.419  1.00  0.00    -0.200 F 
ENDBRANCH  58  72
BRANCH  59  83
ATOM     83  C   UNL A   1      43.006  24.362  26.170  1.00  0.00     0.064 A 
ATOM     84  C   UNL A   1      44.170  24.589  25.328  1.00  0.00     0.173 A 
ATOM     85  C   UNL A   1      42.726  22.993  26.316  1.00  0.00     0.173 A 
ATOM     86  F   UNL A   1      44.584  25.824  25.018  1.00  0.00    -0.203 F 
ATOM     87  C   UNL A   1      45.011  23.574  24.820  1.00  0.00     0.198 A 
ATOM     88  C   UNL A   1      43.558  21.968  25.764  1.00  0.00     0.198 A 
ATOM     89  F   UNL A   1      41.693  22.604  27.071  1.00  0.00    -0.203 F 
ATOM     90  F   UNL A   1      46.144  23.893  24.168  1.00  0.00    -0.200 F 
ATOM     91  C   UNL A   1      44.714  22.258  25.054  1.00  0.00     0.200 A 
ATOM     92  F   UNL A   1      43.266  20.678  25.988  1.00  0.00    -0.200 F 
ATOM     93  F   UNL A   1      45.543  21.287  24.636  1.00  0.00    -0.200 F 
ENDBRANCH  59  83
BRANCH  71  94
ATOM     94  C   UNL A   1      45.259  28.984  29.003  1.00  0.00     0.064 A 
ATOM     95  C   UNL A   1      44.445  29.671  28.067  1.00  0.00     0.173 A 
ATOM     96  C   UNL A   1      46.599  29.391  29.059  1.00  0.00     0.173 A 
ATOM     97  F   UNL A   1      43.123  29.468  27.982  1.00  0.00    -0.203 F 
ATOM     98  C   UNL A   1      44.971  30.628  27.194  1.00  0.00     0.198 A 
ATOM     99  C   UNL A   1      47.107  30.389  28.228  1.00  0.00     0.198 A 
ATOM    100  F   UNL A   1      47.432  28.830  29.948  1.00  0.00    -0.203 F 
ATOM    101  F   UNL A   1      44.183  31.206  26.274  1.00  0.00    -0.200 F 
ATOM    102  C   UNL A   1      46.302  30.987  27.276  1.00  0.00     0.200 A 
ATOM    103  F   UNL A   1      48.386  30.766  28.358  1.00  0.00    -0.200 F 
ATOM    104  F   UNL A   1      46.805  31.918  26.455  1.00  0.00    -0.200 F 
ENDBRANCH  71  94
ENDBRANCH  45  46
ENDBRANCH  37  40
ENDBRANCH  35  36
ENDBRANCH  34  35
ENDBRANCH  33  34
ENDBRANCH   1  33
TORSDOF 15
ENDMDL
