MODEL 1
REMARK VINA RESULT:     -11.2      0.000      0.000
REMARK SMILES O=C(CCCOc1ccc([N+](=O)[O-])cc1F)NCCCCCCNC(=O)c1ccc(-c2c3nc(c(-c4c(F)c(F)c(F)c(F)c4F)c4ccc([nH]4)c(-c4c(F)c(F)c(F)c(F)c4F)c4nc(c(-c5c(F)c(F)c(F)c(F)c5F)c5ccc2[nH]5)C=C4)C=C3)cc1
REMARK SMILES IDX 19 1 18 2 17 3 1 4 2 5 3 7 4 8 5 9 6 10 7 11 8 12 15 13 9 14
REMARK SMILES IDX 14 15 16 16 10 17 11 18 12 19 13 20 20 21 21 22 22 23 23 24
REMARK SMILES IDX 24 25 25 26 26 28 27 29 28 30 89 31 29 32 88 33 30 34 31 35
REMARK SMILES IDX 32 36 82 37 33 38 87 39 81 40 83 41 34 42 86 43 80 44 79 45
REMARK SMILES IDX 35 47 67 48 47 49 66 50 48 51 51 52 65 53 84 54 49 55 50 56
REMARK SMILES IDX 64 58 85 59 52 60 36 61 37 62 45 63 38 64 39 65 43 66 46 67
REMARK SMILES IDX 40 68 41 69 44 70 42 71 68 72 69 73 77 74 70 75 71 76 75 77
REMARK SMILES IDX 78 78 72 79 73 80 76 81 74 82 53 83 54 84 62 85 55 86 56 87
REMARK SMILES IDX 60 88 63 89 57 90 58 91 61 92 59 93
REMARK H PARENT 17 6 24 27 83 46 51 57
REMARK Flexibility Score: inf
ROOT
ATOM      1  C   UNL A   1      34.620  32.543  29.139  1.00  0.00     0.021 C 
ENDROOT
BRANCH   1   2
ATOM      2  C   UNL A   1      35.310  31.901  27.938  1.00  0.00     0.116 C 
BRANCH   2   3
ATOM      3  N   UNL A   1      34.455  30.921  27.305  1.00  0.00    -0.356 N 
ATOM      4  O   UNL A   1      35.846  29.137  27.665  1.00  0.00    -0.275 OA
ATOM      5  C   UNL A   1      34.797  29.595  27.226  1.00  0.00     0.220 C 
ATOM      6  H   UNL A   1      33.600  31.216  26.919  1.00  0.00     0.163 HD
BRANCH   5   7
ATOM      7  C   UNL A   1      33.775  28.745  26.503  1.00  0.00     0.103 C 
BRANCH   7   8
ATOM      8  C   UNL A   1      33.134  29.415  25.282  1.00  0.00     0.051 C 
BRANCH   8   9
ATOM      9  C   UNL A   1      31.691  29.930  25.406  1.00  0.00     0.230 C 
BRANCH   9  10
ATOM     10  O   UNL A   1      30.752  29.207  24.593  1.00  0.00    -0.490 OA
BRANCH  10  11
ATOM     11  C   UNL A   1      30.030  29.992  23.742  1.00  0.00     0.155 A 
ATOM     12  C   UNL A   1      29.474  31.197  24.170  1.00  0.00     0.056 A 
ATOM     13  C   UNL A   1      29.765  29.525  22.454  1.00  0.00     0.171 A 
ATOM     14  C   UNL A   1      28.738  31.978  23.269  1.00  0.00     0.089 A 
ATOM     15  C   UNL A   1      29.067  30.297  21.537  1.00  0.00     0.128 A 
ATOM     16  F   UNL A   1      30.240  28.332  22.067  1.00  0.00    -0.203 F 
ATOM     17  C   UNL A   1      28.562  31.533  21.948  1.00  0.00     0.272 A 
BRANCH  17  18
ATOM     18  N   UNL A   1      27.846  32.370  20.981  1.00  0.00     0.062 N 
ATOM     19  O   UNL A   1      27.625  33.547  21.296  1.00  0.00    -0.258 OA
ATOM     20  O   UNL A   1      27.526  31.852  19.904  1.00  0.00    -0.258 OA
ENDBRANCH  17  18
ENDBRANCH  10  11
ENDBRANCH   9  10
ENDBRANCH   8   9
ENDBRANCH   7   8
ENDBRANCH   5   7
ENDBRANCH   2   3
ENDBRANCH   1   2
BRANCH   1  21
ATOM     21  C   UNL A   1      34.575  34.076  29.105  1.00  0.00     0.002 C 
BRANCH  21  22
ATOM     22  C   UNL A   1      33.216  34.698  28.778  1.00  0.00     0.002 C 
BRANCH  22  23
ATOM     23  C   UNL A   1      33.178  36.224  28.826  1.00  0.00     0.021 C 
BRANCH  23  24
ATOM     24  C   UNL A   1      33.460  36.822  30.199  1.00  0.00     0.116 C 
BRANCH  24  25
ATOM     25  N   UNL A   1      32.403  36.540  31.157  1.00  0.00    -0.352 N 
ATOM     26  C   UNL A   1      32.401  35.657  32.209  1.00  0.00     0.251 C 
ATOM     27  H   UNL A   1      31.573  37.056  31.035  1.00  0.00     0.163 HD
ATOM     28  O   UNL A   1      31.364  35.422  32.816  1.00  0.00    -0.269 OA
BRANCH  26  29
ATOM     29  C   UNL A   1      33.654  34.968  32.593  1.00  0.00     0.039 A 
ATOM     30  C   UNL A   1      33.594  33.632  32.996  1.00  0.00     0.014 A 
ATOM     31  C   UNL A   1      34.881  35.637  32.566  1.00  0.00     0.014 A 
ATOM     32  C   UNL A   1      34.771  32.954  33.324  1.00  0.00     0.010 A 
ATOM     33  C   UNL A   1      36.059  34.938  32.812  1.00  0.00     0.010 A 
ATOM     34  C   UNL A   1      36.016  33.593  33.209  1.00  0.00    -0.014 A 
BRANCH  34  35
ATOM     35  C   UNL A   1      37.281  32.884  33.537  1.00  0.00     0.031 A 
ATOM     36  C   UNL A   1      37.990  33.177  34.833  1.00  0.00     0.074 A 
ATOM     37  C   UNL A   1      37.810  32.009  32.660  1.00  0.00     0.049 A 
ATOM     38  N   UNL A   1      39.135  32.717  35.272  1.00  0.00    -0.248 NA
ATOM     39  C   UNL A   1      37.339  34.129  35.750  1.00  0.00     0.031 C 
ATOM     40  C   UNL A   1      37.234  31.658  31.361  1.00  0.00     0.029 A 
ATOM     41  N   UNL A   1      38.955  31.251  32.727  1.00  0.00    -0.354 N 
ATOM     42  C   UNL A   1      39.339  33.325  36.503  1.00  0.00     0.074 A 
ATOM     43  C   UNL A   1      38.234  34.231  36.720  1.00  0.00     0.031 C 
ATOM     44  C   UNL A   1      38.007  30.732  30.771  1.00  0.00     0.029 A 
ATOM     45  C   UNL A   1      39.158  30.455  31.625  1.00  0.00     0.049 A 
ATOM     46  H   UNL A   1      39.572  31.277  33.494  1.00  0.00     0.167 HD
ATOM     47  C   UNL A   1      40.341  33.119  37.388  1.00  0.00     0.037 A 
ATOM     48  C   UNL A   1      40.161  29.602  31.336  1.00  0.00     0.037 A 
ATOM     49  C   UNL A   1      41.422  32.190  37.188  1.00  0.00     0.049 A 
ATOM     50  C   UNL A   1      41.277  29.417  32.331  1.00  0.00     0.074 A 
ATOM     51  C   UNL A   1      42.469  31.895  38.042  1.00  0.00     0.029 A 
ATOM     52  N   UNL A   1      41.585  31.401  36.061  1.00  0.00    -0.354 N 
ATOM     53  N   UNL A   1      41.437  29.970  33.509  1.00  0.00    -0.248 NA
ATOM     54  C   UNL A   1      42.349  28.482  31.962  1.00  0.00     0.031 C 
ATOM     55  C   UNL A   1      43.294  30.959  37.414  1.00  0.00     0.029 A 
ATOM     56  C   UNL A   1      42.724  30.623  36.196  1.00  0.00     0.049 A 
ATOM     57  H   UNL A   1      40.985  31.393  35.281  1.00  0.00     0.167 HD
ATOM     58  C   UNL A   1      42.596  29.417  34.038  1.00  0.00     0.074 A 
ATOM     59  C   UNL A   1      43.097  28.479  33.057  1.00  0.00     0.031 C 
ATOM     60  C   UNL A   1      43.189  29.663  35.230  1.00  0.00     0.037 A 
BRANCH  47  61
ATOM     61  C   UNL A   1      40.316  33.880  38.681  1.00  0.00     0.064 A 
ATOM     62  C   UNL A   1      41.017  35.088  38.811  1.00  0.00     0.173 A 
ATOM     63  C   UNL A   1      39.700  33.351  39.824  1.00  0.00     0.173 A 
ATOM     64  F   UNL A   1      41.628  35.634  37.748  1.00  0.00    -0.203 F 
ATOM     65  C   UNL A   1      41.129  35.720  40.046  1.00  0.00     0.198 A 
ATOM     66  C   UNL A   1      39.790  34.001  41.052  1.00  0.00     0.198 A 
ATOM     67  F   UNL A   1      39.006  32.205  39.748  1.00  0.00    -0.203 F 
ATOM     68  F   UNL A   1      41.848  36.847  40.158  1.00  0.00    -0.200 F 
ATOM     69  C   UNL A   1      40.518  35.176  41.165  1.00  0.00     0.200 A 
ATOM     70  F   UNL A   1      39.181  33.484  42.128  1.00  0.00    -0.200 F 
ATOM     71  F   UNL A   1      40.633  35.782  42.355  1.00  0.00    -0.200 F 
ENDBRANCH  47  61
BRANCH  48  72
ATOM     72  C   UNL A   1      40.145  28.829  30.064  1.00  0.00     0.064 A 
ATOM     73  C   UNL A   1      40.786  29.300  28.910  1.00  0.00     0.173 A 
ATOM     74  C   UNL A   1      39.503  27.584  29.989  1.00  0.00     0.173 A 
ATOM     75  F   UNL A   1      41.413  30.486  28.925  1.00  0.00    -0.203 F 
ATOM     76  C   UNL A   1      40.782  28.558  27.729  1.00  0.00     0.198 A 
ATOM     77  C   UNL A   1      39.529  26.828  28.819  1.00  0.00     0.198 A 
ATOM     78  F   UNL A   1      38.892  27.078  31.071  1.00  0.00    -0.203 F 
ATOM     79  F   UNL A   1      41.383  29.043  26.635  1.00  0.00    -0.200 F 
ATOM     80  C   UNL A   1      40.163  27.319  27.688  1.00  0.00     0.200 A 
ATOM     81  F   UNL A   1      38.956  25.616  28.794  1.00  0.00    -0.200 F 
ATOM     82  F   UNL A   1      40.187  26.592  26.562  1.00  0.00    -0.200 F 
ENDBRANCH  48  72
BRANCH  60  83
ATOM     83  C   UNL A   1      44.409  28.864  35.590  1.00  0.00     0.064 A 
ATOM     84  C   UNL A   1      45.675  29.277  35.146  1.00  0.00     0.173 A 
ATOM     85  C   UNL A   1      44.321  27.652  36.289  1.00  0.00     0.173 A 
ATOM     86  F   UNL A   1      45.813  30.423  34.462  1.00  0.00    -0.203 F 
ATOM     87  C   UNL A   1      46.806  28.498  35.377  1.00  0.00     0.198 A 
ATOM     88  C   UNL A   1      45.458  26.892  36.548  1.00  0.00     0.198 A 
ATOM     89  F   UNL A   1      43.135  27.218  36.742  1.00  0.00    -0.203 F 
ATOM     90  F   UNL A   1      47.996  28.892  34.906  1.00  0.00    -0.200 F 
ATOM     91  C   UNL A   1      46.696  27.310  36.081  1.00  0.00     0.200 A 
ATOM     92  F   UNL A   1      45.357  25.757  37.250  1.00  0.00    -0.200 F 
ATOM     93  F   UNL A   1      47.786  26.565  36.312  1.00  0.00    -0.200 F 
ENDBRANCH  60  83
ENDBRANCH  34  35
ENDBRANCH  26  29
ENDBRANCH  24  25
ENDBRANCH  23  24
ENDBRANCH  22  23
ENDBRANCH  21  22
ENDBRANCH   1  21
TORSDOF 18
ENDMDL
MODEL 2
REMARK VINA RESULT:     -10.8      7.910     13.285
REMARK SMILES O=C(CCCOc1ccc([N+](=O)[O-])cc1F)NCCCCCCNC(=O)c1ccc(-c2c3nc(c(-c4c(F)c(F)c(F)c(F)c4F)c4ccc([nH]4)c(-c4c(F)c(F)c(F)c(F)c4F)c4nc(c(-c5c(F)c(F)c(F)c(F)c5F)c5ccc2[nH]5)C=C4)C=C3)cc1
REMARK SMILES IDX 19 1 18 2 17 3 1 4 2 5 3 7 4 8 5 9 6 10 7 11 8 12 15 13 9 14
REMARK SMILES IDX 14 15 16 16 10 17 11 18 12 19 13 20 20 21 21 22 22 23 23 24
REMARK SMILES IDX 24 25 25 26 26 28 27 29 28 30 89 31 29 32 88 33 30 34 31 35
REMARK SMILES IDX 32 36 82 37 33 38 87 39 81 40 83 41 34 42 86 43 80 44 79 45
REMARK SMILES IDX 35 47 67 48 47 49 66 50 48 51 51 52 65 53 84 54 49 55 50 56
REMARK SMILES IDX 64 58 85 59 52 60 36 61 37 62 45 63 38 64 39 65 43 66 46 67
REMARK SMILES IDX 40 68 41 69 44 70 42 71 68 72 69 73 77 74 70 75 71 76 75 77
REMARK SMILES IDX 78 78 72 79 73 80 76 81 74 82 53 83 54 84 62 85 55 86 56 87
REMARK SMILES IDX 60 88 63 89 57 90 58 91 61 92 59 93
REMARK H PARENT 17 6 24 27 83 46 51 57
REMARK Flexibility Score: inf
ROOT
ATOM      1  C   UNL A   1      40.004  22.723  26.926  1.00  0.00     0.021 C 
ENDROOT
BRANCH   1   2
ATOM      2  C   UNL A   1      38.911  22.082  26.075  1.00  0.00     0.116 C 
BRANCH   2   3
ATOM      3  N   UNL A   1      37.642  22.749  26.263  1.00  0.00    -0.356 N 
ATOM      4  O   UNL A   1      37.343  23.301  24.061  1.00  0.00    -0.275 OA
ATOM      5  C   UNL A   1      36.947  23.308  25.220  1.00  0.00     0.220 C 
ATOM      6  H   UNL A   1      37.264  22.805  27.171  1.00  0.00     0.163 HD
BRANCH   5   7
ATOM      7  C   UNL A   1      35.656  23.977  25.639  1.00  0.00     0.103 C 
BRANCH   7   8
ATOM      8  C   UNL A   1      34.579  24.027  24.550  1.00  0.00     0.051 C 
BRANCH   8   9
ATOM      9  C   UNL A   1      33.802  22.739  24.231  1.00  0.00     0.230 C 
BRANCH   9  10
ATOM     10  O   UNL A   1      33.749  21.815  25.330  1.00  0.00    -0.490 OA
BRANCH  10  11
ATOM     11  C   UNL A   1      33.714  20.503  24.954  1.00  0.00     0.155 A 
ATOM     12  C   UNL A   1      32.506  19.869  24.665  1.00  0.00     0.056 A 
ATOM     13  C   UNL A   1      34.900  19.768  24.959  1.00  0.00     0.171 A 
ATOM     14  C   UNL A   1      32.507  18.521  24.283  1.00  0.00     0.089 A 
ATOM     15  C   UNL A   1      34.927  18.441  24.552  1.00  0.00     0.128 A 
ATOM     16  F   UNL A   1      36.050  20.361  25.308  1.00  0.00    -0.203 F 
ATOM     17  C   UNL A   1      33.724  17.823  24.204  1.00  0.00     0.272 A 
BRANCH  17  18
ATOM     18  N   UNL A   1      33.742  16.430  23.747  1.00  0.00     0.062 N 
ATOM     19  O   UNL A   1      34.117  16.212  22.587  1.00  0.00    -0.258 OA
ATOM     20  O   UNL A   1      33.401  15.559  24.558  1.00  0.00    -0.258 OA
ENDBRANCH  17  18
ENDBRANCH  10  11
ENDBRANCH   9  10
ENDBRANCH   8   9
ENDBRANCH   7   8
ENDBRANCH   5   7
ENDBRANCH   2   3
ENDBRANCH   1   2
BRANCH   1  21
ATOM     21  C   UNL A   1      41.328  21.949  26.953  1.00  0.00     0.002 C 
BRANCH  21  22
ATOM     22  C   UNL A   1      41.217  20.443  27.197  1.00  0.00     0.002 C 
BRANCH  22  23
ATOM     23  C   UNL A   1      41.686  19.567  26.038  1.00  0.00     0.021 C 
BRANCH  23  24
ATOM     24  C   UNL A   1      43.041  18.906  26.252  1.00  0.00     0.116 C 
BRANCH  24  25
ATOM     25  N   UNL A   1      43.781  18.737  25.012  1.00  0.00    -0.352 N 
ATOM     26  C   UNL A   1      44.416  19.686  24.246  1.00  0.00     0.251 C 
ATOM     27  H   UNL A   1      43.836  17.814  24.674  1.00  0.00     0.163 HD
ATOM     28  O   UNL A   1      44.850  19.395  23.139  1.00  0.00    -0.269 OA
BRANCH  26  29
ATOM     29  C   UNL A   1      44.553  21.069  24.755  1.00  0.00     0.039 A 
ATOM     30  C   UNL A   1      45.213  21.280  25.968  1.00  0.00     0.014 A 
ATOM     31  C   UNL A   1      44.026  22.152  24.047  1.00  0.00     0.014 A 
ATOM     32  C   UNL A   1      45.386  22.582  26.445  1.00  0.00     0.010 A 
ATOM     33  C   UNL A   1      44.272  23.452  24.480  1.00  0.00     0.010 A 
ATOM     34  C   UNL A   1      44.941  23.681  25.692  1.00  0.00    -0.014 A 
BRANCH  34  35
ATOM     35  C   UNL A   1      45.131  25.075  26.173  1.00  0.00     0.031 A 
ATOM     36  C   UNL A   1      46.493  25.715  26.098  1.00  0.00     0.074 A 
ATOM     37  C   UNL A   1      44.095  25.750  26.708  1.00  0.00     0.049 A 
ATOM     38  N   UNL A   1      46.878  26.891  26.525  1.00  0.00    -0.248 NA
ATOM     39  C   UNL A   1      47.570  24.922  25.481  1.00  0.00     0.031 C 
ATOM     40  C   UNL A   1      42.735  25.233  26.860  1.00  0.00     0.029 A 
ATOM     41  N   UNL A   1      44.023  27.022  27.223  1.00  0.00    -0.354 N 
ATOM     42  C   UNL A   1      48.233  26.973  26.234  1.00  0.00     0.074 A 
ATOM     43  C   UNL A   1      48.621  25.710  25.649  1.00  0.00     0.031 C 
ATOM     44  C   UNL A   1      41.957  26.186  27.397  1.00  0.00     0.029 A 
ATOM     45  C   UNL A   1      42.770  27.368  27.671  1.00  0.00     0.049 A 
ATOM     46  H   UNL A   1      44.797  27.628  27.268  1.00  0.00     0.167 HD
ATOM     47  C   UNL A   1      49.070  28.021  26.409  1.00  0.00     0.037 A 
ATOM     48  C   UNL A   1      42.330  28.507  28.241  1.00  0.00     0.037 A 
ATOM     49  C   UNL A   1      48.675  29.291  26.959  1.00  0.00     0.049 A 
ATOM     50  C   UNL A   1      43.295  29.645  28.448  1.00  0.00     0.074 A 
ATOM     51  C   UNL A   1      49.450  30.422  27.150  1.00  0.00     0.029 A 
ATOM     52  N   UNL A   1      47.397  29.600  27.394  1.00  0.00    -0.354 N 
ATOM     53  N   UNL A   1      44.565  29.722  28.133  1.00  0.00    -0.248 NA
ATOM     54  C   UNL A   1      42.764  30.861  29.082  1.00  0.00     0.031 C 
ATOM     55  C   UNL A   1      48.651  31.402  27.742  1.00  0.00     0.029 A 
ATOM     56  C   UNL A   1      47.364  30.904  27.860  1.00  0.00     0.049 A 
ATOM     57  H   UNL A   1      46.627  28.986  27.375  1.00  0.00     0.167 HD
ATOM     58  C   UNL A   1      44.970  31.003  28.485  1.00  0.00     0.074 A 
ATOM     59  C   UNL A   1      43.810  31.673  29.032  1.00  0.00     0.031 C 
ATOM     60  C   UNL A   1      46.193  31.572  28.364  1.00  0.00     0.037 A 
BRANCH  47  61
ATOM     61  C   UNL A   1      50.498  27.871  25.975  1.00  0.00     0.064 A 
ATOM     62  C   UNL A   1      50.842  27.943  24.617  1.00  0.00     0.173 A 
ATOM     63  C   UNL A   1      51.504  27.531  26.891  1.00  0.00     0.173 A 
ATOM     64  F   UNL A   1      49.915  28.260  23.700  1.00  0.00    -0.203 F 
ATOM     65  C   UNL A   1      52.134  27.650  24.189  1.00  0.00     0.198 A 
ATOM     66  C   UNL A   1      52.803  27.266  26.463  1.00  0.00     0.198 A 
ATOM     67  F   UNL A   1      51.229  27.461  28.202  1.00  0.00    -0.203 F 
ATOM     68  F   UNL A   1      52.428  27.676  22.881  1.00  0.00    -0.200 F 
ATOM     69  C   UNL A   1      53.112  27.310  25.112  1.00  0.00     0.200 A 
ATOM     70  F   UNL A   1      53.751  26.959  27.357  1.00  0.00    -0.200 F 
ATOM     71  F   UNL A   1      54.354  27.020  24.698  1.00  0.00    -0.200 F 
ENDBRANCH  47  61
BRANCH  48  72
ATOM     72  C   UNL A   1      40.900  28.647  28.630  1.00  0.00     0.064 A 
ATOM     73  C   UNL A   1      39.930  29.093  27.720  1.00  0.00     0.173 A 
ATOM     74  C   UNL A   1      40.471  28.310  29.922  1.00  0.00     0.173 A 
ATOM     75  F   UNL A   1      40.285  29.432  26.472  1.00  0.00    -0.203 F 
ATOM     76  C   UNL A   1      38.590  29.202  28.089  1.00  0.00     0.198 A 
ATOM     77  C   UNL A   1      39.126  28.385  30.280  1.00  0.00     0.198 A 
ATOM     78  F   UNL A   1      41.355  27.858  30.825  1.00  0.00    -0.203 F 
ATOM     79  F   UNL A   1      37.690  29.654  27.207  1.00  0.00    -0.200 F 
ATOM     80  C   UNL A   1      38.188  28.838  29.365  1.00  0.00     0.200 A 
ATOM     81  F   UNL A   1      38.738  28.002  31.504  1.00  0.00    -0.200 F 
ATOM     82  F   UNL A   1      36.895  28.911  29.709  1.00  0.00    -0.200 F 
ENDBRANCH  48  72
BRANCH  60  83
ATOM     83  C   UNL A   1      46.343  33.013  28.758  1.00  0.00     0.064 A 
ATOM     84  C   UNL A   1      46.160  34.026  27.803  1.00  0.00     0.173 A 
ATOM     85  C   UNL A   1      46.751  33.391  30.046  1.00  0.00     0.173 A 
ATOM     86  F   UNL A   1      45.781  33.718  26.554  1.00  0.00    -0.203 F 
ATOM     87  C   UNL A   1      46.397  35.361  28.119  1.00  0.00     0.198 A 
ATOM     88  C   UNL A   1      46.954  34.730  30.367  1.00  0.00     0.198 A 
ATOM     89  F   UNL A   1      46.931  32.461  30.997  1.00  0.00    -0.203 F 
ATOM     90  F   UNL A   1      46.258  36.305  27.178  1.00  0.00    -0.200 F 
ATOM     91  C   UNL A   1      46.788  35.711  29.401  1.00  0.00     0.200 A 
ATOM     92  F   UNL A   1      47.308  35.071  31.613  1.00  0.00    -0.200 F 
ATOM     93  F   UNL A   1      47.005  36.998  29.707  1.00  0.00    -0.200 F 
ENDBRANCH  60  83
ENDBRANCH  34  35
ENDBRANCH  26  29
ENDBRANCH  24  25
ENDBRANCH  23  24
ENDBRANCH  22  23
ENDBRANCH  21  22
ENDBRANCH   1  21
TORSDOF 18
ENDMDL
MODEL 3
REMARK VINA RESULT:     -10.7      0.313      7.417
REMARK SMILES O=C(CCCOc1ccc([N+](=O)[O-])cc1F)NCCCCCCNC(=O)c1ccc(-c2c3nc(c(-c4c(F)c(F)c(F)c(F)c4F)c4ccc([nH]4)c(-c4c(F)c(F)c(F)c(F)c4F)c4nc(c(-c5c(F)c(F)c(F)c(F)c5F)c5ccc2[nH]5)C=C4)C=C3)cc1
REMARK SMILES IDX 19 1 18 2 17 3 1 4 2 5 3 7 4 8 5 9 6 10 7 11 8 12 15 13 9 14
REMARK SMILES IDX 14 15 16 16 10 17 11 18 12 19 13 20 20 21 21 22 22 23 23 24
REMARK SMILES IDX 24 25 25 26 26 28 27 29 28 30 89 31 29 32 88 33 30 34 31 35
REMARK SMILES IDX 32 36 82 37 33 38 87 39 81 40 83 41 34 42 86 43 80 44 79 45
REMARK SMILES IDX 35 47 67 48 47 49 66 50 48 51 51 52 65 53 84 54 49 55 50 56
REMARK SMILES IDX 64 58 85 59 52 60 36 61 37 62 45 63 38 64 39 65 43 66 46 67
REMARK SMILES IDX 40 68 41 69 44 70 42 71 68 72 69 73 77 74 70 75 71 76 75 77
REMARK SMILES IDX 78 78 72 79 73 80 76 81 74 82 53 83 54 84 62 85 55 86 56 87
REMARK SMILES IDX 60 88 63 89 57 90 58 91 61 92 59 93
REMARK H PARENT 17 6 24 27 83 46 51 57
REMARK Flexibility Score: inf
ROOT
ATOM      1  C   UNL A   1      34.607  32.835  29.074  1.00  0.00     0.021 C 
ENDROOT
BRANCH   1   2
ATOM      2  C   UNL A   1      35.410  31.922  28.150  1.00  0.00     0.116 C 
BRANCH   2   3
ATOM      3  N   UNL A   1      34.548  30.989  27.460  1.00  0.00    -0.356 N 
ATOM      4  O   UNL A   1      36.001  29.221  27.553  1.00  0.00    -0.275 OA
ATOM      5  C   UNL A   1      34.919  29.689  27.220  1.00  0.00     0.220 C 
ATOM      6  H   UNL A   1      33.666  31.296  27.150  1.00  0.00     0.163 HD
BRANCH   5   7
ATOM      7  C   UNL A   1      33.882  28.891  26.462  1.00  0.00     0.103 C 
BRANCH   7   8
ATOM      8  C   UNL A   1      33.047  29.706  25.468  1.00  0.00     0.051 C 
BRANCH   8   9
ATOM      9  C   UNL A   1      31.515  29.668  25.598  1.00  0.00     0.230 C 
BRANCH   9  10
ATOM     10  O   UNL A   1      30.862  29.004  24.504  1.00  0.00    -0.490 OA
BRANCH  10  11
ATOM     11  C   UNL A   1      30.130  29.832  23.705  1.00  0.00     0.155 A 
ATOM     12  C   UNL A   1      29.675  31.065  24.170  1.00  0.00     0.056 A 
ATOM     13  C   UNL A   1      29.751  29.386  22.438  1.00  0.00     0.171 A 
ATOM     14  C   UNL A   1      28.924  31.891  23.322  1.00  0.00     0.089 A 
ATOM     15  C   UNL A   1      29.036  30.201  21.571  1.00  0.00     0.128 A 
ATOM     16  F   UNL A   1      30.128  28.170  22.019  1.00  0.00    -0.203 F 
ATOM     17  C   UNL A   1      28.633  31.462  22.016  1.00  0.00     0.272 A 
BRANCH  17  18
ATOM     18  N   UNL A   1      27.901  32.343  21.102  1.00  0.00     0.062 N 
ATOM     19  O   UNL A   1      27.695  33.507  21.469  1.00  0.00    -0.258 OA
ATOM     20  O   UNL A   1      27.553  31.871  20.011  1.00  0.00    -0.258 OA
ENDBRANCH  17  18
ENDBRANCH  10  11
ENDBRANCH   9  10
ENDBRANCH   8   9
ENDBRANCH   7   8
ENDBRANCH   5   7
ENDBRANCH   2   3
ENDBRANCH   1   2
BRANCH   1  21
ATOM     21  C   UNL A   1      34.571  34.307  28.641  1.00  0.00     0.002 C 
BRANCH  21  22
ATOM     22  C   UNL A   1      33.194  34.973  28.655  1.00  0.00     0.002 C 
BRANCH  22  23
ATOM     23  C   UNL A   1      33.213  36.485  28.869  1.00  0.00     0.021 C 
BRANCH  23  24
ATOM     24  C   UNL A   1      33.497  36.919  30.301  1.00  0.00     0.116 C 
BRANCH  24  25
ATOM     25  N   UNL A   1      32.444  36.524  31.222  1.00  0.00    -0.352 N 
ATOM     26  C   UNL A   1      32.455  35.539  32.181  1.00  0.00     0.251 C 
ATOM     27  H   UNL A   1      31.606  37.036  31.150  1.00  0.00     0.163 HD
ATOM     28  O   UNL A   1      31.421  35.227  32.756  1.00  0.00    -0.269 OA
BRANCH  26  29
ATOM     29  C   UNL A   1      33.719  34.837  32.498  1.00  0.00     0.039 A 
ATOM     30  C   UNL A   1      34.928  35.518  32.335  1.00  0.00     0.014 A 
ATOM     31  C   UNL A   1      33.716  33.513  32.944  1.00  0.00     0.014 A 
ATOM     32  C   UNL A   1      36.129  34.885  32.666  1.00  0.00     0.010 A 
ATOM     33  C   UNL A   1      34.904  32.913  33.352  1.00  0.00     0.010 A 
ATOM     34  C   UNL A   1      36.126  33.588  33.203  1.00  0.00    -0.014 A 
BRANCH  34  35
ATOM     35  C   UNL A   1      37.391  32.903  33.578  1.00  0.00     0.031 A 
ATOM     36  C   UNL A   1      37.982  31.864  32.661  1.00  0.00     0.074 A 
ATOM     37  C   UNL A   1      37.988  33.186  34.753  1.00  0.00     0.049 A 
ATOM     38  N   UNL A   1      39.036  31.109  32.838  1.00  0.00    -0.248 NA
ATOM     39  C   UNL A   1      37.285  31.626  31.385  1.00  0.00     0.031 C 
ATOM     40  C   UNL A   1      37.502  34.152  35.739  1.00  0.00     0.029 A 
ATOM     41  N   UNL A   1      39.137  32.687  35.319  1.00  0.00    -0.354 N 
ATOM     42  C   UNL A   1      39.123  30.310  31.706  1.00  0.00     0.074 A 
ATOM     43  C   UNL A   1      37.984  30.625  30.873  1.00  0.00     0.031 C 
ATOM     44  C   UNL A   1      38.361  34.201  36.769  1.00  0.00     0.029 A 
ATOM     45  C   UNL A   1      39.435  33.238  36.542  1.00  0.00     0.049 A 
ATOM     46  H   UNL A   1      39.693  31.998  34.888  1.00  0.00     0.167 HD
ATOM     47  C   UNL A   1      40.085  29.418  31.376  1.00  0.00     0.037 A 
ATOM     48  C   UNL A   1      40.457  32.991  37.386  1.00  0.00     0.037 A 
ATOM     49  C   UNL A   1      41.237  29.130  32.188  1.00  0.00     0.049 A 
ATOM     50  C   UNL A   1      41.496  31.970  37.001  1.00  0.00     0.074 A 
ATOM     51  C   UNL A   1      42.279  28.260  31.922  1.00  0.00     0.029 A 
ATOM     52  N   UNL A   1      41.503  29.715  33.416  1.00  0.00    -0.354 N 
ATOM     53  N   UNL A   1      41.585  31.249  35.910  1.00  0.00    -0.248 NA
ATOM     54  C   UNL A   1      42.584  31.733  37.962  1.00  0.00     0.031 C 
ATOM     55  C   UNL A   1      43.154  28.282  33.010  1.00  0.00     0.029 A 
ATOM     56  C   UNL A   1      42.691  29.216  33.923  1.00  0.00     0.049 A 
ATOM     57  H   UNL A   1      40.934  30.383  33.862  1.00  0.00     0.167 HD
ATOM     58  C   UNL A   1      42.757  30.514  36.031  1.00  0.00     0.074 A 
ATOM     59  C   UNL A   1      43.350  30.879  37.299  1.00  0.00     0.031 C 
ATOM     60  C   UNL A   1      43.292  29.618  35.168  1.00  0.00     0.037 A 
BRANCH  47  61
ATOM     61  C   UNL A   1      39.968  28.699  30.063  1.00  0.00     0.064 A 
ATOM     62  C   UNL A   1      39.391  27.422  29.998  1.00  0.00     0.173 A 
ATOM     63  C   UNL A   1      40.539  29.224  28.895  1.00  0.00     0.173 A 
ATOM     64  F   UNL A   1      38.835  26.874  31.089  1.00  0.00    -0.203 F 
ATOM     65  C   UNL A   1      39.420  26.685  28.818  1.00  0.00     0.198 A 
ATOM     66  C   UNL A   1      40.541  28.494  27.709  1.00  0.00     0.198 A 
ATOM     67  F   UNL A   1      41.093  30.447  28.903  1.00  0.00    -0.203 F 
ATOM     68  F   UNL A   1      38.908  25.445  28.792  1.00  0.00    -0.200 F 
ATOM     69  C   UNL A   1      39.996  27.220  27.676  1.00  0.00     0.200 A 
ATOM     70  F   UNL A   1      41.079  29.021  26.601  1.00  0.00    -0.200 F 
ATOM     71  F   UNL A   1      40.029  26.505  26.543  1.00  0.00    -0.200 F 
ENDBRANCH  47  61
BRANCH  48  72
ATOM     72  C   UNL A   1      40.572  33.743  38.665  1.00  0.00     0.064 A 
ATOM     73  C   UNL A   1      39.856  33.364  39.809  1.00  0.00     0.173 A 
ATOM     74  C   UNL A   1      41.428  34.850  38.772  1.00  0.00     0.173 A 
ATOM     75  F   UNL A   1      39.021  32.315  39.762  1.00  0.00    -0.203 F 
ATOM     76  C   UNL A   1      39.986  34.063  41.007  1.00  0.00     0.198 A 
ATOM     77  C   UNL A   1      41.584  35.528  39.980  1.00  0.00     0.198 A 
ATOM     78  F   UNL A   1      42.152  35.242  37.713  1.00  0.00    -0.203 F 
ATOM     79  F   UNL A   1      39.272  33.693  42.078  1.00  0.00    -0.200 F 
ATOM     80  C   UNL A   1      40.858  35.138  41.095  1.00  0.00     0.200 A 
ATOM     81  F   UNL A   1      42.452  36.546  40.067  1.00  0.00    -0.200 F 
ATOM     82  F   UNL A   1      41.008  35.790  42.256  1.00  0.00    -0.200 F 
ENDBRANCH  48  72
BRANCH  60  83
ATOM     83  C   UNL A   1      44.622  29.013  35.514  1.00  0.00     0.064 A 
ATOM     84  C   UNL A   1      45.805  29.590  35.028  1.00  0.00     0.173 A 
ATOM     85  C   UNL A   1      44.726  27.821  36.245  1.00  0.00     0.173 A 
ATOM     86  F   UNL A   1      45.761  30.724  34.312  1.00  0.00    -0.203 F 
ATOM     87  C   UNL A   1      47.041  28.988  35.246  1.00  0.00     0.198 A 
ATOM     88  C   UNL A   1      45.967  27.239  36.492  1.00  0.00     0.198 A 
ATOM     89  F   UNL A   1      43.626  27.233  36.739  1.00  0.00    -0.203 F 
ATOM     90  F   UNL A   1      48.152  29.536  34.735  1.00  0.00    -0.200 F 
ATOM     91  C   UNL A   1      47.121  27.816  35.982  1.00  0.00     0.200 A 
ATOM     92  F   UNL A   1      46.046  26.121  37.224  1.00  0.00    -0.200 F 
ATOM     93  F   UNL A   1      48.312  27.243  36.202  1.00  0.00    -0.200 F 
ENDBRANCH  60  83
ENDBRANCH  34  35
ENDBRANCH  26  29
ENDBRANCH  24  25
ENDBRANCH  23  24
ENDBRANCH  22  23
ENDBRANCH  21  22
ENDBRANCH   1  21
TORSDOF 18
ENDMDL
