MODEL 1
REMARK VINA RESULT:     -12.5      0.000      0.000
REMARK SMILES COc1ccc(S(=O)(=O)Nc2c(C)cccc2C(=O)NCCCCCCNC(=O)c2ccc(-c3c4nc(c(-c5c(F)c(F)c(F)c(F)c5F)c5ccc([nH]5)c(-c5c(F)c(F)c(F)c(F)c5F)c5nc(c(-c6c(F)c(F)c(F)c(F)c6F)c6ccc3[nH]6)C=C5)C=C4)cc2)cc1
REMARK SMILES IDX 22 1 21 2 20 3 18 4 19 5 17 7 11 8 12 9 13 10 14 11 16 12
REMARK SMILES IDX 15 13 10 14 7 16 8 17 9 18 6 19 3 20 4 21 94 22 5 23 93 24
REMARK SMILES IDX 2 25 1 26 23 27 24 28 25 29 26 30 27 31 28 32 29 34 30 35
REMARK SMILES IDX 31 36 92 37 32 38 91 39 33 40 34 41 35 42 85 43 36 44 90 45
REMARK SMILES IDX 84 46 86 47 37 48 89 49 83 50 82 51 38 53 70 54 50 55 69 56
REMARK SMILES IDX 51 57 54 58 68 59 87 60 52 61 53 62 67 64 88 65 55 66 39 67
REMARK SMILES IDX 40 68 48 69 41 70 42 71 46 72 49 73 43 74 44 75 47 76 45 77
REMARK SMILES IDX 71 78 72 79 80 80 73 81 74 82 78 83 81 84 75 85 76 86 79 87
REMARK SMILES IDX 77 88 56 89 57 90 65 91 58 92 59 93 63 94 66 95 60 96 61 97
REMARK SMILES IDX 64 98 62 99
REMARK H PARENT 20 6 10 15 27 33 86 52 54 63
REMARK Flexibility Score: inf
ROOT
ATOM      1  C   UNL A   1      32.956  28.545  27.265  1.00  0.00     0.021 C 
ENDROOT
BRANCH   1   2
ATOM      2  C   UNL A   1      31.514  28.169  27.583  1.00  0.00     0.116 C 
BRANCH   2   3
ATOM      3  N   UNL A   1      31.099  26.873  27.086  1.00  0.00    -0.352 N 
ATOM      4  C   UNL A   1      30.992  26.412  25.797  1.00  0.00     0.253 C 
ATOM      5  O   UNL A   1      30.562  25.274  25.613  1.00  0.00    -0.269 OA
ATOM      6  H   UNL A   1      30.856  26.220  27.781  1.00  0.00     0.163 HD
BRANCH   4   7
ATOM      7  C   UNL A   1      31.310  27.252  24.611  1.00  0.00     0.064 A 
ATOM      8  C   UNL A   1      32.539  27.244  23.921  1.00  0.00     0.064 A 
ATOM      9  C   UNL A   1      32.755  28.177  22.882  1.00  0.00    -0.026 A 
ATOM     10  C   UNL A   1      34.068  28.368  22.168  1.00  0.00     0.046 C 
ATOM     11  C   UNL A   1      31.691  29.005  22.470  1.00  0.00     0.005 A 
ATOM     12  C   UNL A   1      30.262  28.075  24.162  1.00  0.00     0.016 A 
ATOM     13  C   UNL A   1      30.447  28.940  23.090  1.00  0.00     0.001 A 
BRANCH   8  14
ATOM     14  N   UNL A   1      33.558  26.304  24.282  1.00  0.00    -0.279 N 
ATOM     15  H   UNL A   1      34.175  26.542  25.011  1.00  0.00     0.180 HD
BRANCH  14  16
ATOM     16  S   UNL A   1      33.755  24.808  23.521  1.00  0.00     0.261 S 
ATOM     17  O   UNL A   1      34.026  25.132  22.133  1.00  0.00    -0.201 OA
ATOM     18  O   UNL A   1      32.587  24.023  23.858  1.00  0.00    -0.201 OA
BRANCH  16  19
ATOM     19  C   UNL A   1      35.166  23.959  24.170  1.00  0.00     0.088 A 
ATOM     20  C   UNL A   1      37.154  22.372  25.316  1.00  0.00     0.118 A 
ATOM     21  C   UNL A   1      36.857  22.242  23.958  1.00  0.00     0.048 A 
ATOM     22  C   UNL A   1      36.503  23.338  26.084  1.00  0.00     0.048 A 
ATOM     23  C   UNL A   1      35.859  23.032  23.379  1.00  0.00     0.026 A 
ATOM     24  C   UNL A   1      35.481  24.102  25.525  1.00  0.00     0.026 A 
BRANCH  20  25
ATOM     25  O   UNL A   1      38.091  21.513  25.825  1.00  0.00    -0.497 OA
ATOM     26  C   UNL A   1      39.344  22.150  26.082  1.00  0.00     0.278 C 
ENDBRANCH  20  25
ENDBRANCH  16  19
ENDBRANCH  14  16
ENDBRANCH   8  14
ENDBRANCH   4   7
ENDBRANCH   2   3
ENDBRANCH   1   2
BRANCH   1  27
ATOM     27  C   UNL A   1      33.175  29.876  26.533  1.00  0.00     0.002 C 
BRANCH  27  28
ATOM     28  C   UNL A   1      31.946  30.659  26.061  1.00  0.00     0.002 C 
BRANCH  28  29
ATOM     29  C   UNL A   1      31.584  31.929  26.828  1.00  0.00     0.021 C 
BRANCH  29  30
ATOM     30  C   UNL A   1      32.750  32.774  27.316  1.00  0.00     0.116 C 
BRANCH  30  31
ATOM     31  N   UNL A   1      32.384  34.138  27.662  1.00  0.00    -0.352 N 
ATOM     32  C   UNL A   1      32.961  34.977  28.586  1.00  0.00     0.251 C 
ATOM     33  H   UNL A   1      31.619  34.511  27.168  1.00  0.00     0.163 HD
ATOM     34  O   UNL A   1      32.475  36.079  28.818  1.00  0.00    -0.269 OA
BRANCH  32  35
ATOM     35  C   UNL A   1      34.158  34.530  29.330  1.00  0.00     0.039 A 
ATOM     36  C   UNL A   1      33.994  33.953  30.592  1.00  0.00     0.014 A 
ATOM     37  C   UNL A   1      35.434  34.654  28.774  1.00  0.00     0.014 A 
ATOM     38  C   UNL A   1      35.102  33.430  31.265  1.00  0.00     0.010 A 
ATOM     39  C   UNL A   1      36.522  34.066  29.410  1.00  0.00     0.010 A 
ATOM     40  C   UNL A   1      36.368  33.446  30.660  1.00  0.00    -0.014 A 
BRANCH  40  41
ATOM     41  C   UNL A   1      37.559  32.843  31.309  1.00  0.00     0.031 A 
ATOM     42  C   UNL A   1      38.236  31.668  30.660  1.00  0.00     0.074 A 
ATOM     43  C   UNL A   1      37.970  33.283  32.515  1.00  0.00     0.049 A 
ATOM     44  N   UNL A   1      39.166  30.878  31.134  1.00  0.00    -0.248 NA
ATOM     45  C   UNL A   1      37.782  31.317  29.305  1.00  0.00     0.031 C 
ATOM     46  C   UNL A   1      37.383  34.402  33.254  1.00  0.00     0.029 A 
ATOM     47  N   UNL A   1      38.964  32.824  33.343  1.00  0.00    -0.354 N 
ATOM     48  C   UNL A   1      39.395  29.933  30.142  1.00  0.00     0.074 A 
ATOM     49  C   UNL A   1      38.469  30.210  29.067  1.00  0.00     0.031 C 
ATOM     50  C   UNL A   1      38.031  34.545  34.421  1.00  0.00     0.029 A 
ATOM     51  C   UNL A   1      39.043  33.500  34.538  1.00  0.00     0.049 A 
ATOM     52  H   UNL A   1      39.565  32.081  33.104  1.00  0.00     0.167 HD
ATOM     53  C   UNL A   1      40.315  28.939  30.123  1.00  0.00     0.037 A 
ATOM     54  C   UNL A   1      39.825  33.282  35.612  1.00  0.00     0.037 A 
ATOM     55  C   UNL A   1      41.244  28.679  31.188  1.00  0.00     0.049 A 
ATOM     56  C   UNL A   1      40.807  32.138  35.583  1.00  0.00     0.074 A 
ATOM     57  C   UNL A   1      42.228  27.708  31.260  1.00  0.00     0.029 A 
ATOM     58  N   UNL A   1      41.309  29.403  32.371  1.00  0.00    -0.354 N 
ATOM     59  N   UNL A   1      41.038  31.270  34.628  1.00  0.00    -0.248 NA
ATOM     60  C   UNL A   1      41.635  31.943  36.781  1.00  0.00     0.031 C 
ATOM     61  C   UNL A   1      42.861  27.819  32.501  1.00  0.00     0.029 A 
ATOM     62  C   UNL A   1      42.308  28.893  33.181  1.00  0.00     0.049 A 
ATOM     63  H   UNL A   1      40.730  30.167  32.598  1.00  0.00     0.167 HD
ATOM     64  C   UNL A   1      42.065  30.458  35.091  1.00  0.00     0.074 A 
ATOM     65  C   UNL A   1      42.415  30.936  36.411  1.00  0.00     0.031 C 
ATOM     66  C   UNL A   1      42.665  29.410  34.477  1.00  0.00     0.037 A 
BRANCH  53  67
ATOM     67  C   UNL A   1      40.367  28.064  28.904  1.00  0.00     0.064 A 
ATOM     68  C   UNL A   1      41.150  28.407  27.790  1.00  0.00     0.173 A 
ATOM     69  C   UNL A   1      39.663  26.852  28.861  1.00  0.00     0.173 A 
ATOM     70  F   UNL A   1      41.833  29.561  27.775  1.00  0.00    -0.203 F 
ATOM     71  C   UNL A   1      41.205  27.582  26.670  1.00  0.00     0.198 A 
ATOM     72  C   UNL A   1      39.746  26.013  27.752  1.00  0.00     0.198 A 
ATOM     73  F   UNL A   1      38.903  26.472  29.899  1.00  0.00    -0.203 F 
ATOM     74  F   UNL A   1      41.921  27.954  25.601  1.00  0.00    -0.200 F 
ATOM     75  C   UNL A   1      40.511  26.382  26.656  1.00  0.00     0.200 A 
ATOM     76  F   UNL A   1      39.086  24.847  27.745  1.00  0.00    -0.200 F 
ATOM     77  F   UNL A   1      40.573  25.584  25.581  1.00  0.00    -0.200 F 
ENDBRANCH  53  67
BRANCH  54  78
ATOM     78  C   UNL A   1      39.722  34.158  36.810  1.00  0.00     0.064 A 
ATOM     79  C   UNL A   1      40.461  35.346  36.899  1.00  0.00     0.173 A 
ATOM     80  C   UNL A   1      38.915  33.813  37.905  1.00  0.00     0.173 A 
ATOM     81  F   UNL A   1      41.266  35.710  35.889  1.00  0.00    -0.203 F 
ATOM     82  C   UNL A   1      40.425  36.135  38.047  1.00  0.00     0.198 A 
ATOM     83  C   UNL A   1      38.854  34.620  39.039  1.00  0.00     0.198 A 
ATOM     84  F   UNL A   1      38.184  32.688  37.873  1.00  0.00    -0.203 F 
ATOM     85  F   UNL A   1      41.194  37.230  38.128  1.00  0.00    -0.200 F 
ATOM     86  C   UNL A   1      39.619  35.774  39.115  1.00  0.00     0.200 A 
ATOM     87  F   UNL A   1      38.064  34.272  40.064  1.00  0.00    -0.200 F 
ATOM     88  F   UNL A   1      39.590  36.528  40.222  1.00  0.00    -0.200 F 
ENDBRANCH  54  78
BRANCH  66  89
ATOM     89  C   UNL A   1      43.809  28.747  35.188  1.00  0.00     0.064 A 
ATOM     90  C   UNL A   1      43.611  27.673  36.066  1.00  0.00     0.173 A 
ATOM     91  C   UNL A   1      45.128  29.149  34.924  1.00  0.00     0.173 A 
ATOM     92  F   UNL A   1      42.368  27.262  36.362  1.00  0.00    -0.203 F 
ATOM     93  C   UNL A   1      44.692  27.031  36.662  1.00  0.00     0.198 A 
ATOM     94  C   UNL A   1      46.207  28.485  35.498  1.00  0.00     0.198 A 
ATOM     95  F   UNL A   1      45.369  30.168  34.085  1.00  0.00    -0.203 F 
ATOM     96  F   UNL A   1      44.480  26.026  37.524  1.00  0.00    -0.200 F 
ATOM     97  C   UNL A   1      45.988  27.429  36.370  1.00  0.00     0.200 A 
ATOM     98  F   UNL A   1      47.458  28.862  35.202  1.00  0.00    -0.200 F 
ATOM     99  F   UNL A   1      47.028  26.796  36.930  1.00  0.00    -0.200 F 
ENDBRANCH  66  89
ENDBRANCH  40  41
ENDBRANCH  32  35
ENDBRANCH  30  31
ENDBRANCH  29  30
ENDBRANCH  28  29
ENDBRANCH  27  28
ENDBRANCH   1  27
TORSDOF 17
ENDMDL
MODEL 2
REMARK VINA RESULT:     -12.5      1.158      2.344
REMARK SMILES COc1ccc(S(=O)(=O)Nc2c(C)cccc2C(=O)NCCCCCCNC(=O)c2ccc(-c3c4nc(c(-c5c(F)c(F)c(F)c(F)c5F)c5ccc([nH]5)c(-c5c(F)c(F)c(F)c(F)c5F)c5nc(c(-c6c(F)c(F)c(F)c(F)c6F)c6ccc3[nH]6)C=C5)C=C4)cc2)cc1
REMARK SMILES IDX 22 1 21 2 20 3 18 4 19 5 17 7 11 8 12 9 13 10 14 11 16 12
REMARK SMILES IDX 15 13 10 14 7 16 8 17 9 18 6 19 3 20 4 21 94 22 5 23 93 24
REMARK SMILES IDX 2 25 1 26 23 27 24 28 25 29 26 30 27 31 28 32 29 34 30 35
REMARK SMILES IDX 31 36 92 37 32 38 91 39 33 40 34 41 35 42 85 43 36 44 90 45
REMARK SMILES IDX 84 46 86 47 37 48 89 49 83 50 82 51 38 53 70 54 50 55 69 56
REMARK SMILES IDX 51 57 54 58 68 59 87 60 52 61 53 62 67 64 88 65 55 66 39 67
REMARK SMILES IDX 40 68 48 69 41 70 42 71 46 72 49 73 43 74 44 75 47 76 45 77
REMARK SMILES IDX 71 78 72 79 80 80 73 81 74 82 78 83 81 84 75 85 76 86 79 87
REMARK SMILES IDX 77 88 56 89 57 90 65 91 58 92 59 93 63 94 66 95 60 96 61 97
REMARK SMILES IDX 64 98 62 99
REMARK H PARENT 20 6 10 15 27 33 86 52 54 63
REMARK Flexibility Score: inf
ROOT
ATOM      1  C   UNL A   1      32.901  28.222  26.841  1.00  0.00     0.021 C 
ENDROOT
BRANCH   1   2
ATOM      2  C   UNL A   1      32.190  26.902  26.568  1.00  0.00     0.116 C 
BRANCH   2   3
ATOM      3  N   UNL A   1      31.022  27.005  25.716  1.00  0.00    -0.352 N 
ATOM      4  C   UNL A   1      30.335  26.030  25.035  1.00  0.00     0.253 C 
ATOM      5  O   UNL A   1      29.390  26.367  24.323  1.00  0.00    -0.269 OA
ATOM      6  H   UNL A   1      30.665  27.916  25.609  1.00  0.00     0.163 HD
BRANCH   4   7
ATOM      7  C   UNL A   1      30.724  24.595  25.069  1.00  0.00     0.064 A 
ATOM      8  C   UNL A   1      31.327  23.896  24.003  1.00  0.00     0.064 A 
ATOM      9  C   UNL A   1      31.539  22.504  24.122  1.00  0.00    -0.026 A 
ATOM     10  C   UNL A   1      32.037  21.620  23.008  1.00  0.00     0.046 C 
ATOM     11  C   UNL A   1      31.267  21.869  25.351  1.00  0.00     0.005 A 
ATOM     12  C   UNL A   1      30.484  23.939  26.288  1.00  0.00     0.016 A 
ATOM     13  C   UNL A   1      30.763  22.584  26.434  1.00  0.00     0.001 A 
BRANCH   8  14
ATOM     14  N   UNL A   1      31.708  24.594  22.812  1.00  0.00    -0.279 N 
ATOM     15  H   UNL A   1      31.068  24.624  22.064  1.00  0.00     0.180 HD
BRANCH  14  16
ATOM     16  S   UNL A   1      33.199  25.367  22.623  1.00  0.00     0.261 S 
ATOM     17  O   UNL A   1      33.018  26.673  23.230  1.00  0.00    -0.201 OA
ATOM     18  O   UNL A   1      33.531  25.271  21.219  1.00  0.00    -0.201 OA
BRANCH  16  19
ATOM     19  C   UNL A   1      34.462  24.514  23.523  1.00  0.00     0.088 A 
ATOM     20  C   UNL A   1      36.183  22.974  25.088  1.00  0.00     0.118 A 
ATOM     21  C   UNL A   1      35.952  22.622  23.758  1.00  0.00     0.048 A 
ATOM     22  C   UNL A   1      35.606  24.130  25.616  1.00  0.00     0.048 A 
ATOM     23  C   UNL A   1      35.087  23.388  22.969  1.00  0.00     0.026 A 
ATOM     24  C   UNL A   1      34.714  24.877  24.849  1.00  0.00     0.026 A 
BRANCH  20  25
ATOM     25  O   UNL A   1      36.983  22.134  25.816  1.00  0.00    -0.497 OA
ATOM     26  C   UNL A   1      37.760  21.260  24.994  1.00  0.00     0.278 C 
ENDBRANCH  20  25
ENDBRANCH  16  19
ENDBRANCH  14  16
ENDBRANCH   8  14
ENDBRANCH   4   7
ENDBRANCH   2   3
ENDBRANCH   1   2
BRANCH   1  27
ATOM     27  C   UNL A   1      32.014  29.423  27.191  1.00  0.00     0.002 C 
BRANCH  27  28
ATOM     28  C   UNL A   1      31.908  30.570  26.181  1.00  0.00     0.002 C 
BRANCH  28  29
ATOM     29  C   UNL A   1      31.565  31.956  26.723  1.00  0.00     0.021 C 
BRANCH  29  30
ATOM     30  C   UNL A   1      32.707  32.726  27.368  1.00  0.00     0.116 C 
BRANCH  30  31
ATOM     31  N   UNL A   1      32.382  34.109  27.679  1.00  0.00    -0.352 N 
ATOM     32  C   UNL A   1      32.994  34.958  28.570  1.00  0.00     0.251 C 
ATOM     33  H   UNL A   1      31.619  34.488  27.185  1.00  0.00     0.163 HD
ATOM     34  O   UNL A   1      32.541  36.079  28.777  1.00  0.00    -0.269 OA
BRANCH  32  35
ATOM     35  C   UNL A   1      34.190  34.501  29.311  1.00  0.00     0.039 A 
ATOM     36  C   UNL A   1      34.024  33.910  30.566  1.00  0.00     0.014 A 
ATOM     37  C   UNL A   1      35.466  34.629  28.757  1.00  0.00     0.014 A 
ATOM     38  C   UNL A   1      35.130  33.378  31.234  1.00  0.00     0.010 A 
ATOM     39  C   UNL A   1      36.554  34.033  29.387  1.00  0.00     0.010 A 
ATOM     40  C   UNL A   1      36.397  33.399  30.631  1.00  0.00    -0.014 A 
BRANCH  40  41
ATOM     41  C   UNL A   1      37.587  32.786  31.273  1.00  0.00     0.031 A 
ATOM     42  C   UNL A   1      38.277  31.633  30.600  1.00  0.00     0.074 A 
ATOM     43  C   UNL A   1      37.985  33.198  32.493  1.00  0.00     0.049 A 
ATOM     44  N   UNL A   1      39.208  30.837  31.061  1.00  0.00    -0.248 NA
ATOM     45  C   UNL A   1      37.836  31.314  29.232  1.00  0.00     0.031 C 
ATOM     46  C   UNL A   1      37.384  34.293  33.257  1.00  0.00     0.029 A 
ATOM     47  N   UNL A   1      38.975  32.724  33.318  1.00  0.00    -0.354 N 
ATOM     48  C   UNL A   1      39.451  29.919  30.047  1.00  0.00     0.074 A 
ATOM     49  C   UNL A   1      38.532  30.217  28.972  1.00  0.00     0.031 C 
ATOM     50  C   UNL A   1      38.022  34.411  34.432  1.00  0.00     0.029 A 
ATOM     51  C   UNL A   1      39.040  33.369  34.530  1.00  0.00     0.049 A 
ATOM     52  H   UNL A   1      39.583  31.990  33.065  1.00  0.00     0.167 HD
ATOM     53  C   UNL A   1      40.377  28.931  30.010  1.00  0.00     0.037 A 
ATOM     54  C   UNL A   1      39.815  33.128  35.605  1.00  0.00     0.037 A 
ATOM     55  C   UNL A   1      41.299  28.650  31.076  1.00  0.00     0.049 A 
ATOM     56  C   UNL A   1      40.804  31.992  35.555  1.00  0.00     0.074 A 
ATOM     57  C   UNL A   1      42.288  27.684  31.131  1.00  0.00     0.029 A 
ATOM     58  N   UNL A   1      41.349  29.344  32.277  1.00  0.00    -0.354 N 
ATOM     59  N   UNL A   1      41.049  31.150  34.580  1.00  0.00    -0.248 NA
ATOM     60  C   UNL A   1      41.623  31.770  36.754  1.00  0.00     0.031 C 
ATOM     61  C   UNL A   1      42.910  27.766  32.380  1.00  0.00     0.029 A 
ATOM     62  C   UNL A   1      42.345  28.819  33.083  1.00  0.00     0.049 A 
ATOM     63  H   UNL A   1      40.763  30.098  32.519  1.00  0.00     0.167 HD
ATOM     64  C   UNL A   1      42.077  30.332  35.030  1.00  0.00     0.074 A 
ATOM     65  C   UNL A   1      42.412  30.778  36.365  1.00  0.00     0.031 C 
ATOM     66  C   UNL A   1      42.688  29.304  34.395  1.00  0.00     0.037 A 
BRANCH  53  67
ATOM     67  C   UNL A   1      40.444  28.088  28.769  1.00  0.00     0.064 A 
ATOM     68  C   UNL A   1      41.217  28.476  27.663  1.00  0.00     0.173 A 
ATOM     69  C   UNL A   1      39.768  26.862  28.698  1.00  0.00     0.173 A 
ATOM     70  F   UNL A   1      41.874  29.646  27.675  1.00  0.00    -0.203 F 
ATOM     71  C   UNL A   1      41.286  27.681  26.522  1.00  0.00     0.198 A 
ATOM     72  C   UNL A   1      39.866  26.053  27.568  1.00  0.00     0.198 A 
ATOM     73  F   UNL A   1      39.020  26.440  29.729  1.00  0.00    -0.203 F 
ATOM     74  F   UNL A   1      41.990  28.096  25.461  1.00  0.00    -0.200 F 
ATOM     75  C   UNL A   1      40.619  26.467  26.479  1.00  0.00     0.200 A 
ATOM     76  F   UNL A   1      39.232  24.873  27.534  1.00  0.00    -0.200 F 
ATOM     77  F   UNL A   1      40.696  25.697  25.385  1.00  0.00    -0.200 F 
ENDBRANCH  53  67
BRANCH  54  78
ATOM     78  C   UNL A   1      39.696  33.973  36.825  1.00  0.00     0.064 A 
ATOM     79  C   UNL A   1      38.882  33.578  37.896  1.00  0.00     0.173 A 
ATOM     80  C   UNL A   1      40.358  35.204  36.932  1.00  0.00     0.173 A 
ATOM     81  F   UNL A   1      38.209  32.419  37.834  1.00  0.00    -0.203 F 
ATOM     82  C   UNL A   1      38.709  34.396  39.011  1.00  0.00     0.198 A 
ATOM     83  C   UNL A   1      40.211  36.007  38.061  1.00  0.00     0.198 A 
ATOM     84  F   UNL A   1      41.152  35.630  35.937  1.00  0.00    -0.203 F 
ATOM     85  F   UNL A   1      37.874  34.022  39.990  1.00  0.00    -0.200 F 
ATOM     86  C   UNL A   1      39.375  35.608  39.094  1.00  0.00     0.200 A 
ATOM     87  F   UNL A   1      40.866  37.173  38.142  1.00  0.00    -0.200 F 
ATOM     88  F   UNL A   1      39.203  36.399  40.162  1.00  0.00    -0.200 F 
ENDBRANCH  54  78
BRANCH  66  89
ATOM     89  C   UNL A   1      43.830  28.630  35.098  1.00  0.00     0.064 A 
ATOM     90  C   UNL A   1      45.146  29.097  34.987  1.00  0.00     0.173 A 
ATOM     91  C   UNL A   1      43.585  27.546  35.956  1.00  0.00     0.173 A 
ATOM     92  F   UNL A   1      45.433  30.122  34.168  1.00  0.00    -0.203 F 
ATOM     93  C   UNL A   1      46.179  28.497  35.701  1.00  0.00     0.198 A 
ATOM     94  C   UNL A   1      44.615  26.968  36.691  1.00  0.00     0.198 A 
ATOM     95  F   UNL A   1      42.340  27.067  36.102  1.00  0.00    -0.203 F 
ATOM     96  F   UNL A   1      47.436  28.939  35.556  1.00  0.00    -0.200 F 
ATOM     97  C   UNL A   1      45.912  27.442  36.560  1.00  0.00     0.200 A 
ATOM     98  F   UNL A   1      44.351  25.959  37.532  1.00  0.00    -0.200 F 
ATOM     99  F   UNL A   1      46.905  26.878  37.261  1.00  0.00    -0.200 F 
ENDBRANCH  66  89
ENDBRANCH  40  41
ENDBRANCH  32  35
ENDBRANCH  30  31
ENDBRANCH  29  30
ENDBRANCH  28  29
ENDBRANCH  27  28
ENDBRANCH   1  27
TORSDOF 17
ENDMDL
MODEL 3
REMARK VINA RESULT:     -12.2      1.281      2.063
REMARK SMILES COc1ccc(S(=O)(=O)Nc2c(C)cccc2C(=O)NCCCCCCNC(=O)c2ccc(-c3c4nc(c(-c5c(F)c(F)c(F)c(F)c5F)c5ccc([nH]5)c(-c5c(F)c(F)c(F)c(F)c5F)c5nc(c(-c6c(F)c(F)c(F)c(F)c6F)c6ccc3[nH]6)C=C5)C=C4)cc2)cc1
REMARK SMILES IDX 22 1 21 2 20 3 18 4 19 5 17 7 11 8 12 9 13 10 14 11 16 12
REMARK SMILES IDX 15 13 10 14 7 16 8 17 9 18 6 19 3 20 4 21 94 22 5 23 93 24
REMARK SMILES IDX 2 25 1 26 23 27 24 28 25 29 26 30 27 31 28 32 29 34 30 35
REMARK SMILES IDX 31 36 92 37 32 38 91 39 33 40 34 41 35 42 85 43 36 44 90 45
REMARK SMILES IDX 84 46 86 47 37 48 89 49 83 50 82 51 38 53 70 54 50 55 69 56
REMARK SMILES IDX 51 57 54 58 68 59 87 60 52 61 53 62 67 64 88 65 55 66 39 67
REMARK SMILES IDX 40 68 48 69 41 70 42 71 46 72 49 73 43 74 44 75 47 76 45 77
REMARK SMILES IDX 71 78 72 79 80 80 73 81 74 82 78 83 81 84 75 85 76 86 79 87
REMARK SMILES IDX 77 88 56 89 57 90 65 91 58 92 59 93 63 94 66 95 60 96 61 97
REMARK SMILES IDX 64 98 62 99
REMARK H PARENT 20 6 10 15 27 33 86 52 54 63
REMARK Flexibility Score: inf
ROOT
ATOM      1  C   UNL A   1      32.332  28.231  27.286  1.00  0.00     0.021 C 
ENDROOT
BRANCH   1   2
ATOM      2  C   UNL A   1      32.205  27.457  25.979  1.00  0.00     0.116 C 
BRANCH   2   3
ATOM      3  N   UNL A   1      30.852  27.326  25.478  1.00  0.00    -0.352 N 
ATOM      4  C   UNL A   1      30.372  26.628  24.397  1.00  0.00     0.253 C 
ATOM      5  O   UNL A   1      29.173  26.707  24.132  1.00  0.00    -0.269 OA
ATOM      6  H   UNL A   1      30.170  27.813  25.994  1.00  0.00     0.163 HD
BRANCH   4   7
ATOM      7  C   UNL A   1      31.249  25.835  23.495  1.00  0.00     0.064 A 
ATOM      8  C   UNL A   1      31.363  24.430  23.507  1.00  0.00     0.064 A 
ATOM      9  C   UNL A   1      32.322  23.806  22.678  1.00  0.00    -0.026 A 
ATOM     10  C   UNL A   1      32.642  22.334  22.704  1.00  0.00     0.046 C 
ATOM     11  C   UNL A   1      33.051  24.590  21.760  1.00  0.00     0.005 A 
ATOM     12  C   UNL A   1      31.975  26.586  22.553  1.00  0.00     0.016 A 
ATOM     13  C   UNL A   1      32.864  25.966  21.682  1.00  0.00     0.001 A 
BRANCH   8  14
ATOM     14  N   UNL A   1      30.519  23.650  24.363  1.00  0.00    -0.279 N 
ATOM     15  H   UNL A   1      29.667  23.318  24.000  1.00  0.00     0.180 HD
BRANCH  14  16
ATOM     16  S   UNL A   1      30.911  23.273  25.963  1.00  0.00     0.261 S 
ATOM     17  O   UNL A   1      30.227  22.020  26.226  1.00  0.00    -0.201 OA
ATOM     18  O   UNL A   1      30.586  24.444  26.748  1.00  0.00    -0.201 OA
BRANCH  16  19
ATOM     19  C   UNL A   1      32.650  22.993  26.130  1.00  0.00     0.088 A 
ATOM     20  C   UNL A   1      35.394  22.499  26.033  1.00  0.00     0.118 A 
ATOM     21  C   UNL A   1      34.924  23.812  26.008  1.00  0.00     0.048 A 
ATOM     22  C   UNL A   1      34.499  21.438  26.171  1.00  0.00     0.048 A 
ATOM     23  C   UNL A   1      33.550  24.066  26.052  1.00  0.00     0.026 A 
ATOM     24  C   UNL A   1      33.126  21.680  26.178  1.00  0.00     0.026 A 
BRANCH  20  25
ATOM     25  O   UNL A   1      36.748  22.327  25.912  1.00  0.00    -0.497 OA
ATOM     26  C   UNL A   1      37.415  23.505  25.455  1.00  0.00     0.278 C 
ENDBRANCH  20  25
ENDBRANCH  16  19
ENDBRANCH  14  16
ENDBRANCH   8  14
ENDBRANCH   4   7
ENDBRANCH   2   3
ENDBRANCH   1   2
BRANCH   1  27
ATOM     27  C   UNL A   1      32.685  29.720  27.173  1.00  0.00     0.002 C 
BRANCH  27  28
ATOM     28  C   UNL A   1      31.869  30.591  26.212  1.00  0.00     0.002 C 
BRANCH  28  29
ATOM     29  C   UNL A   1      31.548  32.016  26.656  1.00  0.00     0.021 C 
BRANCH  29  30
ATOM     30  C   UNL A   1      32.650  32.752  27.400  1.00  0.00     0.116 C 
BRANCH  30  31
ATOM     31  N   UNL A   1      32.347  34.147  27.674  1.00  0.00    -0.352 N 
ATOM     32  C   UNL A   1      32.968  35.010  28.546  1.00  0.00     0.251 C 
ATOM     33  H   UNL A   1      31.592  34.526  27.166  1.00  0.00     0.163 HD
ATOM     34  O   UNL A   1      32.531  36.143  28.722  1.00  0.00    -0.269 OA
BRANCH  32  35
ATOM     35  C   UNL A   1      34.152  34.552  29.305  1.00  0.00     0.039 A 
ATOM     36  C   UNL A   1      33.965  33.921  30.537  1.00  0.00     0.014 A 
ATOM     37  C   UNL A   1      35.440  34.721  28.790  1.00  0.00     0.014 A 
ATOM     38  C   UNL A   1      35.063  33.390  31.219  1.00  0.00     0.010 A 
ATOM     39  C   UNL A   1      36.521  34.127  29.431  1.00  0.00     0.010 A 
ATOM     40  C   UNL A   1      36.345  33.453  30.650  1.00  0.00    -0.014 A 
BRANCH  40  41
ATOM     41  C   UNL A   1      37.529  32.844  31.306  1.00  0.00     0.031 A 
ATOM     42  C   UNL A   1      38.208  31.670  30.658  1.00  0.00     0.074 A 
ATOM     43  C   UNL A   1      37.930  33.278  32.518  1.00  0.00     0.049 A 
ATOM     44  N   UNL A   1      39.132  30.876  31.137  1.00  0.00    -0.248 NA
ATOM     45  C   UNL A   1      37.765  31.326  29.298  1.00  0.00     0.031 C 
ATOM     46  C   UNL A   1      37.339  34.395  33.257  1.00  0.00     0.029 A 
ATOM     47  N   UNL A   1      38.916  32.813  33.352  1.00  0.00    -0.354 N 
ATOM     48  C   UNL A   1      39.368  29.934  30.143  1.00  0.00     0.074 A 
ATOM     49  C   UNL A   1      38.451  30.218  29.061  1.00  0.00     0.031 C 
ATOM     50  C   UNL A   1      37.978  34.532  34.430  1.00  0.00     0.029 A 
ATOM     51  C   UNL A   1      38.986  33.484  34.550  1.00  0.00     0.049 A 
ATOM     52  H   UNL A   1      39.517  32.069  33.116  1.00  0.00     0.167 HD
ATOM     53  C   UNL A   1      40.285  28.938  30.127  1.00  0.00     0.037 A 
ATOM     54  C   UNL A   1      39.759  33.259  35.630  1.00  0.00     0.037 A 
ATOM     55  C   UNL A   1      41.204  28.672  31.200  1.00  0.00     0.049 A 
ATOM     56  C   UNL A   1      40.738  32.113  35.605  1.00  0.00     0.074 A 
ATOM     57  C   UNL A   1      42.185  27.698  31.276  1.00  0.00     0.029 A 
ATOM     58  N   UNL A   1      41.261  29.391  32.385  1.00  0.00    -0.354 N 
ATOM     59  N   UNL A   1      40.976  31.248  34.649  1.00  0.00    -0.248 NA
ATOM     60  C   UNL A   1      41.555  31.910  36.810  1.00  0.00     0.031 C 
ATOM     61  C   UNL A   1      42.807  27.802  32.523  1.00  0.00     0.029 A 
ATOM     62  C   UNL A   1      42.251  28.874  33.202  1.00  0.00     0.049 A 
ATOM     63  H   UNL A   1      40.681  30.155  32.611  1.00  0.00     0.167 HD
ATOM     64  C   UNL A   1      41.996  30.432  35.117  1.00  0.00     0.074 A 
ATOM     65  C   UNL A   1      42.336  30.903  36.442  1.00  0.00     0.031 C 
ATOM     66  C   UNL A   1      42.599  29.385  34.504  1.00  0.00     0.037 A 
BRANCH  53  67
ATOM     67  C   UNL A   1      40.345  28.068  28.905  1.00  0.00     0.064 A 
ATOM     68  C   UNL A   1      41.101  28.437  27.781  1.00  0.00     0.173 A 
ATOM     69  C   UNL A   1      39.677  26.835  28.869  1.00  0.00     0.173 A 
ATOM     70  F   UNL A   1      41.749  29.611  27.760  1.00  0.00    -0.203 F 
ATOM     71  C   UNL A   1      41.165  27.617  26.658  1.00  0.00     0.198 A 
ATOM     72  C   UNL A   1      39.768  26.002  27.756  1.00  0.00     0.198 A 
ATOM     73  F   UNL A   1      38.944  26.431  29.917  1.00  0.00    -0.203 F 
ATOM     74  F   UNL A   1      41.853  28.013  25.580  1.00  0.00    -0.200 F 
ATOM     75  C   UNL A   1      40.506  26.397  26.650  1.00  0.00     0.200 A 
ATOM     76  F   UNL A   1      39.144  24.817  27.755  1.00  0.00    -0.200 F 
ATOM     77  F   UNL A   1      40.577  25.604  25.572  1.00  0.00    -0.200 F 
ENDBRANCH  53  67
BRANCH  54  78
ATOM     78  C   UNL A   1      39.648  34.131  36.832  1.00  0.00     0.064 A 
ATOM     79  C   UNL A   1      40.343  35.346  36.906  1.00  0.00     0.173 A 
ATOM     80  C   UNL A   1      38.878  33.754  37.943  1.00  0.00     0.173 A 
ATOM     81  F   UNL A   1      41.111  35.741  35.879  1.00  0.00    -0.203 F 
ATOM     82  C   UNL A   1      40.300  36.133  38.055  1.00  0.00     0.198 A 
ATOM     83  C   UNL A   1      38.810  34.558  39.079  1.00  0.00     0.198 A 
ATOM     84  F   UNL A   1      38.191  32.602  37.926  1.00  0.00    -0.203 F 
ATOM     85  F   UNL A   1      41.028  37.257  38.121  1.00  0.00    -0.200 F 
ATOM     86  C   UNL A   1      39.532  35.741  39.139  1.00  0.00     0.200 A 
ATOM     87  F   UNL A   1      38.057  34.180  40.120  1.00  0.00    -0.200 F 
ATOM     88  F   UNL A   1      39.497  36.493  40.247  1.00  0.00    -0.200 F 
ENDBRANCH  54  78
BRANCH  66  89
ATOM     89  C   UNL A   1      43.735  28.716  35.222  1.00  0.00     0.064 A 
ATOM     90  C   UNL A   1      45.064  29.117  35.038  1.00  0.00     0.173 A 
ATOM     91  C   UNL A   1      43.474  27.709  36.165  1.00  0.00     0.173 A 
ATOM     92  F   UNL A   1      45.365  30.065  34.136  1.00  0.00    -0.203 F 
ATOM     93  C   UNL A   1      46.094  28.527  35.764  1.00  0.00     0.198 A 
ATOM     94  C   UNL A   1      44.503  27.143  36.911  1.00  0.00     0.198 A 
ATOM     95  F   UNL A   1      42.216  27.295  36.383  1.00  0.00    -0.203 F 
ATOM     96  F   UNL A   1      47.363  28.903  35.550  1.00  0.00    -0.200 F 
ATOM     97  C   UNL A   1      45.812  27.550  36.707  1.00  0.00     0.200 A 
ATOM     98  F   UNL A   1      44.225  26.211  37.832  1.00  0.00    -0.200 F 
ATOM     99  F   UNL A   1      46.804  26.997  37.419  1.00  0.00    -0.200 F 
ENDBRANCH  66  89
ENDBRANCH  40  41
ENDBRANCH  32  35
ENDBRANCH  30  31
ENDBRANCH  29  30
ENDBRANCH  28  29
ENDBRANCH  27  28
ENDBRANCH   1  27
TORSDOF 17
ENDMDL
