MODEL 1
REMARK VINA RESULT:     -11.2      0.000      0.000
REMARK SMILES CC[NH+]1CCC2(CC1)OC[C@@H](C(=O)NCCCCCCNC(=O)c1ccc(-c3c4nc(c(-c5c(F)c(F)c(F)c(F)c5F)c5ccc([nH]5)c(-c5c(F)c(F)c(F)c(F)c5F)c5nc(c(-c6c(F)c(F)c(F)c(F)c6F)c6ccc3[nH]6)C=C5)C=C4)cc1)N2C(=O)c1ccc(Cl)c([N+](=O)[O-])c1
REMARK SMILES IDX 17 1 16 2 15 3 14 4 12 5 13 6 11 8 3 9 4 10 8 11 5 13 7 14
REMARK SMILES IDX 6 15 9 16 87 17 10 18 2 19 1 20 88 21 89 22 90 23 91 24
REMARK SMILES IDX 99 25 92 26 95 27 93 28 94 29 96 30 97 31 98 32 18 33 19 34
REMARK SMILES IDX 20 35 21 36 22 37 23 39 24 40 25 41 86 42 26 43 85 44 27 45
REMARK SMILES IDX 28 46 29 47 79 48 30 49 84 50 78 51 80 52 31 53 83 54 77 55
REMARK SMILES IDX 76 56 32 58 64 59 44 60 63 61 45 62 48 63 62 64 81 65 46 66
REMARK SMILES IDX 47 67 61 69 82 70 49 71 33 72 34 73 42 74 35 75 36 76 40 77
REMARK SMILES IDX 43 78 37 79 38 80 41 81 39 82 65 83 66 84 74 85 67 86 68 87
REMARK SMILES IDX 72 88 75 89 69 90 70 91 73 92 71 93 50 94 51 95 59 96 52 97
REMARK SMILES IDX 53 98 57 99 60 100 54 101 55 102 58 103 56 104
REMARK H PARENT 14 7 3 12 21 38 80 57 48 68
REMARK Flexibility Score: inf
ROOT
ATOM      1  C   UNL A   1      40.775  21.722  27.757  1.00  0.00     0.002 C 
ENDROOT
BRANCH   1   2
ATOM      2  C   UNL A   1      40.185  22.377  26.506  1.00  0.00     0.021 C 
BRANCH   2   3
ATOM      3  C   UNL A   1      38.665  22.319  26.421  1.00  0.00     0.116 C 
BRANCH   3   4
ATOM      4  N   UNL A   1      38.244  22.141  25.054  1.00  0.00    -0.354 N 
ATOM      5  C   UNL A   1      37.001  21.925  24.544  1.00  0.00     0.245 C 
ATOM      6  O   UNL A   1      36.908  21.889  23.311  1.00  0.00    -0.273 OA
ATOM      7  H   UNL A   1      38.966  22.181  24.386  1.00  0.00     0.163 HD
BRANCH   5   8
ATOM      8  C   UNL A   1      35.734  22.005  25.410  1.00  0.00     0.203 C 
ATOM      9  N   UNL A   1      31.086  23.952  26.310  1.00  0.00    -0.335 N 
ATOM     10  C   UNL A   1      32.102  23.476  27.232  1.00  0.00     0.267 C 
ATOM     11  C   UNL A   1      31.323  23.851  24.878  1.00  0.00     0.267 C 
ATOM     12  H   UNL A   1      31.246  24.952  26.426  1.00  0.00     0.348 HD
ATOM     13  C   UNL A   1      32.861  22.250  26.775  1.00  0.00     0.120 C 
ATOM     14  C   UNL A   1      32.231  22.734  24.395  1.00  0.00     0.120 C 
ATOM     15  C   UNL A   1      33.372  22.351  25.331  1.00  0.00     0.155 C 
ATOM     16  O   UNL A   1      33.655  20.975  24.944  1.00  0.00    -0.352 OA
ATOM     17  N   UNL A   1      34.688  23.009  25.188  1.00  0.00    -0.295 N 
ATOM     18  C   UNL A   1      35.020  20.674  25.240  1.00  0.00     0.198 C 
BRANCH   9  19
ATOM     19  C   UNL A   1      29.699  23.758  26.729  1.00  0.00     0.258 C 
ATOM     20  C   UNL A   1      29.387  22.374  27.285  1.00  0.00     0.071 C 
ENDBRANCH   9  19
BRANCH  17  21
ATOM     21  C   UNL A   1      35.111  24.336  25.244  1.00  0.00     0.257 C 
ATOM     22  O   UNL A   1      36.188  24.663  25.739  1.00  0.00    -0.269 OA
BRANCH  21  23
ATOM     23  C   UNL A   1      34.346  25.451  24.661  1.00  0.00     0.047 A 
ATOM     24  C   UNL A   1      34.100  25.514  23.290  1.00  0.00     0.016 A 
ATOM     25  C   UNL A   1      33.978  26.529  25.467  1.00  0.00     0.101 A 
ATOM     26  C   UNL A   1      33.373  26.586  22.755  1.00  0.00     0.028 A 
ATOM     27  C   UNL A   1      33.127  27.530  24.961  1.00  0.00     0.288 A 
ATOM     28  C   UNL A   1      32.839  27.579  23.592  1.00  0.00     0.118 A 
ATOM     29  Cl  UNL A   1      31.899  28.796  22.808  1.00  0.00    -0.077 Cl
BRANCH  27  30
ATOM     30  N   UNL A   1      32.482  28.411  25.941  1.00  0.00     0.064 N 
ATOM     31  O   UNL A   1      33.155  29.289  26.491  1.00  0.00    -0.258 OA
ATOM     32  O   UNL A   1      31.262  28.263  26.115  1.00  0.00    -0.258 OA
ENDBRANCH  27  30
ENDBRANCH  21  23
ENDBRANCH  17  21
ENDBRANCH   5   8
ENDBRANCH   3   4
ENDBRANCH   2   3
ENDBRANCH   1   2
BRANCH   1  33
ATOM     33  C   UNL A   1      42.189  21.165  27.587  1.00  0.00     0.002 C 
BRANCH  33  34
ATOM     34  C   UNL A   1      42.254  19.715  27.099  1.00  0.00     0.021 C 
BRANCH  34  35
ATOM     35  C   UNL A   1      42.105  19.545  25.591  1.00  0.00     0.116 C 
BRANCH  35  36
ATOM     36  N   UNL A   1      43.288  18.958  24.989  1.00  0.00    -0.352 N 
ATOM     37  C   UNL A   1      44.454  19.558  24.587  1.00  0.00     0.251 C 
ATOM     38  H   UNL A   1      43.247  17.984  24.847  1.00  0.00     0.163 HD
ATOM     39  O   UNL A   1      45.263  18.939  23.906  1.00  0.00    -0.269 OA
BRANCH  37  40
ATOM     40  C   UNL A   1      44.727  20.962  24.961  1.00  0.00     0.039 A 
ATOM     41  C   UNL A   1      44.274  21.978  24.119  1.00  0.00     0.014 A 
ATOM     42  C   UNL A   1      45.437  21.275  26.124  1.00  0.00     0.014 A 
ATOM     43  C   UNL A   1      44.485  23.312  24.470  1.00  0.00     0.010 A 
ATOM     44  C   UNL A   1      45.580  22.606  26.512  1.00  0.00     0.010 A 
ATOM     45  C   UNL A   1      45.109  23.637  25.687  1.00  0.00    -0.014 A 
BRANCH  45  46
ATOM     46  C   UNL A   1      45.254  25.054  26.109  1.00  0.00     0.031 A 
ATOM     47  C   UNL A   1      46.589  25.743  26.029  1.00  0.00     0.074 A 
ATOM     48  C   UNL A   1      44.186  25.705  26.611  1.00  0.00     0.049 A 
ATOM     49  N   UNL A   1      46.911  26.963  26.376  1.00  0.00    -0.248 NA
ATOM     50  C   UNL A   1      47.719  24.951  25.513  1.00  0.00     0.031 C 
ATOM     51  C   UNL A   1      42.851  25.128  26.791  1.00  0.00     0.029 A 
ATOM     52  N   UNL A   1      44.052  26.993  27.068  1.00  0.00    -0.354 N 
ATOM     53  C   UNL A   1      48.274  27.080  26.136  1.00  0.00     0.074 A 
ATOM     54  C   UNL A   1      48.731  25.795  25.655  1.00  0.00     0.031 C 
ATOM     55  C   UNL A   1      42.031  26.062  27.296  1.00  0.00     0.029 A 
ATOM     56  C   UNL A   1      42.786  27.291  27.514  1.00  0.00     0.049 A 
ATOM     57  H   UNL A   1      44.792  27.641  27.076  1.00  0.00     0.167 HD
ATOM     58  C   UNL A   1      49.065  28.168  26.287  1.00  0.00     0.037 A 
ATOM     59  C   UNL A   1      42.293  28.425  28.049  1.00  0.00     0.037 A 
ATOM     60  C   UNL A   1      48.596  29.456  26.729  1.00  0.00     0.049 A 
ATOM     61  C   UNL A   1      43.203  29.616  28.198  1.00  0.00     0.074 A 
ATOM     62  C   UNL A   1      49.304  30.642  26.825  1.00  0.00     0.029 A 
ATOM     63  N   UNL A   1      47.306  29.725  27.156  1.00  0.00    -0.354 N 
ATOM     64  N   UNL A   1      44.466  29.743  27.872  1.00  0.00    -0.248 NA
ATOM     65  C   UNL A   1      42.614  30.829  28.784  1.00  0.00     0.031 C 
ATOM     66  C   UNL A   1      48.460  31.612  27.371  1.00  0.00     0.029 A 
ATOM     67  C   UNL A   1      47.207  31.050  27.552  1.00  0.00     0.049 A 
ATOM     68  H   UNL A   1      46.569  29.073  27.174  1.00  0.00     0.167 HD
ATOM     69  C   UNL A   1      44.811  31.052  28.181  1.00  0.00     0.074 A 
ATOM     70  C   UNL A   1      43.618  31.687  28.697  1.00  0.00     0.031 C 
ATOM     71  C   UNL A   1      46.010  31.671  28.054  1.00  0.00     0.037 A 
BRANCH  58  72
ATOM     72  C   UNL A   1      50.527  28.033  25.972  1.00  0.00     0.064 A 
ATOM     73  C   UNL A   1      51.009  28.106  24.658  1.00  0.00     0.173 A 
ATOM     74  C   UNL A   1      51.465  27.925  27.011  1.00  0.00     0.173 A 
ATOM     75  F   UNL A   1      50.154  28.199  23.628  1.00  0.00    -0.203 F 
ATOM     76  C   UNL A   1      52.377  28.068  24.393  1.00  0.00     0.198 A 
ATOM     77  C   UNL A   1      52.831  27.917  26.745  1.00  0.00     0.198 A 
ATOM     78  F   UNL A   1      51.057  27.857  28.287  1.00  0.00    -0.203 F 
ATOM     79  F   UNL A   1      52.814  28.113  23.128  1.00  0.00    -0.200 F 
ATOM     80  C   UNL A   1      53.286  27.986  25.437  1.00  0.00     0.200 A 
ATOM     81  F   UNL A   1      53.708  27.855  27.756  1.00  0.00    -0.200 F 
ATOM     82  F   UNL A   1      54.601  27.975  25.182  1.00  0.00    -0.200 F 
ENDBRANCH  58  72
BRANCH  59  83
ATOM     83  C   UNL A   1      40.874  28.500  28.489  1.00  0.00     0.064 A 
ATOM     84  C   UNL A   1      39.871  28.968  27.626  1.00  0.00     0.173 A 
ATOM     85  C   UNL A   1      40.497  28.157  29.796  1.00  0.00     0.173 A 
ATOM     86  F   UNL A   1      40.183  29.326  26.372  1.00  0.00    -0.203 F 
ATOM     87  C   UNL A   1      38.560  29.134  28.067  1.00  0.00     0.198 A 
ATOM     88  C   UNL A   1      39.178  28.289  30.225  1.00  0.00     0.198 A 
ATOM     89  F   UNL A   1      41.413  27.697  30.662  1.00  0.00    -0.203 F 
ATOM     90  F   UNL A   1      37.641  29.655  27.243  1.00  0.00    -0.200 F 
ATOM     91  C   UNL A   1      38.214  28.792  29.366  1.00  0.00     0.200 A 
ATOM     92  F   UNL A   1      38.845  27.940  31.475  1.00  0.00    -0.200 F 
ATOM     93  F   UNL A   1      36.956  28.962  29.792  1.00  0.00    -0.200 F 
ENDBRANCH  59  83
BRANCH  71  94
ATOM     94  C   UNL A   1      46.079  33.121  28.442  1.00  0.00     0.064 A 
ATOM     95  C   UNL A   1      46.456  33.523  29.732  1.00  0.00     0.173 A 
ATOM     96  C   UNL A   1      45.788  34.122  27.502  1.00  0.00     0.173 A 
ATOM     97  F   UNL A   1      46.731  32.606  30.672  1.00  0.00    -0.203 F 
ATOM     98  C   UNL A   1      46.504  34.871  30.077  1.00  0.00     0.198 A 
ATOM     99  C   UNL A   1      45.873  35.469  27.839  1.00  0.00     0.198 A 
ATOM    100  F   UNL A   1      45.431  33.793  26.251  1.00  0.00    -0.203 F 
ATOM    101  F   UNL A   1      46.807  35.229  31.332  1.00  0.00    -0.200 F 
ATOM    102  C   UNL A   1      46.220  35.843  29.129  1.00  0.00     0.200 A 
ATOM    103  F   UNL A   1      45.615  36.407  26.916  1.00  0.00    -0.200 F 
ATOM    104  F   UNL A   1      46.272  37.140  29.460  1.00  0.00    -0.200 F 
ENDBRANCH  71  94
ENDBRANCH  45  46
ENDBRANCH  37  40
ENDBRANCH  35  36
ENDBRANCH  34  35
ENDBRANCH  33  34
ENDBRANCH   1  33
TORSDOF 17
ENDMDL
MODEL 2
REMARK VINA RESULT:     -11.0      3.043      8.445
REMARK SMILES CC[NH+]1CCC2(CC1)OC[C@@H](C(=O)NCCCCCCNC(=O)c1ccc(-c3c4nc(c(-c5c(F)c(F)c(F)c(F)c5F)c5ccc([nH]5)c(-c5c(F)c(F)c(F)c(F)c5F)c5nc(c(-c6c(F)c(F)c(F)c(F)c6F)c6ccc3[nH]6)C=C5)C=C4)cc1)N2C(=O)c1ccc(Cl)c([N+](=O)[O-])c1
REMARK SMILES IDX 17 1 16 2 15 3 14 4 12 5 13 6 11 8 3 9 4 10 8 11 5 13 7 14
REMARK SMILES IDX 6 15 9 16 87 17 10 18 2 19 1 20 88 21 89 22 90 23 91 24
REMARK SMILES IDX 99 25 92 26 95 27 93 28 94 29 96 30 97 31 98 32 18 33 19 34
REMARK SMILES IDX 20 35 21 36 22 37 23 39 24 40 25 41 86 42 26 43 85 44 27 45
REMARK SMILES IDX 28 46 29 47 79 48 30 49 84 50 78 51 80 52 31 53 83 54 77 55
REMARK SMILES IDX 76 56 32 58 64 59 44 60 63 61 45 62 48 63 62 64 81 65 46 66
REMARK SMILES IDX 47 67 61 69 82 70 49 71 33 72 34 73 42 74 35 75 36 76 40 77
REMARK SMILES IDX 43 78 37 79 38 80 41 81 39 82 65 83 66 84 74 85 67 86 68 87
REMARK SMILES IDX 72 88 75 89 69 90 70 91 73 92 71 93 50 94 51 95 59 96 52 97
REMARK SMILES IDX 53 98 57 99 60 100 54 101 55 102 58 103 56 104
REMARK H PARENT 14 7 3 12 21 38 80 57 48 68
REMARK Flexibility Score: inf
ROOT
ATOM      1  C   UNL A   1      32.960  31.195  27.165  1.00  0.00     0.002 C 
ENDROOT
BRANCH   1   2
ATOM      2  C   UNL A   1      31.714  31.204  26.277  1.00  0.00     0.021 C 
BRANCH   2   3
ATOM      3  C   UNL A   1      31.541  29.955  25.422  1.00  0.00     0.116 C 
BRANCH   3   4
ATOM      4  N   UNL A   1      32.736  29.699  24.656  1.00  0.00    -0.354 N 
ATOM      5  C   UNL A   1      33.450  28.551  24.509  1.00  0.00     0.245 C 
ATOM      6  O   UNL A   1      34.400  28.589  23.718  1.00  0.00    -0.273 OA
ATOM      7  H   UNL A   1      33.090  30.476  24.164  1.00  0.00     0.163 HD
BRANCH   5   8
ATOM      8  C   UNL A   1      32.956  27.202  25.055  1.00  0.00     0.203 C 
ATOM      9  N   UNL A   1      32.157  22.184  24.437  1.00  0.00    -0.335 N 
ATOM     10  C   UNL A   1      31.434  23.161  25.232  1.00  0.00     0.267 C 
ATOM     11  C   UNL A   1      33.343  22.601  23.705  1.00  0.00     0.267 C 
ATOM     12  H   UNL A   1      31.503  22.123  23.656  1.00  0.00     0.348 HD
ATOM     13  C   UNL A   1      32.296  24.201  25.912  1.00  0.00     0.120 C 
ATOM     14  C   UNL A   1      34.139  23.766  24.265  1.00  0.00     0.120 C 
ATOM     15  C   UNL A   1      33.330  24.845  24.977  1.00  0.00     0.155 C 
ATOM     16  O   UNL A   1      34.312  25.444  25.871  1.00  0.00    -0.352 OA
ATOM     17  N   UNL A   1      32.830  26.007  24.214  1.00  0.00    -0.295 N 
ATOM     18  C   UNL A   1      33.943  26.797  26.138  1.00  0.00     0.198 C 
BRANCH   9  19
ATOM     19  C   UNL A   1      32.200  20.826  24.976  1.00  0.00     0.258 C 
ATOM     20  C   UNL A   1      33.148  19.880  24.250  1.00  0.00     0.071 C 
ENDBRANCH   9  19
BRANCH  17  21
ATOM     21  C   UNL A   1      32.000  26.144  23.102  1.00  0.00     0.257 C 
ATOM     22  O   UNL A   1      32.310  25.715  21.992  1.00  0.00    -0.269 OA
BRANCH  21  23
ATOM     23  C   UNL A   1      30.659  26.749  23.168  1.00  0.00     0.047 A 
ATOM     24  C   UNL A   1      29.606  26.094  23.806  1.00  0.00     0.016 A 
ATOM     25  C   UNL A   1      30.400  27.927  22.466  1.00  0.00     0.101 A 
ATOM     26  C   UNL A   1      28.337  26.686  23.854  1.00  0.00     0.028 A 
ATOM     27  C   UNL A   1      29.170  28.592  22.634  1.00  0.00     0.288 A 
ATOM     28  C   UNL A   1      28.119  27.961  23.309  1.00  0.00     0.118 A 
ATOM     29  Cl  UNL A   1      26.528  28.602  23.508  1.00  0.00    -0.077 Cl
BRANCH  27  30
ATOM     30  N   UNL A   1      29.103  29.987  22.183  1.00  0.00     0.064 N 
ATOM     31  O   UNL A   1      28.922  30.220  20.983  1.00  0.00    -0.258 OA
ATOM     32  O   UNL A   1      29.166  30.865  23.057  1.00  0.00    -0.258 OA
ENDBRANCH  27  30
ENDBRANCH  21  23
ENDBRANCH  17  21
ENDBRANCH   5   8
ENDBRANCH   3   4
ENDBRANCH   2   3
ENDBRANCH   1   2
BRANCH   1  33
ATOM     33  C   UNL A   1      33.425  32.574  27.637  1.00  0.00     0.002 C 
BRANCH  33  34
ATOM     34  C   UNL A   1      34.645  32.559  28.561  1.00  0.00     0.021 C 
BRANCH  34  35
ATOM     35  C   UNL A   1      34.506  31.655  29.782  1.00  0.00     0.116 C 
BRANCH  35  36
ATOM     36  N   UNL A   1      34.678  32.386  31.024  1.00  0.00    -0.352 N 
ATOM     37  C   UNL A   1      35.788  32.509  31.819  1.00  0.00     0.251 C 
ATOM     38  H   UNL A   1      33.878  32.864  31.343  1.00  0.00     0.163 HD
ATOM     39  O   UNL A   1      35.692  32.994  32.941  1.00  0.00    -0.269 OA
BRANCH  37  40
ATOM     40  C   UNL A   1      37.101  32.039  31.329  1.00  0.00     0.039 A 
ATOM     41  C   UNL A   1      37.754  31.026  32.033  1.00  0.00     0.014 A 
ATOM     42  C   UNL A   1      37.692  32.601  30.194  1.00  0.00     0.014 A 
ATOM     43  C   UNL A   1      38.975  30.539  31.568  1.00  0.00     0.010 A 
ATOM     44  C   UNL A   1      38.874  32.062  29.689  1.00  0.00     0.010 A 
ATOM     45  C   UNL A   1      39.529  31.028  30.373  1.00  0.00    -0.014 A 
BRANCH  45  46
ATOM     46  C   UNL A   1      40.782  30.448  29.825  1.00  0.00     0.031 A 
ATOM     47  C   UNL A   1      42.015  31.297  29.677  1.00  0.00     0.074 A 
ATOM     48  C   UNL A   1      40.791  29.164  29.416  1.00  0.00     0.049 A 
ATOM     49  N   UNL A   1      43.189  30.972  29.196  1.00  0.00    -0.248 NA
ATOM     50  C   UNL A   1      41.914  32.703  30.102  1.00  0.00     0.031 C 
ATOM     51  C   UNL A   1      39.642  28.256  29.457  1.00  0.00     0.029 A 
ATOM     52  N   UNL A   1      41.797  28.399  28.880  1.00  0.00    -0.354 N 
ATOM     53  C   UNL A   1      43.955  32.129  29.247  1.00  0.00     0.074 A 
ATOM     54  C   UNL A   1      43.104  33.178  29.764  1.00  0.00     0.031 C 
ATOM     55  C   UNL A   1      40.014  27.053  28.991  1.00  0.00     0.029 A 
ATOM     56  C   UNL A   1      41.412  27.114  28.580  1.00  0.00     0.049 A 
ATOM     57  H   UNL A   1      42.708  28.738  28.725  1.00  0.00     0.167 HD
ATOM     58  C   UNL A   1      45.255  32.293  28.909  1.00  0.00     0.037 A 
ATOM     59  C   UNL A   1      42.107  26.101  28.025  1.00  0.00     0.037 A 
ATOM     60  C   UNL A   1      46.108  31.235  28.431  1.00  0.00     0.049 A 
ATOM     61  C   UNL A   1      43.554  26.320  27.666  1.00  0.00     0.074 A 
ATOM     62  C   UNL A   1      47.464  31.284  28.151  1.00  0.00     0.029 A 
ATOM     63  N   UNL A   1      45.690  29.944  28.156  1.00  0.00    -0.354 N 
ATOM     64  N   UNL A   1      44.293  27.392  27.815  1.00  0.00    -0.248 NA
ATOM     65  C   UNL A   1      44.266  25.182  27.068  1.00  0.00     0.031 C 
ATOM     66  C   UNL A   1      47.850  30.041  27.645  1.00  0.00     0.029 A 
ATOM     67  C   UNL A   1      46.753  29.197  27.672  1.00  0.00     0.049 A 
ATOM     68  H   UNL A   1      44.774  29.607  28.284  1.00  0.00     0.167 HD
ATOM     69  C   UNL A   1      45.560  27.048  27.361  1.00  0.00     0.074 A 
ATOM     70  C   UNL A   1      45.495  25.661  26.955  1.00  0.00     0.031 C 
ATOM     71  C   UNL A   1      46.676  27.813  27.282  1.00  0.00     0.037 A 
BRANCH  58  72
ATOM     72  C   UNL A   1      45.857  33.662  29.042  1.00  0.00     0.064 A 
ATOM     73  C   UNL A   1      45.783  34.605  28.007  1.00  0.00     0.173 A 
ATOM     74  C   UNL A   1      46.432  34.064  30.257  1.00  0.00     0.173 A 
ATOM     75  F   UNL A   1      45.253  34.268  26.822  1.00  0.00    -0.203 F 
ATOM     76  C   UNL A   1      46.269  35.900  28.181  1.00  0.00     0.198 A 
ATOM     77  C   UNL A   1      46.889  35.367  30.438  1.00  0.00     0.198 A 
ATOM     78  F   UNL A   1      46.522  33.203  31.281  1.00  0.00    -0.203 F 
ATOM     79  F   UNL A   1      46.211  36.776  27.170  1.00  0.00    -0.200 F 
ATOM     80  C   UNL A   1      46.810  36.282  29.400  1.00  0.00     0.200 A 
ATOM     81  F   UNL A   1      47.396  35.739  31.621  1.00  0.00    -0.200 F 
ATOM     82  F   UNL A   1      47.253  37.534  29.573  1.00  0.00    -0.200 F 
ENDBRANCH  58  72
BRANCH  59  83
ATOM     83  C   UNL A   1      41.456  24.788  27.768  1.00  0.00     0.064 A 
ATOM     84  C   UNL A   1      41.872  23.630  28.442  1.00  0.00     0.173 A 
ATOM     85  C   UNL A   1      40.444  24.652  26.807  1.00  0.00     0.173 A 
ATOM     86  F   UNL A   1      42.850  23.702  29.357  1.00  0.00    -0.203 F 
ATOM     87  C   UNL A   1      41.334  22.382  28.131  1.00  0.00     0.198 A 
ATOM     88  C   UNL A   1      39.881  23.410  26.524  1.00  0.00     0.198 A 
ATOM     89  F   UNL A   1      40.002  25.728  26.138  1.00  0.00    -0.203 F 
ATOM     90  F   UNL A   1      41.805  21.284  28.736  1.00  0.00    -0.200 F 
ATOM     91  C   UNL A   1      40.337  22.274  27.173  1.00  0.00     0.200 A 
ATOM     92  F   UNL A   1      38.905  23.313  25.611  1.00  0.00    -0.200 F 
ATOM     93  F   UNL A   1      39.828  21.074  26.868  1.00  0.00    -0.200 F 
ENDBRANCH  59  83
BRANCH  71  94
ATOM     94  C   UNL A   1      47.926  27.154  26.775  1.00  0.00     0.064 A 
ATOM     95  C   UNL A   1      48.801  26.471  27.633  1.00  0.00     0.173 A 
ATOM     96  C   UNL A   1      48.240  27.184  25.407  1.00  0.00     0.173 A 
ATOM     97  F   UNL A   1      48.555  26.425  28.951  1.00  0.00    -0.203 F 
ATOM     98  C   UNL A   1      49.962  25.875  27.146  1.00  0.00     0.198 A 
ATOM     99  C   UNL A   1      49.381  26.556  24.919  1.00  0.00     0.198 A 
ATOM    100  F   UNL A   1      47.433  27.816  24.541  1.00  0.00    -0.203 F 
ATOM    101  F   UNL A   1      50.814  25.282  27.994  1.00  0.00    -0.200 F 
ATOM    102  C   UNL A   1      50.247  25.912  25.790  1.00  0.00     0.200 A 
ATOM    103  F   UNL A   1      49.646  26.577  23.604  1.00  0.00    -0.200 F 
ATOM    104  F   UNL A   1      51.361  25.333  25.322  1.00  0.00    -0.200 F 
ENDBRANCH  71  94
ENDBRANCH  45  46
ENDBRANCH  37  40
ENDBRANCH  35  36
ENDBRANCH  34  35
ENDBRANCH  33  34
ENDBRANCH   1  33
TORSDOF 17
ENDMDL
MODEL 3
REMARK VINA RESULT:     -10.9      3.438      6.135
REMARK SMILES CC[NH+]1CCC2(CC1)OC[C@@H](C(=O)NCCCCCCNC(=O)c1ccc(-c3c4nc(c(-c5c(F)c(F)c(F)c(F)c5F)c5ccc([nH]5)c(-c5c(F)c(F)c(F)c(F)c5F)c5nc(c(-c6c(F)c(F)c(F)c(F)c6F)c6ccc3[nH]6)C=C5)C=C4)cc1)N2C(=O)c1ccc(Cl)c([N+](=O)[O-])c1
REMARK SMILES IDX 17 1 16 2 15 3 14 4 12 5 13 6 11 8 3 9 4 10 8 11 5 13 7 14
REMARK SMILES IDX 6 15 9 16 87 17 10 18 2 19 1 20 88 21 89 22 90 23 91 24
REMARK SMILES IDX 99 25 92 26 95 27 93 28 94 29 96 30 97 31 98 32 18 33 19 34
REMARK SMILES IDX 20 35 21 36 22 37 23 39 24 40 25 41 86 42 26 43 85 44 27 45
REMARK SMILES IDX 28 46 29 47 79 48 30 49 84 50 78 51 80 52 31 53 83 54 77 55
REMARK SMILES IDX 76 56 32 58 64 59 44 60 63 61 45 62 48 63 62 64 81 65 46 66
REMARK SMILES IDX 47 67 61 69 82 70 49 71 33 72 34 73 42 74 35 75 36 76 40 77
REMARK SMILES IDX 43 78 37 79 38 80 41 81 39 82 65 83 66 84 74 85 67 86 68 87
REMARK SMILES IDX 72 88 75 89 69 90 70 91 73 92 71 93 50 94 51 95 59 96 52 97
REMARK SMILES IDX 53 98 57 99 60 100 54 101 55 102 58 103 56 104
REMARK H PARENT 14 7 3 12 21 38 80 57 48 68
REMARK Flexibility Score: inf
ROOT
ATOM      1  C   UNL A   1      33.433  24.430  25.883  1.00  0.00     0.002 C 
ENDROOT
BRANCH   1   2
ATOM      2  C   UNL A   1      32.255  24.611  26.843  1.00  0.00     0.021 C 
BRANCH   2   3
ATOM      3  C   UNL A   1      30.988  25.149  26.191  1.00  0.00     0.116 C 
BRANCH   3   4
ATOM      4  N   UNL A   1      31.007  24.899  24.770  1.00  0.00    -0.354 N 
ATOM      5  C   UNL A   1      30.483  25.628  23.748  1.00  0.00     0.245 C 
ATOM      6  O   UNL A   1      30.716  25.222  22.604  1.00  0.00    -0.273 OA
ATOM      7  H   UNL A   1      31.469  24.073  24.498  1.00  0.00     0.163 HD
BRANCH   5   8
ATOM      8  C   UNL A   1      29.881  27.026  23.962  1.00  0.00     0.203 C 
ATOM      9  N   UNL A   1      29.248  31.870  22.432  1.00  0.00    -0.335 N 
ATOM     10  C   UNL A   1      29.276  31.300  23.768  1.00  0.00     0.267 C 
ATOM     11  C   UNL A   1      29.362  30.987  21.282  1.00  0.00     0.267 C 
ATOM     12  H   UNL A   1      30.190  32.260  22.424  1.00  0.00     0.348 HD
ATOM     13  C   UNL A   1      28.608  29.950  23.905  1.00  0.00     0.120 C 
ATOM     14  C   UNL A   1      28.862  29.562  21.439  1.00  0.00     0.120 C 
ATOM     15  C   UNL A   1      29.032  28.946  22.824  1.00  0.00     0.155 C 
ATOM     16  O   UNL A   1      27.996  27.921  22.847  1.00  0.00    -0.352 OA
ATOM     17  N   UNL A   1      30.256  28.181  23.140  1.00  0.00    -0.295 N 
ATOM     18  C   UNL A   1      28.384  26.880  23.745  1.00  0.00     0.198 C 
BRANCH   9  19
ATOM     19  C   UNL A   1      28.376  33.028  22.248  1.00  0.00     0.258 C 
ATOM     20  C   UNL A   1      27.654  33.077  20.907  1.00  0.00     0.071 C 
ENDBRANCH   9  19
BRANCH  17  21
ATOM     21  C   UNL A   1      31.615  28.494  23.133  1.00  0.00     0.257 C 
ATOM     22  O   UNL A   1      32.244  28.672  22.092  1.00  0.00    -0.269 OA
BRANCH  21  23
ATOM     23  C   UNL A   1      32.399  28.703  24.362  1.00  0.00     0.047 A 
ATOM     24  C   UNL A   1      33.421  27.823  24.720  1.00  0.00     0.016 A 
ATOM     25  C   UNL A   1      32.030  29.712  25.251  1.00  0.00     0.101 A 
ATOM     26  C   UNL A   1      34.152  28.037  25.895  1.00  0.00     0.028 A 
ATOM     27  C   UNL A   1      32.852  30.015  26.354  1.00  0.00     0.288 A 
ATOM     28  C   UNL A   1      33.906  29.162  26.698  1.00  0.00     0.118 A 
ATOM     29  Cl  UNL A   1      34.934  29.343  28.074  1.00  0.00    -0.077 Cl
BRANCH  27  30
ATOM     30  N   UNL A   1      32.620  31.303  27.019  1.00  0.00     0.064 N 
ATOM     31  O   UNL A   1      33.554  31.840  27.625  1.00  0.00    -0.258 OA
ATOM     32  O   UNL A   1      31.501  31.818  26.876  1.00  0.00    -0.258 OA
ENDBRANCH  27  30
ENDBRANCH  21  23
ENDBRANCH  17  21
ENDBRANCH   5   8
ENDBRANCH   3   4
ENDBRANCH   2   3
ENDBRANCH   1   2
BRANCH   1  33
ATOM     33  C   UNL A   1      34.366  23.267  26.219  1.00  0.00     0.002 C 
BRANCH  33  34
ATOM     34  C   UNL A   1      35.792  23.675  26.596  1.00  0.00     0.021 C 
BRANCH  34  35
ATOM     35  C   UNL A   1      36.838  23.394  25.521  1.00  0.00     0.116 C 
BRANCH  35  36
ATOM     36  N   UNL A   1      37.831  22.433  25.964  1.00  0.00    -0.352 N 
ATOM     37  C   UNL A   1      39.075  22.646  26.501  1.00  0.00     0.251 C 
ATOM     38  H   UNL A   1      37.573  21.487  25.865  1.00  0.00     0.163 HD
ATOM     39  O   UNL A   1      39.861  21.714  26.623  1.00  0.00    -0.269 OA
BRANCH  37  40
ATOM     40  C   UNL A   1      39.475  24.007  26.916  1.00  0.00     0.039 A 
ATOM     41  C   UNL A   1      39.273  24.387  28.244  1.00  0.00     0.014 A 
ATOM     42  C   UNL A   1      40.030  24.908  26.002  1.00  0.00     0.014 A 
ATOM     43  C   UNL A   1      39.678  25.653  28.669  1.00  0.00     0.010 A 
ATOM     44  C   UNL A   1      40.503  26.141  26.446  1.00  0.00     0.010 A 
ATOM     45  C   UNL A   1      40.329  26.527  27.783  1.00  0.00    -0.014 A 
BRANCH  45  46
ATOM     46  C   UNL A   1      40.845  27.839  28.253  1.00  0.00     0.031 A 
ATOM     47  C   UNL A   1      42.323  28.115  28.277  1.00  0.00     0.074 A 
ATOM     48  C   UNL A   1      39.976  28.765  28.704  1.00  0.00     0.049 A 
ATOM     49  N   UNL A   1      42.957  29.188  28.677  1.00  0.00    -0.248 NA
ATOM     50  C   UNL A   1      43.211  27.036  27.812  1.00  0.00     0.031 C 
ATOM     51  C   UNL A   1      38.523  28.594  28.783  1.00  0.00     0.029 A 
ATOM     52  N   UNL A   1      40.185  30.033  29.188  1.00  0.00    -0.354 N 
ATOM     53  C   UNL A   1      44.309  28.910  28.528  1.00  0.00     0.074 A 
ATOM     54  C   UNL A   1      44.410  27.552  28.041  1.00  0.00     0.031 C 
ATOM     55  C   UNL A   1      37.971  29.721  29.261  1.00  0.00     0.029 A 
ATOM     56  C   UNL A   1      39.030  30.678  29.561  1.00  0.00     0.049 A 
ATOM     57  H   UNL A   1      41.077  30.441  29.261  1.00  0.00     0.167 HD
ATOM     58  C   UNL A   1      45.366  29.723  28.760  1.00  0.00     0.037 A 
ATOM     59  C   UNL A   1      38.847  31.901  30.096  1.00  0.00     0.037 A 
ATOM     60  C   UNL A   1      45.257  31.087  29.207  1.00  0.00     0.049 A 
ATOM     61  C   UNL A   1      40.048  32.779  30.336  1.00  0.00     0.074 A 
ATOM     62  C   UNL A   1      46.266  32.019  29.381  1.00  0.00     0.029 A 
ATOM     63  N   UNL A   1      44.072  31.713  29.558  1.00  0.00    -0.354 N 
ATOM     64  N   UNL A   1      41.313  32.540  30.093  1.00  0.00    -0.248 NA
ATOM     65  C   UNL A   1      39.791  34.105  30.916  1.00  0.00     0.031 C 
ATOM     66  C   UNL A   1      45.700  33.186  29.899  1.00  0.00     0.029 A 
ATOM     67  C   UNL A   1      44.329  33.006  29.985  1.00  0.00     0.049 A 
ATOM     68  H   UNL A   1      43.179  31.300  29.512  1.00  0.00     0.167 HD
ATOM     69  C   UNL A   1      41.997  33.692  30.460  1.00  0.00     0.074 A 
ATOM     70  C   UNL A   1      41.003  34.639  30.918  1.00  0.00     0.031 C 
ATOM     71  C   UNL A   1      43.328  33.942  30.427  1.00  0.00     0.037 A 
BRANCH  58  72
ATOM     72  C   UNL A   1      46.746  29.176  28.534  1.00  0.00     0.064 A 
ATOM     73  C   UNL A   1      47.471  28.555  29.560  1.00  0.00     0.173 A 
ATOM     74  C   UNL A   1      47.309  29.192  27.248  1.00  0.00     0.173 A 
ATOM     75  F   UNL A   1      46.983  28.521  30.809  1.00  0.00    -0.203 F 
ATOM     76  C   UNL A   1      48.714  27.975  29.309  1.00  0.00     0.198 A 
ATOM     77  C   UNL A   1      48.536  28.586  26.995  1.00  0.00     0.198 A 
ATOM     78  F   UNL A   1      46.654  29.769  26.230  1.00  0.00    -0.203 F 
ATOM     79  F   UNL A   1      49.400  27.408  30.310  1.00  0.00    -0.200 F 
ATOM     80  C   UNL A   1      49.238  27.980  28.025  1.00  0.00     0.200 A 
ATOM     81  F   UNL A   1      49.034  28.578  25.751  1.00  0.00    -0.200 F 
ATOM     82  F   UNL A   1      50.421  27.400  27.781  1.00  0.00    -0.200 F 
ENDBRANCH  58  72
BRANCH  59  83
ATOM     83  C   UNL A   1      37.482  32.378  30.447  1.00  0.00     0.064 A 
ATOM     84  C   UNL A   1      36.734  33.157  29.552  1.00  0.00     0.173 A 
ATOM     85  C   UNL A   1      36.918  32.111  31.704  1.00  0.00     0.173 A 
ATOM     86  F   UNL A   1      37.235  33.456  28.344  1.00  0.00    -0.203 F 
ATOM     87  C   UNL A   1      35.498  33.688  29.916  1.00  0.00     0.198 A 
ATOM     88  C   UNL A   1      35.666  32.612  32.053  1.00  0.00     0.198 A 
ATOM     89  F   UNL A   1      37.586  31.365  32.596  1.00  0.00    -0.203 F 
ATOM     90  F   UNL A   1      34.842  34.491  29.068  1.00  0.00    -0.200 F 
ATOM     91  C   UNL A   1      34.964  33.413  31.166  1.00  0.00     0.200 A 
ATOM     92  F   UNL A   1      35.147  32.329  33.255  1.00  0.00    -0.200 F 
ATOM     93  F   UNL A   1      33.781  33.932  31.520  1.00  0.00    -0.200 F 
ENDBRANCH  59  83
BRANCH  71  94
ATOM     94  C   UNL A   1      43.783  35.306  30.859  1.00  0.00     0.064 A 
ATOM     95  C   UNL A   1      43.832  36.386  29.965  1.00  0.00     0.173 A 
ATOM     96  C   UNL A   1      44.149  35.543  32.194  1.00  0.00     0.173 A 
ATOM     97  F   UNL A   1      43.505  36.211  28.677  1.00  0.00    -0.203 F 
ATOM     98  C   UNL A   1      44.266  37.642  30.382  1.00  0.00     0.198 A 
ATOM     99  C   UNL A   1      44.547  36.808  32.615  1.00  0.00     0.198 A 
ATOM    100  F   UNL A   1      44.111  34.548  33.093  1.00  0.00    -0.203 F 
ATOM    101  F   UNL A   1      44.363  38.643  29.496  1.00  0.00    -0.200 F 
ATOM    102  C   UNL A   1      44.615  37.853  31.707  1.00  0.00     0.200 A 
ATOM    103  F   UNL A   1      44.867  37.015  33.901  1.00  0.00    -0.200 F 
ATOM    104  F   UNL A   1      45.027  39.064  32.108  1.00  0.00    -0.200 F 
ENDBRANCH  71  94
ENDBRANCH  45  46
ENDBRANCH  37  40
ENDBRANCH  35  36
ENDBRANCH  34  35
ENDBRANCH  33  34
ENDBRANCH   1  33
TORSDOF 17
ENDMDL
