MODEL 1
REMARK VINA RESULT:     -11.7      0.000      0.000
REMARK SMILES COCCn1cc(NC(=O)N[C@H]2C=C[C@H](C(=O)NCCCCCCNC(=O)c3ccc(-c4c5nc(c(-c6c(F)c(F)c(F)c(F)c6F)c6ccc([nH]6)c(-c6c(F)c(F)c(F)c(F)c6F)c6nc(c(-c7c(F)c(F)c(F)c(F)c7F)c7ccc4[nH]7)C=C6)C=C5)cc3)C2)cn1
REMARK SMILES IDX 20 1 19 2 18 3 16 4 17 5 15 7 12 8 13 9 91 10 14 11 11 12
REMARK SMILES IDX 8 13 9 14 10 16 7 18 5 19 6 20 93 21 92 22 4 23 3 24 2 25
REMARK SMILES IDX 1 26 21 27 22 28 23 29 24 30 25 31 26 32 27 34 28 35 29 36
REMARK SMILES IDX 90 37 30 38 89 39 31 40 32 41 33 42 83 43 34 44 88 45 82 46
REMARK SMILES IDX 84 47 35 48 87 49 81 50 80 51 36 53 68 54 48 55 67 56 49 57
REMARK SMILES IDX 52 58 66 59 85 60 50 61 51 62 65 64 86 65 53 66 37 67 38 68
REMARK SMILES IDX 46 69 39 70 40 71 44 72 47 73 41 74 42 75 45 76 43 77 69 78
REMARK SMILES IDX 70 79 78 80 71 81 72 82 76 83 79 84 73 85 74 86 77 87 75 88
REMARK SMILES IDX 54 89 55 90 63 91 56 92 57 93 61 94 64 95 58 96 59 97 62 98
REMARK SMILES IDX 60 99
REMARK H PARENT 18 6 8 15 11 17 25 33 84 52 52 63
REMARK Flexibility Score: inf
ROOT
ATOM      1  C   UNL A   1      39.251  21.830  26.499  1.00  0.00     0.021 C 
ENDROOT
BRANCH   1   2
ATOM      2  C   UNL A   1      38.570  22.985  25.751  1.00  0.00     0.116 C 
BRANCH   2   3
ATOM      3  N   UNL A   1      37.538  22.519  24.839  1.00  0.00    -0.356 N 
ATOM      4  C   UNL A   1      36.173  22.654  24.900  1.00  0.00     0.227 C 
ATOM      5  O   UNL A   1      35.500  22.145  24.002  1.00  0.00    -0.274 OA
ATOM      6  H   UNL A   1      37.870  22.029  24.053  1.00  0.00     0.163 HD
BRANCH   4   7
ATOM      7  C   UNL A   1      35.558  23.481  26.038  1.00  0.00     0.103 C 
ATOM      8  C   UNL A   1      33.136  23.622  26.111  1.00  0.00     0.107 C 
ATOM      9  C   UNL A   1      33.710  24.965  25.850  1.00  0.00    -0.006 C 
ATOM     10  C   UNL A   1      34.313  22.819  26.634  1.00  0.00     0.047 C 
ATOM     11  C   UNL A   1      35.036  24.851  25.670  1.00  0.00    -0.016 C 
BRANCH   8  12
ATOM     12  N   UNL A   1      31.998  23.586  26.972  1.00  0.00    -0.332 N 
ATOM     13  N   UNL A   1      30.200  23.935  25.423  1.00  0.00    -0.305 N 
ATOM     14  C   UNL A   1      30.691  23.602  26.638  1.00  0.00     0.319 C 
ATOM     15  H   UNL A   1      29.308  23.545  25.276  1.00  0.00     0.171 HD
ATOM     16  O   UNL A   1      29.890  23.181  27.479  1.00  0.00    -0.248 OA
ATOM     17  H   UNL A   1      32.192  23.543  27.936  1.00  0.00     0.165 HD
BRANCH  13  18
ATOM     18  C   UNL A   1      30.619  24.678  24.333  1.00  0.00     0.081 A 
ATOM     19  N   UNL A   1      30.897  26.449  23.047  1.00  0.00    -0.268 N 
ATOM     20  C   UNL A   1      30.525  26.060  24.307  1.00  0.00     0.135 A 
ATOM     21  N   UNL A   1      31.476  25.459  22.361  1.00  0.00    -0.179 NA
ATOM     22  C   UNL A   1      31.264  24.382  23.115  1.00  0.00     0.161 A 
BRANCH  19  23
ATOM     23  C   UNL A   1      30.702  27.747  22.421  1.00  0.00     0.172 C 
BRANCH  23  24
ATOM     24  C   UNL A   1      30.704  28.937  23.393  1.00  0.00     0.183 C 
BRANCH  24  25
ATOM     25  O   UNL A   1      29.423  29.566  23.534  1.00  0.00    -0.383 OA
ATOM     26  C   UNL A   1      28.538  29.296  22.451  1.00  0.00     0.194 C 
ENDBRANCH  24  25
ENDBRANCH  23  24
ENDBRANCH  19  23
ENDBRANCH  13  18
ENDBRANCH   8  12
ENDBRANCH   4   7
ENDBRANCH   2   3
ENDBRANCH   1   2
BRANCH   1  27
ATOM     27  C   UNL A   1      40.770  21.962  26.670  1.00  0.00     0.002 C 
BRANCH  27  28
ATOM     28  C   UNL A   1      41.426  21.057  27.725  1.00  0.00     0.002 C 
BRANCH  28  29
ATOM     29  C   UNL A   1      42.298  19.906  27.207  1.00  0.00     0.021 C 
BRANCH  29  30
ATOM     30  C   UNL A   1      42.273  19.736  25.697  1.00  0.00     0.116 C 
BRANCH  30  31
ATOM     31  N   UNL A   1      43.596  19.512  25.114  1.00  0.00    -0.352 N 
ATOM     32  C   UNL A   1      44.499  20.462  24.656  1.00  0.00     0.251 C 
ATOM     33  H   UNL A   1      43.881  18.573  25.036  1.00  0.00     0.163 HD
ATOM     34  O   UNL A   1      45.379  20.178  23.867  1.00  0.00    -0.269 OA
BRANCH  32  35
ATOM     35  C   UNL A   1      44.372  21.840  25.169  1.00  0.00     0.039 A 
ATOM     36  C   UNL A   1      43.508  22.774  24.591  1.00  0.00     0.014 A 
ATOM     37  C   UNL A   1      45.133  22.172  26.284  1.00  0.00     0.014 A 
ATOM     38  C   UNL A   1      43.368  24.021  25.198  1.00  0.00     0.010 A 
ATOM     39  C   UNL A   1      44.841  23.304  26.991  1.00  0.00     0.010 A 
ATOM     40  C   UNL A   1      44.030  24.269  26.412  1.00  0.00    -0.014 A 
BRANCH  40  41
ATOM     41  C   UNL A   1      43.817  25.498  27.166  1.00  0.00     0.031 A 
ATOM     42  C   UNL A   1      44.782  26.582  26.848  1.00  0.00     0.074 A 
ATOM     43  C   UNL A   1      42.703  25.711  27.903  1.00  0.00     0.049 A 
ATOM     44  N   UNL A   1      45.652  27.119  27.637  1.00  0.00    -0.248 NA
ATOM     45  C   UNL A   1      44.887  27.034  25.450  1.00  0.00     0.031 C 
ATOM     46  C   UNL A   1      41.521  24.849  28.047  1.00  0.00     0.029 A 
ATOM     47  N   UNL A   1      42.343  26.814  28.612  1.00  0.00    -0.354 N 
ATOM     48  C   UNL A   1      46.278  28.115  26.894  1.00  0.00     0.074 A 
ATOM     49  C   UNL A   1      45.903  27.898  25.522  1.00  0.00     0.031 C 
ATOM     50  C   UNL A   1      40.503  25.550  28.592  1.00  0.00     0.029 A 
ATOM     51  C   UNL A   1      41.007  26.847  28.999  1.00  0.00     0.049 A 
ATOM     52  H   UNL A   1      42.978  27.532  28.836  1.00  0.00     0.167 HD
ATOM     53  C   UNL A   1      46.843  29.190  27.509  1.00  0.00     0.037 A 
ATOM     54  C   UNL A   1      40.361  27.880  29.596  1.00  0.00     0.037 A 
ATOM     55  C   UNL A   1      47.077  28.925  28.907  1.00  0.00     0.049 A 
ATOM     56  C   UNL A   1      41.401  28.758  30.186  1.00  0.00     0.074 A 
ATOM     57  C   UNL A   1      47.815  27.984  29.599  1.00  0.00     0.029 A 
ATOM     58  N   UNL A   1      46.182  29.431  29.817  1.00  0.00    -0.354 N 
ATOM     59  N   UNL A   1      42.164  28.406  31.183  1.00  0.00    -0.248 NA
ATOM     60  C   UNL A   1      41.910  29.841  29.359  1.00  0.00     0.031 C 
ATOM     61  C   UNL A   1      46.998  27.620  30.710  1.00  0.00     0.029 A 
ATOM     62  C   UNL A   1      45.853  28.418  30.682  1.00  0.00     0.049 A 
ATOM     63  H   UNL A   1      45.838  30.353  29.844  1.00  0.00     0.167 HD
ATOM     64  C   UNL A   1      43.419  28.896  30.853  1.00  0.00     0.074 A 
ATOM     65  C   UNL A   1      43.183  29.839  29.760  1.00  0.00     0.031 C 
ATOM     66  C   UNL A   1      44.553  28.276  31.293  1.00  0.00     0.037 A 
BRANCH  53  67
ATOM     67  C   UNL A   1      46.831  30.585  26.937  1.00  0.00     0.064 A 
ATOM     68  C   UNL A   1      48.016  31.345  26.942  1.00  0.00     0.173 A 
ATOM     69  C   UNL A   1      45.649  31.305  26.653  1.00  0.00     0.173 A 
ATOM     70  F   UNL A   1      49.193  30.773  27.235  1.00  0.00    -0.203 F 
ATOM     71  C   UNL A   1      48.006  32.729  26.735  1.00  0.00     0.198 A 
ATOM     72  C   UNL A   1      45.650  32.673  26.391  1.00  0.00     0.198 A 
ATOM     73  F   UNL A   1      44.435  30.744  26.733  1.00  0.00    -0.203 F 
ATOM     74  F   UNL A   1      49.141  33.429  26.869  1.00  0.00    -0.200 F 
ATOM     75  C   UNL A   1      46.824  33.390  26.461  1.00  0.00     0.200 A 
ATOM     76  F   UNL A   1      44.488  33.298  26.153  1.00  0.00    -0.200 F 
ATOM     77  F   UNL A   1      46.803  34.722  26.317  1.00  0.00    -0.200 F 
ENDBRANCH  53  67
BRANCH  54  78
ATOM     78  C   UNL A   1      38.957  28.329  29.423  1.00  0.00     0.064 A 
ATOM     79  C   UNL A   1      38.134  28.568  30.537  1.00  0.00     0.173 A 
ATOM     80  C   UNL A   1      38.493  28.817  28.188  1.00  0.00     0.173 A 
ATOM     81  F   UNL A   1      38.519  28.169  31.758  1.00  0.00    -0.203 F 
ATOM     82  C   UNL A   1      36.938  29.287  30.426  1.00  0.00     0.198 A 
ATOM     83  C   UNL A   1      37.298  29.531  28.077  1.00  0.00     0.198 A 
ATOM     84  F   UNL A   1      39.236  28.696  27.076  1.00  0.00    -0.203 F 
ATOM     85  F   UNL A   1      36.213  29.553  31.523  1.00  0.00    -0.200 F 
ATOM     86  C   UNL A   1      36.529  29.780  29.199  1.00  0.00     0.200 A 
ATOM     87  F   UNL A   1      36.933  30.030  26.887  1.00  0.00    -0.200 F 
ATOM     88  F   UNL A   1      35.420  30.527  29.103  1.00  0.00    -0.200 F 
ENDBRANCH  54  78
BRANCH  66  89
ATOM     89  C   UNL A   1      44.403  27.212  32.350  1.00  0.00     0.064 A 
ATOM     90  C   UNL A   1      44.265  25.837  32.082  1.00  0.00     0.173 A 
ATOM     91  C   UNL A   1      44.537  27.590  33.692  1.00  0.00     0.173 A 
ATOM     92  F   UNL A   1      44.230  25.376  30.827  1.00  0.00    -0.203 F 
ATOM     93  C   UNL A   1      44.216  24.898  33.112  1.00  0.00     0.198 A 
ATOM     94  C   UNL A   1      44.526  26.647  34.716  1.00  0.00     0.198 A 
ATOM     95  F   UNL A   1      44.724  28.880  34.009  1.00  0.00    -0.203 F 
ATOM     96  F   UNL A   1      44.068  23.595  32.829  1.00  0.00    -0.200 F 
ATOM     97  C   UNL A   1      44.355  25.303  34.428  1.00  0.00     0.200 A 
ATOM     98  F   UNL A   1      44.708  27.041  35.985  1.00  0.00    -0.200 F 
ATOM     99  F   UNL A   1      44.346  24.398  35.417  1.00  0.00    -0.200 F 
ENDBRANCH  66  89
ENDBRANCH  40  41
ENDBRANCH  32  35
ENDBRANCH  30  31
ENDBRANCH  29  30
ENDBRANCH  28  29
ENDBRANCH  27  28
ENDBRANCH   1  27
TORSDOF 18
ENDMDL
MODEL 2
REMARK VINA RESULT:     -11.6      2.348      4.046
REMARK SMILES COCCn1cc(NC(=O)N[C@H]2C=C[C@H](C(=O)NCCCCCCNC(=O)c3ccc(-c4c5nc(c(-c6c(F)c(F)c(F)c(F)c6F)c6ccc([nH]6)c(-c6c(F)c(F)c(F)c(F)c6F)c6nc(c(-c7c(F)c(F)c(F)c(F)c7F)c7ccc4[nH]7)C=C6)C=C5)cc3)C2)cn1
REMARK SMILES IDX 20 1 19 2 18 3 16 4 17 5 15 7 12 8 13 9 91 10 14 11 11 12
REMARK SMILES IDX 8 13 9 14 10 16 7 18 5 19 6 20 93 21 92 22 4 23 3 24 2 25
REMARK SMILES IDX 1 26 21 27 22 28 23 29 24 30 25 31 26 32 27 34 28 35 29 36
REMARK SMILES IDX 90 37 30 38 89 39 31 40 32 41 33 42 83 43 34 44 88 45 82 46
REMARK SMILES IDX 84 47 35 48 87 49 81 50 80 51 36 53 68 54 48 55 67 56 49 57
REMARK SMILES IDX 52 58 66 59 85 60 50 61 51 62 65 64 86 65 53 66 37 67 38 68
REMARK SMILES IDX 46 69 39 70 40 71 44 72 47 73 41 74 42 75 45 76 43 77 69 78
REMARK SMILES IDX 70 79 78 80 71 81 72 82 76 83 79 84 73 85 74 86 77 87 75 88
REMARK SMILES IDX 54 89 55 90 63 91 56 92 57 93 61 94 64 95 58 96 59 97 62 98
REMARK SMILES IDX 60 99
REMARK H PARENT 18 6 8 15 11 17 25 33 84 52 52 63
REMARK Flexibility Score: inf
ROOT
ATOM      1  C   UNL A   1      40.622  21.773  27.579  1.00  0.00     0.021 C 
ENDROOT
BRANCH   1   2
ATOM      2  C   UNL A   1      39.741  22.248  26.417  1.00  0.00     0.116 C 
BRANCH   2   3
ATOM      3  N   UNL A   1      39.012  21.155  25.794  1.00  0.00    -0.356 N 
ATOM      4  C   UNL A   1      37.793  21.147  25.161  1.00  0.00     0.227 C 
ATOM      5  O   UNL A   1      37.372  20.074  24.729  1.00  0.00    -0.274 OA
ATOM      6  H   UNL A   1      39.463  20.281  25.833  1.00  0.00     0.163 HD
BRANCH   4   7
ATOM      7  C   UNL A   1      37.050  22.476  24.966  1.00  0.00     0.103 C 
ATOM      8  C   UNL A   1      34.649  22.355  24.631  1.00  0.00     0.107 C 
ATOM      9  C   UNL A   1      35.301  22.886  23.409  1.00  0.00    -0.006 C 
ATOM     10  C   UNL A   1      35.710  22.509  25.705  1.00  0.00     0.047 C 
ATOM     11  C   UNL A   1      36.634  22.815  23.553  1.00  0.00    -0.016 C 
BRANCH   8  12
ATOM     12  N   UNL A   1      33.398  22.947  24.980  1.00  0.00    -0.332 N 
ATOM     13  N   UNL A   1      32.063  21.018  25.477  1.00  0.00    -0.305 N 
ATOM     14  C   UNL A   1      32.294  22.350  25.474  1.00  0.00     0.319 C 
ATOM     15  H   UNL A   1      31.417  20.766  26.177  1.00  0.00     0.171 HD
ATOM     16  O   UNL A   1      31.478  23.069  26.060  1.00  0.00    -0.248 OA
ATOM     17  H   UNL A   1      33.332  23.920  24.844  1.00  0.00     0.165 HD
BRANCH  13  18
ATOM     18  C   UNL A   1      32.493  19.915  24.759  1.00  0.00     0.081 A 
ATOM     19  N   UNL A   1      33.656  18.097  24.299  1.00  0.00    -0.268 N 
ATOM     20  C   UNL A   1      33.330  18.960  25.313  1.00  0.00     0.135 A 
ATOM     21  N   UNL A   1      32.885  18.268  23.221  1.00  0.00    -0.179 NA
ATOM     22  C   UNL A   1      32.220  19.393  23.479  1.00  0.00     0.161 A 
BRANCH  19  23
ATOM     23  C   UNL A   1      34.717  17.103  24.282  1.00  0.00     0.172 C 
BRANCH  23  24
ATOM     24  C   UNL A   1      34.559  15.976  25.315  1.00  0.00     0.183 C 
BRANCH  24  25
ATOM     25  O   UNL A   1      33.559  15.011  24.964  1.00  0.00    -0.383 OA
ATOM     26  C   UNL A   1      32.330  15.191  25.662  1.00  0.00     0.194 C 
ENDBRANCH  24  25
ENDBRANCH  23  24
ENDBRANCH  19  23
ENDBRANCH  13  18
ENDBRANCH   8  12
ENDBRANCH   4   7
ENDBRANCH   2   3
ENDBRANCH   1   2
BRANCH   1  27
ATOM     27  C   UNL A   1      41.845  20.935  27.179  1.00  0.00     0.002 C 
BRANCH  27  28
ATOM     28  C   UNL A   1      41.686  19.408  27.248  1.00  0.00     0.002 C 
BRANCH  28  29
ATOM     29  C   UNL A   1      42.498  18.580  26.243  1.00  0.00     0.021 C 
BRANCH  29  30
ATOM     30  C   UNL A   1      43.975  18.935  26.194  1.00  0.00     0.116 C 
BRANCH  30  31
ATOM     31  N   UNL A   1      44.518  18.981  24.836  1.00  0.00    -0.352 N 
ATOM     32  C   UNL A   1      44.640  20.084  24.002  1.00  0.00     0.251 C 
ATOM     33  H   UNL A   1      44.836  18.124  24.468  1.00  0.00     0.163 HD
ATOM     34  O   UNL A   1      44.744  19.964  22.797  1.00  0.00    -0.269 OA
BRANCH  32  35
ATOM     35  C   UNL A   1      44.653  21.422  24.624  1.00  0.00     0.039 A 
ATOM     36  C   UNL A   1      43.663  22.374  24.365  1.00  0.00     0.014 A 
ATOM     37  C   UNL A   1      45.685  21.696  25.513  1.00  0.00     0.014 A 
ATOM     38  C   UNL A   1      43.690  23.576  25.072  1.00  0.00     0.010 A 
ATOM     39  C   UNL A   1      45.593  22.773  26.348  1.00  0.00     0.010 A 
ATOM     40  C   UNL A   1      44.654  23.757  26.077  1.00  0.00    -0.014 A 
BRANCH  40  41
ATOM     41  C   UNL A   1      44.650  24.929  26.943  1.00  0.00     0.031 A 
ATOM     42  C   UNL A   1      45.817  25.829  26.753  1.00  0.00     0.074 A 
ATOM     43  C   UNL A   1      43.569  25.286  27.673  1.00  0.00     0.049 A 
ATOM     44  N   UNL A   1      46.741  26.112  27.610  1.00  0.00    -0.248 NA
ATOM     45  C   UNL A   1      46.062  26.380  25.409  1.00  0.00     0.031 C 
ATOM     46  C   UNL A   1      42.239  24.660  27.706  1.00  0.00     0.029 A 
ATOM     47  N   UNL A   1      43.398  26.367  28.479  1.00  0.00    -0.354 N 
ATOM     48  C   UNL A   1      47.575  27.032  26.982  1.00  0.00     0.074 A 
ATOM     49  C   UNL A   1      47.220  27.019  25.587  1.00  0.00     0.031 C 
ATOM     50  C   UNL A   1      41.353  25.492  28.295  1.00  0.00     0.029 A 
ATOM     51  C   UNL A   1      42.079  26.624  28.838  1.00  0.00     0.049 A 
ATOM     52  H   UNL A   1      44.150  26.924  28.786  1.00  0.00     0.167 HD
ATOM     53  C   UNL A   1      48.310  27.915  27.712  1.00  0.00     0.037 A 
ATOM     54  C   UNL A   1      41.619  27.703  29.520  1.00  0.00     0.037 A 
ATOM     55  C   UNL A   1      48.433  27.482  29.081  1.00  0.00     0.049 A 
ATOM     56  C   UNL A   1      42.784  28.304  30.216  1.00  0.00     0.074 A 
ATOM     57  C   UNL A   1      48.949  26.356  29.693  1.00  0.00     0.029 A 
ATOM     58  N   UNL A   1      47.616  28.066  30.017  1.00  0.00    -0.354 N 
ATOM     59  N   UNL A   1      43.425  27.719  31.189  1.00  0.00    -0.248 NA
ATOM     60  C   UNL A   1      43.523  29.339  29.510  1.00  0.00     0.031 C 
ATOM     61  C   UNL A   1      48.034  26.057  30.746  1.00  0.00     0.029 A 
ATOM     62  C   UNL A   1      47.065  27.061  30.771  1.00  0.00     0.049 A 
ATOM     63  H   UNL A   1      47.453  29.031  30.127  1.00  0.00     0.167 HD
ATOM     64  C   UNL A   1      44.762  27.985  30.936  1.00  0.00     0.074 A 
ATOM     65  C   UNL A   1      44.755  29.052  29.936  1.00  0.00     0.031 C 
ATOM     66  C   UNL A   1      45.738  27.119  31.338  1.00  0.00     0.037 A 
BRANCH  53  67
ATOM     67  C   UNL A   1      48.588  29.333  27.279  1.00  0.00     0.064 A 
ATOM     68  C   UNL A   1      49.907  29.825  27.328  1.00  0.00     0.173 A 
ATOM     69  C   UNL A   1      47.582  30.308  27.097  1.00  0.00     0.173 A 
ATOM     70  F   UNL A   1      50.938  28.994  27.534  1.00  0.00    -0.203 F 
ATOM     71  C   UNL A   1      50.186  31.194  27.258  1.00  0.00     0.198 A 
ATOM     72  C   UNL A   1      47.868  31.664  26.971  1.00  0.00     0.198 A 
ATOM     73  F   UNL A   1      46.278  30.006  27.153  1.00  0.00    -0.203 F 
ATOM     74  F   UNL A   1      51.443  31.626  27.430  1.00  0.00    -0.200 F 
ATOM     75  C   UNL A   1      49.167  32.112  27.080  1.00  0.00     0.200 A 
ATOM     76  F   UNL A   1      46.862  32.539  26.825  1.00  0.00    -0.200 F 
ATOM     77  F   UNL A   1      49.426  33.426  27.068  1.00  0.00    -0.200 F 
ENDBRANCH  53  67
BRANCH  54  78
ATOM     78  C   UNL A   1      40.335  28.430  29.363  1.00  0.00     0.064 A 
ATOM     79  C   UNL A   1      39.948  28.949  28.116  1.00  0.00     0.173 A 
ATOM     80  C   UNL A   1      39.334  28.366  30.350  1.00  0.00     0.173 A 
ATOM     81  F   UNL A   1      40.830  29.011  27.108  1.00  0.00    -0.203 F 
ATOM     82  C   UNL A   1      38.630  29.344  27.861  1.00  0.00     0.198 A 
ATOM     83  C   UNL A   1      38.020  28.763  30.097  1.00  0.00     0.198 A 
ATOM     84  F   UNL A   1      39.587  27.827  31.553  1.00  0.00    -0.203 F 
ATOM     85  F   UNL A   1      38.284  29.773  26.637  1.00  0.00    -0.200 F 
ATOM     86  C   UNL A   1      37.664  29.238  28.847  1.00  0.00     0.200 A 
ATOM     87  F   UNL A   1      37.090  28.622  31.052  1.00  0.00    -0.200 F 
ATOM     88  F   UNL A   1      36.388  29.551  28.583  1.00  0.00    -0.200 F 
ENDBRANCH  54  78
BRANCH  66  89
ATOM     89  C   UNL A   1      45.345  26.011  32.282  1.00  0.00     0.064 A 
ATOM     90  C   UNL A   1      45.303  26.136  33.683  1.00  0.00     0.173 A 
ATOM     91  C   UNL A   1      44.867  24.815  31.733  1.00  0.00     0.173 A 
ATOM     92  F   UNL A   1      45.648  27.278  34.287  1.00  0.00    -0.203 F 
ATOM     93  C   UNL A   1      44.848  25.094  34.491  1.00  0.00     0.198 A 
ATOM     94  C   UNL A   1      44.378  23.791  32.540  1.00  0.00     0.198 A 
ATOM     95  F   UNL A   1      44.832  24.655  30.401  1.00  0.00    -0.203 F 
ATOM     96  F   UNL A   1      44.834  25.235  35.826  1.00  0.00    -0.200 F 
ATOM     97  C   UNL A   1      44.379  23.925  33.919  1.00  0.00     0.200 A 
ATOM     98  F   UNL A   1      43.880  22.680  31.977  1.00  0.00    -0.200 F 
ATOM     99  F   UNL A   1      43.906  22.938  34.692  1.00  0.00    -0.200 F 
ENDBRANCH  66  89
ENDBRANCH  40  41
ENDBRANCH  32  35
ENDBRANCH  30  31
ENDBRANCH  29  30
ENDBRANCH  28  29
ENDBRANCH  27  28
ENDBRANCH   1  27
TORSDOF 18
ENDMDL
MODEL 3
REMARK VINA RESULT:     -11.2      2.503      3.826
REMARK SMILES COCCn1cc(NC(=O)N[C@H]2C=C[C@H](C(=O)NCCCCCCNC(=O)c3ccc(-c4c5nc(c(-c6c(F)c(F)c(F)c(F)c6F)c6ccc([nH]6)c(-c6c(F)c(F)c(F)c(F)c6F)c6nc(c(-c7c(F)c(F)c(F)c(F)c7F)c7ccc4[nH]7)C=C6)C=C5)cc3)C2)cn1
REMARK SMILES IDX 20 1 19 2 18 3 16 4 17 5 15 7 12 8 13 9 91 10 14 11 11 12
REMARK SMILES IDX 8 13 9 14 10 16 7 18 5 19 6 20 93 21 92 22 4 23 3 24 2 25
REMARK SMILES IDX 1 26 21 27 22 28 23 29 24 30 25 31 26 32 27 34 28 35 29 36
REMARK SMILES IDX 90 37 30 38 89 39 31 40 32 41 33 42 83 43 34 44 88 45 82 46
REMARK SMILES IDX 84 47 35 48 87 49 81 50 80 51 36 53 68 54 48 55 67 56 49 57
REMARK SMILES IDX 52 58 66 59 85 60 50 61 51 62 65 64 86 65 53 66 37 67 38 68
REMARK SMILES IDX 46 69 39 70 40 71 44 72 47 73 41 74 42 75 45 76 43 77 69 78
REMARK SMILES IDX 70 79 78 80 71 81 72 82 76 83 79 84 73 85 74 86 77 87 75 88
REMARK SMILES IDX 54 89 55 90 63 91 56 92 57 93 61 94 64 95 58 96 59 97 62 98
REMARK SMILES IDX 60 99
REMARK H PARENT 18 6 8 15 11 17 25 33 84 52 52 63
REMARK Flexibility Score: inf
ROOT
ATOM      1  C   UNL A   1      36.460  21.744  25.480  1.00  0.00     0.021 C 
ENDROOT
BRANCH   1   2
ATOM      2  C   UNL A   1      35.013  21.375  25.832  1.00  0.00     0.116 C 
BRANCH   2   3
ATOM      3  N   UNL A   1      34.298  22.478  26.454  1.00  0.00    -0.356 N 
ATOM      4  C   UNL A   1      33.182  23.161  26.035  1.00  0.00     0.227 C 
ATOM      5  O   UNL A   1      32.773  24.086  26.737  1.00  0.00    -0.274 OA
ATOM      6  H   UNL A   1      34.673  22.785  27.310  1.00  0.00     0.163 HD
BRANCH   4   7
ATOM      7  C   UNL A   1      32.466  22.701  24.758  1.00  0.00     0.103 C 
ATOM      8  C   UNL A   1      32.269  24.322  22.962  1.00  0.00     0.107 C 
ATOM      9  C   UNL A   1      30.922  23.979  23.480  1.00  0.00    -0.006 C 
ATOM     10  C   UNL A   1      33.155  23.208  23.488  1.00  0.00     0.047 C 
ATOM     11  C   UNL A   1      31.051  23.195  24.562  1.00  0.00    -0.016 C 
BRANCH   8  12
ATOM     12  N   UNL A   1      32.367  24.506  21.550  1.00  0.00    -0.332 N 
ATOM     13  N   UNL A   1      32.501  26.894  21.375  1.00  0.00    -0.305 N 
ATOM     14  C   UNL A   1      32.594  25.646  20.865  1.00  0.00     0.319 C 
ATOM     15  H   UNL A   1      33.038  27.537  20.857  1.00  0.00     0.171 HD
ATOM     16  O   UNL A   1      33.021  25.534  19.710  1.00  0.00    -0.248 OA
ATOM     17  H   UNL A   1      32.255  23.695  21.004  1.00  0.00     0.165 HD
BRANCH  13  18
ATOM     18  C   UNL A   1      31.850  27.509  22.430  1.00  0.00     0.081 A 
ATOM     19  N   UNL A   1      31.601  28.480  24.396  1.00  0.00    -0.268 N 
ATOM     20  C   UNL A   1      32.542  28.092  23.479  1.00  0.00     0.135 A 
ATOM     21  N   UNL A   1      30.361  28.437  23.898  1.00  0.00    -0.179 NA
ATOM     22  C   UNL A   1      30.506  27.807  22.735  1.00  0.00     0.161 A 
BRANCH  19  23
ATOM     23  C   UNL A   1      31.813  28.875  25.779  1.00  0.00     0.172 C 
BRANCH  23  24
ATOM     24  C   UNL A   1      32.729  30.094  25.967  1.00  0.00     0.183 C 
BRANCH  24  25
ATOM     25  O   UNL A   1      33.435  30.095  27.215  1.00  0.00    -0.383 OA
ATOM     26  C   UNL A   1      34.581  29.249  27.218  1.00  0.00     0.194 C 
ENDBRANCH  24  25
ENDBRANCH  23  24
ENDBRANCH  19  23
ENDBRANCH  13  18
ENDBRANCH   8  12
ENDBRANCH   4   7
ENDBRANCH   2   3
ENDBRANCH   1   2
BRANCH   1  27
ATOM     27  C   UNL A   1      37.312  20.599  24.915  1.00  0.00     0.002 C 
BRANCH  27  28
ATOM     28  C   UNL A   1      38.772  20.528  25.390  1.00  0.00     0.002 C 
BRANCH  28  29
ATOM     29  C   UNL A   1      39.263  21.665  26.297  1.00  0.00     0.021 C 
BRANCH  29  30
ATOM     30  C   UNL A   1      40.585  21.381  26.990  1.00  0.00     0.116 C 
BRANCH  30  31
ATOM     31  N   UNL A   1      41.750  21.579  26.127  1.00  0.00    -0.352 N 
ATOM     32  C   UNL A   1      42.359  22.776  25.777  1.00  0.00     0.251 C 
ATOM     33  H   UNL A   1      42.152  20.763  25.749  1.00  0.00     0.163 HD
ATOM     34  O   UNL A   1      43.059  22.871  24.787  1.00  0.00    -0.269 OA
BRANCH  32  35
ATOM     35  C   UNL A   1      42.144  23.944  26.653  1.00  0.00     0.039 A 
ATOM     36  C   UNL A   1      42.824  24.102  27.864  1.00  0.00     0.014 A 
ATOM     37  C   UNL A   1      41.248  24.910  26.212  1.00  0.00     0.014 A 
ATOM     38  C   UNL A   1      42.643  25.283  28.583  1.00  0.00     0.010 A 
ATOM     39  C   UNL A   1      41.232  26.141  26.803  1.00  0.00     0.010 A 
ATOM     40  C   UNL A   1      41.854  26.306  28.032  1.00  0.00    -0.014 A 
BRANCH  40  41
ATOM     41  C   UNL A   1      41.737  27.612  28.666  1.00  0.00     0.031 A 
ATOM     42  C   UNL A   1      42.819  28.564  28.303  1.00  0.00     0.074 A 
ATOM     43  C   UNL A   1      40.623  27.999  29.327  1.00  0.00     0.049 A 
ATOM     44  N   UNL A   1      43.707  29.082  29.084  1.00  0.00    -0.248 NA
ATOM     45  C   UNL A   1      43.024  28.876  26.878  1.00  0.00     0.031 C 
ATOM     46  C   UNL A   1      39.354  27.273  29.488  1.00  0.00     0.029 A 
ATOM     47  N   UNL A   1      40.349  29.191  29.921  1.00  0.00    -0.354 N 
ATOM     48  C   UNL A   1      44.460  29.941  28.289  1.00  0.00     0.074 A 
ATOM     49  C   UNL A   1      44.119  29.639  26.924  1.00  0.00     0.031 C 
ATOM     50  C   UNL A   1      38.393  28.117  29.921  1.00  0.00     0.029 A 
ATOM     51  C   UNL A   1      39.009  29.390  30.239  1.00  0.00     0.049 A 
ATOM     52  H   UNL A   1      41.044  29.861  30.113  1.00  0.00     0.167 HD
ATOM     53  C   UNL A   1      45.107  31.007  28.836  1.00  0.00     0.037 A 
ATOM     54  C   UNL A   1      38.448  30.531  30.713  1.00  0.00     0.037 A 
ATOM     55  C   UNL A   1      45.257  30.848  30.261  1.00  0.00     0.049 A 
ATOM     56  C   UNL A   1      39.549  31.353  31.275  1.00  0.00     0.074 A 
ATOM     57  C   UNL A   1      45.868  29.905  31.066  1.00  0.00     0.029 A 
ATOM     58  N   UNL A   1      44.384  31.519  31.080  1.00  0.00    -0.354 N 
ATOM     59  N   UNL A   1      40.232  31.019  32.334  1.00  0.00    -0.248 NA
ATOM     60  C   UNL A   1      40.196  32.302  30.383  1.00  0.00     0.031 C 
ATOM     61  C   UNL A   1      44.975  29.725  32.164  1.00  0.00     0.029 A 
ATOM     62  C   UNL A   1      43.920  30.625  32.012  1.00  0.00     0.049 A 
ATOM     63  H   UNL A   1      44.134  32.468  31.011  1.00  0.00     0.167 HD
ATOM     64  C   UNL A   1      41.542  31.352  32.024  1.00  0.00     0.074 A 
ATOM     65  C   UNL A   1      41.446  32.211  30.844  1.00  0.00     0.031 C 
ATOM     66  C   UNL A   1      42.589  30.667  32.570  1.00  0.00     0.037 A 
BRANCH  53  67
ATOM     67  C   UNL A   1      45.259  32.339  28.146  1.00  0.00     0.064 A 
ATOM     68  C   UNL A   1      44.134  33.174  27.999  1.00  0.00     0.173 A 
ATOM     69  C   UNL A   1      46.386  32.697  27.374  1.00  0.00     0.173 A 
ATOM     70  F   UNL A   1      42.996  32.908  28.655  1.00  0.00    -0.203 F 
ATOM     71  C   UNL A   1      44.126  34.249  27.104  1.00  0.00     0.198 A 
ATOM     72  C   UNL A   1      46.393  33.802  26.526  1.00  0.00     0.198 A 
ATOM     73  F   UNL A   1      47.483  31.932  27.315  1.00  0.00    -0.203 F 
ATOM     74  F   UNL A   1      42.996  34.942  26.908  1.00  0.00    -0.200 F 
ATOM     75  C   UNL A   1      45.254  34.561  26.369  1.00  0.00     0.200 A 
ATOM     76  F   UNL A   1      47.490  34.071  25.804  1.00  0.00    -0.200 F 
ATOM     77  F   UNL A   1      45.232  35.556  25.471  1.00  0.00    -0.200 F 
ENDBRANCH  53  67
BRANCH  54  78
ATOM     78  C   UNL A   1      37.105  31.097  30.436  1.00  0.00     0.064 A 
ATOM     79  C   UNL A   1      36.241  31.453  31.485  1.00  0.00     0.173 A 
ATOM     80  C   UNL A   1      36.765  31.576  29.157  1.00  0.00     0.173 A 
ATOM     81  F   UNL A   1      36.512  31.070  32.741  1.00  0.00    -0.203 F 
ATOM     82  C   UNL A   1      35.126  32.272  31.273  1.00  0.00     0.198 A 
ATOM     83  C   UNL A   1      35.650  32.390  28.945  1.00  0.00     0.198 A 
ATOM     84  F   UNL A   1      37.559  31.345  28.101  1.00  0.00    -0.203 F 
ATOM     85  F   UNL A   1      34.363  32.645  32.312  1.00  0.00    -0.200 F 
ATOM     86  C   UNL A   1      34.840  32.751  30.006  1.00  0.00     0.200 A 
ATOM     87  F   UNL A   1      35.406  32.873  27.718  1.00  0.00    -0.200 F 
ATOM     88  F   UNL A   1      33.812  33.591  29.814  1.00  0.00    -0.200 F 
ENDBRANCH  54  78
BRANCH  66  89
ATOM     89  C   UNL A   1      42.290  29.722  33.706  1.00  0.00     0.064 A 
ATOM     90  C   UNL A   1      41.905  28.378  33.544  1.00  0.00     0.173 A 
ATOM     91  C   UNL A   1      42.533  30.163  35.013  1.00  0.00     0.173 A 
ATOM     92  F   UNL A   1      41.747  27.845  32.328  1.00  0.00    -0.203 F 
ATOM     93  C   UNL A   1      41.727  27.536  34.642  1.00  0.00     0.198 A 
ATOM     94  C   UNL A   1      42.391  29.311  36.105  1.00  0.00     0.198 A 
ATOM     95  F   UNL A   1      42.953  31.419  35.229  1.00  0.00    -0.203 F 
ATOM     96  F   UNL A   1      41.343  26.264  34.459  1.00  0.00    -0.200 F 
ATOM     97  C   UNL A   1      41.978  28.001  35.921  1.00  0.00     0.200 A 
ATOM     98  F   UNL A   1      42.682  29.753  37.336  1.00  0.00    -0.200 F 
ATOM     99  F   UNL A   1      41.844  27.184  36.974  1.00  0.00    -0.200 F 
ENDBRANCH  66  89
ENDBRANCH  40  41
ENDBRANCH  32  35
ENDBRANCH  30  31
ENDBRANCH  29  30
ENDBRANCH  28  29
ENDBRANCH  27  28
ENDBRANCH   1  27
TORSDOF 18
ENDMDL
