MODEL 1
REMARK VINA RESULT:     -11.3      0.000      0.000
REMARK SMILES O=C(CSc1ccnc(C(=O)NCCCCCCNC(=O)c2ccc(-c3c4nc(c(-c5c(F)c(F)c(F)c(F)c5F)c5ccc([nH]5)c(-c5c(F)c(F)c(F)c(F)c5F)c5nc(c(-c6c(F)c(F)c(F)c(F)c6F)c6ccc3[nH]6)C=C5)C=C4)cc2)c1)NCC(F)(F)F
REMARK SMILES IDX 14 1 13 2 12 3 10 4 11 5 9 7 5 8 6 9 85 10 7 11 8 12 4 13
REMARK SMILES IDX 3 14 2 15 1 16 86 17 87 19 88 20 89 21 90 22 91 23 15 24
REMARK SMILES IDX 16 25 17 26 18 27 19 28 20 29 21 31 22 32 23 33 84 34 24 35
REMARK SMILES IDX 83 36 25 37 26 38 27 39 77 40 28 41 82 42 76 43 78 44 29 45
REMARK SMILES IDX 81 46 75 47 74 48 30 50 62 51 42 52 61 53 43 54 46 55 60 56
REMARK SMILES IDX 79 57 44 58 45 59 59 61 80 62 47 63 31 64 32 65 40 66 33 67
REMARK SMILES IDX 34 68 38 69 41 70 35 71 36 72 39 73 37 74 63 75 64 76 72 77
REMARK SMILES IDX 65 78 66 79 70 80 73 81 67 82 68 83 71 84 69 85 48 86 49 87
REMARK SMILES IDX 57 88 50 89 51 90 55 91 58 92 52 93 53 94 56 95 54 96
REMARK H PARENT 12 6 86 18 19 30 78 49 46 60
REMARK Flexibility Score: inf
ROOT
ATOM      1  C   UNL A   1      36.650  23.138  24.088  1.00  0.00     0.021 C 
ENDROOT
BRANCH   1   2
ATOM      2  C   UNL A   1      35.178  23.413  24.366  1.00  0.00     0.116 C 
BRANCH   2   3
ATOM      3  N   UNL A   1      34.761  23.127  25.722  1.00  0.00    -0.351 N 
ATOM      4  C   UNL A   1      33.717  23.608  26.488  1.00  0.00     0.269 C 
ATOM      5  O   UNL A   1      33.624  23.160  27.633  1.00  0.00    -0.268 OA
ATOM      6  H   UNL A   1      35.326  22.466  26.184  1.00  0.00     0.163 HD
BRANCH   4   7
ATOM      7  C   UNL A   1      32.742  24.659  26.013  1.00  0.00     0.129 A 
ATOM      8  C   UNL A   1      32.139  26.822  25.165  1.00  0.00     0.012 A 
ATOM      9  C   UNL A   1      30.800  26.483  25.347  1.00  0.00     0.035 A 
ATOM     10  C   UNL A   1      33.114  25.857  25.414  1.00  0.00     0.049 A 
ATOM     11  C   UNL A   1      30.499  25.230  25.846  1.00  0.00     0.113 A 
ATOM     12  N   UNL A   1      31.436  24.337  26.215  1.00  0.00    -0.251 NA
BRANCH   8  13
ATOM     13  S   UNL A   1      32.488  28.486  24.607  1.00  0.00    -0.116 SA
BRANCH  13  14
ATOM     14  C   UNL A   1      32.246  28.414  22.799  1.00  0.00     0.174 C 
BRANCH  14  15
ATOM     15  C   UNL A   1      30.838  28.758  22.337  1.00  0.00     0.230 C 
ATOM     16  O   UNL A   1      29.942  27.915  22.348  1.00  0.00    -0.274 OA
ATOM     17  N   UNL A   1      30.595  30.068  22.003  1.00  0.00    -0.346 N 
ATOM     18  H   UNL A   1      31.336  30.715  22.028  1.00  0.00     0.163 HD
BRANCH  17  19
ATOM     19  C   UNL A   1      29.257  30.525  21.609  1.00  0.00     0.231 C 
BRANCH  19  20
ATOM     20  C   UNL A   1      28.386  31.060  22.748  1.00  0.00     0.405 C 
ATOM     21  F   UNL A   1      29.153  31.433  23.800  1.00  0.00    -0.169 F 
ATOM     22  F   UNL A   1      27.693  32.152  22.347  1.00  0.00    -0.169 F 
ATOM     23  F   UNL A   1      27.495  30.148  23.191  1.00  0.00    -0.169 F 
ENDBRANCH  19  20
ENDBRANCH  17  19
ENDBRANCH  14  15
ENDBRANCH  13  14
ENDBRANCH   8  13
ENDBRANCH   4   7
ENDBRANCH   2   3
ENDBRANCH   1   2
BRANCH   1  24
ATOM     24  C   UNL A   1      37.331  22.094  24.971  1.00  0.00     0.002 C 
BRANCH  24  25
ATOM     25  C   UNL A   1      36.975  20.629  24.703  1.00  0.00     0.002 C 
BRANCH  25  26
ATOM     26  C   UNL A   1      38.071  19.592  24.963  1.00  0.00     0.021 C 
BRANCH  26  27
ATOM     27  C   UNL A   1      39.223  20.041  25.855  1.00  0.00     0.116 C 
BRANCH  27  28
ATOM     28  N   UNL A   1      40.313  19.081  25.893  1.00  0.00    -0.352 N 
ATOM     29  C   UNL A   1      41.656  19.282  26.068  1.00  0.00     0.251 C 
ATOM     30  H   UNL A   1      40.044  18.141  25.775  1.00  0.00     0.163 HD
ATOM     31  O   UNL A   1      42.441  18.341  25.916  1.00  0.00    -0.269 OA
BRANCH  29  32
ATOM     32  C   UNL A   1      42.188  20.617  26.414  1.00  0.00     0.039 A 
ATOM     33  C   UNL A   1      42.626  21.453  25.382  1.00  0.00     0.014 A 
ATOM     34  C   UNL A   1      42.291  21.040  27.744  1.00  0.00     0.014 A 
ATOM     35  C   UNL A   1      43.114  22.729  25.676  1.00  0.00     0.010 A 
ATOM     36  C   UNL A   1      42.715  22.337  28.030  1.00  0.00     0.010 A 
ATOM     37  C   UNL A   1      43.134  23.192  27.001  1.00  0.00    -0.014 A 
BRANCH  37  38
ATOM     38  C   UNL A   1      43.590  24.569  27.323  1.00  0.00     0.031 A 
ATOM     39  C   UNL A   1      42.619  25.588  27.850  1.00  0.00     0.074 A 
ATOM     40  C   UNL A   1      44.868  24.920  27.084  1.00  0.00     0.049 A 
ATOM     41  N   UNL A   1      42.814  26.852  28.131  1.00  0.00    -0.248 NA
ATOM     42  C   UNL A   1      41.237  25.133  28.064  1.00  0.00     0.031 C 
ATOM     43  C   UNL A   1      45.896  24.035  26.535  1.00  0.00     0.029 A 
ATOM     44  N   UNL A   1      45.519  26.115  27.264  1.00  0.00    -0.354 N 
ATOM     45  C   UNL A   1      41.581  27.344  28.541  1.00  0.00     0.074 A 
ATOM     46  C   UNL A   1      40.634  26.256  28.423  1.00  0.00     0.031 C 
ATOM     47  C   UNL A   1      47.052  24.712  26.438  1.00  0.00     0.029 A 
ATOM     48  C   UNL A   1      46.838  26.087  26.884  1.00  0.00     0.049 A 
ATOM     49  H   UNL A   1      45.081  26.918  27.630  1.00  0.00     0.167 HD
ATOM     50  C   UNL A   1      41.272  28.584  28.993  1.00  0.00     0.037 A 
ATOM     51  C   UNL A   1      47.769  27.059  26.887  1.00  0.00     0.037 A 
ATOM     52  C   UNL A   1      42.223  29.657  29.128  1.00  0.00     0.049 A 
ATOM     53  C   UNL A   1      47.401  28.428  27.391  1.00  0.00     0.074 A 
ATOM     54  C   UNL A   1      42.022  30.929  29.637  1.00  0.00     0.029 A 
ATOM     55  N   UNL A   1      43.555  29.585  28.748  1.00  0.00    -0.354 N 
ATOM     56  N   UNL A   1      46.249  28.862  27.840  1.00  0.00    -0.248 NA
ATOM     57  C   UNL A   1      48.466  29.441  27.393  1.00  0.00     0.031 C 
ATOM     58  C   UNL A   1      43.220  31.642  29.519  1.00  0.00     0.029 A 
ATOM     59  C   UNL A   1      44.182  30.798  28.986  1.00  0.00     0.049 A 
ATOM     60  H   UNL A   1      43.991  28.789  28.365  1.00  0.00     0.167 HD
ATOM     61  C   UNL A   1      46.454  30.186  28.203  1.00  0.00     0.074 A 
ATOM     62  C   UNL A   1      47.847  30.481  27.934  1.00  0.00     0.031 C 
ATOM     63  C   UNL A   1      45.569  31.076  28.715  1.00  0.00     0.037 A 
BRANCH  50  64
ATOM     64  C   UNL A   1      39.842  28.847  29.370  1.00  0.00     0.064 A 
ATOM     65  C   UNL A   1      38.901  29.291  28.427  1.00  0.00     0.173 A 
ATOM     66  C   UNL A   1      39.399  28.627  30.683  1.00  0.00     0.173 A 
ATOM     67  F   UNL A   1      39.274  29.526  27.160  1.00  0.00    -0.203 F 
ATOM     68  C   UNL A   1      37.581  29.539  28.794  1.00  0.00     0.198 A 
ATOM     69  C   UNL A   1      38.071  28.845  31.038  1.00  0.00     0.198 A 
ATOM     70  F   UNL A   1      40.255  28.194  31.623  1.00  0.00    -0.203 F 
ATOM     71  F   UNL A   1      36.714  30.014  27.889  1.00  0.00    -0.200 F 
ATOM     72  C   UNL A   1      37.166  29.309  30.097  1.00  0.00     0.200 A 
ATOM     73  F   UNL A   1      37.667  28.609  32.295  1.00  0.00    -0.200 F 
ATOM     74  F   UNL A   1      35.893  29.544  30.448  1.00  0.00    -0.200 F 
ENDBRANCH  50  64
BRANCH  51  75
ATOM     75  C   UNL A   1      49.148  26.761  26.422  1.00  0.00     0.064 A 
ATOM     76  C   UNL A   1      49.511  26.949  25.081  1.00  0.00     0.173 A 
ATOM     77  C   UNL A   1      50.132  26.295  27.306  1.00  0.00     0.173 A 
ATOM     78  F   UNL A   1      48.600  27.373  24.195  1.00  0.00    -0.203 F 
ATOM     79  C   UNL A   1      50.803  26.670  24.640  1.00  0.00     0.198 A 
ATOM     80  C   UNL A   1      51.430  26.041  26.869  1.00  0.00     0.198 A 
ATOM     81  F   UNL A   1      49.836  26.103  28.601  1.00  0.00    -0.203 F 
ATOM     82  F   UNL A   1      51.113  26.821  23.346  1.00  0.00    -0.200 F 
ATOM     83  C   UNL A   1      51.762  26.221  25.535  1.00  0.00     0.200 A 
ATOM     84  F   UNL A   1      52.358  25.623  27.740  1.00  0.00    -0.200 F 
ATOM     85  F   UNL A   1      53.007  25.960  25.111  1.00  0.00    -0.200 F 
ENDBRANCH  51  75
BRANCH  63  86
ATOM     86  C   UNL A   1      46.085  32.446  29.045  1.00  0.00     0.064 A 
ATOM     87  C   UNL A   1      46.643  32.742  30.298  1.00  0.00     0.173 A 
ATOM     88  C   UNL A   1      46.058  33.466  28.081  1.00  0.00     0.173 A 
ATOM     89  F   UNL A   1      46.677  31.808  31.260  1.00  0.00    -0.203 F 
ATOM     90  C   UNL A   1      47.131  34.016  30.581  1.00  0.00     0.198 A 
ATOM     91  C   UNL A   1      46.575  34.729  28.358  1.00  0.00     0.198 A 
ATOM     92  F   UNL A   1      45.542  33.233  26.865  1.00  0.00    -0.203 F 
ATOM     93  F   UNL A   1      47.617  34.289  31.800  1.00  0.00    -0.200 F 
ATOM     94  C   UNL A   1      47.104  35.004  29.609  1.00  0.00     0.200 A 
ATOM     95  F   UNL A   1      46.560  35.679  27.412  1.00  0.00    -0.200 F 
ATOM     96  F   UNL A   1      47.582  36.226  29.881  1.00  0.00    -0.200 F 
ENDBRANCH  63  86
ENDBRANCH  37  38
ENDBRANCH  29  32
ENDBRANCH  27  28
ENDBRANCH  26  27
ENDBRANCH  25  26
ENDBRANCH  24  25
ENDBRANCH   1  24
TORSDOF 18
ENDMDL
MODEL 2
REMARK VINA RESULT:     -11.3      5.944     10.349
REMARK SMILES O=C(CSc1ccnc(C(=O)NCCCCCCNC(=O)c2ccc(-c3c4nc(c(-c5c(F)c(F)c(F)c(F)c5F)c5ccc([nH]5)c(-c5c(F)c(F)c(F)c(F)c5F)c5nc(c(-c6c(F)c(F)c(F)c(F)c6F)c6ccc3[nH]6)C=C5)C=C4)cc2)c1)NCC(F)(F)F
REMARK SMILES IDX 14 1 13 2 12 3 10 4 11 5 9 7 5 8 6 9 85 10 7 11 8 12 4 13
REMARK SMILES IDX 3 14 2 15 1 16 86 17 87 19 88 20 89 21 90 22 91 23 15 24
REMARK SMILES IDX 16 25 17 26 18 27 19 28 20 29 21 31 22 32 23 33 84 34 24 35
REMARK SMILES IDX 83 36 25 37 26 38 27 39 77 40 28 41 82 42 76 43 78 44 29 45
REMARK SMILES IDX 81 46 75 47 74 48 30 50 62 51 42 52 61 53 43 54 46 55 60 56
REMARK SMILES IDX 79 57 44 58 45 59 59 61 80 62 47 63 31 64 32 65 40 66 33 67
REMARK SMILES IDX 34 68 38 69 41 70 35 71 36 72 39 73 37 74 63 75 64 76 72 77
REMARK SMILES IDX 65 78 66 79 70 80 73 81 67 82 68 83 71 84 69 85 48 86 49 87
REMARK SMILES IDX 57 88 50 89 51 90 55 91 58 92 52 93 53 94 56 95 54 96
REMARK H PARENT 12 6 86 18 19 30 78 49 46 60
REMARK Flexibility Score: inf
ROOT
ATOM      1  C   UNL A   1      32.206  28.537  25.343  1.00  0.00     0.021 C 
ENDROOT
BRANCH   1   2
ATOM      2  C   UNL A   1      31.864  28.086  23.928  1.00  0.00     0.116 C 
BRANCH   2   3
ATOM      3  N   UNL A   1      30.481  27.705  23.740  1.00  0.00    -0.351 N 
ATOM      4  C   UNL A   1      29.792  26.548  24.047  1.00  0.00     0.269 C 
ATOM      5  O   UNL A   1      28.594  26.528  23.756  1.00  0.00    -0.268 OA
ATOM      6  H   UNL A   1      29.928  28.400  23.314  1.00  0.00     0.163 HD
BRANCH   4   7
ATOM      7  C   UNL A   1      30.433  25.329  24.667  1.00  0.00     0.129 A 
ATOM      8  C   UNL A   1      31.466  23.163  24.604  1.00  0.00     0.012 A 
ATOM      9  C   UNL A   1      31.415  23.135  25.996  1.00  0.00     0.035 A 
ATOM     10  C   UNL A   1      31.055  24.319  23.941  1.00  0.00     0.049 A 
ATOM     11  C   UNL A   1      30.881  24.224  26.658  1.00  0.00     0.113 A 
ATOM     12  N   UNL A   1      30.360  25.290  26.024  1.00  0.00    -0.251 NA
BRANCH   8  13
ATOM     13  S   UNL A   1      32.077  21.695  23.783  1.00  0.00    -0.116 SA
BRANCH  13  14
ATOM     14  C   UNL A   1      32.600  20.602  25.149  1.00  0.00     0.174 C 
BRANCH  14  15
ATOM     15  C   UNL A   1      32.671  19.127  24.784  1.00  0.00     0.230 C 
ATOM     16  O   UNL A   1      32.343  18.733  23.666  1.00  0.00    -0.274 OA
ATOM     17  N   UNL A   1      33.204  18.278  25.724  1.00  0.00    -0.346 N 
ATOM     18  H   UNL A   1      33.474  18.639  26.599  1.00  0.00     0.163 HD
BRANCH  17  19
ATOM     19  C   UNL A   1      33.383  16.847  25.453  1.00  0.00     0.231 C 
BRANCH  19  20
ATOM     20  C   UNL A   1      34.644  16.482  24.665  1.00  0.00     0.405 C 
ATOM     21  F   UNL A   1      34.330  16.156  23.389  1.00  0.00    -0.169 F 
ATOM     22  F   UNL A   1      35.498  17.531  24.616  1.00  0.00    -0.169 F 
ATOM     23  F   UNL A   1      35.307  15.438  25.206  1.00  0.00    -0.169 F 
ENDBRANCH  19  20
ENDBRANCH  17  19
ENDBRANCH  14  15
ENDBRANCH  13  14
ENDBRANCH   8  13
ENDBRANCH   4   7
ENDBRANCH   2   3
ENDBRANCH   1   2
BRANCH   1  24
ATOM     24  C   UNL A   1      32.353  30.041  25.566  1.00  0.00     0.002 C 
BRANCH  24  25
ATOM     25  C   UNL A   1      31.315  30.706  26.475  1.00  0.00     0.002 C 
BRANCH  25  26
ATOM     26  C   UNL A   1      31.375  32.231  26.593  1.00  0.00     0.021 C 
BRANCH  26  27
ATOM     27  C   UNL A   1      32.674  32.812  27.141  1.00  0.00     0.116 C 
BRANCH  27  28
ATOM     28  N   UNL A   1      32.509  34.154  27.676  1.00  0.00    -0.352 N 
ATOM     29  C   UNL A   1      33.162  34.775  28.707  1.00  0.00     0.251 C 
ATOM     30  H   UNL A   1      31.823  34.699  27.228  1.00  0.00     0.163 HD
ATOM     31  O   UNL A   1      32.767  35.874  29.108  1.00  0.00    -0.269 OA
BRANCH  29  32
ATOM     32  C   UNL A   1      34.322  34.140  29.367  1.00  0.00     0.039 A 
ATOM     33  C   UNL A   1      34.089  33.179  30.356  1.00  0.00     0.014 A 
ATOM     34  C   UNL A   1      35.634  34.504  29.047  1.00  0.00     0.014 A 
ATOM     35  C   UNL A   1      35.164  32.545  30.983  1.00  0.00     0.010 A 
ATOM     36  C   UNL A   1      36.706  33.824  29.625  1.00  0.00     0.010 A 
ATOM     37  C   UNL A   1      36.482  32.842  30.601  1.00  0.00    -0.014 A 
BRANCH  37  38
ATOM     38  C   UNL A   1      37.635  32.132  31.213  1.00  0.00     0.031 A 
ATOM     39  C   UNL A   1      38.117  32.507  32.586  1.00  0.00     0.074 A 
ATOM     40  C   UNL A   1      38.287  31.189  30.506  1.00  0.00     0.049 A 
ATOM     41  N   UNL A   1      39.140  32.046  33.261  1.00  0.00    -0.248 NA
ATOM     42  C   UNL A   1      37.365  33.560  33.283  1.00  0.00     0.031 C 
ATOM     43  C   UNL A   1      37.944  30.765  29.148  1.00  0.00     0.029 A 
ATOM     44  N   UNL A   1      39.380  30.422  30.828  1.00  0.00    -0.354 N 
ATOM     45  C   UNL A   1      39.161  32.760  34.452  1.00  0.00     0.074 A 
ATOM     46  C   UNL A   1      38.081  33.721  34.386  1.00  0.00     0.031 C 
ATOM     47  C   UNL A   1      38.797  29.804  28.759  1.00  0.00     0.029 A 
ATOM     48  C   UNL A   1      39.768  29.569  29.825  1.00  0.00     0.049 A 
ATOM     49  H   UNL A   1      39.842  30.480  31.696  1.00  0.00     0.167 HD
ATOM     50  C   UNL A   1      39.994  32.615  35.511  1.00  0.00     0.037 A 
ATOM     51  C   UNL A   1      40.795  28.700  29.766  1.00  0.00     0.037 A 
ATOM     52  C   UNL A   1      41.055  31.643  35.581  1.00  0.00     0.049 A 
ATOM     53  C   UNL A   1      41.707  28.559  30.954  1.00  0.00     0.074 A 
ATOM     54  C   UNL A   1      41.911  31.374  36.635  1.00  0.00     0.029 A 
ATOM     55  N   UNL A   1      41.408  30.785  34.550  1.00  0.00    -0.354 N 
ATOM     56  N   UNL A   1      41.676  29.191  32.101  1.00  0.00    -0.248 NA
ATOM     57  C   UNL A   1      42.795  27.577  30.840  1.00  0.00     0.031 C 
ATOM     58  C   UNL A   1      42.813  30.386  36.225  1.00  0.00     0.029 A 
ATOM     59  C   UNL A   1      42.486  30.003  34.934  1.00  0.00     0.049 A 
ATOM     60  H   UNL A   1      40.959  30.738  33.675  1.00  0.00     0.167 HD
ATOM     61  C   UNL A   1      42.717  28.668  32.855  1.00  0.00     0.074 A 
ATOM     62  C   UNL A   1      43.355  27.656  32.039  1.00  0.00     0.031 C 
ATOM     63  C   UNL A   1      43.109  28.996  34.111  1.00  0.00     0.037 A 
BRANCH  50  64
ATOM     64  C   UNL A   1      39.792  33.533  36.682  1.00  0.00     0.064 A 
ATOM     65  C   UNL A   1      40.460  34.765  36.777  1.00  0.00     0.173 A 
ATOM     66  C   UNL A   1      38.899  33.193  37.710  1.00  0.00     0.173 A 
ATOM     67  F   UNL A   1      41.331  35.135  35.827  1.00  0.00    -0.203 F 
ATOM     68  C   UNL A   1      40.269  35.602  37.873  1.00  0.00     0.198 A 
ATOM     69  C   UNL A   1      38.687  34.047  38.788  1.00  0.00     0.198 A 
ATOM     70  F   UNL A   1      38.227  32.032  37.666  1.00  0.00    -0.203 F 
ATOM     71  F   UNL A   1      40.959  36.747  37.967  1.00  0.00    -0.200 F 
ATOM     72  C   UNL A   1      39.377  35.246  38.874  1.00  0.00     0.200 A 
ATOM     73  F   UNL A   1      37.814  33.709  39.748  1.00  0.00    -0.200 F 
ATOM     74  F   UNL A   1      39.191  36.055  39.926  1.00  0.00    -0.200 F 
ENDBRANCH  50  64
BRANCH  51  75
ATOM     75  C   UNL A   1      40.996  27.877  28.546  1.00  0.00     0.064 A 
ATOM     76  C   UNL A   1      40.346  26.645  28.395  1.00  0.00     0.173 A 
ATOM     77  C   UNL A   1      41.830  28.309  27.504  1.00  0.00     0.173 A 
ATOM     78  F   UNL A   1      39.555  26.181  29.372  1.00  0.00    -0.203 F 
ATOM     79  C   UNL A   1      40.533  25.869  27.253  1.00  0.00     0.198 A 
ATOM     80  C   UNL A   1      41.995  27.544  26.351  1.00  0.00     0.198 A 
ATOM     81  F   UNL A   1      42.472  29.484  27.599  1.00  0.00    -0.203 F 
ATOM     82  F   UNL A   1      39.930  24.677  27.150  1.00  0.00    -0.200 F 
ATOM     83  C   UNL A   1      41.353  26.321  26.230  1.00  0.00     0.200 A 
ATOM     84  F   UNL A   1      42.776  27.992  25.359  1.00  0.00    -0.200 F 
ATOM     85  F   UNL A   1      41.526  25.578  25.129  1.00  0.00    -0.200 F 
ENDBRANCH  51  75
BRANCH  63  86
ATOM     86  C   UNL A   1      44.264  28.235  34.692  1.00  0.00     0.064 A 
ATOM     87  C   UNL A   1      45.583  28.699  34.584  1.00  0.00     0.173 A 
ATOM     88  C   UNL A   1      44.043  27.043  35.402  1.00  0.00     0.173 A 
ATOM     89  F   UNL A   1      45.849  29.823  33.902  1.00  0.00    -0.203 F 
ATOM     90  C   UNL A   1      46.641  27.986  35.144  1.00  0.00     0.198 A 
ATOM     91  C   UNL A   1      45.100  26.350  35.986  1.00  0.00     0.198 A 
ATOM     92  F   UNL A   1      42.800  26.560  35.540  1.00  0.00    -0.203 F 
ATOM     93  F   UNL A   1      47.898  28.425  34.987  1.00  0.00    -0.200 F 
ATOM     94  C   UNL A   1      46.398  26.818  35.849  1.00  0.00     0.200 A 
ATOM     95  F   UNL A   1      44.861  25.228  36.679  1.00  0.00    -0.200 F 
ATOM     96  F   UNL A   1      47.416  26.138  36.394  1.00  0.00    -0.200 F 
ENDBRANCH  63  86
ENDBRANCH  37  38
ENDBRANCH  29  32
ENDBRANCH  27  28
ENDBRANCH  26  27
ENDBRANCH  25  26
ENDBRANCH  24  25
ENDBRANCH   1  24
TORSDOF 18
ENDMDL
MODEL 3
REMARK VINA RESULT:     -11.2      5.721     11.311
REMARK SMILES O=C(CSc1ccnc(C(=O)NCCCCCCNC(=O)c2ccc(-c3c4nc(c(-c5c(F)c(F)c(F)c(F)c5F)c5ccc([nH]5)c(-c5c(F)c(F)c(F)c(F)c5F)c5nc(c(-c6c(F)c(F)c(F)c(F)c6F)c6ccc3[nH]6)C=C5)C=C4)cc2)c1)NCC(F)(F)F
REMARK SMILES IDX 14 1 13 2 12 3 10 4 11 5 9 7 5 8 6 9 85 10 7 11 8 12 4 13
REMARK SMILES IDX 3 14 2 15 1 16 86 17 87 19 88 20 89 21 90 22 91 23 15 24
REMARK SMILES IDX 16 25 17 26 18 27 19 28 20 29 21 31 22 32 23 33 84 34 24 35
REMARK SMILES IDX 83 36 25 37 26 38 27 39 77 40 28 41 82 42 76 43 78 44 29 45
REMARK SMILES IDX 81 46 75 47 74 48 30 50 62 51 42 52 61 53 43 54 46 55 60 56
REMARK SMILES IDX 79 57 44 58 45 59 59 61 80 62 47 63 31 64 32 65 40 66 33 67
REMARK SMILES IDX 34 68 38 69 41 70 35 71 36 72 39 73 37 74 63 75 64 76 72 77
REMARK SMILES IDX 65 78 66 79 70 80 73 81 67 82 68 83 71 84 69 85 48 86 49 87
REMARK SMILES IDX 57 88 50 89 51 90 55 91 58 92 52 93 53 94 56 95 54 96
REMARK H PARENT 12 6 86 18 19 30 78 49 46 60
REMARK Flexibility Score: inf
ROOT
ATOM      1  C   UNL A   1      32.002  28.583  25.166  1.00  0.00     0.021 C 
ENDROOT
BRANCH   1   2
ATOM      2  C   UNL A   1      31.524  28.210  23.768  1.00  0.00     0.116 C 
BRANCH   2   3
ATOM      3  N   UNL A   1      30.136  27.809  23.697  1.00  0.00    -0.351 N 
ATOM      4  C   UNL A   1      29.504  26.615  23.986  1.00  0.00     0.269 C 
ATOM      5  O   UNL A   1      28.282  26.586  23.822  1.00  0.00    -0.268 OA
ATOM      6  H   UNL A   1      29.529  28.519  23.386  1.00  0.00     0.163 HD
BRANCH   4   7
ATOM      7  C   UNL A   1      30.228  25.370  24.440  1.00  0.00     0.129 A 
ATOM      8  C   UNL A   1      31.451  23.334  24.093  1.00  0.00     0.012 A 
ATOM      9  C   UNL A   1      31.354  23.082  25.460  1.00  0.00     0.035 A 
ATOM     10  C   UNL A   1      30.963  24.543  23.598  1.00  0.00     0.049 A 
ATOM     11  C   UNL A   1      30.703  24.004  26.256  1.00  0.00     0.113 A 
ATOM     12  N   UNL A   1      30.111  25.111  25.770  1.00  0.00    -0.251 NA
BRANCH   8  13
ATOM     13  S   UNL A   1      32.218  22.069  23.085  1.00  0.00    -0.116 SA
BRANCH  13  14
ATOM     14  C   UNL A   1      32.425  20.655  24.221  1.00  0.00     0.174 C 
BRANCH  14  15
ATOM     15  C   UNL A   1      33.854  20.426  24.691  1.00  0.00     0.230 C 
ATOM     16  O   UNL A   1      34.363  19.307  24.653  1.00  0.00    -0.274 OA
ATOM     17  N   UNL A   1      34.572  21.536  25.064  1.00  0.00    -0.346 N 
ATOM     18  H   UNL A   1      34.132  22.417  25.059  1.00  0.00     0.163 HD
BRANCH  17  19
ATOM     19  C   UNL A   1      35.979  21.441  25.468  1.00  0.00     0.231 C 
BRANCH  19  20
ATOM     20  C   UNL A   1      36.956  22.285  24.646  1.00  0.00     0.405 C 
ATOM     21  F   UNL A   1      38.221  21.821  24.787  1.00  0.00    -0.169 F 
ATOM     22  F   UNL A   1      36.648  22.226  23.330  1.00  0.00    -0.169 F 
ATOM     23  F   UNL A   1      36.951  23.585  25.012  1.00  0.00    -0.169 F 
ENDBRANCH  19  20
ENDBRANCH  17  19
ENDBRANCH  14  15
ENDBRANCH  13  14
ENDBRANCH   8  13
ENDBRANCH   4   7
ENDBRANCH   2   3
ENDBRANCH   1   2
BRANCH   1  24
ATOM     24  C   UNL A   1      32.215  30.070  25.442  1.00  0.00     0.002 C 
BRANCH  24  25
ATOM     25  C   UNL A   1      31.478  30.658  26.650  1.00  0.00     0.002 C 
BRANCH  25  26
ATOM     26  C   UNL A   1      31.382  32.184  26.725  1.00  0.00     0.021 C 
BRANCH  26  27
ATOM     27  C   UNL A   1      32.664  32.922  27.096  1.00  0.00     0.116 C 
BRANCH  27  28
ATOM     28  N   UNL A   1      32.416  34.261  27.602  1.00  0.00    -0.352 N 
ATOM     29  C   UNL A   1      33.009  34.933  28.637  1.00  0.00     0.251 C 
ATOM     30  H   UNL A   1      31.713  34.762  27.127  1.00  0.00     0.163 HD
ATOM     31  O   UNL A   1      32.547  36.016  29.008  1.00  0.00    -0.269 OA
BRANCH  29  32
ATOM     32  C   UNL A   1      34.184  34.370  29.337  1.00  0.00     0.039 A 
ATOM     33  C   UNL A   1      33.982  33.672  30.532  1.00  0.00     0.014 A 
ATOM     34  C   UNL A   1      35.482  34.553  28.847  1.00  0.00     0.014 A 
ATOM     35  C   UNL A   1      35.070  33.111  31.205  1.00  0.00     0.010 A 
ATOM     36  C   UNL A   1      36.558  33.936  29.484  1.00  0.00     0.010 A 
ATOM     37  C   UNL A   1      36.363  33.213  30.670  1.00  0.00    -0.014 A 
BRANCH  37  38
ATOM     38  C   UNL A   1      37.522  32.567  31.341  1.00  0.00     0.031 A 
ATOM     39  C   UNL A   1      38.234  31.416  30.687  1.00  0.00     0.074 A 
ATOM     40  C   UNL A   1      37.896  32.980  32.567  1.00  0.00     0.049 A 
ATOM     41  N   UNL A   1      39.223  30.688  31.141  1.00  0.00    -0.248 NA
ATOM     42  C   UNL A   1      37.753  31.013  29.358  1.00  0.00     0.031 C 
ATOM     43  C   UNL A   1      37.258  34.058  33.324  1.00  0.00     0.029 A 
ATOM     44  N   UNL A   1      38.896  32.536  33.397  1.00  0.00    -0.354 N 
ATOM     45  C   UNL A   1      39.472  29.735  30.162  1.00  0.00     0.074 A 
ATOM     46  C   UNL A   1      38.498  29.945  29.112  1.00  0.00     0.031 C 
ATOM     47  C   UNL A   1      37.892  34.203  34.499  1.00  0.00     0.029 A 
ATOM     48  C   UNL A   1      38.956  33.207  34.593  1.00  0.00     0.049 A 
ATOM     49  H   UNL A   1      39.510  31.805  33.157  1.00  0.00     0.167 HD
ATOM     50  C   UNL A   1      40.438  28.784  30.132  1.00  0.00     0.037 A 
ATOM     51  C   UNL A   1      39.772  33.035  35.650  1.00  0.00     0.037 A 
ATOM     52  C   UNL A   1      41.419  28.592  31.168  1.00  0.00     0.049 A 
ATOM     53  C   UNL A   1      40.834  31.971  35.594  1.00  0.00     0.074 A 
ATOM     54  C   UNL A   1      42.476  27.700  31.201  1.00  0.00     0.029 A 
ATOM     55  N   UNL A   1      41.458  29.303  32.359  1.00  0.00    -0.354 N 
ATOM     56  N   UNL A   1      41.104  31.121  34.634  1.00  0.00    -0.248 NA
ATOM     57  C   UNL A   1      41.710  31.848  36.768  1.00  0.00     0.031 C 
ATOM     58  C   UNL A   1      43.127  27.837  32.433  1.00  0.00     0.029 A 
ATOM     59  C   UNL A   1      42.506  28.851  33.146  1.00  0.00     0.049 A 
ATOM     60  H   UNL A   1      40.834  30.022  32.609  1.00  0.00     0.167 HD
ATOM     61  C   UNL A   1      42.193  30.381  35.073  1.00  0.00     0.074 A 
ATOM     62  C   UNL A   1      42.543  30.892  36.382  1.00  0.00     0.031 C 
ATOM     63  C   UNL A   1      42.845  29.371  34.446  1.00  0.00     0.037 A 
BRANCH  50  64
ATOM     64  C   UNL A   1      40.477  27.874  28.937  1.00  0.00     0.064 A 
ATOM     65  C   UNL A   1      39.728  26.687  28.891  1.00  0.00     0.173 A 
ATOM     66  C   UNL A   1      41.250  28.204  27.814  1.00  0.00     0.173 A 
ATOM     67  F   UNL A   1      38.979  26.319  29.941  1.00  0.00    -0.203 F 
ATOM     68  C   UNL A   1      39.781  25.849  27.780  1.00  0.00     0.198 A 
ATOM     69  C   UNL A   1      41.275  27.380  26.693  1.00  0.00     0.198 A 
ATOM     70  F   UNL A   1      41.978  29.332  27.801  1.00  0.00    -0.203 F 
ATOM     71  F   UNL A   1      39.100  24.695  27.781  1.00  0.00    -0.200 F 
ATOM     72  C   UNL A   1      40.549  26.200  26.679  1.00  0.00     0.200 A 
ATOM     73  F   UNL A   1      42.006  27.727  25.623  1.00  0.00    -0.200 F 
ATOM     74  F   UNL A   1      40.595  25.394  25.609  1.00  0.00    -0.200 F 
ENDBRANCH  50  64
BRANCH  51  75
ATOM     75  C   UNL A   1      39.631  33.912  36.841  1.00  0.00     0.064 A 
ATOM     76  C   UNL A   1      40.282  35.151  36.903  1.00  0.00     0.173 A 
ATOM     77  C   UNL A   1      38.835  33.536  37.934  1.00  0.00     0.173 A 
ATOM     78  F   UNL A   1      41.069  35.544  35.892  1.00  0.00    -0.203 F 
ATOM     79  C   UNL A   1      40.154  35.976  38.019  1.00  0.00     0.198 A 
ATOM     80  C   UNL A   1      38.686  34.374  39.037  1.00  0.00     0.198 A 
ATOM     81  F   UNL A   1      38.187  32.361  37.921  1.00  0.00    -0.203 F 
ATOM     82  F   UNL A   1      40.818  37.138  38.069  1.00  0.00    -0.200 F 
ATOM     83  C   UNL A   1      39.353  35.589  39.082  1.00  0.00     0.200 A 
ATOM     84  F   UNL A   1      37.899  34.003  40.056  1.00  0.00    -0.200 F 
ATOM     85  F   UNL A   1      39.224  36.387  40.151  1.00  0.00    -0.200 F 
ENDBRANCH  51  75
BRANCH  63  86
ATOM     86  C   UNL A   1      44.022  28.768  35.156  1.00  0.00     0.064 A 
ATOM     87  C   UNL A   1      45.322  29.268  34.984  1.00  0.00     0.173 A 
ATOM     88  C   UNL A   1      43.842  27.701  36.050  1.00  0.00     0.173 A 
ATOM     89  F   UNL A   1      45.550  30.275  34.128  1.00  0.00    -0.203 F 
ATOM     90  C   UNL A   1      46.400  28.706  35.663  1.00  0.00     0.198 A 
ATOM     91  C   UNL A   1      44.918  27.162  36.750  1.00  0.00     0.198 A 
ATOM     92  F   UNL A   1      42.618  27.191  36.255  1.00  0.00    -0.203 F 
ATOM     93  F   UNL A   1      47.639  29.169  35.448  1.00  0.00    -0.200 F 
ATOM     94  C   UNL A   1      46.196  27.660  36.550  1.00  0.00     0.200 A 
ATOM     95  F   UNL A   1      44.716  26.160  37.617  1.00  0.00    -0.200 F 
ATOM     96  F   UNL A   1      47.234  27.126  37.209  1.00  0.00    -0.200 F 
ENDBRANCH  63  86
ENDBRANCH  37  38
ENDBRANCH  29  32
ENDBRANCH  27  28
ENDBRANCH  26  27
ENDBRANCH  25  26
ENDBRANCH  24  25
ENDBRANCH   1  24
TORSDOF 18
ENDMDL
