MODEL 1
REMARK VINA RESULT:     -11.9      0.000      0.000
REMARK SMILES N#Cc1ccn2cc(C(=O)NCCCCCCNC(=O)c3ccc(-c4c5nc(c(-c6c(F)c(F)c(F)c(F)c6F)c6ccc([nH]6)c(-c6c(F)c(F)c(F)c(F)c6F)c6nc(c(-c7c(F)c(F)c(F)c(F)c7F)c7ccc4[nH]7)C=C6)C=C5)cc3)nc2c1
REMARK SMILES IDX 15 1 14 2 13 3 12 4 11 5 9 6 10 7 8 9 3 10 4 11 86 12 5 13
REMARK SMILES IDX 85 14 6 15 84 16 7 17 2 18 1 19 16 20 17 21 18 22 19 23
REMARK SMILES IDX 20 25 21 26 22 27 83 28 23 29 82 30 24 31 25 32 26 33 76 34
REMARK SMILES IDX 27 35 81 36 75 37 77 38 28 39 80 40 74 41 73 42 29 44 61 45
REMARK SMILES IDX 41 46 60 47 42 48 45 49 59 50 78 51 43 52 44 53 58 55 79 56
REMARK SMILES IDX 46 57 30 58 31 59 39 60 32 61 33 62 37 63 40 64 34 65 35 66
REMARK SMILES IDX 38 67 36 68 62 69 63 70 71 71 64 72 65 73 69 74 72 75 66 76
REMARK SMILES IDX 67 77 70 78 68 79 47 80 48 81 56 82 49 83 50 84 54 85 57 86
REMARK SMILES IDX 51 87 52 88 55 89 53 90
REMARK H PARENT 11 8 18 24 77 43 45 54
REMARK Flexibility Score: inf
ROOT
ATOM      1  C   UNL A   1      41.273  20.779  26.925  1.00  0.00     0.002 C 
ENDROOT
BRANCH   1   2
ATOM      2  C   UNL A   1      40.290  21.784  26.311  1.00  0.00     0.002 C 
BRANCH   2   3
ATOM      3  C   UNL A   1      38.925  21.203  25.931  1.00  0.00     0.021 C 
BRANCH   3   4
ATOM      4  C   UNL A   1      37.851  22.265  25.704  1.00  0.00     0.116 C 
BRANCH   4   5
ATOM      5  N   UNL A   1      37.650  22.517  24.286  1.00  0.00    -0.351 N 
ATOM      6  C   UNL A   1      36.540  22.926  23.591  1.00  0.00     0.271 C 
ATOM      7  O   UNL A   1      36.643  23.039  22.361  1.00  0.00    -0.267 OA
ATOM      8  H   UNL A   1      38.447  22.369  23.729  1.00  0.00     0.163 HD
BRANCH   6   9
ATOM      9  C   UNL A   1      35.285  23.237  24.278  1.00  0.00     0.147 A 
ATOM     10  C   UNL A   1      31.379  23.425  26.465  1.00  0.00     0.057 A 
ATOM     11  C   UNL A   1      31.734  24.843  26.550  1.00  0.00     0.038 A 
ATOM     12  C   UNL A   1      32.168  22.536  25.836  1.00  0.00     0.067 A 
ATOM     13  C   UNL A   1      32.885  25.260  25.989  1.00  0.00     0.094 A 
ATOM     14  C   UNL A   1      33.380  22.982  25.248  1.00  0.00     0.138 A 
ATOM     15  N   UNL A   1      33.698  24.329  25.349  1.00  0.00    -0.306 N 
ATOM     16  N   UNL A   1      34.305  22.320  24.601  1.00  0.00    -0.223 NA
ATOM     17  C   UNL A   1      34.905  24.493  24.724  1.00  0.00     0.127 A 
BRANCH  10  18
ATOM     18  C   UNL A   1      30.076  22.962  27.098  1.00  0.00     0.099 C 
ATOM     19  N   UNL A   1      28.996  22.578  27.622  1.00  0.00    -0.192 NA
ENDBRANCH  10  18
ENDBRANCH   6   9
ENDBRANCH   4   5
ENDBRANCH   3   4
ENDBRANCH   2   3
ENDBRANCH   1   2
BRANCH   1  20
ATOM     20  C   UNL A   1      41.525  19.511  26.097  1.00  0.00     0.021 C 
BRANCH  20  21
ATOM     21  C   UNL A   1      42.892  18.863  26.331  1.00  0.00     0.116 C 
BRANCH  21  22
ATOM     22  N   UNL A   1      43.809  19.063  25.227  1.00  0.00    -0.352 N 
ATOM     23  C   UNL A   1      44.549  20.109  24.757  1.00  0.00     0.251 C 
ATOM     24  H   UNL A   1      43.927  18.248  24.687  1.00  0.00     0.163 HD
ATOM     25  O   UNL A   1      45.299  19.857  23.810  1.00  0.00    -0.269 OA
BRANCH  23  26
ATOM     26  C   UNL A   1      44.483  21.510  25.255  1.00  0.00     0.039 A 
ATOM     27  C   UNL A   1      45.136  22.002  26.383  1.00  0.00     0.014 A 
ATOM     28  C   UNL A   1      43.611  22.373  24.559  1.00  0.00     0.014 A 
ATOM     29  C   UNL A   1      44.850  23.279  26.859  1.00  0.00     0.010 A 
ATOM     30  C   UNL A   1      43.332  23.656  25.024  1.00  0.00     0.010 A 
ATOM     31  C   UNL A   1      43.909  24.088  26.210  1.00  0.00    -0.014 A 
BRANCH  31  32
ATOM     32  C   UNL A   1      43.576  25.360  26.846  1.00  0.00     0.031 A 
ATOM     33  C   UNL A   1      44.528  26.484  26.616  1.00  0.00     0.074 A 
ATOM     34  C   UNL A   1      42.487  25.561  27.615  1.00  0.00     0.049 A 
ATOM     35  N   UNL A   1      45.297  27.069  27.479  1.00  0.00    -0.248 NA
ATOM     36  C   UNL A   1      44.691  26.969  25.240  1.00  0.00     0.031 C 
ATOM     37  C   UNL A   1      41.297  24.725  27.784  1.00  0.00     0.029 A 
ATOM     38  N   UNL A   1      42.212  26.645  28.395  1.00  0.00    -0.354 N 
ATOM     39  C   UNL A   1      45.950  28.090  26.792  1.00  0.00     0.074 A 
ATOM     40  C   UNL A   1      45.604  27.929  25.401  1.00  0.00     0.031 C 
ATOM     41  C   UNL A   1      40.348  25.425  28.450  1.00  0.00     0.029 A 
ATOM     42  C   UNL A   1      40.920  26.685  28.890  1.00  0.00     0.049 A 
ATOM     43  H   UNL A   1      42.879  27.342  28.593  1.00  0.00     0.167 HD
ATOM     44  C   UNL A   1      46.613  29.090  27.437  1.00  0.00     0.037 A 
ATOM     45  C   UNL A   1      40.355  27.711  29.572  1.00  0.00     0.037 A 
ATOM     46  C   UNL A   1      46.944  28.733  28.790  1.00  0.00     0.049 A 
ATOM     47  C   UNL A   1      41.449  28.521  30.159  1.00  0.00     0.074 A 
ATOM     48  C   UNL A   1      47.715  27.744  29.370  1.00  0.00     0.029 A 
ATOM     49  N   UNL A   1      46.199  29.253  29.819  1.00  0.00    -0.354 N 
ATOM     50  N   UNL A   1      42.213  28.122  31.136  1.00  0.00    -0.248 NA
ATOM     51  C   UNL A   1      41.960  29.637  29.378  1.00  0.00     0.031 C 
ATOM     52  C   UNL A   1      47.014  27.378  30.558  1.00  0.00     0.029 A 
ATOM     53  C   UNL A   1      45.888  28.196  30.636  1.00  0.00     0.049 A 
ATOM     54  H   UNL A   1      45.940  30.193  29.945  1.00  0.00     0.167 HD
ATOM     55  C   UNL A   1      43.462  28.641  30.840  1.00  0.00     0.074 A 
ATOM     56  C   UNL A   1      43.227  29.636  29.798  1.00  0.00     0.031 C 
ATOM     57  C   UNL A   1      44.604  28.031  31.270  1.00  0.00     0.037 A 
BRANCH  44  58
ATOM     58  C   UNL A   1      46.718  30.507  26.933  1.00  0.00     0.064 A 
ATOM     59  C   UNL A   1      47.964  31.166  26.943  1.00  0.00     0.173 A 
ATOM     60  C   UNL A   1      45.593  31.332  26.723  1.00  0.00     0.173 A 
ATOM     61  F   UNL A   1      49.097  30.481  27.160  1.00  0.00    -0.203 F 
ATOM     62  C   UNL A   1      48.067  32.555  26.819  1.00  0.00     0.198 A 
ATOM     63  C   UNL A   1      45.704  32.712  26.548  1.00  0.00     0.198 A 
ATOM     64  F   UNL A   1      44.345  30.854  26.788  1.00  0.00    -0.203 F 
ATOM     65  F   UNL A   1      49.260  33.149  26.953  1.00  0.00    -0.200 F 
ATOM     66  C   UNL A   1      46.936  33.326  26.626  1.00  0.00     0.200 A 
ATOM     67  F   UNL A   1      44.595  33.446  26.382  1.00  0.00    -0.200 F 
ATOM     68  F   UNL A   1      47.025  34.661  26.567  1.00  0.00    -0.200 F 
ENDBRANCH  44  58
BRANCH  45  69
ATOM     69  C   UNL A   1      38.976  28.234  29.451  1.00  0.00     0.064 A 
ATOM     70  C   UNL A   1      38.185  28.448  30.591  1.00  0.00     0.173 A 
ATOM     71  C   UNL A   1      38.531  28.832  28.255  1.00  0.00     0.173 A 
ATOM     72  F   UNL A   1      38.563  27.947  31.776  1.00  0.00    -0.203 F 
ATOM     73  C   UNL A   1      37.041  29.248  30.548  1.00  0.00     0.198 A 
ATOM     74  C   UNL A   1      37.385  29.624  28.211  1.00  0.00     0.198 A 
ATOM     75  F   UNL A   1      39.258  28.744  27.131  1.00  0.00    -0.203 F 
ATOM     76  F   UNL A   1      36.351  29.492  31.671  1.00  0.00    -0.200 F 
ATOM     77  C   UNL A   1      36.650  29.848  29.362  1.00  0.00     0.200 A 
ATOM     78  F   UNL A   1      37.040  30.230  27.067  1.00  0.00    -0.200 F 
ATOM     79  F   UNL A   1      35.596  30.674  29.335  1.00  0.00    -0.200 F 
ENDBRANCH  45  69
BRANCH  57  80
ATOM     80  C   UNL A   1      44.474  26.925  32.276  1.00  0.00     0.064 A 
ATOM     81  C   UNL A   1      44.327  25.569  31.930  1.00  0.00     0.173 A 
ATOM     82  C   UNL A   1      44.648  27.229  33.633  1.00  0.00     0.173 A 
ATOM     83  F   UNL A   1      44.263  25.188  30.648  1.00  0.00    -0.203 F 
ATOM     84  C   UNL A   1      44.306  24.574  32.906  1.00  0.00     0.198 A 
ATOM     85  C   UNL A   1      44.662  26.230  34.601  1.00  0.00     0.198 A 
ATOM     86  F   UNL A   1      44.852  28.500  34.016  1.00  0.00    -0.203 F 
ATOM     87  F   UNL A   1      44.153  23.289  32.552  1.00  0.00    -0.200 F 
ATOM     88  C   UNL A   1      44.480  24.905  34.239  1.00  0.00     0.200 A 
ATOM     89  F   UNL A   1      44.882  26.548  35.884  1.00  0.00    -0.200 F 
ATOM     90  F   UNL A   1      44.503  23.943  35.174  1.00  0.00    -0.200 F 
ENDBRANCH  57  80
ENDBRANCH  31  32
ENDBRANCH  23  26
ENDBRANCH  21  22
ENDBRANCH  20  21
ENDBRANCH   1  20
TORSDOF 14
ENDMDL
MODEL 2
REMARK VINA RESULT:     -11.5      3.224      4.592
REMARK SMILES N#Cc1ccn2cc(C(=O)NCCCCCCNC(=O)c3ccc(-c4c5nc(c(-c6c(F)c(F)c(F)c(F)c6F)c6ccc([nH]6)c(-c6c(F)c(F)c(F)c(F)c6F)c6nc(c(-c7c(F)c(F)c(F)c(F)c7F)c7ccc4[nH]7)C=C6)C=C5)cc3)nc2c1
REMARK SMILES IDX 15 1 14 2 13 3 12 4 11 5 9 6 10 7 8 9 3 10 4 11 86 12 5 13
REMARK SMILES IDX 85 14 6 15 84 16 7 17 2 18 1 19 16 20 17 21 18 22 19 23
REMARK SMILES IDX 20 25 21 26 22 27 83 28 23 29 82 30 24 31 25 32 26 33 76 34
REMARK SMILES IDX 27 35 81 36 75 37 77 38 28 39 80 40 74 41 73 42 29 44 61 45
REMARK SMILES IDX 41 46 60 47 42 48 45 49 59 50 78 51 43 52 44 53 58 55 79 56
REMARK SMILES IDX 46 57 30 58 31 59 39 60 32 61 33 62 37 63 40 64 34 65 35 66
REMARK SMILES IDX 38 67 36 68 62 69 63 70 71 71 64 72 65 73 69 74 72 75 66 76
REMARK SMILES IDX 67 77 70 78 68 79 47 80 48 81 56 82 49 83 50 84 54 85 57 86
REMARK SMILES IDX 51 87 52 88 55 89 53 90
REMARK H PARENT 11 8 18 24 77 43 45 54
REMARK Flexibility Score: inf
ROOT
ATOM      1  C   UNL A   1      35.837  21.521  25.335  1.00  0.00     0.002 C 
ENDROOT
BRANCH   1   2
ATOM      2  C   UNL A   1      35.470  22.669  26.282  1.00  0.00     0.002 C 
BRANCH   2   3
ATOM      3  C   UNL A   1      35.116  23.989  25.591  1.00  0.00     0.021 C 
BRANCH   3   4
ATOM      4  C   UNL A   1      34.249  23.814  24.346  1.00  0.00     0.116 C 
BRANCH   4   5
ATOM      5  N   UNL A   1      32.835  23.914  24.669  1.00  0.00    -0.351 N 
ATOM      6  C   UNL A   1      31.851  22.959  24.717  1.00  0.00     0.271 C 
ATOM      7  O   UNL A   1      30.704  23.331  25.003  1.00  0.00    -0.267 OA
ATOM      8  H   UNL A   1      32.531  24.822  24.893  1.00  0.00     0.163 HD
BRANCH   6   9
ATOM      9  C   UNL A   1      32.148  21.549  24.459  1.00  0.00     0.147 A 
ATOM     10  C   UNL A   1      32.968  17.143  24.428  1.00  0.00     0.057 A 
ATOM     11  C   UNL A   1      32.797  17.334  22.987  1.00  0.00     0.038 A 
ATOM     12  C   UNL A   1      32.874  18.170  25.292  1.00  0.00     0.067 A 
ATOM     13  C   UNL A   1      32.531  18.569  22.521  1.00  0.00     0.094 A 
ATOM     14  C   UNL A   1      32.592  19.469  24.795  1.00  0.00     0.138 A 
ATOM     15  N   UNL A   1      32.427  19.622  23.425  1.00  0.00    -0.306 N 
ATOM     16  N   UNL A   1      32.445  20.607  25.424  1.00  0.00    -0.223 NA
ATOM     17  C   UNL A   1      32.153  20.946  23.211  1.00  0.00     0.127 A 
BRANCH  10  18
ATOM     18  C   UNL A   1      33.272  15.747  24.946  1.00  0.00     0.099 C 
ATOM     19  N   UNL A   1      33.524  14.589  25.376  1.00  0.00    -0.192 NA
ENDBRANCH  10  18
ENDBRANCH   6   9
ENDBRANCH   4   5
ENDBRANCH   3   4
ENDBRANCH   2   3
ENDBRANCH   1   2
BRANCH   1  20
ATOM     20  C   UNL A   1      37.338  21.224  25.207  1.00  0.00     0.021 C 
BRANCH  20  21
ATOM     21  C   UNL A   1      38.250  22.326  25.749  1.00  0.00     0.116 C 
BRANCH  21  22
ATOM     22  N   UNL A   1      39.375  21.810  26.503  1.00  0.00    -0.352 N 
ATOM     23  C   UNL A   1      40.336  22.352  27.307  1.00  0.00     0.251 C 
ATOM     24  H   UNL A   1      39.468  20.834  26.414  1.00  0.00     0.163 HD
ATOM     25  O   UNL A   1      41.097  21.549  27.855  1.00  0.00    -0.269 OA
BRANCH  23  26
ATOM     26  C   UNL A   1      40.563  23.807  27.526  1.00  0.00     0.039 A 
ATOM     27  C   UNL A   1      41.519  24.360  28.375  1.00  0.00     0.014 A 
ATOM     28  C   UNL A   1      39.665  24.677  26.874  1.00  0.00     0.014 A 
ATOM     29  C   UNL A   1      41.513  25.726  28.644  1.00  0.00     0.010 A 
ATOM     30  C   UNL A   1      39.664  26.047  27.130  1.00  0.00     0.010 A 
ATOM     31  C   UNL A   1      40.553  26.563  28.062  1.00  0.00    -0.014 A 
BRANCH  31  32
ATOM     32  C   UNL A   1      40.539  27.958  28.495  1.00  0.00     0.031 A 
ATOM     33  C   UNL A   1      41.678  28.804  28.036  1.00  0.00     0.074 A 
ATOM     34  C   UNL A   1      39.581  28.501  29.273  1.00  0.00     0.049 A 
ATOM     35  N   UNL A   1      42.618  29.335  28.752  1.00  0.00    -0.248 NA
ATOM     36  C   UNL A   1      41.821  29.030  26.592  1.00  0.00     0.031 C 
ATOM     37  C   UNL A   1      38.265  27.974  29.636  1.00  0.00     0.029 A 
ATOM     38  N   UNL A   1      39.598  29.724  29.876  1.00  0.00    -0.354 N 
ATOM     39  C   UNL A   1      43.406  30.078  27.874  1.00  0.00     0.074 A 
ATOM     40  C   UNL A   1      42.920  29.786  26.547  1.00  0.00     0.031 C 
ATOM     41  C   UNL A   1      37.536  28.953  30.224  1.00  0.00     0.029 A 
ATOM     42  C   UNL A   1      38.387  30.114  30.420  1.00  0.00     0.049 A 
ATOM     43  H   UNL A   1      40.407  30.284  29.923  1.00  0.00     0.167 HD
ATOM     44  C   UNL A   1      44.309  30.998  28.312  1.00  0.00     0.037 A 
ATOM     45  C   UNL A   1      38.100  31.328  30.951  1.00  0.00     0.037 A 
ATOM     46  C   UNL A   1      44.671  30.787  29.687  1.00  0.00     0.049 A 
ATOM     47  C   UNL A   1      39.382  31.964  31.342  1.00  0.00     0.074 A 
ATOM     48  C   UNL A   1      45.271  29.755  30.384  1.00  0.00     0.029 A 
ATOM     49  N   UNL A   1      44.136  31.603  30.652  1.00  0.00    -0.354 N 
ATOM     50  N   UNL A   1      40.127  31.563  32.332  1.00  0.00    -0.248 NA
ATOM     51  C   UNL A   1      40.042  32.814  30.362  1.00  0.00     0.031 C 
ATOM     52  C   UNL A   1      44.612  29.731  31.649  1.00  0.00     0.029 A 
ATOM     53  C   UNL A   1      43.686  30.773  31.646  1.00  0.00     0.049 A 
ATOM     54  H   UNL A   1      44.085  32.585  30.633  1.00  0.00     0.167 HD
ATOM     55  C   UNL A   1      41.426  31.753  31.893  1.00  0.00     0.074 A 
ATOM     56  C   UNL A   1      41.312  32.606  30.714  1.00  0.00     0.031 C 
ATOM     57  C   UNL A   1      42.452  30.984  32.361  1.00  0.00     0.037 A 
BRANCH  44  58
ATOM     58  C   UNL A   1      44.657  32.267  27.576  1.00  0.00     0.064 A 
ATOM     59  C   UNL A   1      45.883  32.365  26.887  1.00  0.00     0.173 A 
ATOM     60  C   UNL A   1      43.970  33.483  27.774  1.00  0.00     0.173 A 
ATOM     61  F   UNL A   1      46.633  31.275  26.666  1.00  0.00    -0.203 F 
ATOM     62  C   UNL A   1      46.409  33.597  26.486  1.00  0.00     0.198 A 
ATOM     63  C   UNL A   1      44.473  34.704  27.327  1.00  0.00     0.198 A 
ATOM     64  F   UNL A   1      42.846  33.548  28.498  1.00  0.00    -0.203 F 
ATOM     65  F   UNL A   1      47.631  33.654  25.939  1.00  0.00    -0.200 F 
ATOM     66  C   UNL A   1      45.705  34.766  26.711  1.00  0.00     0.200 A 
ATOM     67  F   UNL A   1      43.786  35.829  27.572  1.00  0.00    -0.200 F 
ATOM     68  F   UNL A   1      46.233  35.952  26.383  1.00  0.00    -0.200 F 
ENDBRANCH  44  58
BRANCH  45  69
ATOM     69  C   UNL A   1      36.852  32.109  30.813  1.00  0.00     0.064 A 
ATOM     70  C   UNL A   1      36.103  32.473  31.943  1.00  0.00     0.173 A 
ATOM     71  C   UNL A   1      36.547  32.782  29.613  1.00  0.00     0.173 A 
ATOM     72  F   UNL A   1      36.360  31.908  33.132  1.00  0.00    -0.203 F 
ATOM     73  C   UNL A   1      35.136  33.480  31.888  1.00  0.00     0.198 A 
ATOM     74  C   UNL A   1      35.578  33.782  29.556  1.00  0.00     0.198 A 
ATOM     75  F   UNL A   1      37.258  32.554  28.499  1.00  0.00    -0.203 F 
ATOM     76  F   UNL A   1      34.493  33.854  33.002  1.00  0.00    -0.200 F 
ATOM     77  C   UNL A   1      34.885  34.145  30.698  1.00  0.00     0.200 A 
ATOM     78  F   UNL A   1      35.372  34.443  28.409  1.00  0.00    -0.200 F 
ATOM     79  F   UNL A   1      34.013  35.160  30.659  1.00  0.00    -0.200 F 
ENDBRANCH  45  69
BRANCH  57  80
ATOM     80  C   UNL A   1      42.184  30.097  33.541  1.00  0.00     0.064 A 
ATOM     81  C   UNL A   1      41.678  28.788  33.434  1.00  0.00     0.173 A 
ATOM     82  C   UNL A   1      42.586  30.531  34.811  1.00  0.00     0.173 A 
ATOM     83  F   UNL A   1      41.372  28.263  32.240  1.00  0.00    -0.203 F 
ATOM     84  C   UNL A   1      41.537  27.975  34.557  1.00  0.00     0.198 A 
ATOM     85  C   UNL A   1      42.478  29.704  35.925  1.00  0.00     0.198 A 
ATOM     86  F   UNL A   1      43.131  31.748  34.964  1.00  0.00    -0.203 F 
ATOM     87  F   UNL A   1      41.042  26.734  34.431  1.00  0.00    -0.200 F 
ATOM     88  C   UNL A   1      41.943  28.431  35.800  1.00  0.00     0.200 A 
ATOM     89  F   UNL A   1      42.919  30.129  37.117  1.00  0.00    -0.200 F 
ATOM     90  F   UNL A   1      41.848  27.633  36.874  1.00  0.00    -0.200 F 
ENDBRANCH  57  80
ENDBRANCH  31  32
ENDBRANCH  23  26
ENDBRANCH  21  22
ENDBRANCH  20  21
ENDBRANCH   1  20
TORSDOF 14
ENDMDL
MODEL 3
REMARK VINA RESULT:     -11.4      2.950      4.545
REMARK SMILES N#Cc1ccn2cc(C(=O)NCCCCCCNC(=O)c3ccc(-c4c5nc(c(-c6c(F)c(F)c(F)c(F)c6F)c6ccc([nH]6)c(-c6c(F)c(F)c(F)c(F)c6F)c6nc(c(-c7c(F)c(F)c(F)c(F)c7F)c7ccc4[nH]7)C=C6)C=C5)cc3)nc2c1
REMARK SMILES IDX 15 1 14 2 13 3 12 4 11 5 9 6 10 7 8 9 3 10 4 11 86 12 5 13
REMARK SMILES IDX 85 14 6 15 84 16 7 17 2 18 1 19 16 20 17 21 18 22 19 23
REMARK SMILES IDX 20 25 21 26 22 27 83 28 23 29 82 30 24 31 25 32 26 33 76 34
REMARK SMILES IDX 27 35 81 36 75 37 77 38 28 39 80 40 74 41 73 42 29 44 61 45
REMARK SMILES IDX 41 46 60 47 42 48 45 49 59 50 78 51 43 52 44 53 58 55 79 56
REMARK SMILES IDX 46 57 30 58 31 59 39 60 32 61 33 62 37 63 40 64 34 65 35 66
REMARK SMILES IDX 38 67 36 68 62 69 63 70 71 71 64 72 65 73 69 74 72 75 66 76
REMARK SMILES IDX 67 77 70 78 68 79 47 80 48 81 56 82 49 83 50 84 54 85 57 86
REMARK SMILES IDX 51 87 52 88 55 89 53 90
REMARK H PARENT 11 8 18 24 77 43 45 54
REMARK Flexibility Score: inf
ROOT
ATOM      1  C   UNL A   1      36.035  22.591  23.506  1.00  0.00     0.002 C 
ENDROOT
BRANCH   1   2
ATOM      2  C   UNL A   1      34.755  22.924  24.282  1.00  0.00     0.002 C 
BRANCH   2   3
ATOM      3  C   UNL A   1      33.479  22.280  23.732  1.00  0.00     0.021 C 
BRANCH   3   4
ATOM      4  C   UNL A   1      32.423  23.292  23.293  1.00  0.00     0.116 C 
BRANCH   4   5
ATOM      5  N   UNL A   1      32.786  23.921  22.034  1.00  0.00    -0.351 N 
ATOM      6  C   UNL A   1      32.922  25.243  21.692  1.00  0.00     0.271 C 
ATOM      7  O   UNL A   1      33.223  25.503  20.518  1.00  0.00    -0.267 OA
ATOM      8  H   UNL A   1      32.966  23.290  21.301  1.00  0.00     0.163 HD
BRANCH   6   9
ATOM      9  C   UNL A   1      32.738  26.306  22.680  1.00  0.00     0.147 A 
ATOM     10  C   UNL A   1      32.938  29.522  25.795  1.00  0.00     0.057 A 
ATOM     11  C   UNL A   1      31.566  29.757  25.340  1.00  0.00     0.038 A 
ATOM     12  C   UNL A   1      33.697  28.542  25.273  1.00  0.00     0.067 A 
ATOM     13  C   UNL A   1      31.060  28.974  24.369  1.00  0.00     0.094 A 
ATOM     14  C   UNL A   1      33.157  27.721  24.249  1.00  0.00     0.138 A 
ATOM     15  N   UNL A   1      31.857  27.968  23.830  1.00  0.00    -0.306 N 
ATOM     16  N   UNL A   1      33.691  26.726  23.587  1.00  0.00    -0.223 NA
ATOM     17  C   UNL A   1      31.588  27.063  22.839  1.00  0.00     0.127 A 
BRANCH  10  18
ATOM     18  C   UNL A   1      33.501  30.407  26.895  1.00  0.00     0.099 C 
ATOM     19  N   UNL A   1      33.969  31.142  27.807  1.00  0.00    -0.192 NA
ENDBRANCH  10  18
ENDBRANCH   6   9
ENDBRANCH   4   5
ENDBRANCH   3   4
ENDBRANCH   2   3
ENDBRANCH   1   2
BRANCH   1  20
ATOM     20  C   UNL A   1      37.032  21.680  24.237  1.00  0.00     0.021 C 
BRANCH  20  21
ATOM     21  C   UNL A   1      37.603  22.273  25.527  1.00  0.00     0.116 C 
BRANCH  21  22
ATOM     22  N   UNL A   1      38.991  21.922  25.746  1.00  0.00    -0.352 N 
ATOM     23  C   UNL A   1      40.030  22.461  26.448  1.00  0.00     0.251 C 
ATOM     24  H   UNL A   1      39.246  21.094  25.276  1.00  0.00     0.163 HD
ATOM     25  O   UNL A   1      41.074  21.802  26.459  1.00  0.00    -0.269 OA
BRANCH  23  26
ATOM     26  C   UNL A   1      40.017  23.779  27.141  1.00  0.00     0.039 A 
ATOM     27  C   UNL A   1      39.040  24.761  26.996  1.00  0.00     0.014 A 
ATOM     28  C   UNL A   1      41.142  24.068  27.939  1.00  0.00     0.014 A 
ATOM     29  C   UNL A   1      39.230  26.026  27.547  1.00  0.00     0.010 A 
ATOM     30  C   UNL A   1      41.330  25.328  28.504  1.00  0.00     0.010 A 
ATOM     31  C   UNL A   1      40.398  26.327  28.257  1.00  0.00    -0.014 A 
BRANCH  31  32
ATOM     32  C   UNL A   1      40.574  27.710  28.691  1.00  0.00     0.031 A 
ATOM     33  C   UNL A   1      41.791  28.411  28.189  1.00  0.00     0.074 A 
ATOM     34  C   UNL A   1      39.721  28.364  29.505  1.00  0.00     0.049 A 
ATOM     35  N   UNL A   1      42.816  28.817  28.868  1.00  0.00    -0.248 NA
ATOM     36  C   UNL A   1      41.907  28.624  26.741  1.00  0.00     0.031 C 
ATOM     37  C   UNL A   1      38.364  28.003  29.918  1.00  0.00     0.029 A 
ATOM     38  N   UNL A   1      39.913  29.572  30.108  1.00  0.00    -0.354 N 
ATOM     39  C   UNL A   1      43.657  29.461  27.962  1.00  0.00     0.074 A 
ATOM     40  C   UNL A   1      43.089  29.239  26.654  1.00  0.00     0.031 C 
ATOM     41  C   UNL A   1      37.786  29.061  30.533  1.00  0.00     0.029 A 
ATOM     42  C   UNL A   1      38.781  30.107  30.698  1.00  0.00     0.049 A 
ATOM     43  H   UNL A   1      40.786  30.027  30.124  1.00  0.00     0.167 HD
ATOM     44  C   UNL A   1      44.683  30.259  28.365  1.00  0.00     0.037 A 
ATOM     45  C   UNL A   1      38.668  31.344  31.239  1.00  0.00     0.037 A 
ATOM     46  C   UNL A   1      45.068  29.997  29.726  1.00  0.00     0.049 A 
ATOM     47  C   UNL A   1      40.032  31.814  31.582  1.00  0.00     0.074 A 
ATOM     48  C   UNL A   1      45.561  28.896  30.399  1.00  0.00     0.029 A 
ATOM     49  N   UNL A   1      44.675  30.869  30.710  1.00  0.00    -0.354 N 
ATOM     50  N   UNL A   1      40.759  31.318  32.543  1.00  0.00    -0.248 NA
ATOM     51  C   UNL A   1      40.755  32.580  30.578  1.00  0.00     0.031 C 
ATOM     52  C   UNL A   1      44.952  28.947  31.688  1.00  0.00     0.029 A 
ATOM     53  C   UNL A   1      44.163  30.096  31.721  1.00  0.00     0.049 A 
ATOM     54  H   UNL A   1      44.746  31.850  30.694  1.00  0.00     0.167 HD
ATOM     55  C   UNL A   1      42.054  31.347  32.055  1.00  0.00     0.074 A 
ATOM     56  C   UNL A   1      42.003  32.214  30.881  1.00  0.00     0.031 C 
ATOM     57  C   UNL A   1      42.993  30.455  32.483  1.00  0.00     0.037 A 
BRANCH  44  58
ATOM     58  C   UNL A   1      45.159  31.479  27.618  1.00  0.00     0.064 A 
ATOM     59  C   UNL A   1      46.476  31.527  27.117  1.00  0.00     0.173 A 
ATOM     60  C   UNL A   1      44.468  32.709  27.637  1.00  0.00     0.173 A 
ATOM     61  F   UNL A   1      47.233  30.420  27.077  1.00  0.00    -0.203 F 
ATOM     62  C   UNL A   1      47.075  32.729  26.729  1.00  0.00     0.198 A 
ATOM     63  C   UNL A   1      45.053  33.898  27.200  1.00  0.00     0.198 A 
ATOM     64  F   UNL A   1      43.250  32.826  28.177  1.00  0.00    -0.203 F 
ATOM     65  F   UNL A   1      48.367  32.744  26.371  1.00  0.00    -0.200 F 
ATOM     66  C   UNL A   1      46.365  33.914  26.776  1.00  0.00     0.200 A 
ATOM     67  F   UNL A   1      44.355  35.040  27.273  1.00  0.00    -0.200 F 
ATOM     68  F   UNL A   1      46.955  35.074  26.462  1.00  0.00    -0.200 F 
ENDBRANCH  44  58
BRANCH  45  69
ATOM     69  C   UNL A   1      37.522  32.275  31.150  1.00  0.00     0.064 A 
ATOM     70  C   UNL A   1      37.237  32.953  29.954  1.00  0.00     0.173 A 
ATOM     71  C   UNL A   1      36.507  32.270  32.128  1.00  0.00     0.173 A 
ATOM     72  F   UNL A   1      38.136  32.969  28.959  1.00  0.00    -0.203 F 
ATOM     73  C   UNL A   1      35.996  33.553  29.730  1.00  0.00     0.198 A 
ATOM     74  C   UNL A   1      35.271  32.874  31.906  1.00  0.00     0.198 A 
ATOM     75  F   UNL A   1      36.659  31.588  33.272  1.00  0.00    -0.203 F 
ATOM     76  F   UNL A   1      35.732  34.126  28.548  1.00  0.00    -0.200 F 
ATOM     77  C   UNL A   1      35.008  33.500  30.700  1.00  0.00     0.200 A 
ATOM     78  F   UNL A   1      34.310  32.783  32.837  1.00  0.00    -0.200 F 
ATOM     79  F   UNL A   1      33.792  34.009  30.460  1.00  0.00    -0.200 F 
ENDBRANCH  45  69
BRANCH  57  80
ATOM     80  C   UNL A   1      42.662  29.601  33.671  1.00  0.00     0.064 A 
ATOM     81  C   UNL A   1      41.994  28.366  33.583  1.00  0.00     0.173 A 
ATOM     82  C   UNL A   1      43.161  29.976  34.926  1.00  0.00     0.173 A 
ATOM     83  F   UNL A   1      41.582  27.889  32.401  1.00  0.00    -0.203 F 
ATOM     84  C   UNL A   1      41.796  27.571  34.710  1.00  0.00     0.198 A 
ATOM     85  C   UNL A   1      42.993  29.163  36.043  1.00  0.00     0.198 A 
ATOM     86  F   UNL A   1      43.858  31.116  35.059  1.00  0.00    -0.203 F 
ATOM     87  F   UNL A   1      41.147  26.401  34.602  1.00  0.00    -0.200 F 
ATOM     88  C   UNL A   1      42.301  27.967  35.937  1.00  0.00     0.200 A 
ATOM     89  F   UNL A   1      43.528  29.524  37.217  1.00  0.00    -0.200 F 
ATOM     90  F   UNL A   1      42.149  27.181  37.014  1.00  0.00    -0.200 F 
ENDBRANCH  57  80
ENDBRANCH  31  32
ENDBRANCH  23  26
ENDBRANCH  21  22
ENDBRANCH  20  21
ENDBRANCH   1  20
TORSDOF 14
ENDMDL
