MODEL 1
REMARK VINA RESULT:     -12.8      0.000      0.000
REMARK SMILES CCC[C@H]1CCc2c(sc(NC(=O)[C@H]3[C@@H](C(=O)NCCCCCCNC(=O)c4ccc(-c5c6nc(c(-c7c(F)c(F)c(F)c(F)c7F)c7ccc([nH]7)c(-c7c(F)c(F)c(F)c(F)c7F)c7nc(c(-c8c(F)c(F)c(F)c(F)c8F)c8ccc5[nH]8)C=C7)C=C6)cc4)[C@H]4CC[C@@H]3O4)c2C(N)=O)C1
REMARK SMILES IDX 20 1 19 2 18 3 16 4 17 5 15 7 14 8 94 9 91 10 93 11 95 12
REMARK SMILES IDX 92 13 12 14 11 15 13 17 10 18 4 19 5 20 100 21 6 22 8 23
REMARK SMILES IDX 7 24 9 25 96 26 3 27 2 28 1 29 97 30 98 31 99 32 21 35 22 36
REMARK SMILES IDX 23 37 24 38 25 39 26 40 27 42 28 43 29 44 90 45 30 46 89 47
REMARK SMILES IDX 31 48 32 49 33 50 83 51 34 52 88 53 82 54 84 55 35 56 87 57
REMARK SMILES IDX 81 58 80 59 36 61 68 62 48 63 67 64 49 65 52 66 66 67 85 68
REMARK SMILES IDX 50 69 51 70 65 72 86 73 53 74 37 75 38 76 46 77 39 78 40 79
REMARK SMILES IDX 44 80 47 81 41 82 42 83 45 84 43 85 69 86 70 87 78 88 71 89
REMARK SMILES IDX 72 90 76 91 79 92 73 93 74 94 77 95 75 96 54 97 55 98 63 99
REMARK SMILES IDX 56 100 57 101 61 102 64 103 58 104 59 105 62 106 60 107
REMARK H PARENT 18 6 11 16 98 33 98 34 25 41 84 60 52 71
REMARK Flexibility Score: inf
ROOT
ATOM      1  C   UNL A   1      35.776  22.583  23.518  1.00  0.00     0.021 C 
ENDROOT
BRANCH   1   2
ATOM      2  C   UNL A   1      35.020  23.591  24.385  1.00  0.00     0.116 C 
BRANCH   2   3
ATOM      3  N   UNL A   1      34.397  24.615  23.580  1.00  0.00    -0.356 N 
ATOM      4  C   UNL A   1      33.509  25.599  23.840  1.00  0.00     0.226 C 
ATOM      5  O   UNL A   1      33.131  26.231  22.844  1.00  0.00    -0.275 OA
ATOM      6  H   UNL A   1      34.682  24.592  22.638  1.00  0.00     0.163 HD
BRANCH   4   7
ATOM      7  C   UNL A   1      32.932  25.969  25.201  1.00  0.00     0.122 C 
ATOM      8  C   UNL A   1      31.482  26.387  25.424  1.00  0.00     0.123 C 
ATOM      9  C   UNL A   1      31.618  27.714  26.171  1.00  0.00     0.132 C 
ATOM     10  C   UNL A   1      33.683  26.990  26.063  1.00  0.00     0.132 C 
ATOM     11  C   UNL A   1      32.352  28.874  25.512  1.00  0.00     0.035 C 
ATOM     12  O   UNL A   1      32.682  27.297  27.089  1.00  0.00    -0.373 OA
ATOM     13  C   UNL A   1      33.798  28.371  25.448  1.00  0.00     0.035 C 
BRANCH   8  14
ATOM     14  C   UNL A   1      30.450  26.164  24.356  1.00  0.00     0.231 C 
ATOM     15  N   UNL A   1      30.237  24.907  23.843  1.00  0.00    -0.317 N 
ATOM     16  H   UNL A   1      29.595  24.878  23.098  1.00  0.00     0.170 HD
ATOM     17  O   UNL A   1      29.785  27.103  23.912  1.00  0.00    -0.274 OA
BRANCH  15  18
ATOM     18  C   UNL A   1      30.764  23.673  24.187  1.00  0.00     0.108 A 
ATOM     19  C   UNL A   1      32.718  19.274  24.189  1.00  0.00    -0.006 C 
ATOM     20  C   UNL A   1      33.473  19.888  25.389  1.00  0.00     0.009 C 
ATOM     21  C   UNL A   1      32.570  20.346  23.078  1.00  0.00     0.050 C 
ATOM     22  C   UNL A   1      32.630  20.988  26.045  1.00  0.00     0.038 C 
ATOM     23  C   UNL A   1      31.956  21.581  23.680  1.00  0.00     0.011 A 
ATOM     24  C   UNL A   1      31.934  21.857  25.030  1.00  0.00    -0.019 A 
ATOM     25  S   UNL A   1      31.175  22.780  22.773  1.00  0.00    -0.122 S 
ATOM     26  C   UNL A   1      31.020  22.932  25.332  1.00  0.00     0.077 A 
BRANCH  19  27
ATOM     27  C   UNL A   1      33.406  17.993  23.689  1.00  0.00     0.004 C 
BRANCH  27  28
ATOM     28  C   UNL A   1      34.672  17.672  24.496  1.00  0.00    -0.003 C 
ATOM     29  C   UNL A   1      34.690  16.234  25.001  1.00  0.00     0.004 C 
ENDBRANCH  27  28
ENDBRANCH  19  27
BRANCH  26  30
ATOM     30  C   UNL A   1      30.490  23.102  26.680  1.00  0.00     0.251 C 
ATOM     31  N   UNL A   1      29.309  22.460  26.925  1.00  0.00    -0.365 N 
ATOM     32  O   UNL A   1      31.068  23.711  27.569  1.00  0.00    -0.269 OA
ATOM     33  H   UNL A   1      28.853  21.973  26.200  1.00  0.00     0.159 HD
ATOM     34  H   UNL A   1      28.913  22.484  27.826  1.00  0.00     0.159 HD
ENDBRANCH  26  30
ENDBRANCH  15  18
ENDBRANCH   8  14
ENDBRANCH   4   7
ENDBRANCH   2   3
ENDBRANCH   1   2
BRANCH   1  35
ATOM     35  C   UNL A   1      36.968  21.927  24.215  1.00  0.00     0.002 C 
BRANCH  35  36
ATOM     36  C   UNL A   1      36.672  20.580  24.880  1.00  0.00     0.002 C 
BRANCH  36  37
ATOM     37  C   UNL A   1      37.863  19.625  24.999  1.00  0.00     0.021 C 
BRANCH  37  38
ATOM     38  C   UNL A   1      39.049  20.167  25.791  1.00  0.00     0.116 C 
BRANCH  38  39
ATOM     39  N   UNL A   1      40.146  19.216  25.856  1.00  0.00    -0.352 N 
ATOM     40  C   UNL A   1      41.488  19.447  26.010  1.00  0.00     0.251 C 
ATOM     41  H   UNL A   1      39.888  18.269  25.779  1.00  0.00     0.163 HD
ATOM     42  O   UNL A   1      42.300  18.543  25.848  1.00  0.00    -0.269 OA
BRANCH  40  43
ATOM     43  C   UNL A   1      41.955  20.800  26.367  1.00  0.00     0.039 A 
ATOM     44  C   UNL A   1      42.229  21.093  27.705  1.00  0.00     0.014 A 
ATOM     45  C   UNL A   1      42.104  21.778  25.380  1.00  0.00     0.014 A 
ATOM     46  C   UNL A   1      42.699  22.360  28.050  1.00  0.00     0.010 A 
ATOM     47  C   UNL A   1      42.630  23.019  25.716  1.00  0.00     0.010 A 
ATOM     48  C   UNL A   1      42.923  23.324  27.055  1.00  0.00    -0.014 A 
BRANCH  48  49
ATOM     49  C   UNL A   1      43.428  24.677  27.385  1.00  0.00     0.031 A 
ATOM     50  C   UNL A   1      42.487  25.699  27.956  1.00  0.00     0.074 A 
ATOM     51  C   UNL A   1      44.701  25.006  27.096  1.00  0.00     0.049 A 
ATOM     52  N   UNL A   1      42.683  26.971  28.186  1.00  0.00    -0.248 NA
ATOM     53  C   UNL A   1      41.130  25.230  28.283  1.00  0.00     0.031 C 
ATOM     54  C   UNL A   1      45.695  24.106  26.510  1.00  0.00     0.029 A 
ATOM     55  N   UNL A   1      45.368  26.197  27.234  1.00  0.00    -0.354 N 
ATOM     56  C   UNL A   1      41.471  27.458  28.658  1.00  0.00     0.074 A 
ATOM     57  C   UNL A   1      40.533  26.357  28.641  1.00  0.00     0.031 C 
ATOM     58  C   UNL A   1      46.848  24.774  26.348  1.00  0.00     0.029 A 
ATOM     59  C   UNL A   1      46.663  26.156  26.779  1.00  0.00     0.049 A 
ATOM     60  H   UNL A   1      44.958  27.003  27.623  1.00  0.00     0.167 HD
ATOM     61  C   UNL A   1      41.175  28.709  29.084  1.00  0.00     0.037 A 
ATOM     62  C   UNL A   1      47.588  27.132  26.706  1.00  0.00     0.037 A 
ATOM     63  C   UNL A   1      42.124  29.789  29.128  1.00  0.00     0.049 A 
ATOM     64  C   UNL A   1      47.236  28.512  27.190  1.00  0.00     0.074 A 
ATOM     65  C   UNL A   1      41.941  31.082  29.588  1.00  0.00     0.029 A 
ATOM     66  N   UNL A   1      43.439  29.699  28.695  1.00  0.00    -0.354 N 
ATOM     67  N   UNL A   1      46.102  28.952  27.679  1.00  0.00    -0.248 NA
ATOM     68  C   UNL A   1      48.293  29.530  27.119  1.00  0.00     0.031 C 
ATOM     69  C   UNL A   1      43.136  31.783  29.402  1.00  0.00     0.029 A 
ATOM     70  C   UNL A   1      44.077  30.916  28.869  1.00  0.00     0.049 A 
ATOM     71  H   UNL A   1      43.857  28.890  28.321  1.00  0.00     0.167 HD
ATOM     72  C   UNL A   1      46.317  30.284  28.006  1.00  0.00     0.074 A 
ATOM     73  C   UNL A   1      47.693  30.580  27.663  1.00  0.00     0.031 C 
ATOM     74  C   UNL A   1      45.455  31.180  28.543  1.00  0.00     0.037 A 
BRANCH  61  75
ATOM     75  C   UNL A   1      39.769  28.974  29.536  1.00  0.00     0.064 A 
ATOM     76  C   UNL A   1      39.374  28.770  30.868  1.00  0.00     0.173 A 
ATOM     77  C   UNL A   1      38.811  29.466  28.637  1.00  0.00     0.173 A 
ATOM     78  F   UNL A   1      40.247  28.288  31.765  1.00  0.00    -0.203 F 
ATOM     79  C   UNL A   1      38.066  29.020  31.274  1.00  0.00     0.198 A 
ATOM     80  C   UNL A   1      37.512  29.744  29.054  1.00  0.00     0.198 A 
ATOM     81  F   UNL A   1      39.137  29.683  27.354  1.00  0.00    -0.203 F 
ATOM     82  F   UNL A   1      37.699  28.770  32.539  1.00  0.00    -0.200 F 
ATOM     83  C   UNL A   1      37.139  29.514  30.369  1.00  0.00     0.200 A 
ATOM     84  F   UNL A   1      36.620  30.232  28.180  1.00  0.00    -0.200 F 
ATOM     85  F   UNL A   1      35.881  29.760  30.762  1.00  0.00    -0.200 F 
ENDBRANCH  61  75
BRANCH  62  86
ATOM     86  C   UNL A   1      48.943  26.830  26.176  1.00  0.00     0.064 A 
ATOM     87  C   UNL A   1      49.950  26.341  27.019  1.00  0.00     0.173 A 
ATOM     88  C   UNL A   1      49.260  27.022  24.824  1.00  0.00     0.173 A 
ATOM     89  F   UNL A   1      49.701  26.159  28.324  1.00  0.00    -0.203 F 
ATOM     90  C   UNL A   1      51.228  26.072  26.533  1.00  0.00     0.198 A 
ATOM     91  C   UNL A   1      50.530  26.728  24.334  1.00  0.00     0.198 A 
ATOM     92  F   UNL A   1      48.329  27.483  23.974  1.00  0.00    -0.203 F 
ATOM     93  F   UNL A   1      52.184  25.644  27.370  1.00  0.00    -0.200 F 
ATOM     94  C   UNL A   1      51.516  26.261  25.190  1.00  0.00     0.200 A 
ATOM     95  F   UNL A   1      50.801  26.899  23.032  1.00  0.00    -0.200 F 
ATOM     96  F   UNL A   1      52.745  25.999  24.723  1.00  0.00    -0.200 F 
ENDBRANCH  62  86
BRANCH  74  97
ATOM     97  C   UNL A   1      45.985  32.550  28.846  1.00  0.00     0.064 A 
ATOM     98  C   UNL A   1      45.898  33.597  27.918  1.00  0.00     0.173 A 
ATOM     99  C   UNL A   1      46.535  32.828  30.107  1.00  0.00     0.173 A 
ATOM    100  F   UNL A   1      45.393  33.376  26.695  1.00  0.00    -0.203 F 
ATOM    101  C   UNL A   1      46.361  34.872  28.236  1.00  0.00     0.198 A 
ATOM    102  C   UNL A   1      46.972  34.109  30.429  1.00  0.00     0.198 A 
ATOM    103  F   UNL A   1      46.634  31.861  31.030  1.00  0.00    -0.203 F 
ATOM    104  F   UNL A   1      46.304  35.849  27.320  1.00  0.00    -0.200 F 
ATOM    105  C   UNL A   1      46.889  35.129  29.493  1.00  0.00     0.200 A 
ATOM    106  F   UNL A   1      47.470  34.360  31.648  1.00  0.00    -0.200 F 
ATOM    107  F   UNL A   1      47.323  36.358  29.799  1.00  0.00    -0.200 F 
ENDBRANCH  74  97
ENDBRANCH  48  49
ENDBRANCH  40  43
ENDBRANCH  38  39
ENDBRANCH  37  38
ENDBRANCH  36  37
ENDBRANCH  35  36
ENDBRANCH   1  35
TORSDOF 18
ENDMDL
MODEL 2
REMARK VINA RESULT:     -12.7      5.003     10.704
REMARK SMILES CCC[C@H]1CCc2c(sc(NC(=O)[C@H]3[C@@H](C(=O)NCCCCCCNC(=O)c4ccc(-c5c6nc(c(-c7c(F)c(F)c(F)c(F)c7F)c7ccc([nH]7)c(-c7c(F)c(F)c(F)c(F)c7F)c7nc(c(-c8c(F)c(F)c(F)c(F)c8F)c8ccc5[nH]8)C=C7)C=C6)cc4)[C@H]4CC[C@@H]3O4)c2C(N)=O)C1
REMARK SMILES IDX 20 1 19 2 18 3 16 4 17 5 15 7 14 8 94 9 91 10 93 11 95 12
REMARK SMILES IDX 92 13 12 14 11 15 13 17 10 18 4 19 5 20 100 21 6 22 8 23
REMARK SMILES IDX 7 24 9 25 96 26 3 27 2 28 1 29 97 30 98 31 99 32 21 35 22 36
REMARK SMILES IDX 23 37 24 38 25 39 26 40 27 42 28 43 29 44 90 45 30 46 89 47
REMARK SMILES IDX 31 48 32 49 33 50 83 51 34 52 88 53 82 54 84 55 35 56 87 57
REMARK SMILES IDX 81 58 80 59 36 61 68 62 48 63 67 64 49 65 52 66 66 67 85 68
REMARK SMILES IDX 50 69 51 70 65 72 86 73 53 74 37 75 38 76 46 77 39 78 40 79
REMARK SMILES IDX 44 80 47 81 41 82 42 83 45 84 43 85 69 86 70 87 78 88 71 89
REMARK SMILES IDX 72 90 76 91 79 92 73 93 74 94 77 95 75 96 54 97 55 98 63 99
REMARK SMILES IDX 56 100 57 101 61 102 64 103 58 104 59 105 62 106 60 107
REMARK H PARENT 18 6 11 16 98 33 98 34 25 41 84 60 52 71
REMARK Flexibility Score: inf
ROOT
ATOM      1  C   UNL A   1      32.903  28.077  26.701  1.00  0.00     0.021 C 
ENDROOT
BRANCH   1   2
ATOM      2  C   UNL A   1      31.665  27.316  26.225  1.00  0.00     0.116 C 
BRANCH   2   3
ATOM      3  N   UNL A   1      31.682  25.946  26.680  1.00  0.00    -0.356 N 
ATOM      4  C   UNL A   1      32.337  24.834  26.281  1.00  0.00     0.226 C 
ATOM      5  O   UNL A   1      32.006  23.798  26.873  1.00  0.00    -0.275 OA
ATOM      6  H   UNL A   1      31.086  25.787  27.448  1.00  0.00     0.163 HD
BRANCH   4   7
ATOM      7  C   UNL A   1      33.392  24.743  25.185  1.00  0.00     0.122 C 
ATOM      8  C   UNL A   1      33.316  23.774  24.010  1.00  0.00     0.123 C 
ATOM      9  C   UNL A   1      34.666  23.059  24.066  1.00  0.00     0.132 C 
ATOM     10  C   UNL A   1      34.864  24.617  25.593  1.00  0.00     0.132 C 
ATOM     11  C   UNL A   1      35.047  22.270  25.311  1.00  0.00     0.035 C 
ATOM     12  O   UNL A   1      35.489  24.246  24.320  1.00  0.00    -0.373 OA
ATOM     13  C   UNL A   1      35.197  23.362  26.375  1.00  0.00     0.035 C 
BRANCH   8  14
ATOM     14  C   UNL A   1      32.035  23.056  23.695  1.00  0.00     0.231 C 
ATOM     15  N   UNL A   1      30.929  23.754  23.273  1.00  0.00    -0.317 N 
ATOM     16  H   UNL A   1      30.121  23.203  23.164  1.00  0.00     0.170 HD
ATOM     17  O   UNL A   1      31.947  21.831  23.820  1.00  0.00    -0.274 OA
BRANCH  15  18
ATOM     18  C   UNL A   1      30.748  25.093  22.972  1.00  0.00     0.108 A 
ATOM     19  C   UNL A   1      29.113  29.603  22.571  1.00  0.00    -0.006 C 
ATOM     20  C   UNL A   1      30.613  29.896  22.797  1.00  0.00     0.009 C 
ATOM     21  C   UNL A   1      28.684  28.417  23.474  1.00  0.00     0.050 C 
ATOM     22  C   UNL A   1      31.468  28.723  22.301  1.00  0.00     0.038 C 
ATOM     23  C   UNL A   1      29.623  27.267  23.234  1.00  0.00     0.011 A 
ATOM     24  C   UNL A   1      30.868  27.389  22.656  1.00  0.00    -0.019 A 
ATOM     25  S   UNL A   1      29.252  25.656  23.612  1.00  0.00    -0.122 S 
ATOM     26  C   UNL A   1      31.399  26.102  22.274  1.00  0.00     0.077 A 
BRANCH  19  27
ATOM     27  C   UNL A   1      28.257  30.860  22.796  1.00  0.00     0.004 C 
BRANCH  27  28
ATOM     28  C   UNL A   1      28.774  32.056  21.985  1.00  0.00    -0.003 C 
ATOM     29  C   UNL A   1      27.996  32.261  20.690  1.00  0.00     0.004 C 
ENDBRANCH  27  28
ENDBRANCH  19  27
BRANCH  26  30
ATOM     30  C   UNL A   1      32.452  25.999  21.270  1.00  0.00     0.251 C 
ATOM     31  N   UNL A   1      32.021  25.715  20.004  1.00  0.00    -0.365 N 
ATOM     32  O   UNL A   1      33.634  26.213  21.496  1.00  0.00    -0.269 OA
ATOM     33  H   UNL A   1      31.066  25.545  19.835  1.00  0.00     0.159 HD
ATOM     34  H   UNL A   1      32.666  25.680  19.261  1.00  0.00     0.159 HD
ENDBRANCH  26  30
ENDBRANCH  15  18
ENDBRANCH   8  14
ENDBRANCH   4   7
ENDBRANCH   2   3
ENDBRANCH   1   2
BRANCH   1  35
ATOM     35  C   UNL A   1      32.639  29.536  27.071  1.00  0.00     0.002 C 
BRANCH  35  36
ATOM     36  C   UNL A   1      31.420  30.169  26.395  1.00  0.00     0.002 C 
BRANCH  36  37
ATOM     37  C   UNL A   1      31.339  31.696  26.472  1.00  0.00     0.021 C 
BRANCH  37  38
ATOM     38  C   UNL A   1      32.631  32.391  26.892  1.00  0.00     0.116 C 
BRANCH  38  39
ATOM     39  N   UNL A   1      32.398  33.748  27.355  1.00  0.00    -0.352 N 
ATOM     40  C   UNL A   1      33.011  34.437  28.369  1.00  0.00     0.251 C 
ATOM     41  H   UNL A   1      31.700  34.246  26.870  1.00  0.00     0.163 HD
ATOM     42  O   UNL A   1      32.560  35.509  28.758  1.00  0.00    -0.269 OA
BRANCH  40  43
ATOM     43  C   UNL A   1      34.220  33.876  29.000  1.00  0.00     0.039 A 
ATOM     44  C   UNL A   1      35.470  34.393  28.653  1.00  0.00     0.014 A 
ATOM     45  C   UNL A   1      34.115  32.829  29.920  1.00  0.00     0.014 A 
ATOM     46  C   UNL A   1      36.618  33.890  29.264  1.00  0.00     0.010 A 
ATOM     47  C   UNL A   1      35.252  32.371  30.574  1.00  0.00     0.010 A 
ATOM     48  C   UNL A   1      36.514  32.891  30.245  1.00  0.00    -0.014 A 
BRANCH  48  49
ATOM     49  C   UNL A   1      37.712  32.339  30.920  1.00  0.00     0.031 A 
ATOM     50  C   UNL A   1      38.500  31.249  30.252  1.00  0.00     0.074 A 
ATOM     51  C   UNL A   1      38.035  32.757  32.157  1.00  0.00     0.049 A 
ATOM     52  N   UNL A   1      39.490  30.535  30.720  1.00  0.00    -0.248 NA
ATOM     53  C   UNL A   1      38.098  30.894  28.881  1.00  0.00     0.031 C 
ATOM     54  C   UNL A   1      37.324  33.786  32.916  1.00  0.00     0.029 A 
ATOM     55  N   UNL A   1      39.035  32.350  33.004  1.00  0.00    -0.354 N 
ATOM     56  C   UNL A   1      39.811  29.632  29.715  1.00  0.00     0.074 A 
ATOM     57  C   UNL A   1      38.883  29.858  28.628  1.00  0.00     0.031 C 
ATOM     58  C   UNL A   1      37.914  33.936  34.112  1.00  0.00     0.029 A 
ATOM     59  C   UNL A   1      39.018  32.988  34.220  1.00  0.00     0.049 A 
ATOM     60  H   UNL A   1      39.701  31.666  32.763  1.00  0.00     0.167 HD
ATOM     61  C   UNL A   1      40.802  28.710  29.695  1.00  0.00     0.037 A 
ATOM     62  C   UNL A   1      39.799  32.812  35.303  1.00  0.00     0.037 A 
ATOM     63  C   UNL A   1      41.740  28.515  30.769  1.00  0.00     0.049 A 
ATOM     64  C   UNL A   1      40.897  31.784  35.254  1.00  0.00     0.074 A 
ATOM     65  C   UNL A   1      42.813  27.643  30.831  1.00  0.00     0.029 A 
ATOM     66  N   UNL A   1      41.716  29.209  31.970  1.00  0.00    -0.354 N 
ATOM     67  N   UNL A   1      41.223  30.968  34.282  1.00  0.00    -0.248 NA
ATOM     68  C   UNL A   1      41.740  31.658  36.451  1.00  0.00     0.031 C 
ATOM     69  C   UNL A   1      43.417  27.785  32.084  1.00  0.00     0.029 A 
ATOM     70  C   UNL A   1      42.750  28.777  32.784  1.00  0.00     0.049 A 
ATOM     71  H   UNL A   1      41.062  29.905  32.208  1.00  0.00     0.167 HD
ATOM     72  C   UNL A   1      42.327  30.257  34.732  1.00  0.00     0.074 A 
ATOM     73  C   UNL A   1      42.618  30.742  36.066  1.00  0.00     0.031 C 
ATOM     74  C   UNL A   1      43.036  29.292  34.099  1.00  0.00     0.037 A 
BRANCH  61  75
ATOM     75  C   UNL A   1      40.921  27.844  28.476  1.00  0.00     0.064 A 
ATOM     76  C   UNL A   1      41.724  28.215  27.386  1.00  0.00     0.173 A 
ATOM     77  C   UNL A   1      40.250  26.614  28.406  1.00  0.00     0.173 A 
ATOM     78  F   UNL A   1      42.378  29.386  27.397  1.00  0.00    -0.203 F 
ATOM     79  C   UNL A   1      41.827  27.401  26.261  1.00  0.00     0.198 A 
ATOM     80  C   UNL A   1      40.378  25.789  27.292  1.00  0.00     0.198 A 
ATOM     81  F   UNL A   1      39.472  26.209  29.422  1.00  0.00    -0.203 F 
ATOM     82  F   UNL A   1      42.560  27.800  25.212  1.00  0.00    -0.200 F 
ATOM     83  C   UNL A   1      41.159  26.186  26.218  1.00  0.00     0.200 A 
ATOM     84  F   UNL A   1      39.742  24.610  27.257  1.00  0.00    -0.200 F 
ATOM     85  F   UNL A   1      41.263  25.401  25.137  1.00  0.00    -0.200 F 
ENDBRANCH  61  75
BRANCH  62  86
ATOM     86  C   UNL A   1      39.585  33.646  36.514  1.00  0.00     0.064 A 
ATOM     87  C   UNL A   1      38.802  33.177  37.577  1.00  0.00     0.173 A 
ATOM     88  C   UNL A   1      40.156  34.921  36.635  1.00  0.00     0.173 A 
ATOM     89  F   UNL A   1      38.219  31.972  37.499  1.00  0.00    -0.203 F 
ATOM     90  C   UNL A   1      38.582  33.960  38.709  1.00  0.00     0.198 A 
ATOM     91  C   UNL A   1      39.957  35.691  37.778  1.00  0.00     0.198 A 
ATOM     92  F   UNL A   1      40.919  35.412  35.648  1.00  0.00    -0.203 F 
ATOM     93  F   UNL A   1      37.795  33.505  39.693  1.00  0.00    -0.200 F 
ATOM     94  C   UNL A   1      39.164  35.215  38.812  1.00  0.00     0.200 A 
ATOM     95  F   UNL A   1      40.534  36.897  37.880  1.00  0.00    -0.200 F 
ATOM     96  F   UNL A   1      38.955  35.965  39.901  1.00  0.00    -0.200 F 
ENDBRANCH  62  86
BRANCH  74  97
ATOM     97  C   UNL A   1      44.230  28.733  34.814  1.00  0.00     0.064 A 
ATOM     98  C   UNL A   1      45.497  29.324  34.707  1.00  0.00     0.173 A 
ATOM     99  C   UNL A   1      44.088  27.625  35.663  1.00  0.00     0.173 A 
ATOM    100  F   UNL A   1      45.685  30.376  33.896  1.00  0.00    -0.203 F 
ATOM    101  C   UNL A   1      46.584  28.812  35.411  1.00  0.00     0.198 A 
ATOM    102  C   UNL A   1      45.170  27.133  36.385  1.00  0.00     0.198 A 
ATOM    103  F   UNL A   1      42.894  27.030  35.804  1.00  0.00    -0.203 F 
ATOM    104  F   UNL A   1      47.795  29.368  35.264  1.00  0.00    -0.200 F 
ATOM    105  C   UNL A   1      46.418  27.724  36.256  1.00  0.00     0.200 A 
ATOM    106  F   UNL A   1      45.006  26.090  37.211  1.00  0.00    -0.200 F 
ATOM    107  F   UNL A   1      47.463  27.241  36.940  1.00  0.00    -0.200 F 
ENDBRANCH  74  97
ENDBRANCH  48  49
ENDBRANCH  40  43
ENDBRANCH  38  39
ENDBRANCH  37  38
ENDBRANCH  36  37
ENDBRANCH  35  36
ENDBRANCH   1  35
TORSDOF 18
ENDMDL
MODEL 3
REMARK VINA RESULT:     -12.4      1.670      4.380
REMARK SMILES CCC[C@H]1CCc2c(sc(NC(=O)[C@H]3[C@@H](C(=O)NCCCCCCNC(=O)c4ccc(-c5c6nc(c(-c7c(F)c(F)c(F)c(F)c7F)c7ccc([nH]7)c(-c7c(F)c(F)c(F)c(F)c7F)c7nc(c(-c8c(F)c(F)c(F)c(F)c8F)c8ccc5[nH]8)C=C7)C=C6)cc4)[C@H]4CC[C@@H]3O4)c2C(N)=O)C1
REMARK SMILES IDX 20 1 19 2 18 3 16 4 17 5 15 7 14 8 94 9 91 10 93 11 95 12
REMARK SMILES IDX 92 13 12 14 11 15 13 17 10 18 4 19 5 20 100 21 6 22 8 23
REMARK SMILES IDX 7 24 9 25 96 26 3 27 2 28 1 29 97 30 98 31 99 32 21 35 22 36
REMARK SMILES IDX 23 37 24 38 25 39 26 40 27 42 28 43 29 44 90 45 30 46 89 47
REMARK SMILES IDX 31 48 32 49 33 50 83 51 34 52 88 53 82 54 84 55 35 56 87 57
REMARK SMILES IDX 81 58 80 59 36 61 68 62 48 63 67 64 49 65 52 66 66 67 85 68
REMARK SMILES IDX 50 69 51 70 65 72 86 73 53 74 37 75 38 76 46 77 39 78 40 79
REMARK SMILES IDX 44 80 47 81 41 82 42 83 45 84 43 85 69 86 70 87 78 88 71 89
REMARK SMILES IDX 72 90 76 91 79 92 73 93 74 94 77 95 75 96 54 97 55 98 63 99
REMARK SMILES IDX 56 100 57 101 61 102 64 103 58 104 59 105 62 106 60 107
REMARK H PARENT 18 6 11 16 98 33 98 34 25 41 84 60 52 71
REMARK Flexibility Score: inf
ROOT
ATOM      1  C   UNL A   1      37.896  22.919  25.433  1.00  0.00     0.021 C 
ENDROOT
BRANCH   1   2
ATOM      2  C   UNL A   1      36.822  23.919  25.862  1.00  0.00     0.116 C 
BRANCH   2   3
ATOM      3  N   UNL A   1      35.858  23.310  26.747  1.00  0.00    -0.356 N 
ATOM      4  C   UNL A   1      34.557  22.968  26.621  1.00  0.00     0.226 C 
ATOM      5  O   UNL A   1      34.031  22.545  27.659  1.00  0.00    -0.275 OA
ATOM      6  H   UNL A   1      36.228  23.097  27.634  1.00  0.00     0.163 HD
BRANCH   4   7
ATOM      7  C   UNL A   1      33.704  23.078  25.363  1.00  0.00     0.122 C 
ATOM      8  C   UNL A   1      32.187  23.228  25.375  1.00  0.00     0.123 C 
ATOM      9  C   UNL A   1      31.721  22.099  24.456  1.00  0.00     0.132 C 
ATOM     10  C   UNL A   1      33.901  22.042  24.250  1.00  0.00     0.132 C 
ATOM     11  C   UNL A   1      32.060  20.657  24.809  1.00  0.00     0.035 C 
ATOM     12  O   UNL A   1      32.728  22.292  23.408  1.00  0.00    -0.373 OA
ATOM     13  C   UNL A   1      33.583  20.616  24.652  1.00  0.00     0.035 C 
BRANCH   8  14
ATOM     14  C   UNL A   1      31.465  23.586  26.644  1.00  0.00     0.231 C 
ATOM     15  N   UNL A   1      31.030  24.871  26.860  1.00  0.00    -0.317 N 
ATOM     16  H   UNL A   1      30.636  25.020  27.750  1.00  0.00     0.170 HD
ATOM     17  O   UNL A   1      31.261  22.738  27.517  1.00  0.00    -0.274 OA
BRANCH  15  18
ATOM     18  C   UNL A   1      31.046  25.995  26.051  1.00  0.00     0.108 A 
ATOM     19  C   UNL A   1      30.202  29.326  22.680  1.00  0.00    -0.006 C 
ATOM     20  C   UNL A   1      30.416  30.248  23.901  1.00  0.00     0.009 C 
ATOM     21  C   UNL A   1      29.407  28.070  23.124  1.00  0.00     0.050 C 
ATOM     22  C   UNL A   1      31.332  29.573  24.928  1.00  0.00     0.038 C 
ATOM     23  C   UNL A   1      30.106  27.450  24.302  1.00  0.00     0.011 A 
ATOM     24  C   UNL A   1      31.020  28.109  25.097  1.00  0.00    -0.019 A 
ATOM     25  S   UNL A   1      29.888  25.840  24.785  1.00  0.00    -0.122 S 
ATOM     26  C   UNL A   1      31.746  27.189  25.938  1.00  0.00     0.077 A 
BRANCH  19  27
ATOM     27  C   UNL A   1      29.526  30.077  21.521  1.00  0.00     0.004 C 
BRANCH  27  28
ATOM     28  C   UNL A   1      28.407  31.004  22.016  1.00  0.00    -0.003 C 
ATOM     29  C   UNL A   1      28.033  32.065  20.987  1.00  0.00     0.004 C 
ENDBRANCH  27  28
ENDBRANCH  19  27
BRANCH  26  30
ATOM     30  C   UNL A   1      33.033  27.562  26.514  1.00  0.00     0.251 C 
ATOM     31  N   UNL A   1      32.964  28.357  27.623  1.00  0.00    -0.365 N 
ATOM     32  O   UNL A   1      34.110  27.154  26.101  1.00  0.00    -0.269 OA
ATOM     33  H   UNL A   1      32.091  28.679  27.945  1.00  0.00     0.159 HD
ATOM     34  H   UNL A   1      33.788  28.610  28.100  1.00  0.00     0.159 HD
ENDBRANCH  26  30
ENDBRANCH  15  18
ENDBRANCH   8  14
ENDBRANCH   4   7
ENDBRANCH   2   3
ENDBRANCH   1   2
BRANCH   1  35
ATOM     35  C   UNL A   1      37.415  21.876  24.425  1.00  0.00     0.002 C 
BRANCH  35  36
ATOM     36  C   UNL A   1      37.175  20.477  25.001  1.00  0.00     0.002 C 
BRANCH  36  37
ATOM     37  C   UNL A   1      38.389  19.543  24.997  1.00  0.00     0.021 C 
BRANCH  37  38
ATOM     38  C   UNL A   1      39.384  19.773  26.130  1.00  0.00     0.116 C 
BRANCH  38  39
ATOM     39  N   UNL A   1      40.531  18.885  26.042  1.00  0.00    -0.352 N 
ATOM     40  C   UNL A   1      41.867  19.190  26.029  1.00  0.00     0.251 C 
ATOM     41  H   UNL A   1      40.318  17.925  25.986  1.00  0.00     0.163 HD
ATOM     42  O   UNL A   1      42.700  18.334  25.752  1.00  0.00    -0.269 OA
BRANCH  40  43
ATOM     43  C   UNL A   1      42.300  20.564  26.342  1.00  0.00     0.039 A 
ATOM     44  C   UNL A   1      42.544  20.912  27.673  1.00  0.00     0.014 A 
ATOM     45  C   UNL A   1      42.448  21.508  25.322  1.00  0.00     0.014 A 
ATOM     46  C   UNL A   1      42.982  22.201  27.979  1.00  0.00     0.010 A 
ATOM     47  C   UNL A   1      42.943  22.771  25.621  1.00  0.00     0.010 A 
ATOM     48  C   UNL A   1      43.205  23.132  26.952  1.00  0.00    -0.014 A 
BRANCH  48  49
ATOM     49  C   UNL A   1      43.678  24.506  27.241  1.00  0.00     0.031 A 
ATOM     50  C   UNL A   1      42.707  25.528  27.759  1.00  0.00     0.074 A 
ATOM     51  C   UNL A   1      44.948  24.851  26.959  1.00  0.00     0.049 A 
ATOM     52  N   UNL A   1      42.873  26.811  27.945  1.00  0.00    -0.248 NA
ATOM     53  C   UNL A   1      41.354  25.043  28.081  1.00  0.00     0.031 C 
ATOM     54  C   UNL A   1      45.969  23.951  26.423  1.00  0.00     0.029 A 
ATOM     55  N   UNL A   1      45.588  26.059  27.064  1.00  0.00    -0.354 N 
ATOM     56  C   UNL A   1      41.644  27.290  28.380  1.00  0.00     0.074 A 
ATOM     57  C   UNL A   1      40.729  26.169  28.389  1.00  0.00     0.031 C 
ATOM     58  C   UNL A   1      47.112  24.636  26.254  1.00  0.00     0.029 A 
ATOM     59  C   UNL A   1      46.892  26.028  26.631  1.00  0.00     0.049 A 
ATOM     60  H   UNL A   1      45.156  26.870  27.416  1.00  0.00     0.167 HD
ATOM     61  C   UNL A   1      41.316  28.549  28.755  1.00  0.00     0.037 A 
ATOM     62  C   UNL A   1      47.798  27.020  26.536  1.00  0.00     0.037 A 
ATOM     63  C   UNL A   1      42.242  29.650  28.773  1.00  0.00     0.049 A 
ATOM     64  C   UNL A   1      47.409  28.409  26.964  1.00  0.00     0.074 A 
ATOM     65  C   UNL A   1      42.026  30.954  29.183  1.00  0.00     0.029 A 
ATOM     66  N   UNL A   1      43.566  29.571  28.365  1.00  0.00    -0.354 N 
ATOM     67  N   UNL A   1      46.259  28.844  27.419  1.00  0.00    -0.248 NA
ATOM     68  C   UNL A   1      48.447  29.446  26.872  1.00  0.00     0.031 C 
ATOM     69  C   UNL A   1      43.209  31.673  28.990  1.00  0.00     0.029 A 
ATOM     70  C   UNL A   1      44.176  30.807  28.504  1.00  0.00     0.049 A 
ATOM     71  H   UNL A   1      44.006  28.758  28.028  1.00  0.00     0.167 HD
ATOM     72  C   UNL A   1      46.442  30.191  27.700  1.00  0.00     0.074 A 
ATOM     73  C   UNL A   1      47.817  30.502  27.367  1.00  0.00     0.031 C 
ATOM     74  C   UNL A   1      45.554  31.088  28.190  1.00  0.00     0.037 A 
BRANCH  61  75
ATOM     75  C   UNL A   1      39.898  28.801  29.175  1.00  0.00     0.064 A 
ATOM     76  C   UNL A   1      38.912  29.178  28.251  1.00  0.00     0.173 A 
ATOM     77  C   UNL A   1      39.511  28.637  30.514  1.00  0.00     0.173 A 
ATOM     78  F   UNL A   1      39.231  29.362  26.960  1.00  0.00    -0.203 F 
ATOM     79  C   UNL A   1      37.600  29.409  28.655  1.00  0.00     0.198 A 
ATOM     80  C   UNL A   1      38.192  28.839  30.910  1.00  0.00     0.198 A 
ATOM     81  F   UNL A   1      40.413  28.273  31.439  1.00  0.00    -0.203 F 
ATOM     82  F   UNL A   1      36.686  29.816  27.762  1.00  0.00    -0.200 F 
ATOM     83  C   UNL A   1      37.240  29.232  29.982  1.00  0.00     0.200 A 
ATOM     84  F   UNL A   1      37.843  28.656  32.191  1.00  0.00    -0.200 F 
ATOM     85  F   UNL A   1      35.975  29.449  30.370  1.00  0.00    -0.200 F 
ENDBRANCH  61  75
BRANCH  62  86
ATOM     86  C   UNL A   1      49.167  26.728  26.039  1.00  0.00     0.064 A 
ATOM     87  C   UNL A   1      49.510  26.970  24.701  1.00  0.00     0.173 A 
ATOM     88  C   UNL A   1      50.156  26.204  26.882  1.00  0.00     0.173 A 
ATOM     89  F   UNL A   1      48.592  27.453  23.851  1.00  0.00    -0.203 F 
ATOM     90  C   UNL A   1      50.787  26.683  24.223  1.00  0.00     0.198 A 
ATOM     91  C   UNL A   1      51.440  25.942  26.409  1.00  0.00     0.198 A 
ATOM     92  F   UNL A   1      49.880  25.960  28.172  1.00  0.00    -0.203 F 
ATOM     93  F   UNL A   1      51.076  26.885  22.930  1.00  0.00    -0.200 F 
ATOM     94  C   UNL A   1      51.753  26.174  25.078  1.00  0.00     0.200 A 
ATOM     95  F   UNL A   1      52.375  25.463  27.242  1.00  0.00    -0.200 F 
ATOM     96  F   UNL A   1      52.981  25.900  24.617  1.00  0.00    -0.200 F 
ENDBRANCH  62  86
BRANCH  74  97
ATOM     97  C   UNL A   1      46.051  32.478  28.451  1.00  0.00     0.064 A 
ATOM     98  C   UNL A   1      45.975  33.484  27.477  1.00  0.00     0.173 A 
ATOM     99  C   UNL A   1      46.556  32.819  29.715  1.00  0.00     0.173 A 
ATOM    100  F   UNL A   1      45.513  33.202  26.250  1.00  0.00    -0.203 F 
ATOM    101  C   UNL A   1      46.406  34.779  27.754  1.00  0.00     0.198 A 
ATOM    102  C   UNL A   1      46.961  34.120  29.996  1.00  0.00     0.198 A 
ATOM    103  F   UNL A   1      46.642  31.894  30.681  1.00  0.00    -0.203 F 
ATOM    104  F   UNL A   1      46.362  35.716  26.797  1.00  0.00    -0.200 F 
ATOM    105  C   UNL A   1      46.890  35.098  29.015  1.00  0.00     0.200 A 
ATOM    106  F   UNL A   1      47.416  34.431  31.218  1.00  0.00    -0.200 F 
ATOM    107  F   UNL A   1      47.294  36.347  29.282  1.00  0.00    -0.200 F 
ENDBRANCH  74  97
ENDBRANCH  48  49
ENDBRANCH  40  43
ENDBRANCH  38  39
ENDBRANCH  37  38
ENDBRANCH  36  37
ENDBRANCH  35  36
ENDBRANCH   1  35
TORSDOF 18
ENDMDL
