MODEL 1
REMARK VINA RESULT:     -12.9      0.000      0.000
REMARK SMILES CCC(=O)N1CCc2cc(C(=O)NC3(C(=O)NCCCCCCNC(=O)c4ccc(-c5c6nc(c(-c7c(F)c(F)c(F)c(F)c7F)c7ccc([nH]7)c(-c7c(F)c(F)c(F)c(F)c7F)c7nc(c(-c8c(F)c(F)c(F)c(F)c8F)c8ccc5[nH]8)C=C7)C=C6)cc4)CCCC3)ccc21
REMARK SMILES IDX 19 1 18 2 17 3 15 4 16 5 14 7 90 8 93 9 91 10 92 11 13 12
REMARK SMILES IDX 11 13 12 14 10 16 5 17 6 18 96 19 7 20 8 21 95 22 9 23 94 24
REMARK SMILES IDX 3 25 4 26 2 27 1 28 20 29 21 30 22 31 23 32 24 33 25 34
REMARK SMILES IDX 26 36 27 37 28 38 89 39 29 40 88 41 30 42 31 43 32 44 82 45
REMARK SMILES IDX 33 46 87 47 81 48 83 49 34 50 86 51 80 52 79 53 35 55 67 56
REMARK SMILES IDX 47 57 66 58 48 59 51 60 65 61 84 62 49 63 50 64 64 66 85 67
REMARK SMILES IDX 52 68 36 69 37 70 45 71 38 72 39 73 43 74 46 75 40 76 41 77
REMARK SMILES IDX 44 78 42 79 68 80 69 81 77 82 70 83 71 84 75 85 78 86 72 87
REMARK SMILES IDX 73 88 76 89 74 90 53 91 54 92 62 93 55 94 56 95 60 96 63 97
REMARK SMILES IDX 57 98 58 99 61 100 59 101
REMARK H PARENT 17 6 13 15 24 35 83 54 51 65
REMARK Flexibility Score: inf
ROOT
ATOM      1  C   UNL A   1      33.617  29.783  27.258  1.00  0.00     0.021 C 
ENDROOT
BRANCH   1   2
ATOM      2  C   UNL A   1      34.212  28.655  26.408  1.00  0.00     0.116 C 
BRANCH   2   3
ATOM      3  N   UNL A   1      34.265  28.948  24.985  1.00  0.00    -0.354 N 
ATOM      4  C   UNL A   1      33.658  28.392  23.892  1.00  0.00     0.245 C 
ATOM      5  O   UNL A   1      33.770  29.012  22.828  1.00  0.00    -0.272 OA
ATOM      6  H   UNL A   1      34.858  29.702  24.762  1.00  0.00     0.163 HD
BRANCH   4   7
ATOM      7  C   UNL A   1      32.873  27.032  23.936  1.00  0.00     0.119 C 
ATOM      8  C   UNL A   1      31.408  27.291  24.353  1.00  0.00     0.038 C 
ATOM      9  C   UNL A   1      33.528  26.148  25.016  1.00  0.00     0.038 C 
ATOM     10  C   UNL A   1      31.164  26.567  25.688  1.00  0.00     0.003 C 
ATOM     11  C   UNL A   1      32.492  25.944  26.132  1.00  0.00     0.003 C 
BRANCH   7  12
ATOM     12  N   UNL A   1      32.965  26.452  22.510  1.00  0.00    -0.338 N 
ATOM     13  C   UNL A   1      33.121  25.246  21.822  1.00  0.00     0.252 C 
ATOM     14  O   UNL A   1      33.071  25.272  20.591  1.00  0.00    -0.269 OA
ATOM     15  H   UNL A   1      32.887  27.186  21.859  1.00  0.00     0.164 HD
BRANCH  13  16
ATOM     16  C   UNL A   1      33.381  23.914  22.461  1.00  0.00     0.040 A 
ATOM     17  N   UNL A   1      33.624  20.180  24.348  1.00  0.00    -0.312 N 
ATOM     18  C   UNL A   1      34.934  20.237  25.007  1.00  0.00     0.130 C 
ATOM     19  C   UNL A   1      33.449  21.383  23.680  1.00  0.00     0.047 A 
ATOM     20  C   UNL A   1      35.564  21.618  24.685  1.00  0.00     0.059 C 
ATOM     21  C   UNL A   1      34.536  22.249  23.795  1.00  0.00    -0.022 A 
ATOM     22  C   UNL A   1      32.334  21.795  23.052  1.00  0.00     0.027 A 
ATOM     23  C   UNL A   1      34.512  23.536  23.204  1.00  0.00     0.019 A 
ATOM     24  C   UNL A   1      32.384  22.982  22.371  1.00  0.00     0.016 A 
BRANCH  17  25
ATOM     25  C   UNL A   1      32.769  19.097  24.461  1.00  0.00     0.226 C 
ATOM     26  O   UNL A   1      32.158  18.891  25.516  1.00  0.00    -0.275 OA
BRANCH  25  27
ATOM     27  C   UNL A   1      32.744  18.000  23.371  1.00  0.00     0.097 C 
ATOM     28  C   UNL A   1      33.919  17.061  23.128  1.00  0.00     0.014 C 
ENDBRANCH  25  27
ENDBRANCH  17  25
ENDBRANCH  13  16
ENDBRANCH   7  12
ENDBRANCH   4   7
ENDBRANCH   2   3
ENDBRANCH   1   2
BRANCH   1  29
ATOM     29  C   UNL A   1      32.089  29.809  27.254  1.00  0.00     0.002 C 
BRANCH  29  30
ATOM     30  C   UNL A   1      31.466  30.740  26.203  1.00  0.00     0.002 C 
BRANCH  30  31
ATOM     31  C   UNL A   1      31.341  32.213  26.605  1.00  0.00     0.021 C 
BRANCH  31  32
ATOM     32  C   UNL A   1      32.668  32.930  26.838  1.00  0.00     0.116 C 
BRANCH  32  33
ATOM     33  N   UNL A   1      32.484  34.207  27.510  1.00  0.00    -0.352 N 
ATOM     34  C   UNL A   1      33.030  34.681  28.675  1.00  0.00     0.251 C 
ATOM     35  H   UNL A   1      31.869  34.828  27.058  1.00  0.00     0.163 HD
ATOM     36  O   UNL A   1      32.553  35.668  29.220  1.00  0.00    -0.269 OA
BRANCH  34  37
ATOM     37  C   UNL A   1      34.198  34.003  29.273  1.00  0.00     0.039 A 
ATOM     38  C   UNL A   1      35.480  34.452  28.951  1.00  0.00     0.014 A 
ATOM     39  C   UNL A   1      34.029  32.900  30.114  1.00  0.00     0.014 A 
ATOM     40  C   UNL A   1      36.593  33.828  29.515  1.00  0.00     0.010 A 
ATOM     41  C   UNL A   1      35.134  32.326  30.734  1.00  0.00     0.010 A 
ATOM     42  C   UNL A   1      36.428  32.781  30.435  1.00  0.00    -0.014 A 
BRANCH  42  43
ATOM     43  C   UNL A   1      37.595  32.146  31.096  1.00  0.00     0.031 A 
ATOM     44  C   UNL A   1      38.387  31.089  30.380  1.00  0.00     0.074 A 
ATOM     45  C   UNL A   1      37.894  32.475  32.366  1.00  0.00     0.049 A 
ATOM     46  N   UNL A   1      39.391  30.370  30.814  1.00  0.00    -0.248 NA
ATOM     47  C   UNL A   1      37.980  30.777  29.001  1.00  0.00     0.031 C 
ATOM     48  C   UNL A   1      37.167  33.450  33.180  1.00  0.00     0.029 A 
ATOM     49  N   UNL A   1      38.880  32.015  33.202  1.00  0.00    -0.354 N 
ATOM     50  C   UNL A   1      39.723  29.515  29.771  1.00  0.00     0.074 A 
ATOM     51  C   UNL A   1      38.780  29.764  28.704  1.00  0.00     0.031 C 
ATOM     52  C   UNL A   1      37.742  33.530  34.390  1.00  0.00     0.029 A 
ATOM     53  C   UNL A   1      38.849  32.582  34.453  1.00  0.00     0.049 A 
ATOM     54  H   UNL A   1      39.546  31.342  32.932  1.00  0.00     0.167 HD
ATOM     55  C   UNL A   1      40.736  28.618  29.704  1.00  0.00     0.037 A 
ATOM     56  C   UNL A   1      39.620  32.353  35.533  1.00  0.00     0.037 A 
ATOM     57  C   UNL A   1      41.683  28.391  30.767  1.00  0.00     0.049 A 
ATOM     58  C   UNL A   1      40.734  31.345  35.436  1.00  0.00     0.074 A 
ATOM     59  C   UNL A   1      42.786  27.556  30.774  1.00  0.00     0.029 A 
ATOM     60  N   UNL A   1      41.631  28.997  32.014  1.00  0.00    -0.354 N 
ATOM     61  N   UNL A   1      41.088  30.600  34.417  1.00  0.00    -0.248 NA
ATOM     62  C   UNL A   1      41.559  31.154  36.636  1.00  0.00     0.031 C 
ATOM     63  C   UNL A   1      43.366  27.612  32.045  1.00  0.00     0.029 A 
ATOM     64  C   UNL A   1      42.664  28.530  32.809  1.00  0.00     0.049 A 
ATOM     65  H   UNL A   1      40.959  29.661  32.292  1.00  0.00     0.167 HD
ATOM     66  C   UNL A   1      42.192  29.871  34.843  1.00  0.00     0.074 A 
ATOM     67  C   UNL A   1      42.458  30.279  36.206  1.00  0.00     0.031 C 
ATOM     68  C   UNL A   1      42.918  28.950  34.165  1.00  0.00     0.037 A 
BRANCH  55  69
ATOM     69  C   UNL A   1      40.871  27.812  28.445  1.00  0.00     0.064 A 
ATOM     70  C   UNL A   1      41.642  28.257  27.359  1.00  0.00     0.173 A 
ATOM     71  C   UNL A   1      40.249  26.558  28.333  1.00  0.00     0.173 A 
ATOM     72  F   UNL A   1      42.250  29.452  27.409  1.00  0.00    -0.203 F 
ATOM     73  C   UNL A   1      41.758  27.495  26.200  1.00  0.00     0.198 A 
ATOM     74  C   UNL A   1      40.395  25.783  27.185  1.00  0.00     0.198 A 
ATOM     75  F   UNL A   1      39.506  26.079  29.342  1.00  0.00    -0.203 F 
ATOM     76  F   UNL A   1      42.454  27.967  25.157  1.00  0.00    -0.200 F 
ATOM     77  C   UNL A   1      41.141  26.255  26.116  1.00  0.00     0.200 A 
ATOM     78  F   UNL A   1      39.812  24.579  27.113  1.00  0.00    -0.200 F 
ATOM     79  F   UNL A   1      41.259  25.521  25.002  1.00  0.00    -0.200 F 
ENDBRANCH  55  69
BRANCH  56  80
ATOM     80  C   UNL A   1      39.374  33.104  36.792  1.00  0.00     0.064 A 
ATOM     81  C   UNL A   1      40.050  34.301  37.064  1.00  0.00     0.173 A 
ATOM     82  C   UNL A   1      38.458  32.641  37.749  1.00  0.00     0.173 A 
ATOM     83  F   UNL A   1      40.949  34.775  36.188  1.00  0.00    -0.203 F 
ATOM     84  C   UNL A   1      39.838  34.996  38.253  1.00  0.00     0.198 A 
ATOM     85  C   UNL A   1      38.223  33.353  38.923  1.00  0.00     0.198 A 
ATOM     86  F   UNL A   1      37.778  31.506  37.535  1.00  0.00    -0.203 F 
ATOM     87  F   UNL A   1      40.533  36.112  38.507  1.00  0.00    -0.200 F 
ATOM     88  C   UNL A   1      38.920  34.524  39.179  1.00  0.00     0.200 A 
ATOM     89  F   UNL A   1      37.321  32.904  39.807  1.00  0.00    -0.200 F 
ATOM     90  F   UNL A   1      38.710  35.196  40.320  1.00  0.00    -0.200 F 
ENDBRANCH  56  80
BRANCH  68  91
ATOM     91  C   UNL A   1      44.094  28.341  34.876  1.00  0.00     0.064 A 
ATOM     92  C   UNL A   1      45.367  28.927  34.834  1.00  0.00     0.173 A 
ATOM     93  C   UNL A   1      43.931  27.177  35.643  1.00  0.00     0.173 A 
ATOM     94  F   UNL A   1      45.578  30.031  34.103  1.00  0.00    -0.203 F 
ATOM     95  C   UNL A   1      46.441  28.354  35.512  1.00  0.00     0.198 A 
ATOM     96  C   UNL A   1      44.999  26.626  36.346  1.00  0.00     0.198 A 
ATOM     97  F   UNL A   1      42.732  26.580  35.722  1.00  0.00    -0.203 F 
ATOM     98  F   UNL A   1      47.660  28.903  35.416  1.00  0.00    -0.200 F 
ATOM     99  C   UNL A   1      46.254  27.211  36.274  1.00  0.00     0.200 A 
ATOM    100  F   UNL A   1      44.811  25.531  37.096  1.00  0.00    -0.200 F 
ATOM    101  F   UNL A   1      47.286  26.668  36.934  1.00  0.00    -0.200 F 
ENDBRANCH  68  91
ENDBRANCH  42  43
ENDBRANCH  34  37
ENDBRANCH  32  33
ENDBRANCH  31  32
ENDBRANCH  30  31
ENDBRANCH  29  30
ENDBRANCH   1  29
TORSDOF 17
ENDMDL
MODEL 2
REMARK VINA RESULT:     -12.5      0.748      7.200
REMARK SMILES CCC(=O)N1CCc2cc(C(=O)NC3(C(=O)NCCCCCCNC(=O)c4ccc(-c5c6nc(c(-c7c(F)c(F)c(F)c(F)c7F)c7ccc([nH]7)c(-c7c(F)c(F)c(F)c(F)c7F)c7nc(c(-c8c(F)c(F)c(F)c(F)c8F)c8ccc5[nH]8)C=C7)C=C6)cc4)CCCC3)ccc21
REMARK SMILES IDX 19 1 18 2 17 3 15 4 16 5 14 7 90 8 93 9 91 10 92 11 13 12
REMARK SMILES IDX 11 13 12 14 10 16 5 17 6 18 96 19 7 20 8 21 95 22 9 23 94 24
REMARK SMILES IDX 3 25 4 26 2 27 1 28 20 29 21 30 22 31 23 32 24 33 25 34
REMARK SMILES IDX 26 36 27 37 28 38 89 39 29 40 88 41 30 42 31 43 32 44 82 45
REMARK SMILES IDX 33 46 87 47 81 48 83 49 34 50 86 51 80 52 79 53 35 55 67 56
REMARK SMILES IDX 47 57 66 58 48 59 51 60 65 61 84 62 49 63 50 64 64 66 85 67
REMARK SMILES IDX 52 68 36 69 37 70 45 71 38 72 39 73 43 74 46 75 40 76 41 77
REMARK SMILES IDX 44 78 42 79 68 80 69 81 77 82 70 83 71 84 75 85 78 86 72 87
REMARK SMILES IDX 73 88 76 89 74 90 53 91 54 92 62 93 55 94 56 95 60 96 63 97
REMARK SMILES IDX 57 98 58 99 61 100 59 101
REMARK H PARENT 17 6 13 15 24 35 83 54 51 65
REMARK Flexibility Score: inf
ROOT
ATOM      1  C   UNL A   1      31.735  28.660  27.312  1.00  0.00     0.021 C 
ENDROOT
BRANCH   1   2
ATOM      2  C   UNL A   1      31.656  27.608  26.201  1.00  0.00     0.116 C 
BRANCH   2   3
ATOM      3  N   UNL A   1      32.769  27.646  25.266  1.00  0.00    -0.354 N 
ATOM      4  C   UNL A   1      32.849  27.559  23.903  1.00  0.00     0.245 C 
ATOM      5  O   UNL A   1      33.946  27.826  23.400  1.00  0.00    -0.272 OA
ATOM      6  H   UNL A   1      33.644  27.760  25.703  1.00  0.00     0.163 HD
BRANCH   4   7
ATOM      7  C   UNL A   1      31.646  27.123  22.991  1.00  0.00     0.119 C 
ATOM      8  C   UNL A   1      30.814  28.366  22.601  1.00  0.00     0.038 C 
ATOM      9  C   UNL A   1      30.745  26.186  23.820  1.00  0.00     0.038 C 
ATOM     10  C   UNL A   1      29.404  28.191  23.189  1.00  0.00     0.003 C 
ATOM     11  C   UNL A   1      29.397  26.897  24.010  1.00  0.00     0.003 C 
BRANCH   7  12
ATOM     12  N   UNL A   1      32.281  26.452  21.756  1.00  0.00    -0.338 N 
ATOM     13  C   UNL A   1      32.901  25.269  21.345  1.00  0.00     0.252 C 
ATOM     14  O   UNL A   1      33.210  25.161  20.157  1.00  0.00    -0.269 OA
ATOM     15  H   UNL A   1      32.235  27.073  20.994  1.00  0.00     0.164 HD
BRANCH  13  16
ATOM     16  C   UNL A   1      33.256  24.122  22.244  1.00  0.00     0.040 A 
ATOM     17  N   UNL A   1      33.779  20.767  24.700  1.00  0.00    -0.312 N 
ATOM     18  C   UNL A   1      34.714  21.257  25.720  1.00  0.00     0.130 C 
ATOM     19  C   UNL A   1      33.545  21.815  23.822  1.00  0.00     0.047 A 
ATOM     20  C   UNL A   1      35.038  22.739  25.390  1.00  0.00     0.059 C 
ATOM     21  C   UNL A   1      34.259  22.972  24.129  1.00  0.00    -0.022 A 
ATOM     22  C   UNL A   1      32.653  21.832  22.816  1.00  0.00     0.027 A 
ATOM     23  C   UNL A   1      34.113  24.150  23.357  1.00  0.00     0.019 A 
ATOM     24  C   UNL A   1      32.630  22.930  22.000  1.00  0.00     0.016 A 
BRANCH  17  25
ATOM     25  C   UNL A   1      33.249  19.488  24.715  1.00  0.00     0.226 C 
ATOM     26  O   UNL A   1      32.169  19.267  25.275  1.00  0.00    -0.275 OA
BRANCH  25  27
ATOM     27  C   UNL A   1      34.098  18.281  24.251  1.00  0.00     0.097 C 
ATOM     28  C   UNL A   1      33.483  16.927  23.921  1.00  0.00     0.014 C 
ENDBRANCH  25  27
ENDBRANCH  17  25
ENDBRANCH  13  16
ENDBRANCH   7  12
ENDBRANCH   4   7
ENDBRANCH   2   3
ENDBRANCH   1   2
BRANCH   1  29
ATOM     29  C   UNL A   1      32.296  30.003  26.843  1.00  0.00     0.002 C 
BRANCH  29  30
ATOM     30  C   UNL A   1      31.284  30.902  26.118  1.00  0.00     0.002 C 
BRANCH  30  31
ATOM     31  C   UNL A   1      31.346  32.393  26.465  1.00  0.00     0.021 C 
BRANCH  31  32
ATOM     32  C   UNL A   1      32.634  32.840  27.151  1.00  0.00     0.116 C 
BRANCH  32  33
ATOM     33  N   UNL A   1      32.534  34.199  27.661  1.00  0.00    -0.352 N 
ATOM     34  C   UNL A   1      33.130  34.781  28.749  1.00  0.00     0.251 C 
ATOM     35  H   UNL A   1      31.943  34.792  27.144  1.00  0.00     0.163 HD
ATOM     36  O   UNL A   1      32.719  35.854  29.174  1.00  0.00    -0.269 OA
BRANCH  34  37
ATOM     37  C   UNL A   1      34.273  34.118  29.409  1.00  0.00     0.039 A 
ATOM     38  C   UNL A   1      34.054  33.409  30.592  1.00  0.00     0.014 A 
ATOM     39  C   UNL A   1      35.563  34.232  28.885  1.00  0.00     0.014 A 
ATOM     40  C   UNL A   1      35.121  32.769  31.222  1.00  0.00     0.010 A 
ATOM     41  C   UNL A   1      36.613  33.533  29.472  1.00  0.00     0.010 A 
ATOM     42  C   UNL A   1      36.403  32.801  30.650  1.00  0.00    -0.014 A 
BRANCH  42  43
ATOM     43  C   UNL A   1      37.540  32.073  31.268  1.00  0.00     0.031 A 
ATOM     44  C   UNL A   1      38.031  32.459  32.635  1.00  0.00     0.074 A 
ATOM     45  C   UNL A   1      38.170  31.113  30.566  1.00  0.00     0.049 A 
ATOM     46  N   UNL A   1      39.050  31.993  33.311  1.00  0.00    -0.248 NA
ATOM     47  C   UNL A   1      37.295  33.531  33.324  1.00  0.00     0.031 C 
ATOM     48  C   UNL A   1      37.815  30.687  29.212  1.00  0.00     0.029 A 
ATOM     49  N   UNL A   1      39.251  30.331  30.888  1.00  0.00    -0.354 N 
ATOM     50  C   UNL A   1      39.086  32.722  34.492  1.00  0.00     0.074 A 
ATOM     51  C   UNL A   1      38.023  33.699  34.418  1.00  0.00     0.031 C 
ATOM     52  C   UNL A   1      38.649  29.709  28.826  1.00  0.00     0.029 A 
ATOM     53  C   UNL A   1      39.623  29.469  29.885  1.00  0.00     0.049 A 
ATOM     54  H   UNL A   1      39.715  30.384  31.754  1.00  0.00     0.167 HD
ATOM     55  C   UNL A   1      39.919  32.575  35.550  1.00  0.00     0.037 A 
ATOM     56  C   UNL A   1      40.643  28.592  29.825  1.00  0.00     0.037 A 
ATOM     57  C   UNL A   1      40.964  31.585  35.622  1.00  0.00     0.049 A 
ATOM     58  C   UNL A   1      41.560  28.454  31.010  1.00  0.00     0.074 A 
ATOM     59  C   UNL A   1      41.817  31.308  36.675  1.00  0.00     0.029 A 
ATOM     60  N   UNL A   1      41.300  30.716  34.594  1.00  0.00    -0.354 N 
ATOM     61  N   UNL A   1      41.536  29.094  32.154  1.00  0.00    -0.248 NA
ATOM     62  C   UNL A   1      42.641  27.465  30.899  1.00  0.00     0.031 C 
ATOM     63  C   UNL A   1      42.709  30.313  36.263  1.00  0.00     0.029 A 
ATOM     64  C   UNL A   1      42.370  29.924  34.977  1.00  0.00     0.049 A 
ATOM     65  H   UNL A   1      40.846  30.670  33.722  1.00  0.00     0.167 HD
ATOM     66  C   UNL A   1      42.577  28.569  32.908  1.00  0.00     0.074 A 
ATOM     67  C   UNL A   1      43.202  27.545  32.098  1.00  0.00     0.031 C 
ATOM     68  C   UNL A   1      42.979  28.905  34.158  1.00  0.00     0.037 A 
BRANCH  55  69
ATOM     69  C   UNL A   1      39.740  33.508  36.713  1.00  0.00     0.064 A 
ATOM     70  C   UNL A   1      40.417  34.737  36.788  1.00  0.00     0.173 A 
ATOM     71  C   UNL A   1      38.852  33.187  37.752  1.00  0.00     0.173 A 
ATOM     72  F   UNL A   1      41.284  35.089  35.828  1.00  0.00    -0.203 F 
ATOM     73  C   UNL A   1      40.237  35.591  37.873  1.00  0.00     0.198 A 
ATOM     74  C   UNL A   1      38.649  34.059  38.818  1.00  0.00     0.198 A 
ATOM     75  F   UNL A   1      38.174  32.030  37.729  1.00  0.00    -0.203 F 
ATOM     76  F   UNL A   1      40.936  36.731  37.948  1.00  0.00    -0.200 F 
ATOM     77  C   UNL A   1      39.347  35.255  38.883  1.00  0.00     0.200 A 
ATOM     78  F   UNL A   1      37.778  33.741  39.785  1.00  0.00    -0.200 F 
ATOM     79  F   UNL A   1      39.171  36.081  39.923  1.00  0.00    -0.200 F 
ENDBRANCH  55  69
BRANCH  56  80
ATOM     80  C   UNL A   1      40.840  27.768  28.603  1.00  0.00     0.064 A 
ATOM     81  C   UNL A   1      40.203  26.528  28.458  1.00  0.00     0.173 A 
ATOM     82  C   UNL A   1      41.668  28.201  27.557  1.00  0.00     0.173 A 
ATOM     83  F   UNL A   1      39.416  26.062  29.439  1.00  0.00    -0.203 F 
ATOM     84  C   UNL A   1      40.403  25.743  27.324  1.00  0.00     0.198 A 
ATOM     85  C   UNL A   1      41.842  27.430  26.410  1.00  0.00     0.198 A 
ATOM     86  F   UNL A   1      42.295  29.384  27.641  1.00  0.00    -0.203 F 
ATOM     87  F   UNL A   1      39.818  24.541  27.234  1.00  0.00    -0.200 F 
ATOM     88  C   UNL A   1      41.218  26.197  26.299  1.00  0.00     0.200 A 
ATOM     89  F   UNL A   1      42.615  27.882  25.413  1.00  0.00    -0.200 F 
ATOM     90  F   UNL A   1      41.404  25.445  25.205  1.00  0.00    -0.200 F 
ENDBRANCH  56  80
BRANCH  68  91
ATOM     91  C   UNL A   1      44.129  28.135  34.742  1.00  0.00     0.064 A 
ATOM     92  C   UNL A   1      43.938  26.923  35.422  1.00  0.00     0.173 A 
ATOM     93  C   UNL A   1      45.444  28.597  34.582  1.00  0.00     0.173 A 
ATOM     94  F   UNL A   1      42.700  26.446  35.616  1.00  0.00    -0.203 F 
ATOM     95  C   UNL A   1      45.020  26.217  35.944  1.00  0.00     0.198 A 
ATOM     96  C   UNL A   1      46.525  27.872  35.074  1.00  0.00     0.198 A 
ATOM     97  F   UNL A   1      45.683  29.747  33.933  1.00  0.00    -0.203 F 
ATOM     98  F   UNL A   1      44.809  25.088  36.634  1.00  0.00    -0.200 F 
ATOM     99  C   UNL A   1      46.312  26.687  35.761  1.00  0.00     0.200 A 
ATOM    100  F   UNL A   1      47.774  28.320  34.882  1.00  0.00    -0.200 F 
ATOM    101  F   UNL A   1      47.351  26.001  36.255  1.00  0.00    -0.200 F 
ENDBRANCH  68  91
ENDBRANCH  42  43
ENDBRANCH  34  37
ENDBRANCH  32  33
ENDBRANCH  31  32
ENDBRANCH  30  31
ENDBRANCH  29  30
ENDBRANCH   1  29
TORSDOF 17
ENDMDL
MODEL 3
REMARK VINA RESULT:     -12.4      1.298      2.347
REMARK SMILES CCC(=O)N1CCc2cc(C(=O)NC3(C(=O)NCCCCCCNC(=O)c4ccc(-c5c6nc(c(-c7c(F)c(F)c(F)c(F)c7F)c7ccc([nH]7)c(-c7c(F)c(F)c(F)c(F)c7F)c7nc(c(-c8c(F)c(F)c(F)c(F)c8F)c8ccc5[nH]8)C=C7)C=C6)cc4)CCCC3)ccc21
REMARK SMILES IDX 19 1 18 2 17 3 15 4 16 5 14 7 90 8 93 9 91 10 92 11 13 12
REMARK SMILES IDX 11 13 12 14 10 16 5 17 6 18 96 19 7 20 8 21 95 22 9 23 94 24
REMARK SMILES IDX 3 25 4 26 2 27 1 28 20 29 21 30 22 31 23 32 24 33 25 34
REMARK SMILES IDX 26 36 27 37 28 38 89 39 29 40 88 41 30 42 31 43 32 44 82 45
REMARK SMILES IDX 33 46 87 47 81 48 83 49 34 50 86 51 80 52 79 53 35 55 67 56
REMARK SMILES IDX 47 57 66 58 48 59 51 60 65 61 84 62 49 63 50 64 64 66 85 67
REMARK SMILES IDX 52 68 36 69 37 70 45 71 38 72 39 73 43 74 46 75 40 76 41 77
REMARK SMILES IDX 44 78 42 79 68 80 69 81 77 82 70 83 71 84 75 85 78 86 72 87
REMARK SMILES IDX 73 88 76 89 74 90 53 91 54 92 62 93 55 94 56 95 60 96 63 97
REMARK SMILES IDX 57 98 58 99 61 100 59 101
REMARK H PARENT 17 6 13 15 24 35 83 54 51 65
REMARK Flexibility Score: inf
ROOT
ATOM      1  C   UNL A   1      32.907  29.896  25.841  1.00  0.00     0.021 C 
ENDROOT
BRANCH   1   2
ATOM      2  C   UNL A   1      31.420  29.741  25.504  1.00  0.00     0.116 C 
BRANCH   2   3
ATOM      3  N   UNL A   1      31.133  29.723  24.078  1.00  0.00    -0.354 N 
ATOM      4  C   UNL A   1      31.102  28.725  23.143  1.00  0.00     0.245 C 
ATOM      5  O   UNL A   1      30.624  29.021  22.041  1.00  0.00    -0.272 OA
ATOM      6  H   UNL A   1      30.914  30.610  23.712  1.00  0.00     0.163 HD
BRANCH   4   7
ATOM      7  C   UNL A   1      31.653  27.277  23.402  1.00  0.00     0.119 C 
ATOM      8  C   UNL A   1      33.198  27.294  23.356  1.00  0.00     0.038 C 
ATOM      9  C   UNL A   1      31.151  26.374  22.258  1.00  0.00     0.038 C 
ATOM     10  C   UNL A   1      33.643  26.402  22.186  1.00  0.00     0.003 C 
ATOM     11  C   UNL A   1      32.383  25.914  21.463  1.00  0.00     0.003 C 
BRANCH   7  12
ATOM     12  N   UNL A   1      31.129  26.875  24.795  1.00  0.00    -0.338 N 
ATOM     13  C   UNL A   1      31.173  25.835  25.728  1.00  0.00     0.252 C 
ATOM     14  O   UNL A   1      30.602  26.002  26.807  1.00  0.00    -0.269 OA
ATOM     15  H   UNL A   1      30.569  27.601  25.150  1.00  0.00     0.164 HD
BRANCH  13  16
ATOM     16  C   UNL A   1      31.834  24.507  25.510  1.00  0.00     0.040 A 
ATOM     17  N   UNL A   1      33.288  20.594  25.123  1.00  0.00    -0.312 N 
ATOM     18  C   UNL A   1      34.735  20.770  25.296  1.00  0.00     0.130 C 
ATOM     19  C   UNL A   1      32.708  21.850  25.227  1.00  0.00     0.047 A 
ATOM     20  C   UNL A   1      35.002  22.281  25.530  1.00  0.00     0.059 C 
ATOM     21  C   UNL A   1      33.630  22.878  25.425  1.00  0.00    -0.022 A 
ATOM     22  C   UNL A   1      31.392  22.125  25.254  1.00  0.00     0.027 A 
ATOM     23  C   UNL A   1      33.208  24.219  25.589  1.00  0.00     0.019 A 
ATOM     24  C   UNL A   1      31.012  23.439  25.273  1.00  0.00     0.016 A 
BRANCH  17  25
ATOM     25  C   UNL A   1      32.695  19.358  24.934  1.00  0.00     0.226 C 
ATOM     26  O   UNL A   1      32.492  18.610  25.897  1.00  0.00    -0.275 OA
BRANCH  25  27
ATOM     27  C   UNL A   1      32.500  18.791  23.508  1.00  0.00     0.097 C 
ATOM     28  C   UNL A   1      33.143  17.488  23.050  1.00  0.00     0.014 C 
ENDBRANCH  25  27
ENDBRANCH  17  25
ENDBRANCH  13  16
ENDBRANCH   7  12
ENDBRANCH   4   7
ENDBRANCH   2   3
ENDBRANCH   1   2
BRANCH   1  29
ATOM     29  C   UNL A   1      33.196  29.901  27.342  1.00  0.00     0.002 C 
BRANCH  29  30
ATOM     30  C   UNL A   1      34.105  31.044  27.817  1.00  0.00     0.002 C 
BRANCH  30  31
ATOM     31  C   UNL A   1      33.793  32.429  27.242  1.00  0.00     0.021 C 
BRANCH  31  32
ATOM     32  C   UNL A   1      32.409  32.971  27.589  1.00  0.00     0.116 C 
BRANCH  32  33
ATOM     33  N   UNL A   1      32.431  34.408  27.815  1.00  0.00    -0.352 N 
ATOM     34  C   UNL A   1      33.139  35.149  28.725  1.00  0.00     0.251 C 
ATOM     35  H   UNL A   1      31.843  34.930  27.222  1.00  0.00     0.163 HD
ATOM     36  O   UNL A   1      32.828  36.313  28.945  1.00  0.00    -0.269 OA
BRANCH  34  37
ATOM     37  C   UNL A   1      34.282  34.546  29.440  1.00  0.00     0.039 A 
ATOM     38  C   UNL A   1      34.051  33.875  30.643  1.00  0.00     0.014 A 
ATOM     39  C   UNL A   1      35.583  34.680  28.946  1.00  0.00     0.014 A 
ATOM     40  C   UNL A   1      35.119  33.292  31.325  1.00  0.00     0.010 A 
ATOM     41  C   UNL A   1      36.635  34.035  29.587  1.00  0.00     0.010 A 
ATOM     42  C   UNL A   1      36.415  33.341  30.786  1.00  0.00    -0.014 A 
BRANCH  42  43
ATOM     43  C   UNL A   1      37.555  32.672  31.462  1.00  0.00     0.031 A 
ATOM     44  C   UNL A   1      38.236  31.500  30.813  1.00  0.00     0.074 A 
ATOM     45  C   UNL A   1      37.928  33.080  32.689  1.00  0.00     0.049 A 
ATOM     46  N   UNL A   1      39.197  30.741  31.275  1.00  0.00    -0.248 NA
ATOM     47  C   UNL A   1      37.752  31.108  29.480  1.00  0.00     0.031 C 
ATOM     48  C   UNL A   1      37.309  34.175  33.439  1.00  0.00     0.029 A 
ATOM     49  N   UNL A   1      38.907  32.614  33.529  1.00  0.00    -0.354 N 
ATOM     50  C   UNL A   1      39.422  29.779  30.299  1.00  0.00     0.074 A 
ATOM     51  C   UNL A   1      38.460  30.014  29.245  1.00  0.00     0.031 C 
ATOM     52  C   UNL A   1      37.935  34.308  34.618  1.00  0.00     0.029 A 
ATOM     53  C   UNL A   1      38.968  33.283  34.727  1.00  0.00     0.049 A 
ATOM     54  H   UNL A   1      39.508  31.870  33.296  1.00  0.00     0.167 HD
ATOM     55  C   UNL A   1      40.360  28.802  30.277  1.00  0.00     0.037 A 
ATOM     56  C   UNL A   1      39.761  33.084  35.797  1.00  0.00     0.037 A 
ATOM     57  C   UNL A   1      41.327  28.589  31.323  1.00  0.00     0.049 A 
ATOM     58  C   UNL A   1      40.789  31.986  35.751  1.00  0.00     0.074 A 
ATOM     59  C   UNL A   1      42.362  27.672  31.367  1.00  0.00     0.029 A 
ATOM     60  N   UNL A   1      41.370  29.299  32.515  1.00  0.00    -0.354 N 
ATOM     61  N   UNL A   1      41.046  31.133  34.789  1.00  0.00    -0.248 NA
ATOM     62  C   UNL A   1      41.644  31.829  36.936  1.00  0.00     0.031 C 
ATOM     63  C   UNL A   1      42.994  27.786  32.609  1.00  0.00     0.029 A 
ATOM     64  C   UNL A   1      42.395  28.818  33.314  1.00  0.00     0.049 A 
ATOM     65  H   UNL A   1      40.763  30.035  32.757  1.00  0.00     0.167 HD
ATOM     66  C   UNL A   1      42.105  30.356  35.239  1.00  0.00     0.074 A 
ATOM     67  C   UNL A   1      42.455  30.853  36.553  1.00  0.00     0.031 C 
ATOM     68  C   UNL A   1      42.732  29.327  34.620  1.00  0.00     0.037 A 
BRANCH  55  69
ATOM     69  C   UNL A   1      40.383  27.886  29.087  1.00  0.00     0.064 A 
ATOM     70  C   UNL A   1      39.635  26.698  29.052  1.00  0.00     0.173 A 
ATOM     71  C   UNL A   1      41.138  28.217  27.950  1.00  0.00     0.173 A 
ATOM     72  F   UNL A   1      38.905  26.329  30.114  1.00  0.00    -0.203 F 
ATOM     73  C   UNL A   1      39.667  25.862  27.939  1.00  0.00     0.198 A 
ATOM     74  C   UNL A   1      41.141  27.395  26.826  1.00  0.00     0.198 A 
ATOM     75  F   UNL A   1      41.866  29.342  27.925  1.00  0.00    -0.203 F 
ATOM     76  F   UNL A   1      38.988  24.707  27.952  1.00  0.00    -0.200 F 
ATOM     77  C   UNL A   1      40.414  26.214  26.824  1.00  0.00     0.200 A 
ATOM     78  F   UNL A   1      41.849  27.744  25.744  1.00  0.00    -0.200 F 
ATOM     79  F   UNL A   1      40.438  25.411  25.752  1.00  0.00    -0.200 F 
ENDBRANCH  55  69
BRANCH  56  80
ATOM     80  C   UNL A   1      39.622  33.954  36.995  1.00  0.00     0.064 A 
ATOM     81  C   UNL A   1      40.270  35.194  37.066  1.00  0.00     0.173 A 
ATOM     82  C   UNL A   1      38.839  33.564  38.091  1.00  0.00     0.173 A 
ATOM     83  F   UNL A   1      41.045  35.603  36.050  1.00  0.00    -0.203 F 
ATOM     84  C   UNL A   1      40.160  36.002  38.196  1.00  0.00     0.198 A 
ATOM     85  C   UNL A   1      38.703  34.386  39.208  1.00  0.00     0.198 A 
ATOM     86  F   UNL A   1      38.190  32.391  38.071  1.00  0.00    -0.203 F 
ATOM     87  F   UNL A   1      40.829  37.160  38.256  1.00  0.00    -0.200 F 
ATOM     88  C   UNL A   1      39.372  35.599  39.264  1.00  0.00     0.200 A 
ATOM     89  F   UNL A   1      37.924  34.002  40.228  1.00  0.00    -0.200 F 
ATOM     90  F   UNL A   1      39.260  36.379  40.348  1.00  0.00    -0.200 F 
ENDBRANCH  56  80
BRANCH  68  91
ATOM     91  C   UNL A   1      43.884  28.687  35.342  1.00  0.00     0.064 A 
ATOM     92  C   UNL A   1      43.695  27.635  36.249  1.00  0.00     0.173 A 
ATOM     93  C   UNL A   1      45.199  29.107  35.088  1.00  0.00     0.173 A 
ATOM     94  F   UNL A   1      42.457  27.207  36.538  1.00  0.00    -0.203 F 
ATOM     95  C   UNL A   1      44.778  27.045  36.897  1.00  0.00     0.198 A 
ATOM     96  C   UNL A   1      46.282  28.492  35.711  1.00  0.00     0.198 A 
ATOM     97  F   UNL A   1      45.437  30.105  34.223  1.00  0.00    -0.203 F 
ATOM     98  F   UNL A   1      44.570  26.076  37.799  1.00  0.00    -0.200 F 
ATOM     99  C   UNL A   1      46.070  27.467  36.621  1.00  0.00     0.200 A 
ATOM    100  F   UNL A   1      47.530  28.892  35.430  1.00  0.00    -0.200 F 
ATOM    101  F   UNL A   1      47.111  26.892  37.238  1.00  0.00    -0.200 F 
ENDBRANCH  68  91
ENDBRANCH  42  43
ENDBRANCH  34  37
ENDBRANCH  32  33
ENDBRANCH  31  32
ENDBRANCH  30  31
ENDBRANCH  29  30
ENDBRANCH   1  29
TORSDOF 17
ENDMDL
