MODEL 1
REMARK VINA RESULT:     -12.5      0.000      0.000
REMARK SMILES CC[N@@H+](C)Cc1cc2c(cc1Cl)C=C(C(=O)NCCCCCCNC(=O)c1ccc(-c3c4nc(c(-c5c(F)c(F)c(F)c(F)c5F)c5ccc([nH]5)c(-c5c(F)c(F)c(F)c(F)c5F)c5nc(c(-c6c(F)c(F)c(F)c(F)c6F)c6ccc3[nH]6)C=C5)C=C4)cc1)[C@@H](C(F)(F)F)O2
REMARK SMILES IDX 20 1 19 2 18 3 17 4 15 5 16 6 14 8 6 9 7 10 11 11 8 12 10 13
REMARK SMILES IDX 12 14 9 15 95 16 13 17 90 18 5 19 3 20 4 21 2 23 1 24 91 25
REMARK SMILES IDX 92 26 93 27 94 28 21 29 22 30 23 31 24 32 25 33 26 35 27 36
REMARK SMILES IDX 28 37 89 38 29 39 88 40 30 41 31 42 32 43 82 44 33 45 87 46
REMARK SMILES IDX 81 47 83 48 34 49 86 50 80 51 79 52 35 54 67 55 47 56 66 57
REMARK SMILES IDX 48 58 51 59 65 60 84 61 49 62 50 63 64 65 85 66 52 67 36 68
REMARK SMILES IDX 37 69 45 70 38 71 39 72 43 73 46 74 40 75 41 76 44 77 42 78
REMARK SMILES IDX 68 79 69 80 77 81 70 82 71 83 75 84 78 85 72 86 73 87 76 88
REMARK SMILES IDX 74 89 53 90 54 91 62 92 55 93 56 94 60 95 63 96 57 97 58 98
REMARK SMILES IDX 61 99 59 100
REMARK H PARENT 17 7 3 22 24 34 83 53 51 64
REMARK Flexibility Score: inf
ROOT
ATOM      1  C   UNL A   1      37.475  21.874  24.631  1.00  0.00     0.002 C 
ENDROOT
BRANCH   1   2
ATOM      2  C   UNL A   1      36.653  22.508  23.507  1.00  0.00     0.021 C 
BRANCH   2   3
ATOM      3  C   UNL A   1      35.943  23.801  23.899  1.00  0.00     0.116 C 
BRANCH   3   4
ATOM      4  N   UNL A   1      35.156  23.650  25.110  1.00  0.00    -0.352 N 
ATOM      5  C   UNL A   1      33.942  24.049  25.560  1.00  0.00     0.251 C 
ATOM      6  O   UNL A   1      33.637  23.633  26.681  1.00  0.00    -0.270 OA
ATOM      7  H   UNL A   1      35.633  23.115  25.786  1.00  0.00     0.163 HD
BRANCH   5   8
ATOM      8  C   UNL A   1      32.995  24.939  24.820  1.00  0.00     0.067 C 
ATOM      9  C   UNL A   1      30.573  29.039  23.119  1.00  0.00     0.029 A 
ATOM     10  C   UNL A   1      30.724  27.718  22.676  1.00  0.00     0.058 A 
ATOM     11  C   UNL A   1      31.032  29.348  24.411  1.00  0.00     0.050 A 
ATOM     12  C   UNL A   1      31.445  26.789  23.417  1.00  0.00     0.128 A 
ATOM     13  C   UNL A   1      31.735  28.397  25.168  1.00  0.00     0.033 A 
ATOM     14  Cl  UNL A   1      30.769  30.886  25.150  1.00  0.00    -0.084 Cl
ATOM     15  C   UNL A   1      31.979  27.124  24.652  1.00  0.00     0.019 A 
ATOM     16  O   UNL A   1      31.638  25.590  22.808  1.00  0.00    -0.475 OA
ATOM     17  C   UNL A   1      32.836  26.170  25.341  1.00  0.00     0.025 C 
ATOM     18  C   UNL A   1      32.242  24.528  23.586  1.00  0.00     0.314 C 
BRANCH   9  19
ATOM     19  C   UNL A   1      29.980  30.054  22.158  1.00  0.00     0.300 C 
BRANCH  19  20
ATOM     20  N   UNL A   1      28.529  29.933  21.887  1.00  0.00    -0.334 N 
ATOM     21  C   UNL A   1      28.031  30.859  20.872  1.00  0.00     0.333 C 
ATOM     22  H   UNL A   1      28.459  28.992  21.500  1.00  0.00     0.348 HD
BRANCH  20  23
ATOM     23  C   UNL A   1      27.673  29.962  23.078  1.00  0.00     0.258 C 
ATOM     24  C   UNL A   1      26.907  28.664  23.281  1.00  0.00     0.071 C 
ENDBRANCH  20  23
ENDBRANCH  19  20
ENDBRANCH   9  19
BRANCH  18  25
ATOM     25  C   UNL A   1      31.157  23.476  23.865  1.00  0.00     0.429 C 
ATOM     26  F   UNL A   1      30.065  23.709  23.094  1.00  0.00    -0.167 F 
ATOM     27  F   UNL A   1      31.560  22.217  23.583  1.00  0.00    -0.167 F 
ATOM     28  F   UNL A   1      30.753  23.485  25.155  1.00  0.00    -0.167 F 
ENDBRANCH  18  25
ENDBRANCH   5   8
ENDBRANCH   3   4
ENDBRANCH   2   3
ENDBRANCH   1   2
BRANCH   1  29
ATOM     29  C   UNL A   1      37.105  20.428  24.991  1.00  0.00     0.002 C 
BRANCH  29  30
ATOM     30  C   UNL A   1      38.263  19.428  25.006  1.00  0.00     0.021 C 
BRANCH  30  31
ATOM     31  C   UNL A   1      39.500  19.881  25.770  1.00  0.00     0.116 C 
BRANCH  31  32
ATOM     32  N   UNL A   1      40.532  18.859  25.825  1.00  0.00    -0.352 N 
ATOM     33  C   UNL A   1      41.886  19.001  26.001  1.00  0.00     0.251 C 
ATOM     34  H   UNL A   1      40.214  17.933  25.722  1.00  0.00     0.163 HD
ATOM     35  O   UNL A   1      42.634  18.037  25.877  1.00  0.00    -0.269 OA
BRANCH  33  36
ATOM     36  C   UNL A   1      42.447  20.334  26.307  1.00  0.00     0.039 A 
ATOM     37  C   UNL A   1      42.463  20.819  27.618  1.00  0.00     0.014 A 
ATOM     38  C   UNL A   1      42.942  21.117  25.260  1.00  0.00     0.014 A 
ATOM     39  C   UNL A   1      42.831  22.138  27.859  1.00  0.00     0.010 A 
ATOM     40  C   UNL A   1      43.381  22.417  25.517  1.00  0.00     0.010 A 
ATOM     41  C   UNL A   1      43.287  22.953  26.811  1.00  0.00    -0.014 A 
BRANCH  41  42
ATOM     42  C   UNL A   1      43.647  24.368  27.084  1.00  0.00     0.031 A 
ATOM     43  C   UNL A   1      45.029  24.877  26.777  1.00  0.00     0.074 A 
ATOM     44  C   UNL A   1      42.710  25.207  27.565  1.00  0.00     0.049 A 
ATOM     45  N   UNL A   1      45.528  26.074  26.959  1.00  0.00    -0.248 NA
ATOM     46  C   UNL A   1      45.977  23.918  26.186  1.00  0.00     0.031 C 
ATOM     47  C   UNL A   1      41.331  24.834  27.881  1.00  0.00     0.029 A 
ATOM     48  N   UNL A   1      42.768  26.546  27.851  1.00  0.00    -0.354 N 
ATOM     49  C   UNL A   1      46.846  26.008  26.526  1.00  0.00     0.074 A 
ATOM     50  C   UNL A   1      47.081  24.647  26.093  1.00  0.00     0.031 C 
ATOM     51  C   UNL A   1      40.660  25.927  28.272  1.00  0.00     0.029 A 
ATOM     52  C   UNL A   1      41.575  27.064  28.293  1.00  0.00     0.049 A 
ATOM     53  H   UNL A   1      43.586  27.085  27.750  1.00  0.00     0.167 HD
ATOM     54  C   UNL A   1      47.771  26.997  26.483  1.00  0.00     0.037 A 
ATOM     55  C   UNL A   1      41.258  28.311  28.685  1.00  0.00     0.037 A 
ATOM     56  C   UNL A   1      47.527  28.355  26.893  1.00  0.00     0.049 A 
ATOM     57  C   UNL A   1      42.317  29.376  28.673  1.00  0.00     0.074 A 
ATOM     58  C   UNL A   1      48.398  29.431  26.875  1.00  0.00     0.029 A 
ATOM     59  N   UNL A   1      46.321  28.826  27.392  1.00  0.00    -0.354 N 
ATOM     60  N   UNL A   1      43.561  29.298  28.273  1.00  0.00    -0.248 NA
ATOM     61  C   UNL A   1      41.928  30.700  29.180  1.00  0.00     0.031 C 
ATOM     62  C   UNL A   1      47.731  30.543  27.396  1.00  0.00     0.029 A 
ATOM     63  C   UNL A   1      46.432  30.173  27.701  1.00  0.00     0.049 A 
ATOM     64  H   UNL A   1      45.508  28.284  27.509  1.00  0.00     0.167 HD
ATOM     65  C   UNL A   1      44.105  30.559  28.471  1.00  0.00     0.074 A 
ATOM     66  C   UNL A   1      43.047  31.391  29.006  1.00  0.00     0.031 C 
ATOM     67  C   UNL A   1      45.370  30.985  28.237  1.00  0.00     0.037 A 
BRANCH  54  68
ATOM     68  C   UNL A   1      49.140  26.652  25.979  1.00  0.00     0.064 A 
ATOM     69  C   UNL A   1      49.528  26.929  24.660  1.00  0.00     0.173 A 
ATOM     70  C   UNL A   1      50.099  26.100  26.843  1.00  0.00     0.173 A 
ATOM     71  F   UNL A   1      48.647  27.445  23.792  1.00  0.00    -0.203 F 
ATOM     72  C   UNL A   1      50.821  26.654  24.222  1.00  0.00     0.198 A 
ATOM     73  C   UNL A   1      51.397  25.849  26.408  1.00  0.00     0.198 A 
ATOM     74  F   UNL A   1      49.780  25.820  28.116  1.00  0.00    -0.203 F 
ATOM     75  F   UNL A   1      51.162  26.900  22.949  1.00  0.00    -0.200 F 
ATOM     76  C   UNL A   1      51.758  26.123  25.098  1.00  0.00     0.200 A 
ATOM     77  F   UNL A   1      52.302  25.346  27.259  1.00  0.00    -0.200 F 
ATOM     78  F   UNL A   1      53.005  25.873  24.677  1.00  0.00    -0.200 F 
ENDBRANCH  54  68
BRANCH  55  79
ATOM     79  C   UNL A   1      39.870  28.611  29.121  1.00  0.00     0.064 A 
ATOM     80  C   UNL A   1      38.922  29.097  28.212  1.00  0.00     0.173 A 
ATOM     81  C   UNL A   1      39.457  28.387  30.442  1.00  0.00     0.173 A 
ATOM     82  F   UNL A   1      39.278  29.346  26.942  1.00  0.00    -0.203 F 
ATOM     83  C   UNL A   1      37.611  29.351  28.609  1.00  0.00     0.198 A 
ATOM     84  C   UNL A   1      38.139  28.616  30.831  1.00  0.00     0.198 A 
ATOM     85  F   UNL A   1      40.327  27.920  31.349  1.00  0.00    -0.203 F 
ATOM     86  F   UNL A   1      36.730  29.841  27.726  1.00  0.00    -0.200 F 
ATOM     87  C   UNL A   1      37.219  29.101  29.915  1.00  0.00     0.200 A 
ATOM     88  F   UNL A   1      37.759  28.357  32.090  1.00  0.00    -0.200 F 
ATOM     89  F   UNL A   1      35.953  29.329  30.291  1.00  0.00    -0.200 F 
ENDBRANCH  55  79
BRANCH  67  90
ATOM     90  C   UNL A   1      45.682  32.418  28.550  1.00  0.00     0.064 A 
ATOM     91  C   UNL A   1      46.207  32.794  29.795  1.00  0.00     0.173 A 
ATOM     92  C   UNL A   1      45.504  33.415  27.580  1.00  0.00     0.173 A 
ATOM     93  F   UNL A   1      46.381  31.876  30.759  1.00  0.00    -0.203 F 
ATOM     94  C   UNL A   1      46.530  34.120  30.062  1.00  0.00     0.198 A 
ATOM     95  C   UNL A   1      45.851  34.737  27.842  1.00  0.00     0.198 A 
ATOM     96  F   UNL A   1      45.009  33.103  26.373  1.00  0.00    -0.203 F 
ATOM     97  F   UNL A   1      46.999  34.464  31.269  1.00  0.00    -0.200 F 
ATOM     98  C   UNL A   1      46.360  35.090  29.084  1.00  0.00     0.200 A 
ATOM     99  F   UNL A   1      45.697  35.670  26.893  1.00  0.00    -0.200 F 
ATOM    100  F   UNL A   1      46.680  36.365  29.339  1.00  0.00    -0.200 F 
ENDBRANCH  67  90
ENDBRANCH  41  42
ENDBRANCH  33  36
ENDBRANCH  31  32
ENDBRANCH  30  31
ENDBRANCH  29  30
ENDBRANCH   1  29
TORSDOF 17
ENDMDL
MODEL 2
REMARK VINA RESULT:     -12.0      0.376      7.091
REMARK SMILES CC[N@@H+](C)Cc1cc2c(cc1Cl)C=C(C(=O)NCCCCCCNC(=O)c1ccc(-c3c4nc(c(-c5c(F)c(F)c(F)c(F)c5F)c5ccc([nH]5)c(-c5c(F)c(F)c(F)c(F)c5F)c5nc(c(-c6c(F)c(F)c(F)c(F)c6F)c6ccc3[nH]6)C=C5)C=C4)cc1)[C@@H](C(F)(F)F)O2
REMARK SMILES IDX 20 1 19 2 18 3 17 4 15 5 16 6 14 8 6 9 7 10 11 11 8 12 10 13
REMARK SMILES IDX 12 14 9 15 95 16 13 17 90 18 5 19 3 20 4 21 2 23 1 24 91 25
REMARK SMILES IDX 92 26 93 27 94 28 21 29 22 30 23 31 24 32 25 33 26 35 27 36
REMARK SMILES IDX 28 37 89 38 29 39 88 40 30 41 31 42 32 43 82 44 33 45 87 46
REMARK SMILES IDX 81 47 83 48 34 49 86 50 80 51 79 52 35 54 67 55 47 56 66 57
REMARK SMILES IDX 48 58 51 59 65 60 84 61 49 62 50 63 64 65 85 66 52 67 36 68
REMARK SMILES IDX 37 69 45 70 38 71 39 72 43 73 46 74 40 75 41 76 44 77 42 78
REMARK SMILES IDX 68 79 69 80 77 81 70 82 71 83 75 84 78 85 72 86 73 87 76 88
REMARK SMILES IDX 74 89 53 90 54 91 62 92 55 93 56 94 60 95 63 96 57 97 58 98
REMARK SMILES IDX 61 99 59 100
REMARK H PARENT 17 7 3 22 24 34 83 53 51 64
REMARK Flexibility Score: inf
ROOT
ATOM      1  C   UNL A   1      37.334  22.144  24.521  1.00  0.00     0.002 C 
ENDROOT
BRANCH   1   2
ATOM      2  C   UNL A   1      36.432  22.661  23.397  1.00  0.00     0.021 C 
BRANCH   2   3
ATOM      3  C   UNL A   1      35.715  23.969  23.718  1.00  0.00     0.116 C 
BRANCH   3   4
ATOM      4  N   UNL A   1      34.976  23.900  24.966  1.00  0.00    -0.352 N 
ATOM      5  C   UNL A   1      33.783  24.335  25.437  1.00  0.00     0.251 C 
ATOM      6  O   UNL A   1      33.520  23.991  26.593  1.00  0.00    -0.270 OA
ATOM      7  H   UNL A   1      35.476  23.403  25.653  1.00  0.00     0.163 HD
BRANCH   5   8
ATOM      8  C   UNL A   1      32.812  25.185  24.681  1.00  0.00     0.067 C 
ATOM      9  C   UNL A   1      30.296  29.188  22.888  1.00  0.00     0.029 A 
ATOM     10  C   UNL A   1      30.468  27.858  22.482  1.00  0.00     0.058 A 
ATOM     11  C   UNL A   1      30.760  29.542  24.166  1.00  0.00     0.050 A 
ATOM     12  C   UNL A   1      31.213  26.964  23.241  1.00  0.00     0.128 A 
ATOM     13  C   UNL A   1      31.488  28.626  24.943  1.00  0.00     0.033 A 
ATOM     14  Cl  UNL A   1      30.473  31.095  24.864  1.00  0.00    -0.084 Cl
ATOM     15  C   UNL A   1      31.752  27.345  24.461  1.00  0.00     0.019 A 
ATOM     16  O   UNL A   1      31.424  25.752  22.665  1.00  0.00    -0.475 OA
ATOM     17  C   UNL A   1      32.634  26.427  25.169  1.00  0.00     0.025 C 
ATOM     18  C   UNL A   1      32.056  24.725  23.466  1.00  0.00     0.314 C 
BRANCH   9  19
ATOM     19  C   UNL A   1      29.674  30.163  21.905  1.00  0.00     0.300 C 
BRANCH  19  20
ATOM     20  N   UNL A   1      28.238  30.471  22.101  1.00  0.00    -0.334 N 
ATOM     21  C   UNL A   1      27.896  31.878  21.908  1.00  0.00     0.333 C 
ATOM     22  H   UNL A   1      27.799  29.945  21.346  1.00  0.00     0.348 HD
BRANCH  20  23
ATOM     23  C   UNL A   1      27.664  29.965  23.353  1.00  0.00     0.258 C 
ATOM     24  C   UNL A   1      26.890  28.670  23.162  1.00  0.00     0.071 C 
ENDBRANCH  20  23
ENDBRANCH  19  20
ENDBRANCH   9  19
BRANCH  18  25
ATOM     25  C   UNL A   1      30.995  23.660  23.786  1.00  0.00     0.429 C 
ATOM     26  F   UNL A   1      30.452  23.889  25.008  1.00  0.00    -0.167 F 
ATOM     27  F   UNL A   1      29.968  23.661  22.907  1.00  0.00    -0.167 F 
ATOM     28  F   UNL A   1      31.509  22.410  23.798  1.00  0.00    -0.167 F 
ENDBRANCH  18  25
ENDBRANCH   5   8
ENDBRANCH   3   4
ENDBRANCH   2   3
ENDBRANCH   1   2
BRANCH   1  29
ATOM     29  C   UNL A   1      36.984  20.753  25.067  1.00  0.00     0.002 C 
BRANCH  29  30
ATOM     30  C   UNL A   1      38.125  19.734  25.077  1.00  0.00     0.021 C 
BRANCH  30  31
ATOM     31  C   UNL A   1      39.372  20.165  25.837  1.00  0.00     0.116 C 
BRANCH  31  32
ATOM     32  N   UNL A   1      40.360  19.105  25.945  1.00  0.00    -0.352 N 
ATOM     33  C   UNL A   1      41.717  19.197  26.131  1.00  0.00     0.251 C 
ATOM     34  H   UNL A   1      40.004  18.189  25.874  1.00  0.00     0.163 HD
ATOM     35  O   UNL A   1      42.425  18.198  26.054  1.00  0.00    -0.269 OA
BRANCH  33  36
ATOM     36  C   UNL A   1      42.330  20.517  26.390  1.00  0.00     0.039 A 
ATOM     37  C   UNL A   1      42.423  21.018  27.691  1.00  0.00     0.014 A 
ATOM     38  C   UNL A   1      42.797  21.271  25.310  1.00  0.00     0.014 A 
ATOM     39  C   UNL A   1      42.840  22.329  27.896  1.00  0.00     0.010 A 
ATOM     40  C   UNL A   1      43.285  22.561  25.526  1.00  0.00     0.010 A 
ATOM     41  C   UNL A   1      43.268  23.117  26.815  1.00  0.00    -0.014 A 
BRANCH  41  42
ATOM     42  C   UNL A   1      43.682  24.523  27.050  1.00  0.00     0.031 A 
ATOM     43  C   UNL A   1      42.712  25.520  27.622  1.00  0.00     0.074 A 
ATOM     44  C   UNL A   1      44.952  24.889  26.791  1.00  0.00     0.049 A 
ATOM     45  N   UNL A   1      42.891  26.791  27.882  1.00  0.00    -0.248 NA
ATOM     46  C   UNL A   1      41.364  25.028  27.946  1.00  0.00     0.031 C 
ATOM     47  C   UNL A   1      45.988  24.006  26.254  1.00  0.00     0.029 A 
ATOM     48  N   UNL A   1      45.592  26.089  26.962  1.00  0.00    -0.354 N 
ATOM     49  C   UNL A   1      41.680  27.252  28.380  1.00  0.00     0.074 A 
ATOM     50  C   UNL A   1      40.762  26.133  28.364  1.00  0.00     0.031 C 
ATOM     51  C   UNL A   1      47.146  24.679  26.185  1.00  0.00     0.029 A 
ATOM     52  C   UNL A   1      46.920  26.056  26.614  1.00  0.00     0.049 A 
ATOM     53  H   UNL A   1      45.144  26.896  27.303  1.00  0.00     0.167 HD
ATOM     54  C   UNL A   1      41.366  28.494  28.821  1.00  0.00     0.037 A 
ATOM     55  C   UNL A   1      47.849  27.030  26.624  1.00  0.00     0.037 A 
ATOM     56  C   UNL A   1      42.287  29.600  28.857  1.00  0.00     0.049 A 
ATOM     57  C   UNL A   1      47.461  28.410  27.073  1.00  0.00     0.074 A 
ATOM     58  C   UNL A   1      42.066  30.893  29.299  1.00  0.00     0.029 A 
ATOM     59  N   UNL A   1      43.609  29.541  28.439  1.00  0.00    -0.354 N 
ATOM     60  N   UNL A   1      46.309  28.835  27.529  1.00  0.00    -0.248 NA
ATOM     61  C   UNL A   1      48.499  29.447  26.994  1.00  0.00     0.031 C 
ATOM     62  C   UNL A   1      43.242  31.626  29.114  1.00  0.00     0.029 A 
ATOM     63  C   UNL A   1      44.209  30.781  28.597  1.00  0.00     0.049 A 
ATOM     64  H   UNL A   1      44.054  28.739  28.083  1.00  0.00     0.167 HD
ATOM     65  C   UNL A   1      46.482  30.185  27.800  1.00  0.00     0.074 A 
ATOM     66  C   UNL A   1      47.858  30.503  27.477  1.00  0.00     0.031 C 
ATOM     67  C   UNL A   1      45.579  31.081  28.266  1.00  0.00     0.037 A 
BRANCH  54  68
ATOM     68  C   UNL A   1      39.965  28.734  29.300  1.00  0.00     0.064 A 
ATOM     69  C   UNL A   1      38.960  29.183  28.432  1.00  0.00     0.173 A 
ATOM     70  C   UNL A   1      39.607  28.446  30.626  1.00  0.00     0.173 A 
ATOM     71  F   UNL A   1      39.252  29.483  27.158  1.00  0.00    -0.203 F 
ATOM     72  C   UNL A   1      37.650  29.347  28.877  1.00  0.00     0.198 A 
ATOM     73  C   UNL A   1      38.293  28.588  31.062  1.00  0.00     0.198 A 
ATOM     74  F   UNL A   1      40.531  28.009  31.496  1.00  0.00    -0.203 F 
ATOM     75  F   UNL A   1      36.712  29.806  28.038  1.00  0.00    -0.200 F 
ATOM     76  C   UNL A   1      37.316  29.042  30.189  1.00  0.00     0.200 A 
ATOM     77  F   UNL A   1      37.970  28.282  32.326  1.00  0.00    -0.200 F 
ATOM     78  F   UNL A   1      36.052  29.188  30.611  1.00  0.00    -0.200 F 
ENDBRANCH  54  68
BRANCH  55  79
ATOM     79  C   UNL A   1      49.237  26.723  26.194  1.00  0.00     0.064 A 
ATOM     80  C   UNL A   1      50.169  26.201  27.099  1.00  0.00     0.173 A 
ATOM     81  C   UNL A   1      49.647  26.914  24.867  1.00  0.00     0.173 A 
ATOM     82  F   UNL A   1      49.827  26.021  28.384  1.00  0.00    -0.203 F 
ATOM     83  C   UNL A   1      51.463  25.882  26.693  1.00  0.00     0.198 A 
ATOM     84  C   UNL A   1      50.933  26.570  24.456  1.00  0.00     0.198 A 
ATOM     85  F   UNL A   1      48.790  27.409  23.962  1.00  0.00    -0.203 F 
ATOM     86  F   UNL A   1      52.345  25.409  27.585  1.00  0.00    -0.200 F 
ATOM     87  C   UNL A   1      51.840  26.058  25.370  1.00  0.00     0.200 A 
ATOM     88  F   UNL A   1      51.289  26.726  23.174  1.00  0.00    -0.200 F 
ATOM     89  F   UNL A   1      53.080  25.736  24.978  1.00  0.00    -0.200 F 
ENDBRANCH  55  79
BRANCH  67  90
ATOM     90  C   UNL A   1      46.048  32.491  28.465  1.00  0.00     0.064 A 
ATOM     91  C   UNL A   1      46.635  32.901  29.670  1.00  0.00     0.173 A 
ATOM     92  C   UNL A   1      45.960  33.426  27.423  1.00  0.00     0.173 A 
ATOM     93  F   UNL A   1      46.728  32.046  30.700  1.00  0.00    -0.203 F 
ATOM     94  C   UNL A   1      47.102  34.202  29.831  1.00  0.00     0.198 A 
ATOM     95  C   UNL A   1      46.451  34.719  27.578  1.00  0.00     0.198 A 
ATOM     96  F   UNL A   1      45.411  33.079  26.248  1.00  0.00    -0.203 F 
ATOM     97  F   UNL A   1      47.628  34.583  31.003  1.00  0.00    -0.200 F 
ATOM     98  C   UNL A   1      47.018  35.107  28.783  1.00  0.00     0.200 A 
ATOM     99  F   UNL A   1      46.379  35.588  26.561  1.00  0.00    -0.200 F 
ATOM    100  F   UNL A   1      47.477  36.356  28.936  1.00  0.00    -0.200 F 
ENDBRANCH  67  90
ENDBRANCH  41  42
ENDBRANCH  33  36
ENDBRANCH  31  32
ENDBRANCH  30  31
ENDBRANCH  29  30
ENDBRANCH   1  29
TORSDOF 17
ENDMDL
MODEL 3
REMARK VINA RESULT:     -11.7      5.427     10.104
REMARK SMILES CC[N@@H+](C)Cc1cc2c(cc1Cl)C=C(C(=O)NCCCCCCNC(=O)c1ccc(-c3c4nc(c(-c5c(F)c(F)c(F)c(F)c5F)c5ccc([nH]5)c(-c5c(F)c(F)c(F)c(F)c5F)c5nc(c(-c6c(F)c(F)c(F)c(F)c6F)c6ccc3[nH]6)C=C5)C=C4)cc1)[C@@H](C(F)(F)F)O2
REMARK SMILES IDX 20 1 19 2 18 3 17 4 15 5 16 6 14 8 6 9 7 10 11 11 8 12 10 13
REMARK SMILES IDX 12 14 9 15 95 16 13 17 90 18 5 19 3 20 4 21 2 23 1 24 91 25
REMARK SMILES IDX 92 26 93 27 94 28 21 29 22 30 23 31 24 32 25 33 26 35 27 36
REMARK SMILES IDX 28 37 89 38 29 39 88 40 30 41 31 42 32 43 82 44 33 45 87 46
REMARK SMILES IDX 81 47 83 48 34 49 86 50 80 51 79 52 35 54 67 55 47 56 66 57
REMARK SMILES IDX 48 58 51 59 65 60 84 61 49 62 50 63 64 65 85 66 52 67 36 68
REMARK SMILES IDX 37 69 45 70 38 71 39 72 43 73 46 74 40 75 41 76 44 77 42 78
REMARK SMILES IDX 68 79 69 80 77 81 70 82 71 83 75 84 78 85 72 86 73 87 76 88
REMARK SMILES IDX 74 89 53 90 54 91 62 92 55 93 56 94 60 95 63 96 57 97 58 98
REMARK SMILES IDX 61 99 59 100
REMARK H PARENT 17 7 3 22 24 34 83 53 51 64
REMARK Flexibility Score: inf
ROOT
ATOM      1  C   UNL A   1      34.577  29.524  27.738  1.00  0.00     0.002 C 
ENDROOT
BRANCH   1   2
ATOM      2  C   UNL A   1      33.240  29.028  27.181  1.00  0.00     0.021 C 
BRANCH   2   3
ATOM      3  C   UNL A   1      33.287  27.620  26.596  1.00  0.00     0.116 C 
BRANCH   3   4
ATOM      4  N   UNL A   1      33.584  27.624  25.174  1.00  0.00    -0.352 N 
ATOM      5  C   UNL A   1      33.548  26.738  24.151  1.00  0.00     0.251 C 
ATOM      6  O   UNL A   1      33.849  27.200  23.046  1.00  0.00    -0.270 OA
ATOM      7  H   UNL A   1      33.896  28.509  24.875  1.00  0.00     0.163 HD
BRANCH   5   8
ATOM      8  C   UNL A   1      33.196  25.290  24.273  1.00  0.00     0.067 C 
ATOM      9  C   UNL A   1      33.499  20.319  25.151  1.00  0.00     0.029 A 
ATOM     10  C   UNL A   1      32.455  21.246  25.033  1.00  0.00     0.058 A 
ATOM     11  C   UNL A   1      34.790  20.746  24.800  1.00  0.00     0.050 A 
ATOM     12  C   UNL A   1      32.707  22.580  24.737  1.00  0.00     0.128 A 
ATOM     13  C   UNL A   1      35.036  22.089  24.474  1.00  0.00     0.033 A 
ATOM     14  Cl  UNL A   1      36.142  19.674  24.740  1.00  0.00    -0.084 Cl
ATOM     15  C   UNL A   1      33.998  23.020  24.483  1.00  0.00     0.019 A 
ATOM     16  O   UNL A   1      31.625  23.399  24.794  1.00  0.00    -0.475 OA
ATOM     17  C   UNL A   1      34.244  24.444  24.305  1.00  0.00     0.025 C 
ATOM     18  C   UNL A   1      31.789  24.767  24.346  1.00  0.00     0.314 C 
BRANCH   9  19
ATOM     19  C   UNL A   1      33.175  18.941  25.702  1.00  0.00     0.300 C 
BRANCH  19  20
ATOM     20  N   UNL A   1      32.416  18.037  24.808  1.00  0.00    -0.334 N 
ATOM     21  C   UNL A   1      32.208  16.696  25.350  1.00  0.00     0.333 C 
ATOM     22  H   UNL A   1      31.504  18.492  24.763  1.00  0.00     0.348 HD
BRANCH  20  23
ATOM     23  C   UNL A   1      32.918  17.965  23.430  1.00  0.00     0.258 C 
ATOM     24  C   UNL A   1      34.074  16.989  23.278  1.00  0.00     0.071 C 
ENDBRANCH  20  23
ENDBRANCH  19  20
ENDBRANCH   9  19
BRANCH  18  25
ATOM     25  C   UNL A   1      31.021  24.921  23.023  1.00  0.00     0.429 C 
ATOM     26  F   UNL A   1      30.367  26.110  22.995  1.00  0.00    -0.167 F 
ATOM     27  F   UNL A   1      31.829  24.906  21.940  1.00  0.00    -0.167 F 
ATOM     28  F   UNL A   1      30.100  23.947  22.847  1.00  0.00    -0.167 F 
ENDBRANCH  18  25
ENDBRANCH   5   8
ENDBRANCH   3   4
ENDBRANCH   2   3
ENDBRANCH   1   2
BRANCH   1  29
ATOM     29  C   UNL A   1      34.716  31.047  27.875  1.00  0.00     0.002 C 
BRANCH  29  30
ATOM     30  C   UNL A   1      33.408  31.840  27.862  1.00  0.00     0.021 C 
BRANCH  30  31
ATOM     31  C   UNL A   1      33.486  33.207  27.195  1.00  0.00     0.116 C 
BRANCH  31  32
ATOM     32  N   UNL A   1      32.883  34.259  27.996  1.00  0.00    -0.352 N 
ATOM     33  C   UNL A   1      33.262  34.739  29.225  1.00  0.00     0.251 C 
ATOM     34  H   UNL A   1      32.089  34.687  27.600  1.00  0.00     0.163 HD
ATOM     35  O   UNL A   1      32.550  35.537  29.827  1.00  0.00    -0.269 OA
BRANCH  33  36
ATOM     36  C   UNL A   1      34.519  34.263  29.839  1.00  0.00     0.039 A 
ATOM     37  C   UNL A   1      35.757  34.612  29.293  1.00  0.00     0.014 A 
ATOM     38  C   UNL A   1      34.453  33.437  30.964  1.00  0.00     0.014 A 
ATOM     39  C   UNL A   1      36.916  34.014  29.777  1.00  0.00     0.010 A 
ATOM     40  C   UNL A   1      35.625  32.896  31.495  1.00  0.00     0.010 A 
ATOM     41  C   UNL A   1      36.862  33.144  30.878  1.00  0.00    -0.014 A 
BRANCH  41  42
ATOM     42  C   UNL A   1      38.105  32.493  31.362  1.00  0.00     0.031 A 
ATOM     43  C   UNL A   1      38.666  31.292  30.651  1.00  0.00     0.074 A 
ATOM     44  C   UNL A   1      38.757  33.017  32.418  1.00  0.00     0.049 A 
ATOM     45  N   UNL A   1      39.731  30.586  30.936  1.00  0.00    -0.248 NA
ATOM     46  C   UNL A   1      37.937  30.821  29.463  1.00  0.00     0.031 C 
ATOM     47  C   UNL A   1      38.322  34.192  33.175  1.00  0.00     0.029 A 
ATOM     48  N   UNL A   1      39.929  32.646  33.022  1.00  0.00    -0.354 N 
ATOM     49  C   UNL A   1      39.790  29.581  29.980  1.00  0.00     0.074 A 
ATOM     50  C   UNL A   1      38.639  29.750  29.118  1.00  0.00     0.031 C 
ATOM     51  C   UNL A   1      39.239  34.474  34.112  1.00  0.00     0.029 A 
ATOM     52  C   UNL A   1      40.294  33.466  34.062  1.00  0.00     0.049 A 
ATOM     53  H   UNL A   1      40.460  31.867  32.739  1.00  0.00     0.167 HD
ATOM     54  C   UNL A   1      40.725  28.613  29.829  1.00  0.00     0.037 A 
ATOM     55  C   UNL A   1      41.351  33.405  34.892  1.00  0.00     0.037 A 
ATOM     56  C   UNL A   1      41.880  28.460  30.674  1.00  0.00     0.049 A 
ATOM     57  C   UNL A   1      42.346  32.291  34.732  1.00  0.00     0.074 A 
ATOM     58  C   UNL A   1      42.890  27.517  30.592  1.00  0.00     0.029 A 
ATOM     59  N   UNL A   1      42.181  29.276  31.755  1.00  0.00    -0.354 N 
ATOM     60  N   UNL A   1      42.383  31.341  33.832  1.00  0.00    -0.248 NA
ATOM     61  C   UNL A   1      43.439  32.236  35.712  1.00  0.00     0.031 C 
ATOM     62  C   UNL A   1      43.783  27.740  31.645  1.00  0.00     0.029 A 
ATOM     63  C   UNL A   1      43.353  28.847  32.358  1.00  0.00     0.049 A 
ATOM     64  H   UNL A   1      41.643  30.046  32.050  1.00  0.00     0.167 HD
ATOM     65  C   UNL A   1      43.503  30.578  34.129  1.00  0.00     0.074 A 
ATOM     66  C   UNL A   1      44.133  31.191  35.281  1.00  0.00     0.031 C 
ATOM     67  C   UNL A   1      43.963  29.466  33.507  1.00  0.00     0.037 A 
BRANCH  54  68
ATOM     68  C   UNL A   1      40.542  27.632  28.709  1.00  0.00     0.064 A 
ATOM     69  C   UNL A   1      41.187  27.798  27.475  1.00  0.00     0.173 A 
ATOM     70  C   UNL A   1      39.767  26.476  28.894  1.00  0.00     0.173 A 
ATOM     71  F   UNL A   1      41.929  28.891  27.243  1.00  0.00    -0.203 F 
ATOM     72  C   UNL A   1      41.052  26.850  26.463  1.00  0.00     0.198 A 
ATOM     73  C   UNL A   1      39.654  25.519  27.890  1.00  0.00     0.198 A 
ATOM     74  F   UNL A   1      39.133  26.268  30.058  1.00  0.00    -0.203 F 
ATOM     75  F   UNL A   1      41.653  27.044  25.281  1.00  0.00    -0.200 F 
ATOM     76  C   UNL A   1      40.293  25.707  26.674  1.00  0.00     0.200 A 
ATOM     77  F   UNL A   1      38.929  24.412  28.100  1.00  0.00    -0.200 F 
ATOM     78  F   UNL A   1      40.177  24.790  25.704  1.00  0.00    -0.200 F 
ENDBRANCH  54  68
BRANCH  55  79
ATOM     79  C   UNL A   1      41.513  34.437  35.948  1.00  0.00     0.064 A 
ATOM     80  C   UNL A   1      40.919  34.275  37.206  1.00  0.00     0.173 A 
ATOM     81  C   UNL A   1      42.289  35.585  35.732  1.00  0.00     0.173 A 
ATOM     82  F   UNL A   1      40.151  33.202  37.451  1.00  0.00    -0.203 F 
ATOM     83  C   UNL A   1      41.095  35.225  38.210  1.00  0.00     0.198 A 
ATOM     84  C   UNL A   1      42.485  36.521  36.744  1.00  0.00     0.198 A 
ATOM     85  F   UNL A   1      42.880  35.783  34.544  1.00  0.00    -0.203 F 
ATOM     86  F   UNL A   1      40.494  35.060  39.396  1.00  0.00    -0.200 F 
ATOM     87  C   UNL A   1      41.884  36.342  37.981  1.00  0.00     0.200 A 
ATOM     88  F   UNL A   1      43.262  37.589  36.525  1.00  0.00    -0.200 F 
ATOM     89  F   UNL A   1      42.065  37.246  38.953  1.00  0.00    -0.200 F 
ENDBRANCH  55  79
BRANCH  67  90
ATOM     90  C   UNL A   1      45.212  28.840  34.052  1.00  0.00     0.064 A 
ATOM     91  C   UNL A   1      46.482  29.255  33.626  1.00  0.00     0.173 A 
ATOM     92  C   UNL A   1      45.140  27.854  35.048  1.00  0.00     0.173 A 
ATOM     93  F   UNL A   1      46.600  30.185  32.665  1.00  0.00    -0.203 F 
ATOM     94  C   UNL A   1      47.635  28.695  34.166  1.00  0.00     0.198 A 
ATOM     95  C   UNL A   1      46.296  27.314  35.604  1.00  0.00     0.198 A 
ATOM     96  F   UNL A   1      43.948  27.428  35.492  1.00  0.00    -0.203 F 
ATOM     97  F   UNL A   1      48.838  29.081  33.720  1.00  0.00    -0.200 F 
ATOM     98  C   UNL A   1      47.542  27.731  35.160  1.00  0.00     0.200 A 
ATOM     99  F   UNL A   1      46.205  26.392  36.571  1.00  0.00    -0.200 F 
ATOM    100  F   UNL A   1      48.654  27.200  35.686  1.00  0.00    -0.200 F 
ENDBRANCH  67  90
ENDBRANCH  41  42
ENDBRANCH  33  36
ENDBRANCH  31  32
ENDBRANCH  30  31
ENDBRANCH  29  30
ENDBRANCH   1  29
TORSDOF 17
ENDMDL
