MODEL 1
REMARK VINA RESULT:     -12.2      0.000      0.000
REMARK SMILES NS(=O)(=O)c1ccc(-n2nc(NC(=O)NCCCC(=O)NCCCCCCNC(=O)c3ccc(-c4c5nc(c(-c6c(F)c(F)c(F)c(F)c6F)c6ccc([nH]6)c(-c6c(F)c(F)c(F)c(F)c6F)c6nc(c(-c7c(F)c(F)c(F)c(F)c7F)c7ccc4[nH]7)C=C6)C=C5)cc3)cc2-c2ccccc2)cc1
REMARK SMILES IDX 22 1 21 2 19 3 20 4 18 6 17 7 16 8 15 9 12 10 13 11 14 13
REMARK SMILES IDX 11 15 9 16 10 17 95 18 94 19 8 20 5 21 6 22 103 23 7 24
REMARK SMILES IDX 102 25 2 26 3 27 4 28 1 29 96 32 97 33 101 34 98 35 100 36
REMARK SMILES IDX 99 37 23 38 24 39 25 40 26 41 27 42 28 43 29 44 30 46 31 47
REMARK SMILES IDX 32 48 93 49 33 50 92 51 34 52 35 53 36 54 86 55 37 56 91 57
REMARK SMILES IDX 85 58 87 59 38 60 90 61 84 62 83 63 39 65 71 66 51 67 70 68
REMARK SMILES IDX 52 69 55 70 69 71 88 72 53 73 54 74 68 76 89 77 56 78 40 79
REMARK SMILES IDX 41 80 49 81 42 82 43 83 47 84 50 85 44 86 45 87 48 88 46 89
REMARK SMILES IDX 72 90 73 91 81 92 74 93 75 94 79 95 82 96 76 97 77 98 80 99
REMARK SMILES IDX 78 100 57 101 58 102 66 103 59 104 60 105 64 106 67 107
REMARK SMILES IDX 61 108 62 109 65 110 63 111
REMARK H PARENT 21 5 12 12 15 14 1 30 1 31 28 45 87 64 55 75
REMARK Flexibility Score: inf
ROOT
ATOM      1  C   UNL A   1      34.628  28.866  26.585  1.00  0.00     0.116 C 
ENDROOT
BRANCH   1   2
ATOM      2  N   UNL A   1      33.432  28.181  27.044  1.00  0.00    -0.356 N 
ATOM      3  C   UNL A   1      32.214  28.683  27.394  1.00  0.00     0.220 C 
ATOM      4  O   UNL A   1      31.431  27.943  27.994  1.00  0.00    -0.275 OA
ATOM      5  H   UNL A   1      33.513  27.202  27.113  1.00  0.00     0.163 HD
BRANCH   3   6
ATOM      6  C   UNL A   1      31.812  30.098  27.014  1.00  0.00     0.102 C 
BRANCH   6   7
ATOM      7  C   UNL A   1      31.706  30.347  25.509  1.00  0.00     0.031 C 
BRANCH   7   8
ATOM      8  C   UNL A   1      30.674  29.476  24.806  1.00  0.00     0.118 C 
BRANCH   8   9
ATOM      9  N   UNL A   1      30.258  29.924  23.486  1.00  0.00    -0.338 N 
ATOM     10  N   UNL A   1      30.962  28.152  22.041  1.00  0.00    -0.291 N 
ATOM     11  C   UNL A   1      30.378  29.352  22.266  1.00  0.00     0.320 C 
ATOM     12  H   UNL A   1      31.268  28.015  21.116  1.00  0.00     0.173 HD
ATOM     13  O   UNL A   1      30.029  30.024  21.289  1.00  0.00    -0.248 OA
ATOM     14  H   UNL A   1      29.809  30.800  23.480  1.00  0.00     0.165 HD
BRANCH  10  15
ATOM     15  C   UNL A   1      31.198  27.095  22.883  1.00  0.00     0.157 A 
ATOM     16  N   UNL A   1      32.363  25.680  23.909  1.00  0.00    -0.231 N 
ATOM     17  N   UNL A   1      32.268  26.989  23.667  1.00  0.00    -0.149 NA
ATOM     18  C   UNL A   1      31.135  25.055  23.732  1.00  0.00     0.076 A 
ATOM     19  C   UNL A   1      30.342  25.985  23.086  1.00  0.00     0.078 A 
BRANCH  16  20
ATOM     20  C   UNL A   1      33.610  25.070  24.226  1.00  0.00     0.065 A 
ATOM     21  C   UNL A   1      35.808  23.483  24.865  1.00  0.00     0.082 A 
ATOM     22  C   UNL A   1      35.467  23.672  23.526  1.00  0.00     0.024 A 
ATOM     23  C   UNL A   1      35.085  24.116  25.883  1.00  0.00     0.024 A 
ATOM     24  C   UNL A   1      34.381  24.488  23.207  1.00  0.00     0.030 A 
ATOM     25  C   UNL A   1      33.980  24.912  25.563  1.00  0.00     0.030 A 
BRANCH  21  26
ATOM     26  S   UNL A   1      37.135  22.376  25.242  1.00  0.00     0.238 S 
ATOM     27  O   UNL A   1      38.150  23.091  25.954  1.00  0.00    -0.207 OA
ATOM     28  O   UNL A   1      37.411  21.580  24.056  1.00  0.00    -0.207 OA
BRANCH  26  29
ATOM     29  N   UNL A   1      36.469  21.285  26.337  1.00  0.00    -0.225 NA
ATOM     30  H   UNL A   1      37.129  20.525  26.504  1.00  0.00     0.137 HD
ATOM     31  H   UNL A   1      35.603  20.905  25.954  1.00  0.00     0.137 HD
ENDBRANCH  26  29
ENDBRANCH  21  26
ENDBRANCH  16  20
BRANCH  18  32
ATOM     32  C   UNL A   1      31.016  23.647  24.061  1.00  0.00     0.000 A 
ATOM     33  C   UNL A   1      30.857  23.307  25.414  1.00  0.00     0.010 A 
ATOM     34  C   UNL A   1      31.561  22.722  23.171  1.00  0.00     0.010 A 
ATOM     35  C   UNL A   1      31.361  22.108  25.906  1.00  0.00     0.001 A 
ATOM     36  C   UNL A   1      32.116  21.548  23.680  1.00  0.00     0.001 A 
ATOM     37  C   UNL A   1      32.028  21.247  25.042  1.00  0.00     0.000 A 
ENDBRANCH  18  32
ENDBRANCH  10  15
ENDBRANCH   8   9
ENDBRANCH   7   8
ENDBRANCH   6   7
ENDBRANCH   3   6
ENDBRANCH   1   2
BRANCH   1  38
ATOM     38  C   UNL A   1      35.408  29.409  27.780  1.00  0.00     0.021 C 
BRANCH  38  39
ATOM     39  C   UNL A   1      35.773  30.891  27.734  1.00  0.00     0.002 C 
BRANCH  39  40
ATOM     40  C   UNL A   1      34.604  31.849  27.984  1.00  0.00     0.002 C 
BRANCH  40  41
ATOM     41  C   UNL A   1      34.974  33.314  28.263  1.00  0.00     0.021 C 
BRANCH  41  42
ATOM     42  C   UNL A   1      36.158  33.481  29.203  1.00  0.00     0.116 C 
BRANCH  42  43
ATOM     43  N   UNL A   1      35.792  33.281  30.608  1.00  0.00    -0.352 N 
ATOM     44  C   UNL A   1      36.136  32.234  31.442  1.00  0.00     0.251 C 
ATOM     45  H   UNL A   1      35.230  33.982  31.010  1.00  0.00     0.163 HD
ATOM     46  O   UNL A   1      35.485  31.983  32.450  1.00  0.00    -0.269 OA
BRANCH  44  47
ATOM     47  C   UNL A   1      37.327  31.435  31.107  1.00  0.00     0.039 A 
ATOM     48  C   UNL A   1      38.595  32.004  30.962  1.00  0.00     0.014 A 
ATOM     49  C   UNL A   1      37.148  30.062  30.963  1.00  0.00     0.014 A 
ATOM     50  C   UNL A   1      39.679  31.158  30.729  1.00  0.00     0.010 A 
ATOM     51  C   UNL A   1      38.229  29.224  30.944  1.00  0.00     0.010 A 
ATOM     52  C   UNL A   1      39.486  29.762  30.735  1.00  0.00    -0.014 A 
BRANCH  52  53
ATOM     53  C   UNL A   1      40.604  28.826  30.658  1.00  0.00     0.031 A 
ATOM     54  C   UNL A   1      41.297  28.643  31.962  1.00  0.00     0.074 A 
ATOM     55  C   UNL A   1      40.882  28.069  29.568  1.00  0.00     0.049 A 
ATOM     56  N   UNL A   1      42.485  29.036  32.284  1.00  0.00    -0.248 NA
ATOM     57  C   UNL A   1      40.517  28.110  33.092  1.00  0.00     0.031 C 
ATOM     58  C   UNL A   1      40.165  27.959  28.293  1.00  0.00     0.029 A 
ATOM     59  N   UNL A   1      41.913  27.195  29.387  1.00  0.00    -0.354 N 
ATOM     60  C   UNL A   1      42.680  28.629  33.601  1.00  0.00     0.074 A 
ATOM     61  C   UNL A   1      41.389  28.229  34.096  1.00  0.00     0.031 C 
ATOM     62  C   UNL A   1      40.699  26.961  27.541  1.00  0.00     0.029 A 
ATOM     63  C   UNL A   1      41.870  26.435  28.211  1.00  0.00     0.049 A 
ATOM     64  H   UNL A   1      42.643  27.103  30.042  1.00  0.00     0.167 HD
ATOM     65  C   UNL A   1      43.935  28.410  34.078  1.00  0.00     0.037 A 
ATOM     66  C   UNL A   1      42.774  25.486  27.832  1.00  0.00     0.037 A 
ATOM     67  C   UNL A   1      44.919  29.105  33.284  1.00  0.00     0.049 A 
ATOM     68  C   UNL A   1      44.003  25.748  28.600  1.00  0.00     0.074 A 
ATOM     69  C   UNL A   1      45.173  30.432  32.989  1.00  0.00     0.029 A 
ATOM     70  N   UNL A   1      45.595  28.393  32.324  1.00  0.00    -0.354 N 
ATOM     71  N   UNL A   1      44.755  26.786  28.374  1.00  0.00    -0.248 NA
ATOM     72  C   UNL A   1      44.117  25.138  29.916  1.00  0.00     0.031 C 
ATOM     73  C   UNL A   1      45.526  30.443  31.605  1.00  0.00     0.029 A 
ATOM     74  C   UNL A   1      45.537  29.123  31.164  1.00  0.00     0.049 A 
ATOM     75  H   UNL A   1      46.037  27.521  32.446  1.00  0.00     0.167 HD
ATOM     76  C   UNL A   1      45.130  27.215  29.632  1.00  0.00     0.074 A 
ATOM     77  C   UNL A   1      44.750  26.131  30.543  1.00  0.00     0.031 C 
ATOM     78  C   UNL A   1      45.442  28.522  29.861  1.00  0.00     0.037 A 
BRANCH  65  79
ATOM     79  C   UNL A   1      44.295  27.243  34.972  1.00  0.00     0.064 A 
ATOM     80  C   UNL A   1      43.929  25.943  34.572  1.00  0.00     0.173 A 
ATOM     81  C   UNL A   1      44.683  27.372  36.325  1.00  0.00     0.173 A 
ATOM     82  F   UNL A   1      43.537  25.699  33.312  1.00  0.00    -0.203 F 
ATOM     83  C   UNL A   1      43.856  24.883  35.481  1.00  0.00     0.198 A 
ATOM     84  C   UNL A   1      44.656  26.301  37.216  1.00  0.00     0.198 A 
ATOM     85  F   UNL A   1      44.995  28.549  36.877  1.00  0.00    -0.203 F 
ATOM     86  F   UNL A   1      43.369  23.699  35.085  1.00  0.00    -0.200 F 
ATOM     87  C   UNL A   1      44.208  25.067  36.805  1.00  0.00     0.200 A 
ATOM     88  F   UNL A   1      44.986  26.509  38.500  1.00  0.00    -0.200 F 
ATOM     89  F   UNL A   1      44.068  24.075  37.693  1.00  0.00    -0.200 F 
ENDBRANCH  65  79
BRANCH  66  90
ATOM     90  C   UNL A   1      42.682  24.225  27.066  1.00  0.00     0.064 A 
ATOM     91  C   UNL A   1      43.307  23.999  25.834  1.00  0.00     0.173 A 
ATOM     92  C   UNL A   1      42.249  23.079  27.754  1.00  0.00     0.173 A 
ATOM     93  F   UNL A   1      43.929  25.005  25.205  1.00  0.00    -0.203 F 
ATOM     94  C   UNL A   1      43.383  22.713  25.272  1.00  0.00     0.198 A 
ATOM     95  C   UNL A   1      42.323  21.797  27.197  1.00  0.00     0.198 A 
ATOM     96  F   UNL A   1      41.860  23.192  29.033  1.00  0.00    -0.203 F 
ATOM     97  F   UNL A   1      44.029  22.521  24.111  1.00  0.00    -0.200 F 
ATOM     98  C   UNL A   1      42.857  21.618  25.938  1.00  0.00     0.200 A 
ATOM     99  F   UNL A   1      41.924  20.728  27.902  1.00  0.00    -0.200 F 
ATOM    100  F   UNL A   1      42.923  20.390  25.403  1.00  0.00    -0.200 F 
ENDBRANCH  66  90
BRANCH  78 101
ATOM    101  C   UNL A   1      45.481  29.438  28.669  1.00  0.00     0.064 A 
ATOM    102  C   UNL A   1      44.371  30.165  28.199  1.00  0.00     0.173 A 
ATOM    103  C   UNL A   1      46.716  29.695  28.067  1.00  0.00     0.173 A 
ATOM    104  F   UNL A   1      43.172  30.037  28.776  1.00  0.00    -0.203 F 
ATOM    105  C   UNL A   1      44.491  31.088  27.159  1.00  0.00     0.198 A 
ATOM    106  C   UNL A   1      46.840  30.637  27.050  1.00  0.00     0.198 A 
ATOM    107  F   UNL A   1      47.815  29.064  28.507  1.00  0.00    -0.203 F 
ATOM    108  F   UNL A   1      43.418  31.770  26.732  1.00  0.00    -0.200 F 
ATOM    109  C   UNL A   1      45.730  31.328  26.591  1.00  0.00     0.200 A 
ATOM    110  F   UNL A   1      48.049  30.897  26.533  1.00  0.00    -0.200 F 
ATOM    111  F   UNL A   1      45.860  32.246  25.622  1.00  0.00    -0.200 F 
ENDBRANCH  78 101
ENDBRANCH  52  53
ENDBRANCH  44  47
ENDBRANCH  42  43
ENDBRANCH  41  42
ENDBRANCH  40  41
ENDBRANCH  39  40
ENDBRANCH  38  39
ENDBRANCH   1  38
TORSDOF 21
ENDMDL
MODEL 2
REMARK VINA RESULT:     -11.9      1.638      2.564
REMARK SMILES NS(=O)(=O)c1ccc(-n2nc(NC(=O)NCCCC(=O)NCCCCCCNC(=O)c3ccc(-c4c5nc(c(-c6c(F)c(F)c(F)c(F)c6F)c6ccc([nH]6)c(-c6c(F)c(F)c(F)c(F)c6F)c6nc(c(-c7c(F)c(F)c(F)c(F)c7F)c7ccc4[nH]7)C=C6)C=C5)cc3)cc2-c2ccccc2)cc1
REMARK SMILES IDX 22 1 21 2 19 3 20 4 18 6 17 7 16 8 15 9 12 10 13 11 14 13
REMARK SMILES IDX 11 15 9 16 10 17 95 18 94 19 8 20 5 21 6 22 103 23 7 24
REMARK SMILES IDX 102 25 2 26 3 27 4 28 1 29 96 32 97 33 101 34 98 35 100 36
REMARK SMILES IDX 99 37 23 38 24 39 25 40 26 41 27 42 28 43 29 44 30 46 31 47
REMARK SMILES IDX 32 48 93 49 33 50 92 51 34 52 35 53 36 54 86 55 37 56 91 57
REMARK SMILES IDX 85 58 87 59 38 60 90 61 84 62 83 63 39 65 71 66 51 67 70 68
REMARK SMILES IDX 52 69 55 70 69 71 88 72 53 73 54 74 68 76 89 77 56 78 40 79
REMARK SMILES IDX 41 80 49 81 42 82 43 83 47 84 50 85 44 86 45 87 48 88 46 89
REMARK SMILES IDX 72 90 73 91 81 92 74 93 75 94 79 95 82 96 76 97 77 98 80 99
REMARK SMILES IDX 78 100 57 101 58 102 66 103 59 104 60 105 64 106 67 107
REMARK SMILES IDX 61 108 62 109 65 110 63 111
REMARK H PARENT 21 5 12 12 15 14 1 30 1 31 28 45 87 64 55 75
REMARK Flexibility Score: inf
ROOT
ATOM      1  C   UNL A   1      34.500  28.987  26.588  1.00  0.00     0.116 C 
ENDROOT
BRANCH   1   2
ATOM      2  N   UNL A   1      33.281  28.355  27.062  1.00  0.00    -0.356 N 
ATOM      3  C   UNL A   1      32.071  28.902  27.368  1.00  0.00     0.220 C 
ATOM      4  O   UNL A   1      31.262  28.213  27.992  1.00  0.00    -0.275 OA
ATOM      5  H   UNL A   1      33.337  27.379  27.181  1.00  0.00     0.163 HD
BRANCH   3   6
ATOM      6  C   UNL A   1      31.710  30.306  26.911  1.00  0.00     0.102 C 
BRANCH   6   7
ATOM      7  C   UNL A   1      31.611  30.476  25.395  1.00  0.00     0.031 C 
BRANCH   7   8
ATOM      8  C   UNL A   1      30.309  29.961  24.794  1.00  0.00     0.118 C 
BRANCH   8   9
ATOM      9  N   UNL A   1      29.630  30.865  23.880  1.00  0.00    -0.338 N 
ATOM     10  N   UNL A   1      30.456  30.218  21.730  1.00  0.00    -0.291 N 
ATOM     11  C   UNL A   1      29.685  30.987  22.533  1.00  0.00     0.320 C 
ATOM     12  H   UNL A   1      30.648  30.614  20.849  1.00  0.00     0.173 HD
ATOM     13  O   UNL A   1      29.075  31.935  22.026  1.00  0.00    -0.248 OA
ATOM     14  H   UNL A   1      29.021  31.501  24.320  1.00  0.00     0.165 HD
BRANCH  10  15
ATOM     15  C   UNL A   1      31.013  28.981  21.933  1.00  0.00     0.157 A 
ATOM     16  N   UNL A   1      31.190  27.071  22.788  1.00  0.00    -0.231 N 
ATOM     17  N   UNL A   1      30.313  27.879  22.188  1.00  0.00    -0.149 NA
ATOM     18  C   UNL A   1      32.492  27.425  22.461  1.00  0.00     0.076 A 
ATOM     19  C   UNL A   1      32.393  28.669  21.865  1.00  0.00     0.078 A 
BRANCH  16  20
ATOM     20  C   UNL A   1      30.768  26.053  23.691  1.00  0.00     0.065 A 
ATOM     21  C   UNL A   1      30.392  24.023  25.560  1.00  0.00     0.082 A 
ATOM     22  C   UNL A   1      30.374  25.353  25.981  1.00  0.00     0.024 A 
ATOM     23  C   UNL A   1      30.552  23.704  24.207  1.00  0.00     0.024 A 
ATOM     24  C   UNL A   1      30.537  26.369  25.040  1.00  0.00     0.030 A 
ATOM     25  C   UNL A   1      30.743  24.723  23.267  1.00  0.00     0.030 A 
BRANCH  21  26
ATOM     26  S   UNL A   1      30.268  22.755  26.787  1.00  0.00     0.238 S 
ATOM     27  O   UNL A   1      30.303  21.477  26.142  1.00  0.00    -0.207 OA
ATOM     28  O   UNL A   1      29.227  23.137  27.729  1.00  0.00    -0.207 OA
BRANCH  26  29
ATOM     29  N   UNL A   1      31.699  22.882  27.663  1.00  0.00    -0.225 NA
ATOM     30  H   UNL A   1      31.694  23.750  28.198  1.00  0.00     0.137 HD
ATOM     31  H   UNL A   1      32.491  22.883  27.021  1.00  0.00     0.137 HD
ENDBRANCH  26  29
ENDBRANCH  21  26
ENDBRANCH  16  20
BRANCH  18  32
ATOM     32  C   UNL A   1      33.581  26.588  22.929  1.00  0.00     0.000 A 
ATOM     33  C   UNL A   1      33.837  25.401  22.225  1.00  0.00     0.010 A 
ATOM     34  C   UNL A   1      33.958  26.699  24.267  1.00  0.00     0.010 A 
ATOM     35  C   UNL A   1      34.339  24.283  22.883  1.00  0.00     0.001 A 
ATOM     36  C   UNL A   1      34.407  25.560  24.934  1.00  0.00     0.001 A 
ATOM     37  C   UNL A   1      34.585  24.354  24.249  1.00  0.00     0.000 A 
ENDBRANCH  18  32
ENDBRANCH  10  15
ENDBRANCH   8   9
ENDBRANCH   7   8
ENDBRANCH   6   7
ENDBRANCH   3   6
ENDBRANCH   1   2
BRANCH   1  38
ATOM     38  C   UNL A   1      35.390  29.358  27.772  1.00  0.00     0.021 C 
BRANCH  38  39
ATOM     39  C   UNL A   1      35.904  30.794  27.809  1.00  0.00     0.002 C 
BRANCH  39  40
ATOM     40  C   UNL A   1      34.811  31.867  27.867  1.00  0.00     0.002 C 
BRANCH  40  41
ATOM     41  C   UNL A   1      35.279  33.296  28.183  1.00  0.00     0.021 C 
BRANCH  41  42
ATOM     42  C   UNL A   1      36.457  33.360  29.143  1.00  0.00     0.116 C 
BRANCH  42  43
ATOM     43  N   UNL A   1      36.054  33.177  30.540  1.00  0.00    -0.352 N 
ATOM     44  C   UNL A   1      36.331  32.115  31.380  1.00  0.00     0.251 C 
ATOM     45  H   UNL A   1      35.518  33.904  30.932  1.00  0.00     0.163 HD
ATOM     46  O   UNL A   1      35.649  31.895  32.374  1.00  0.00    -0.269 OA
BRANCH  44  47
ATOM     47  C   UNL A   1      37.489  31.260  31.068  1.00  0.00     0.039 A 
ATOM     48  C   UNL A   1      38.781  31.772  30.924  1.00  0.00     0.014 A 
ATOM     49  C   UNL A   1      37.251  29.894  30.944  1.00  0.00     0.014 A 
ATOM     50  C   UNL A   1      39.829  30.876  30.714  1.00  0.00     0.010 A 
ATOM     51  C   UNL A   1      38.295  29.010  30.947  1.00  0.00     0.010 A 
ATOM     52  C   UNL A   1      39.577  29.489  30.740  1.00  0.00    -0.014 A 
BRANCH  52  53
ATOM     53  C   UNL A   1      40.654  28.505  30.688  1.00  0.00     0.031 A 
ATOM     54  C   UNL A   1      41.309  28.293  32.006  1.00  0.00     0.074 A 
ATOM     55  C   UNL A   1      40.921  27.735  29.604  1.00  0.00     0.049 A 
ATOM     56  N   UNL A   1      42.506  28.633  32.354  1.00  0.00    -0.248 NA
ATOM     57  C   UNL A   1      40.482  27.796  33.119  1.00  0.00     0.031 C 
ATOM     58  C   UNL A   1      40.228  27.656  28.313  1.00  0.00     0.029 A 
ATOM     59  N   UNL A   1      41.916  26.817  29.445  1.00  0.00    -0.354 N 
ATOM     60  C   UNL A   1      42.654  28.219  33.675  1.00  0.00     0.074 A 
ATOM     61  C   UNL A   1      41.336  27.877  34.142  1.00  0.00     0.031 C 
ATOM     62  C   UNL A   1      40.734  26.635  27.573  1.00  0.00     0.029 A 
ATOM     63  C   UNL A   1      41.865  26.059  28.269  1.00  0.00     0.049 A 
ATOM     64  H   UNL A   1      42.627  26.694  30.116  1.00  0.00     0.167 HD
ATOM     65  C   UNL A   1      43.888  27.945  34.179  1.00  0.00     0.037 A 
ATOM     66  C   UNL A   1      42.735  25.071  27.910  1.00  0.00     0.037 A 
ATOM     67  C   UNL A   1      44.918  28.596  33.407  1.00  0.00     0.049 A 
ATOM     68  C   UNL A   1      43.958  25.278  28.704  1.00  0.00     0.074 A 
ATOM     69  C   UNL A   1      45.237  29.911  33.118  1.00  0.00     0.029 A 
ATOM     70  N   UNL A   1      45.583  27.854  32.462  1.00  0.00    -0.354 N 
ATOM     71  N   UNL A   1      44.759  26.282  28.494  1.00  0.00    -0.248 NA
ATOM     72  C   UNL A   1      44.016  24.665  30.022  1.00  0.00     0.031 C 
ATOM     73  C   UNL A   1      45.620  29.905  31.741  1.00  0.00     0.029 A 
ATOM     74  C   UNL A   1      45.582  28.584  31.301  1.00  0.00     0.049 A 
ATOM     75  H   UNL A   1      45.983  26.964  32.594  1.00  0.00     0.167 HD
ATOM     76  C   UNL A   1      45.125  26.695  29.761  1.00  0.00     0.074 A 
ATOM     77  C   UNL A   1      44.678  25.630  30.663  1.00  0.00     0.031 C 
ATOM     78  C   UNL A   1      45.489  27.987  29.996  1.00  0.00     0.037 A 
BRANCH  65  79
ATOM     79  C   UNL A   1      44.176  26.765  35.081  1.00  0.00     0.064 A 
ATOM     80  C   UNL A   1      44.913  26.978  36.263  1.00  0.00     0.173 A 
ATOM     81  C   UNL A   1      44.047  25.415  34.686  1.00  0.00     0.173 A 
ATOM     82  F   UNL A   1      45.106  28.220  36.735  1.00  0.00    -0.203 F 
ATOM     83  C   UNL A   1      45.557  25.932  36.932  1.00  0.00     0.198 A 
ATOM     84  C   UNL A   1      44.649  24.370  35.383  1.00  0.00     0.198 A 
ATOM     85  F   UNL A   1      43.435  25.051  33.554  1.00  0.00    -0.203 F 
ATOM     86  F   UNL A   1      46.360  26.201  37.970  1.00  0.00    -0.200 F 
ATOM     87  C   UNL A   1      45.433  24.631  36.484  1.00  0.00     0.200 A 
ATOM     88  F   UNL A   1      44.529  23.117  34.918  1.00  0.00    -0.200 F 
ATOM     89  F   UNL A   1      46.108  23.638  37.075  1.00  0.00    -0.200 F 
ENDBRANCH  65  79
BRANCH  66  90
ATOM     90  C   UNL A   1      42.604  23.814  27.142  1.00  0.00     0.064 A 
ATOM     91  C   UNL A   1      43.393  23.475  26.036  1.00  0.00     0.173 A 
ATOM     92  C   UNL A   1      41.909  22.754  27.747  1.00  0.00     0.173 A 
ATOM     93  F   UNL A   1      44.244  24.373  25.521  1.00  0.00    -0.203 F 
ATOM     94  C   UNL A   1      43.388  22.177  25.498  1.00  0.00     0.198 A 
ATOM     95  C   UNL A   1      41.902  21.459  27.213  1.00  0.00     0.198 A 
ATOM     96  F   UNL A   1      41.327  22.950  28.940  1.00  0.00    -0.203 F 
ATOM     97  F   UNL A   1      44.190  21.871  24.466  1.00  0.00    -0.200 F 
ATOM     98  C   UNL A   1      42.612  21.179  26.066  1.00  0.00     0.200 A 
ATOM     99  F   UNL A   1      41.247  20.471  27.842  1.00  0.00    -0.200 F 
ATOM    100  F   UNL A   1      42.601  19.940  25.552  1.00  0.00    -0.200 F 
ENDBRANCH  66  90
BRANCH  78 101
ATOM    101  C   UNL A   1      45.595  28.900  28.805  1.00  0.00     0.064 A 
ATOM    102  C   UNL A   1      44.532  29.684  28.319  1.00  0.00     0.173 A 
ATOM    103  C   UNL A   1      46.850  29.092  28.223  1.00  0.00     0.173 A 
ATOM    104  F   UNL A   1      43.319  29.619  28.877  1.00  0.00    -0.203 F 
ATOM    105  C   UNL A   1      44.716  30.599  27.281  1.00  0.00     0.198 A 
ATOM    106  C   UNL A   1      47.040  30.025  27.208  1.00  0.00     0.198 A 
ATOM    107  F   UNL A   1      47.909  28.405  28.679  1.00  0.00    -0.203 F 
ATOM    108  F   UNL A   1      43.686  31.335  26.838  1.00  0.00    -0.200 F 
ATOM    109  C   UNL A   1      45.974  30.774  26.732  1.00  0.00     0.200 A 
ATOM    110  F   UNL A   1      48.269  30.222  26.710  1.00  0.00    -0.200 F 
ATOM    111  F   UNL A   1      46.167  31.683  25.766  1.00  0.00    -0.200 F 
ENDBRANCH  78 101
ENDBRANCH  52  53
ENDBRANCH  44  47
ENDBRANCH  42  43
ENDBRANCH  41  42
ENDBRANCH  40  41
ENDBRANCH  39  40
ENDBRANCH  38  39
ENDBRANCH   1  38
TORSDOF 21
ENDMDL
MODEL 3
REMARK VINA RESULT:     -11.5      3.963      9.585
REMARK SMILES NS(=O)(=O)c1ccc(-n2nc(NC(=O)NCCCC(=O)NCCCCCCNC(=O)c3ccc(-c4c5nc(c(-c6c(F)c(F)c(F)c(F)c6F)c6ccc([nH]6)c(-c6c(F)c(F)c(F)c(F)c6F)c6nc(c(-c7c(F)c(F)c(F)c(F)c7F)c7ccc4[nH]7)C=C6)C=C5)cc3)cc2-c2ccccc2)cc1
REMARK SMILES IDX 22 1 21 2 19 3 20 4 18 6 17 7 16 8 15 9 12 10 13 11 14 13
REMARK SMILES IDX 11 15 9 16 10 17 95 18 94 19 8 20 5 21 6 22 103 23 7 24
REMARK SMILES IDX 102 25 2 26 3 27 4 28 1 29 96 32 97 33 101 34 98 35 100 36
REMARK SMILES IDX 99 37 23 38 24 39 25 40 26 41 27 42 28 43 29 44 30 46 31 47
REMARK SMILES IDX 32 48 93 49 33 50 92 51 34 52 35 53 36 54 86 55 37 56 91 57
REMARK SMILES IDX 85 58 87 59 38 60 90 61 84 62 83 63 39 65 71 66 51 67 70 68
REMARK SMILES IDX 52 69 55 70 69 71 88 72 53 73 54 74 68 76 89 77 56 78 40 79
REMARK SMILES IDX 41 80 49 81 42 82 43 83 47 84 50 85 44 86 45 87 48 88 46 89
REMARK SMILES IDX 72 90 73 91 81 92 74 93 75 94 79 95 82 96 76 97 77 98 80 99
REMARK SMILES IDX 78 100 57 101 58 102 66 103 59 104 60 105 64 106 67 107
REMARK SMILES IDX 61 108 62 109 65 110 63 111
REMARK H PARENT 21 5 12 12 15 14 1 30 1 31 28 45 87 64 55 75
REMARK Flexibility Score: inf
ROOT
ATOM      1  C   UNL A   1      38.279  22.546  25.848  1.00  0.00     0.116 C 
ENDROOT
BRANCH   1   2
ATOM      2  N   UNL A   1      37.058  21.805  26.114  1.00  0.00    -0.356 N 
ATOM      3  C   UNL A   1      35.905  21.727  25.392  1.00  0.00     0.220 C 
ATOM      4  O   UNL A   1      34.911  21.242  25.935  1.00  0.00    -0.275 OA
ATOM      5  H   UNL A   1      37.065  21.276  26.944  1.00  0.00     0.163 HD
BRANCH   3   6
ATOM      6  C   UNL A   1      35.857  22.181  23.943  1.00  0.00     0.102 C 
BRANCH   6   7
ATOM      7  C   UNL A   1      35.009  23.429  23.694  1.00  0.00     0.031 C 
BRANCH   7   8
ATOM      8  C   UNL A   1      33.666  23.147  23.033  1.00  0.00     0.118 C 
BRANCH   8   9
ATOM      9  N   UNL A   1      33.226  21.762  23.057  1.00  0.00    -0.338 N 
ATOM     10  N   UNL A   1      31.950  21.610  25.074  1.00  0.00    -0.291 N 
ATOM     11  C   UNL A   1      32.471  21.075  23.946  1.00  0.00     0.320 C 
ATOM     12  H   UNL A   1      31.717  20.950  25.768  1.00  0.00     0.173 HD
ATOM     13  O   UNL A   1      32.349  19.859  23.764  1.00  0.00    -0.248 OA
ATOM     14  H   UNL A   1      33.530  21.228  22.287  1.00  0.00     0.165 HD
BRANCH  10  15
ATOM     15  C   UNL A   1      31.690  22.912  25.416  1.00  0.00     0.157 A 
ATOM     16  N   UNL A   1      31.037  24.885  25.111  1.00  0.00    -0.231 N 
ATOM     17  N   UNL A   1      30.658  23.614  24.956  1.00  0.00    -0.149 NA
ATOM     18  C   UNL A   1      32.015  24.992  26.090  1.00  0.00     0.076 A 
ATOM     19  C   UNL A   1      32.436  23.697  26.330  1.00  0.00     0.078 A 
BRANCH  16  20
ATOM     20  C   UNL A   1      30.514  25.923  24.288  1.00  0.00     0.065 A 
ATOM     21  C   UNL A   1      29.660  28.240  23.001  1.00  0.00     0.082 A 
ATOM     22  C   UNL A   1      30.932  27.737  22.730  1.00  0.00     0.024 A 
ATOM     23  C   UNL A   1      28.797  27.570  23.876  1.00  0.00     0.024 A 
ATOM     24  C   UNL A   1      31.348  26.562  23.357  1.00  0.00     0.030 A 
ATOM     25  C   UNL A   1      29.226  26.406  24.524  1.00  0.00     0.030 A 
BRANCH  21  26
ATOM     26  S   UNL A   1      29.192  29.776  22.258  1.00  0.00     0.238 S 
ATOM     27  O   UNL A   1      29.151  30.789  23.268  1.00  0.00    -0.207 OA
ATOM     28  O   UNL A   1      28.085  29.520  21.349  1.00  0.00    -0.207 OA
BRANCH  26  29
ATOM     29  N   UNL A   1      30.484  30.163  21.252  1.00  0.00    -0.225 NA
ATOM     30  H   UNL A   1      30.330  29.756  20.329  1.00  0.00     0.137 HD
ATOM     31  H   UNL A   1      31.346  29.790  21.648  1.00  0.00     0.137 HD
ENDBRANCH  26  29
ENDBRANCH  21  26
ENDBRANCH  16  20
BRANCH  18  32
ATOM     32  C   UNL A   1      32.470  26.314  26.479  1.00  0.00     0.000 A 
ATOM     33  C   UNL A   1      31.510  27.214  26.969  1.00  0.00     0.010 A 
ATOM     34  C   UNL A   1      33.642  26.796  25.898  1.00  0.00     0.010 A 
ATOM     35  C   UNL A   1      31.650  28.581  26.760  1.00  0.00     0.001 A 
ATOM     36  C   UNL A   1      33.750  28.162  25.641  1.00  0.00     0.001 A 
ATOM     37  C   UNL A   1      32.754  29.050  26.057  1.00  0.00     0.000 A 
ENDBRANCH  18  32
ENDBRANCH  10  15
ENDBRANCH   8   9
ENDBRANCH   7   8
ENDBRANCH   6   7
ENDBRANCH   3   6
ENDBRANCH   1   2
BRANCH   1  38
ATOM     38  C   UNL A   1      38.152  23.969  26.388  1.00  0.00     0.021 C 
BRANCH  38  39
ATOM     39  C   UNL A   1      39.244  24.426  27.352  1.00  0.00     0.002 C 
BRANCH  39  40
ATOM     40  C   UNL A   1      40.496  25.000  26.681  1.00  0.00     0.002 C 
BRANCH  40  41
ATOM     41  C   UNL A   1      41.644  24.011  26.428  1.00  0.00     0.021 C 
BRANCH  41  42
ATOM     42  C   UNL A   1      42.836  24.623  25.709  1.00  0.00     0.116 C 
BRANCH  42  43
ATOM     43  N   UNL A   1      44.106  24.344  26.386  1.00  0.00    -0.352 N 
ATOM     44  C   UNL A   1      44.883  25.204  27.138  1.00  0.00     0.251 C 
ATOM     45  H   UNL A   1      44.449  23.426  26.294  1.00  0.00     0.163 HD
ATOM     46  O   UNL A   1      46.072  24.982  27.333  1.00  0.00    -0.269 OA
BRANCH  44  47
ATOM     47  C   UNL A   1      44.241  26.392  27.729  1.00  0.00     0.039 A 
ATOM     48  C   UNL A   1      44.673  26.956  28.932  1.00  0.00     0.014 A 
ATOM     49  C   UNL A   1      43.186  26.959  27.020  1.00  0.00     0.014 A 
ATOM     50  C   UNL A   1      44.061  28.130  29.371  1.00  0.00     0.010 A 
ATOM     51  C   UNL A   1      42.734  28.209  27.340  1.00  0.00     0.010 A 
ATOM     52  C   UNL A   1      43.096  28.759  28.557  1.00  0.00    -0.014 A 
BRANCH  52  53
ATOM     53  C   UNL A   1      42.541  30.068  28.886  1.00  0.00     0.031 A 
ATOM     54  C   UNL A   1      43.400  31.193  28.428  1.00  0.00     0.074 A 
ATOM     55  C   UNL A   1      41.299  30.255  29.396  1.00  0.00     0.049 A 
ATOM     56  N   UNL A   1      44.080  32.012  29.159  1.00  0.00    -0.248 NA
ATOM     57  C   UNL A   1      43.667  31.318  26.985  1.00  0.00     0.031 C 
ATOM     58  C   UNL A   1      40.245  29.276  29.687  1.00  0.00     0.029 A 
ATOM     59  N   UNL A   1      40.704  31.426  29.764  1.00  0.00    -0.354 N 
ATOM     60  C   UNL A   1      44.712  32.882  28.275  1.00  0.00     0.074 A 
ATOM     61  C   UNL A   1      44.566  32.305  26.965  1.00  0.00     0.031 C 
ATOM     62  C   UNL A   1      39.099  29.914  30.039  1.00  0.00     0.029 A 
ATOM     63  C   UNL A   1      39.353  31.338  30.123  1.00  0.00     0.049 A 
ATOM     64  H   UNL A   1      41.193  32.281  29.776  1.00  0.00     0.167 HD
ATOM     65  C   UNL A   1      45.068  34.134  28.673  1.00  0.00     0.037 A 
ATOM     66  C   UNL A   1      38.551  32.375  30.499  1.00  0.00     0.037 A 
ATOM     67  C   UNL A   1      45.177  34.208  30.110  1.00  0.00     0.049 A 
ATOM     68  C   UNL A   1      39.446  33.467  30.920  1.00  0.00     0.074 A 
ATOM     69  C   UNL A   1      45.969  33.591  31.062  1.00  0.00     0.029 A 
ATOM     70  N   UNL A   1      44.116  34.725  30.812  1.00  0.00    -0.354 N 
ATOM     71  N   UNL A   1      40.152  33.405  32.011  1.00  0.00    -0.248 NA
ATOM     72  C   UNL A   1      39.919  34.381  29.892  1.00  0.00     0.031 C 
ATOM     73  C   UNL A   1      45.089  33.318  32.155  1.00  0.00     0.029 A 
ATOM     74  C   UNL A   1      43.843  33.849  31.833  1.00  0.00     0.049 A 
ATOM     75  H   UNL A   1      43.639  35.564  30.618  1.00  0.00     0.167 HD
ATOM     76  C   UNL A   1      41.371  33.950  31.659  1.00  0.00     0.074 A 
ATOM     77  C   UNL A   1      41.154  34.583  30.355  1.00  0.00     0.031 C 
ATOM     78  C   UNL A   1      42.512  33.589  32.311  1.00  0.00     0.037 A 
BRANCH  65  79
ATOM     79  C   UNL A   1      44.892  35.365  27.810  1.00  0.00     0.064 A 
ATOM     80  C   UNL A   1      45.959  36.280  27.708  1.00  0.00     0.173 A 
ATOM     81  C   UNL A   1      43.643  35.840  27.352  1.00  0.00     0.173 A 
ATOM     82  F   UNL A   1      47.192  35.943  28.116  1.00  0.00    -0.203 F 
ATOM     83  C   UNL A   1      45.764  37.598  27.282  1.00  0.00     0.198 A 
ATOM     84  C   UNL A   1      43.463  37.139  26.882  1.00  0.00     0.198 A 
ATOM     85  F   UNL A   1      42.520  35.119  27.442  1.00  0.00    -0.203 F 
ATOM     86  F   UNL A   1      46.779  38.471  27.334  1.00  0.00    -0.200 F 
ATOM     87  C   UNL A   1      44.513  38.029  26.881  1.00  0.00     0.200 A 
ATOM     88  F   UNL A   1      42.237  37.539  26.515  1.00  0.00    -0.200 F 
ATOM     89  F   UNL A   1      44.307  39.308  26.545  1.00  0.00    -0.200 F 
ENDBRANCH  65  79
BRANCH  66  90
ATOM     90  C   UNL A   1      37.111  32.671  30.343  1.00  0.00     0.064 A 
ATOM     91  C   UNL A   1      36.233  32.918  31.405  1.00  0.00     0.173 A 
ATOM     92  C   UNL A   1      36.667  33.076  29.073  1.00  0.00     0.173 A 
ATOM     93  F   UNL A   1      36.648  32.754  32.669  1.00  0.00    -0.203 F 
ATOM     94  C   UNL A   1      34.940  33.426  31.189  1.00  0.00     0.198 A 
ATOM     95  C   UNL A   1      35.380  33.583  28.855  1.00  0.00     0.198 A 
ATOM     96  F   UNL A   1      37.535  33.092  28.051  1.00  0.00    -0.203 F 
ATOM     97  F   UNL A   1      34.139  33.695  32.231  1.00  0.00    -0.200 F 
ATOM     98  C   UNL A   1      34.502  33.723  29.909  1.00  0.00     0.200 A 
ATOM     99  F   UNL A   1      35.009  33.984  27.630  1.00  0.00    -0.200 F 
ATOM    100  F   UNL A   1      33.268  34.204  29.698  1.00  0.00    -0.200 F 
ENDBRANCH  66  90
BRANCH  78 101
ATOM    101  C   UNL A   1      42.366  32.677  33.499  1.00  0.00     0.064 A 
ATOM    102  C   UNL A   1      41.986  33.113  34.782  1.00  0.00     0.173 A 
ATOM    103  C   UNL A   1      42.479  31.299  33.298  1.00  0.00     0.173 A 
ATOM    104  F   UNL A   1      41.776  34.409  35.034  1.00  0.00    -0.203 F 
ATOM    105  C   UNL A   1      41.755  32.209  35.820  1.00  0.00     0.198 A 
ATOM    106  C   UNL A   1      42.220  30.397  34.326  1.00  0.00     0.198 A 
ATOM    107  F   UNL A   1      42.794  30.826  32.082  1.00  0.00    -0.203 F 
ATOM    108  F   UNL A   1      41.391  32.651  37.033  1.00  0.00    -0.200 F 
ATOM    109  C   UNL A   1      41.865  30.849  35.587  1.00  0.00     0.200 A 
ATOM    110  F   UNL A   1      42.286  29.080  34.083  1.00  0.00    -0.200 F 
ATOM    111  F   UNL A   1      41.601  29.974  36.567  1.00  0.00    -0.200 F 
ENDBRANCH  78 101
ENDBRANCH  52  53
ENDBRANCH  44  47
ENDBRANCH  42  43
ENDBRANCH  41  42
ENDBRANCH  40  41
ENDBRANCH  39  40
ENDBRANCH  38  39
ENDBRANCH   1  38
TORSDOF 21
ENDMDL
