MODEL 1
REMARK VINA RESULT:     -12.3      0.000      0.000
REMARK SMILES CS(=O)(=O)c1ccc(C2=NN(c3ccc(C(=O)NCCCCCCNC(=O)c4ccc(-c5c6nc(c(-c7c(F)c(F)c(F)c(F)c7F)c7ccc([nH]7)c(-c7c(F)c(F)c(F)c(F)c7F)c7nc(c(-c8c(F)c(F)c(F)c(F)c8F)c8ccc5[nH]8)C=C7)C=C6)cc4)cc3)[C@H](c3ccc(F)cc3)C2)cc1
REMARK SMILES IDX 21 1 20 2 19 3 18 4 16 5 17 6 15 8 12 9 13 10 92 11 14 12
REMARK SMILES IDX 91 13 11 14 9 15 10 16 101 17 93 18 8 19 5 20 6 21 103 22
REMARK SMILES IDX 7 23 102 24 2 25 1 26 3 27 4 28 94 29 95 30 100 31 96 32
REMARK SMILES IDX 99 33 97 34 98 35 22 36 23 37 24 38 25 39 26 40 27 42 28 43
REMARK SMILES IDX 29 44 90 45 30 46 89 47 31 48 32 49 33 50 83 51 34 52 88 53
REMARK SMILES IDX 82 54 84 55 35 56 87 57 81 58 80 59 36 61 68 62 48 63 67 64
REMARK SMILES IDX 49 65 52 66 66 67 85 68 50 69 51 70 65 72 86 73 53 74 37 75
REMARK SMILES IDX 38 76 46 77 39 78 40 79 44 80 47 81 41 82 42 83 45 84 43 85
REMARK SMILES IDX 69 86 70 87 78 88 71 89 72 90 76 91 79 92 73 93 74 94 77 95
REMARK SMILES IDX 75 96 54 97 55 98 63 99 56 100 57 101 61 102 64 103 58 104
REMARK SMILES IDX 59 105 62 106 60 107
REMARK H PARENT 18 7 25 41 84 60 52 71
REMARK Flexibility Score: inf
ROOT
ATOM      1  C   UNL A   1      41.336  25.491  26.806  1.00  0.00     0.002 C 
ENDROOT
BRANCH   1   2
ATOM      2  C   UNL A   1      39.848  25.845  26.712  1.00  0.00     0.021 C 
BRANCH   2   3
ATOM      3  C   UNL A   1      38.930  24.717  27.189  1.00  0.00     0.116 C 
BRANCH   3   4
ATOM      4  N   UNL A   1      39.427  23.437  26.718  1.00  0.00    -0.352 N 
ATOM      5  C   UNL A   1      38.808  22.420  26.037  1.00  0.00     0.251 C 
ATOM      6  O   UNL A   1      39.476  21.435  25.722  1.00  0.00    -0.269 OA
ATOM      7  H   UNL A   1      40.375  23.271  26.922  1.00  0.00     0.163 HD
BRANCH   5   8
ATOM      8  C   UNL A   1      37.388  22.506  25.610  1.00  0.00     0.039 A 
ATOM      9  C   UNL A   1      34.746  22.874  24.706  1.00  0.00     0.060 A 
ATOM     10  C   UNL A   1      35.818  22.949  23.810  1.00  0.00     0.029 A 
ATOM     11  C   UNL A   1      35.007  22.532  26.034  1.00  0.00     0.029 A 
ATOM     12  C   UNL A   1      37.131  22.769  24.258  1.00  0.00     0.016 A 
ATOM     13  C   UNL A   1      36.312  22.323  26.480  1.00  0.00     0.016 A 
BRANCH   9  14
ATOM     14  N   UNL A   1      33.434  23.097  24.317  1.00  0.00    -0.257 N 
ATOM     15  C   UNL A   1      31.816  24.453  24.086  1.00  0.00     0.071 C 
ATOM     16  N   UNL A   1      33.098  24.355  23.953  1.00  0.00    -0.176 NA
ATOM     17  C   UNL A   1      31.115  23.243  24.634  1.00  0.00     0.091 C 
ATOM     18  C   UNL A   1      32.307  22.279  24.786  1.00  0.00     0.144 C 
BRANCH  15  19
ATOM     19  C   UNL A   1      31.099  25.671  23.687  1.00  0.00    -0.002 A 
ATOM     20  C   UNL A   1      29.866  28.030  22.888  1.00  0.00     0.067 A 
ATOM     21  C   UNL A   1      31.064  27.645  22.283  1.00  0.00     0.021 A 
ATOM     22  C   UNL A   1      29.290  27.245  23.899  1.00  0.00     0.021 A 
ATOM     23  C   UNL A   1      31.685  26.468  22.696  1.00  0.00     0.011 A 
ATOM     24  C   UNL A   1      29.902  26.052  24.293  1.00  0.00     0.011 A 
BRANCH  20  25
ATOM     25  S   UNL A   1      29.033  29.529  22.419  1.00  0.00     0.175 S 
ATOM     26  C   UNL A   1      29.339  30.717  23.697  1.00  0.00     0.163 C 
ATOM     27  O   UNL A   1      27.615  29.235  22.438  1.00  0.00    -0.224 OA
ATOM     28  O   UNL A   1      29.691  29.991  21.210  1.00  0.00    -0.224 OA
ENDBRANCH  20  25
ENDBRANCH  15  19
BRANCH  18  29
ATOM     29  C   UNL A   1      32.265  20.946  24.035  1.00  0.00    -0.023 A 
ATOM     30  C   UNL A   1      32.075  20.823  22.648  1.00  0.00     0.009 A 
ATOM     31  C   UNL A   1      32.476  19.758  24.772  1.00  0.00     0.009 A 
ATOM     32  C   UNL A   1      32.091  19.567  22.027  1.00  0.00     0.039 A 
ATOM     33  C   UNL A   1      32.522  18.509  24.148  1.00  0.00     0.039 A 
ATOM     34  C   UNL A   1      32.325  18.424  22.779  1.00  0.00     0.123 A 
ATOM     35  F   UNL A   1      32.368  17.230  22.176  1.00  0.00    -0.207 F 
ENDBRANCH  18  29
ENDBRANCH   9  14
ENDBRANCH   5   8
ENDBRANCH   3   4
ENDBRANCH   2   3
ENDBRANCH   1   2
BRANCH   1  36
ATOM     36  C   UNL A   1      42.203  26.077  25.685  1.00  0.00     0.002 C 
BRANCH  36  37
ATOM     37  C   UNL A   1      43.132  25.071  25.001  1.00  0.00     0.021 C 
BRANCH  37  38
ATOM     38  C   UNL A   1      43.137  23.691  25.648  1.00  0.00     0.116 C 
BRANCH  38  39
ATOM     39  N   UNL A   1      44.486  23.257  25.976  1.00  0.00    -0.352 N 
ATOM     40  C   UNL A   1      45.358  23.760  26.908  1.00  0.00     0.251 C 
ATOM     41  H   UNL A   1      44.822  22.493  25.453  1.00  0.00     0.163 HD
ATOM     42  O   UNL A   1      46.541  23.436  26.888  1.00  0.00    -0.269 OA
BRANCH  40  43
ATOM     43  C   UNL A   1      44.868  24.703  27.933  1.00  0.00     0.039 A 
ATOM     44  C   UNL A   1      45.227  26.050  27.842  1.00  0.00     0.014 A 
ATOM     45  C   UNL A   1      44.067  24.256  28.988  1.00  0.00     0.014 A 
ATOM     46  C   UNL A   1      44.739  26.958  28.782  1.00  0.00     0.010 A 
ATOM     47  C   UNL A   1      43.518  25.174  29.877  1.00  0.00     0.010 A 
ATOM     48  C   UNL A   1      43.855  26.532  29.789  1.00  0.00    -0.014 A 
BRANCH  48  49
ATOM     49  C   UNL A   1      43.283  27.493  30.765  1.00  0.00     0.031 A 
ATOM     50  C   UNL A   1      43.922  27.666  32.115  1.00  0.00     0.074 A 
ATOM     51  C   UNL A   1      42.157  28.165  30.457  1.00  0.00     0.049 A 
ATOM     52  N   UNL A   1      43.537  28.403  33.127  1.00  0.00    -0.248 NA
ATOM     53  C   UNL A   1      45.144  26.886  32.373  1.00  0.00     0.031 C 
ATOM     54  C   UNL A   1      41.423  28.050  29.196  1.00  0.00     0.029 A 
ATOM     55  N   UNL A   1      41.428  29.073  31.184  1.00  0.00    -0.354 N 
ATOM     56  C   UNL A   1      44.461  28.171  34.136  1.00  0.00     0.074 A 
ATOM     57  C   UNL A   1      45.389  27.176  33.641  1.00  0.00     0.031 C 
ATOM     58  C   UNL A   1      40.364  28.875  29.228  1.00  0.00     0.029 A 
ATOM     59  C   UNL A   1      40.318  29.542  30.525  1.00  0.00     0.049 A 
ATOM     60  H   UNL A   1      41.677  29.359  32.093  1.00  0.00     0.167 HD
ATOM     61  C   UNL A   1      44.546  28.755  35.356  1.00  0.00     0.037 A 
ATOM     62  C   UNL A   1      39.368  30.407  30.928  1.00  0.00     0.037 A 
ATOM     63  C   UNL A   1      43.628  29.754  35.837  1.00  0.00     0.049 A 
ATOM     64  C   UNL A   1      39.468  31.016  32.301  1.00  0.00     0.074 A 
ATOM     65  C   UNL A   1      43.648  30.437  37.041  1.00  0.00     0.029 A 
ATOM     66  N   UNL A   1      42.519  30.209  35.139  1.00  0.00    -0.354 N 
ATOM     67  N   UNL A   1      40.383  30.838  33.222  1.00  0.00    -0.248 NA
ATOM     68  C   UNL A   1      38.403  31.953  32.687  1.00  0.00     0.031 C 
ATOM     69  C   UNL A   1      42.524  31.266  37.092  1.00  0.00     0.029 A 
ATOM     70  C   UNL A   1      41.835  31.148  35.896  1.00  0.00     0.049 A 
ATOM     71  H   UNL A   1      42.256  29.910  34.238  1.00  0.00     0.167 HD
ATOM     72  C   UNL A   1      40.027  31.666  34.280  1.00  0.00     0.074 A 
ATOM     73  C   UNL A   1      38.819  32.357  33.878  1.00  0.00     0.031 C 
ATOM     74  C   UNL A   1      40.643  31.837  35.475  1.00  0.00     0.037 A 
BRANCH  61  75
ATOM     75  C   UNL A   1      45.675  28.331  36.252  1.00  0.00     0.064 A 
ATOM     76  C   UNL A   1      46.894  29.027  36.280  1.00  0.00     0.173 A 
ATOM     77  C   UNL A   1      45.526  27.238  37.120  1.00  0.00     0.173 A 
ATOM     78  F   UNL A   1      47.093  30.072  35.464  1.00  0.00    -0.203 F 
ATOM     79  C   UNL A   1      47.930  28.627  37.119  1.00  0.00     0.198 A 
ATOM     80  C   UNL A   1      46.553  26.862  37.982  1.00  0.00     0.198 A 
ATOM     81  F   UNL A   1      44.380  26.541  37.139  1.00  0.00    -0.203 F 
ATOM     82  F   UNL A   1      49.103  29.274  37.088  1.00  0.00    -0.200 F 
ATOM     83  C   UNL A   1      47.756  27.549  37.974  1.00  0.00     0.200 A 
ATOM     84  F   UNL A   1      46.378  25.829  38.819  1.00  0.00    -0.200 F 
ATOM     85  F   UNL A   1      48.752  27.169  38.787  1.00  0.00    -0.200 F 
ENDBRANCH  61  75
BRANCH  62  86
ATOM     86  C   UNL A   1      38.248  30.765  30.017  1.00  0.00     0.064 A 
ATOM     87  C   UNL A   1      38.186  32.031  29.416  1.00  0.00     0.173 A 
ATOM     88  C   UNL A   1      37.207  29.864  29.746  1.00  0.00     0.173 A 
ATOM     89  F   UNL A   1      39.146  32.935  29.659  1.00  0.00    -0.203 F 
ATOM     90  C   UNL A   1      37.111  32.392  28.606  1.00  0.00     0.198 A 
ATOM     91  C   UNL A   1      36.150  30.215  28.908  1.00  0.00     0.198 A 
ATOM     92  F   UNL A   1      37.221  28.639  30.290  1.00  0.00    -0.203 F 
ATOM     93  F   UNL A   1      37.048  33.628  28.093  1.00  0.00    -0.200 F 
ATOM     94  C   UNL A   1      36.097  31.482  28.349  1.00  0.00     0.200 A 
ATOM     95  F   UNL A   1      35.181  29.327  28.649  1.00  0.00    -0.200 F 
ATOM     96  F   UNL A   1      35.063  31.830  27.571  1.00  0.00    -0.200 F 
ENDBRANCH  62  86
BRANCH  74  97
ATOM     97  C   UNL A   1      40.051  32.848  36.417  1.00  0.00     0.064 A 
ATOM     98  C   UNL A   1      38.961  32.539  37.244  1.00  0.00     0.173 A 
ATOM     99  C   UNL A   1      40.609  34.132  36.517  1.00  0.00     0.173 A 
ATOM    100  F   UNL A   1      38.382  31.331  37.176  1.00  0.00    -0.203 F 
ATOM    101  C   UNL A   1      38.433  33.489  38.115  1.00  0.00     0.198 A 
ATOM    102  C   UNL A   1      40.100  35.066  37.415  1.00  0.00     0.198 A 
ATOM    103  F   UNL A   1      41.657  34.476  35.755  1.00  0.00    -0.203 F 
ATOM    104  F   UNL A   1      37.357  33.189  38.856  1.00  0.00    -0.200 F 
ATOM    105  C   UNL A   1      39.007  34.748  38.206  1.00  0.00     0.200 A 
ATOM    106  F   UNL A   1      40.667  36.276  37.513  1.00  0.00    -0.200 F 
ATOM    107  F   UNL A   1      38.502  35.656  39.051  1.00  0.00    -0.200 F 
ENDBRANCH  74  97
ENDBRANCH  48  49
ENDBRANCH  40  43
ENDBRANCH  38  39
ENDBRANCH  37  38
ENDBRANCH  36  37
ENDBRANCH   1  36
TORSDOF 17
ENDMDL
MODEL 2
REMARK VINA RESULT:     -12.3      0.514      6.914
REMARK SMILES CS(=O)(=O)c1ccc(C2=NN(c3ccc(C(=O)NCCCCCCNC(=O)c4ccc(-c5c6nc(c(-c7c(F)c(F)c(F)c(F)c7F)c7ccc([nH]7)c(-c7c(F)c(F)c(F)c(F)c7F)c7nc(c(-c8c(F)c(F)c(F)c(F)c8F)c8ccc5[nH]8)C=C7)C=C6)cc4)cc3)[C@H](c3ccc(F)cc3)C2)cc1
REMARK SMILES IDX 21 1 20 2 19 3 18 4 16 5 17 6 15 8 12 9 13 10 92 11 14 12
REMARK SMILES IDX 91 13 11 14 9 15 10 16 101 17 93 18 8 19 5 20 6 21 103 22
REMARK SMILES IDX 7 23 102 24 2 25 1 26 3 27 4 28 94 29 95 30 100 31 96 32
REMARK SMILES IDX 99 33 97 34 98 35 22 36 23 37 24 38 25 39 26 40 27 42 28 43
REMARK SMILES IDX 29 44 90 45 30 46 89 47 31 48 32 49 33 50 83 51 34 52 88 53
REMARK SMILES IDX 82 54 84 55 35 56 87 57 81 58 80 59 36 61 68 62 48 63 67 64
REMARK SMILES IDX 49 65 52 66 66 67 85 68 50 69 51 70 65 72 86 73 53 74 37 75
REMARK SMILES IDX 38 76 46 77 39 78 40 79 44 80 47 81 41 82 42 83 45 84 43 85
REMARK SMILES IDX 69 86 70 87 78 88 71 89 72 90 76 91 79 92 73 93 74 94 77 95
REMARK SMILES IDX 75 96 54 97 55 98 63 99 56 100 57 101 61 102 64 103 58 104
REMARK SMILES IDX 59 105 62 106 60 107
REMARK H PARENT 18 7 25 41 84 60 52 71
REMARK Flexibility Score: inf
ROOT
ATOM      1  C   UNL A   1      41.495  25.461  26.803  1.00  0.00     0.002 C 
ENDROOT
BRANCH   1   2
ATOM      2  C   UNL A   1      40.116  26.125  26.868  1.00  0.00     0.021 C 
BRANCH   2   3
ATOM      3  C   UNL A   1      38.969  25.120  27.001  1.00  0.00     0.116 C 
BRANCH   3   4
ATOM      4  N   UNL A   1      39.428  23.790  26.645  1.00  0.00    -0.352 N 
ATOM      5  C   UNL A   1      38.775  22.729  26.071  1.00  0.00     0.251 C 
ATOM      6  O   UNL A   1      39.414  21.704  25.840  1.00  0.00    -0.269 OA
ATOM      7  H   UNL A   1      40.376  23.620  26.850  1.00  0.00     0.163 HD
BRANCH   5   8
ATOM      8  C   UNL A   1      37.350  22.811  25.658  1.00  0.00     0.039 A 
ATOM      9  C   UNL A   1      34.691  23.181  24.806  1.00  0.00     0.060 A 
ATOM     10  C   UNL A   1      35.755  23.401  23.924  1.00  0.00     0.029 A 
ATOM     11  C   UNL A   1      34.972  22.695  26.084  1.00  0.00     0.029 A 
ATOM     12  C   UNL A   1      37.076  23.220  24.347  1.00  0.00     0.016 A 
ATOM     13  C   UNL A   1      36.286  22.486  26.501  1.00  0.00     0.016 A 
BRANCH   9  14
ATOM     14  N   UNL A   1      33.369  23.398  24.446  1.00  0.00    -0.257 N 
ATOM     15  C   UNL A   1      31.732  24.740  24.278  1.00  0.00     0.071 C 
ATOM     16  N   UNL A   1      33.013  24.660  24.118  1.00  0.00    -0.176 NA
ATOM     17  C   UNL A   1      31.055  23.509  24.810  1.00  0.00     0.091 C 
ATOM     18  C   UNL A   1      32.261  22.556  24.917  1.00  0.00     0.144 C 
BRANCH  15  19
ATOM     19  C   UNL A   1      30.994  25.958  23.920  1.00  0.00    -0.002 A 
ATOM     20  C   UNL A   1      29.489  28.181  23.202  1.00  0.00     0.067 A 
ATOM     21  C   UNL A   1      28.836  26.998  23.556  1.00  0.00     0.021 A 
ATOM     22  C   UNL A   1      30.890  28.251  23.196  1.00  0.00     0.021 A 
ATOM     23  C   UNL A   1      29.596  25.882  23.902  1.00  0.00     0.011 A 
ATOM     24  C   UNL A   1      31.649  27.138  23.569  1.00  0.00     0.011 A 
BRANCH  20  25
ATOM     25  S   UNL A   1      28.578  29.633  22.733  1.00  0.00     0.175 S 
ATOM     26  C   UNL A   1      29.214  30.980  23.691  1.00  0.00     0.163 C 
ATOM     27  O   UNL A   1      27.210  29.416  23.154  1.00  0.00    -0.224 OA
ATOM     28  O   UNL A   1      28.908  29.879  21.340  1.00  0.00    -0.224 OA
ENDBRANCH  20  25
ENDBRANCH  15  19
BRANCH  18  29
ATOM     29  C   UNL A   1      32.219  21.240  24.137  1.00  0.00    -0.023 A 
ATOM     30  C   UNL A   1      32.026  21.148  22.747  1.00  0.00     0.009 A 
ATOM     31  C   UNL A   1      32.435  20.036  24.846  1.00  0.00     0.009 A 
ATOM     32  C   UNL A   1      32.043  19.906  22.098  1.00  0.00     0.039 A 
ATOM     33  C   UNL A   1      32.481  18.801  24.194  1.00  0.00     0.039 A 
ATOM     34  C   UNL A   1      32.281  18.748  22.824  1.00  0.00     0.123 A 
ATOM     35  F   UNL A   1      32.324  17.567  22.194  1.00  0.00    -0.207 F 
ENDBRANCH  18  29
ENDBRANCH   9  14
ENDBRANCH   5   8
ENDBRANCH   3   4
ENDBRANCH   2   3
ENDBRANCH   1   2
BRANCH   1  36
ATOM     36  C   UNL A   1      42.270  25.724  25.506  1.00  0.00     0.002 C 
BRANCH  36  37
ATOM     37  C   UNL A   1      43.110  24.545  25.011  1.00  0.00     0.021 C 
BRANCH  37  38
ATOM     38  C   UNL A   1      43.271  23.425  26.032  1.00  0.00     0.116 C 
BRANCH  38  39
ATOM     39  N   UNL A   1      44.667  23.226  26.393  1.00  0.00    -0.352 N 
ATOM     40  C   UNL A   1      45.445  23.930  27.275  1.00  0.00     0.251 C 
ATOM     41  H   UNL A   1      45.117  22.477  25.937  1.00  0.00     0.163 HD
ATOM     42  O   UNL A   1      46.663  23.784  27.281  1.00  0.00    -0.269 OA
BRANCH  40  43
ATOM     43  C   UNL A   1      44.811  24.876  28.215  1.00  0.00     0.039 A 
ATOM     44  C   UNL A   1      44.062  24.373  29.282  1.00  0.00     0.014 A 
ATOM     45  C   UNL A   1      44.946  26.256  28.036  1.00  0.00     0.014 A 
ATOM     46  C   UNL A   1      43.491  25.256  30.199  1.00  0.00     0.010 A 
ATOM     47  C   UNL A   1      44.443  27.130  28.993  1.00  0.00     0.010 A 
ATOM     48  C   UNL A   1      43.703  26.640  30.079  1.00  0.00    -0.014 A 
BRANCH  48  49
ATOM     49  C   UNL A   1      43.148  27.591  31.076  1.00  0.00     0.031 A 
ATOM     50  C   UNL A   1      41.891  28.355  30.769  1.00  0.00     0.074 A 
ATOM     51  C   UNL A   1      43.809  27.807  32.230  1.00  0.00     0.049 A 
ATOM     52  N   UNL A   1      41.285  29.276  31.477  1.00  0.00    -0.248 NA
ATOM     53  C   UNL A   1      41.238  28.065  29.481  1.00  0.00     0.031 C 
ATOM     54  C   UNL A   1      45.060  27.157  32.622  1.00  0.00     0.029 A 
ATOM     55  N   UNL A   1      43.523  28.641  33.282  1.00  0.00    -0.354 N 
ATOM     56  C   UNL A   1      40.192  29.676  30.721  1.00  0.00     0.074 A 
ATOM     57  C   UNL A   1      40.251  28.948  29.472  1.00  0.00     0.031 C 
ATOM     58  C   UNL A   1      45.420  27.596  33.839  1.00  0.00     0.029 A 
ATOM     59  C   UNL A   1      44.453  28.590  34.292  1.00  0.00     0.049 A 
ATOM     60  H   UNL A   1      42.729  29.221  33.309  1.00  0.00     0.167 HD
ATOM     61  C   UNL A   1      39.212  30.551  31.051  1.00  0.00     0.037 A 
ATOM     62  C   UNL A   1      44.519  29.275  35.449  1.00  0.00     0.037 A 
ATOM     63  C   UNL A   1      39.151  31.262  32.300  1.00  0.00     0.049 A 
ATOM     64  C   UNL A   1      43.434  30.266  35.775  1.00  0.00     0.074 A 
ATOM     65  C   UNL A   1      38.180  32.141  32.748  1.00  0.00     0.029 A 
ATOM     66  N   UNL A   1      40.108  31.181  33.302  1.00  0.00    -0.354 N 
ATOM     67  N   UNL A   1      42.369  30.588  35.081  1.00  0.00    -0.248 NA
ATOM     68  C   UNL A   1      43.557  30.985  37.051  1.00  0.00     0.031 C 
ATOM     69  C   UNL A   1      38.575  32.630  33.997  1.00  0.00     0.029 A 
ATOM     70  C   UNL A   1      39.761  32.010  34.357  1.00  0.00     0.049 A 
ATOM     71  H   UNL A   1      40.914  30.617  33.269  1.00  0.00     0.167 HD
ATOM     72  C   UNL A   1      41.678  31.517  35.850  1.00  0.00     0.074 A 
ATOM     73  C   UNL A   1      42.438  31.694  37.070  1.00  0.00     0.031 C 
ATOM     74  C   UNL A   1      40.521  32.164  35.571  1.00  0.00     0.037 A 
BRANCH  61  75
ATOM     75  C   UNL A   1      38.120  30.783  30.043  1.00  0.00     0.064 A 
ATOM     76  C   UNL A   1      37.143  29.810  29.780  1.00  0.00     0.173 A 
ATOM     77  C   UNL A   1      38.028  32.004  29.359  1.00  0.00     0.173 A 
ATOM     78  F   UNL A   1      37.191  28.621  30.399  1.00  0.00    -0.203 F 
ATOM     79  C   UNL A   1      36.135  30.039  28.848  1.00  0.00     0.198 A 
ATOM     80  C   UNL A   1      36.998  32.242  28.452  1.00  0.00     0.198 A 
ATOM     81  F   UNL A   1      38.932  32.972  29.576  1.00  0.00    -0.203 F 
ATOM     82  F   UNL A   1      35.246  29.074  28.575  1.00  0.00    -0.200 F 
ATOM     83  C   UNL A   1      36.059  31.257  28.190  1.00  0.00     0.200 A 
ATOM     84  F   UNL A   1      36.917  33.426  27.828  1.00  0.00    -0.200 F 
ATOM     85  F   UNL A   1      35.083  31.480  27.299  1.00  0.00    -0.200 F 
ENDBRANCH  61  75
BRANCH  62  86
ATOM     86  C   UNL A   1      45.641  29.038  36.396  1.00  0.00     0.064 A 
ATOM     87  C   UNL A   1      45.529  28.089  37.422  1.00  0.00     0.173 A 
ATOM     88  C   UNL A   1      46.837  29.768  36.313  1.00  0.00     0.173 A 
ATOM     89  F   UNL A   1      44.399  27.379  37.556  1.00  0.00    -0.203 F 
ATOM     90  C   UNL A   1      46.555  27.901  38.346  1.00  0.00     0.198 A 
ATOM     91  C   UNL A   1      47.875  29.555  37.217  1.00  0.00     0.198 A 
ATOM     92  F   UNL A   1      46.998  30.684  35.348  1.00  0.00    -0.203 F 
ATOM     93  F   UNL A   1      46.396  27.028  39.351  1.00  0.00    -0.200 F 
ATOM     94  C   UNL A   1      47.729  28.630  38.240  1.00  0.00     0.200 A 
ATOM     95  F   UNL A   1      49.014  30.251  37.102  1.00  0.00    -0.200 F 
ATOM     96  F   UNL A   1      48.715  28.451  39.129  1.00  0.00    -0.200 F 
ENDBRANCH  62  86
BRANCH  74  97
ATOM     97  C   UNL A   1      39.976  33.088  36.624  1.00  0.00     0.064 A 
ATOM     98  C   UNL A   1      38.947  32.694  37.493  1.00  0.00     0.173 A 
ATOM     99  C   UNL A   1      40.517  34.372  36.786  1.00  0.00     0.173 A 
ATOM    100  F   UNL A   1      38.385  31.482  37.369  1.00  0.00    -0.203 F 
ATOM    101  C   UNL A   1      38.461  33.564  38.465  1.00  0.00     0.198 A 
ATOM    102  C   UNL A   1      40.053  35.225  37.783  1.00  0.00     0.198 A 
ATOM    103  F   UNL A   1      41.507  34.796  35.987  1.00  0.00    -0.203 F 
ATOM    104  F   UNL A   1      37.442  33.187  39.249  1.00  0.00    -0.200 F 
ATOM    105  C   UNL A   1      39.020  34.825  38.616  1.00  0.00     0.200 A 
ATOM    106  F   UNL A   1      40.605  36.436  37.937  1.00  0.00    -0.200 F 
ATOM    107  F   UNL A   1      38.556  35.656  39.559  1.00  0.00    -0.200 F 
ENDBRANCH  74  97
ENDBRANCH  48  49
ENDBRANCH  40  43
ENDBRANCH  38  39
ENDBRANCH  37  38
ENDBRANCH  36  37
ENDBRANCH   1  36
TORSDOF 17
ENDMDL
MODEL 3
REMARK VINA RESULT:     -11.9      6.800     10.003
REMARK SMILES CS(=O)(=O)c1ccc(C2=NN(c3ccc(C(=O)NCCCCCCNC(=O)c4ccc(-c5c6nc(c(-c7c(F)c(F)c(F)c(F)c7F)c7ccc([nH]7)c(-c7c(F)c(F)c(F)c(F)c7F)c7nc(c(-c8c(F)c(F)c(F)c(F)c8F)c8ccc5[nH]8)C=C7)C=C6)cc4)cc3)[C@H](c3ccc(F)cc3)C2)cc1
REMARK SMILES IDX 21 1 20 2 19 3 18 4 16 5 17 6 15 8 12 9 13 10 92 11 14 12
REMARK SMILES IDX 91 13 11 14 9 15 10 16 101 17 93 18 8 19 5 20 6 21 103 22
REMARK SMILES IDX 7 23 102 24 2 25 1 26 3 27 4 28 94 29 95 30 100 31 96 32
REMARK SMILES IDX 99 33 97 34 98 35 22 36 23 37 24 38 25 39 26 40 27 42 28 43
REMARK SMILES IDX 29 44 90 45 30 46 89 47 31 48 32 49 33 50 83 51 34 52 88 53
REMARK SMILES IDX 82 54 84 55 35 56 87 57 81 58 80 59 36 61 68 62 48 63 67 64
REMARK SMILES IDX 49 65 52 66 66 67 85 68 50 69 51 70 65 72 86 73 53 74 37 75
REMARK SMILES IDX 38 76 46 77 39 78 40 79 44 80 47 81 41 82 42 83 45 84 43 85
REMARK SMILES IDX 69 86 70 87 78 88 71 89 72 90 76 91 79 92 73 93 74 94 77 95
REMARK SMILES IDX 75 96 54 97 55 98 63 99 56 100 57 101 61 102 64 103 58 104
REMARK SMILES IDX 59 105 62 106 60 107
REMARK H PARENT 18 7 25 41 84 60 52 71
REMARK Flexibility Score: inf
ROOT
ATOM      1  C   UNL A   1      36.760  23.048  25.701  1.00  0.00     0.002 C 
ENDROOT
BRANCH   1   2
ATOM      2  C   UNL A   1      36.410  21.725  25.010  1.00  0.00     0.021 C 
BRANCH   2   3
ATOM      3  C   UNL A   1      35.142  21.073  25.566  1.00  0.00     0.116 C 
BRANCH   3   4
ATOM      4  N   UNL A   1      34.129  20.992  24.531  1.00  0.00    -0.352 N 
ATOM      5  C   UNL A   1      33.287  21.941  24.010  1.00  0.00     0.251 C 
ATOM      6  O   UNL A   1      32.528  21.614  23.099  1.00  0.00    -0.269 OA
ATOM      7  H   UNL A   1      34.028  20.098  24.132  1.00  0.00     0.163 HD
BRANCH   5   8
ATOM      8  C   UNL A   1      33.319  23.356  24.462  1.00  0.00     0.039 A 
ATOM      9  C   UNL A   1      33.152  26.025  25.346  1.00  0.00     0.060 A 
ATOM     10  C   UNL A   1      32.628  24.987  26.124  1.00  0.00     0.029 A 
ATOM     11  C   UNL A   1      33.830  25.701  24.169  1.00  0.00     0.029 A 
ATOM     12  C   UNL A   1      32.708  23.661  25.685  1.00  0.00     0.016 A 
ATOM     13  C   UNL A   1      33.937  24.379  23.742  1.00  0.00     0.016 A 
BRANCH   9  14
ATOM     14  N   UNL A   1      33.049  27.358  25.716  1.00  0.00    -0.257 N 
ATOM     15  C   UNL A   1      33.758  28.971  26.900  1.00  0.00     0.071 C 
ATOM     16  N   UNL A   1      34.157  27.953  26.210  1.00  0.00    -0.176 NA
ATOM     17  C   UNL A   1      32.271  29.155  27.007  1.00  0.00     0.091 C 
ATOM     18  C   UNL A   1      31.785  27.978  26.138  1.00  0.00     0.144 C 
BRANCH  15  19
ATOM     19  C   UNL A   1      34.717  29.903  27.508  1.00  0.00    -0.002 A 
ATOM     20  C   UNL A   1      36.603  31.554  28.707  1.00  0.00     0.067 A 
ATOM     21  C   UNL A   1      36.964  30.255  28.343  1.00  0.00     0.021 A 
ATOM     22  C   UNL A   1      35.300  32.024  28.484  1.00  0.00     0.021 A 
ATOM     23  C   UNL A   1      36.011  29.427  27.754  1.00  0.00     0.011 A 
ATOM     24  C   UNL A   1      34.353  31.200  27.870  1.00  0.00     0.011 A 
BRANCH  20  25
ATOM     25  S   UNL A   1      37.766  32.654  29.479  1.00  0.00     0.175 S 
ATOM     26  C   UNL A   1      36.994  33.287  30.942  1.00  0.00     0.163 C 
ATOM     27  O   UNL A   1      37.943  33.769  28.572  1.00  0.00    -0.224 OA
ATOM     28  O   UNL A   1      38.889  31.829  29.886  1.00  0.00    -0.224 OA
ENDBRANCH  20  25
ENDBRANCH  15  19
BRANCH  18  29
ATOM     29  C   UNL A   1      30.908  28.286  24.922  1.00  0.00    -0.023 A 
ATOM     30  C   UNL A   1      30.145  27.328  24.233  1.00  0.00     0.009 A 
ATOM     31  C   UNL A   1      30.817  29.628  24.487  1.00  0.00     0.009 A 
ATOM     32  C   UNL A   1      29.332  27.697  23.152  1.00  0.00     0.039 A 
ATOM     33  C   UNL A   1      29.983  29.999  23.429  1.00  0.00     0.039 A 
ATOM     34  C   UNL A   1      29.250  29.028  22.768  1.00  0.00     0.123 A 
ATOM     35  F   UNL A   1      28.449  29.378  21.754  1.00  0.00    -0.207 F 
ENDBRANCH  18  29
ENDBRANCH   9  14
ENDBRANCH   5   8
ENDBRANCH   3   4
ENDBRANCH   2   3
ENDBRANCH   1   2
BRANCH   1  36
ATOM     36  C   UNL A   1      38.238  23.199  26.079  1.00  0.00     0.002 C 
BRANCH  36  37
ATOM     37  C   UNL A   1      38.564  24.445  26.905  1.00  0.00     0.021 C 
BRANCH  37  38
ATOM     38  C   UNL A   1      40.056  24.704  27.077  1.00  0.00     0.116 C 
BRANCH  38  39
ATOM     39  N   UNL A   1      40.847  23.538  26.713  1.00  0.00    -0.352 N 
ATOM     40  C   UNL A   1      42.135  23.474  26.247  1.00  0.00     0.251 C 
ATOM     41  H   UNL A   1      40.392  22.670  26.818  1.00  0.00     0.163 HD
ATOM     42  O   UNL A   1      42.567  22.435  25.759  1.00  0.00    -0.269 OA
BRANCH  40  43
ATOM     43  C   UNL A   1      43.001  24.668  26.323  1.00  0.00     0.039 A 
ATOM     44  C   UNL A   1      43.618  24.982  27.535  1.00  0.00     0.014 A 
ATOM     45  C   UNL A   1      43.190  25.483  25.202  1.00  0.00     0.014 A 
ATOM     46  C   UNL A   1      44.469  26.085  27.610  1.00  0.00     0.010 A 
ATOM     47  C   UNL A   1      44.099  26.534  25.257  1.00  0.00     0.010 A 
ATOM     48  C   UNL A   1      44.740  26.851  26.463  1.00  0.00    -0.014 A 
BRANCH  48  49
ATOM     49  C   UNL A   1      45.685  27.997  26.510  1.00  0.00     0.031 A 
ATOM     50  C   UNL A   1      47.158  27.766  26.322  1.00  0.00     0.074 A 
ATOM     51  C   UNL A   1      45.220  29.232  26.779  1.00  0.00     0.049 A 
ATOM     52  N   UNL A   1      48.148  28.622  26.394  1.00  0.00    -0.248 NA
ATOM     53  C   UNL A   1      47.581  26.384  26.043  1.00  0.00     0.031 C 
ATOM     54  C   UNL A   1      43.817  29.574  27.020  1.00  0.00     0.029 A 
ATOM     55  N   UNL A   1      45.879  30.430  26.902  1.00  0.00    -0.354 N 
ATOM     56  C   UNL A   1      49.302  27.883  26.175  1.00  0.00     0.074 A 
ATOM     57  C   UNL A   1      48.900  26.500  26.034  1.00  0.00     0.031 C 
ATOM     58  C   UNL A   1      43.719  30.896  27.236  1.00  0.00     0.029 A 
ATOM     59  C   UNL A   1      45.052  31.487  27.194  1.00  0.00     0.049 A 
ATOM     60  H   UNL A   1      46.853  30.522  26.792  1.00  0.00     0.167 HD
ATOM     61  C   UNL A   1      50.580  28.322  26.073  1.00  0.00     0.037 A 
ATOM     62  C   UNL A   1      45.340  32.784  27.410  1.00  0.00     0.037 A 
ATOM     63  C   UNL A   1      50.972  29.701  26.201  1.00  0.00     0.049 A 
ATOM     64  C   UNL A   1      46.773  33.238  27.324  1.00  0.00     0.074 A 
ATOM     65  C   UNL A   1      52.234  30.255  26.075  1.00  0.00     0.029 A 
ATOM     66  N   UNL A   1      50.105  30.744  26.491  1.00  0.00    -0.354 N 
ATOM     67  N   UNL A   1      47.850  32.542  27.052  1.00  0.00    -0.248 NA
ATOM     68  C   UNL A   1      47.029  34.665  27.569  1.00  0.00     0.031 C 
ATOM     69  C   UNL A   1      52.138  31.624  26.340  1.00  0.00     0.029 A 
ATOM     70  C   UNL A   1      50.808  31.936  26.570  1.00  0.00     0.049 A 
ATOM     71  H   UNL A   1      49.133  30.653  26.621  1.00  0.00     0.167 HD
ATOM     72  C   UNL A   1      48.903  33.448  27.056  1.00  0.00     0.074 A 
ATOM     73  C   UNL A   1      48.332  34.747  27.344  1.00  0.00     0.031 C 
ATOM     74  C   UNL A   1      50.222  33.224  26.843  1.00  0.00     0.037 A 
BRANCH  61  75
ATOM     75  C   UNL A   1      51.647  27.298  25.804  1.00  0.00     0.064 A 
ATOM     76  C   UNL A   1      51.995  26.925  24.496  1.00  0.00     0.173 A 
ATOM     77  C   UNL A   1      52.354  26.708  26.863  1.00  0.00     0.173 A 
ATOM     78  F   UNL A   1      51.344  27.450  23.448  1.00  0.00    -0.203 F 
ATOM     79  C   UNL A   1      52.989  25.978  24.261  1.00  0.00     0.198 A 
ATOM     80  C   UNL A   1      53.370  25.787  26.622  1.00  0.00     0.198 A 
ATOM     81  F   UNL A   1      52.066  27.032  28.133  1.00  0.00    -0.203 F 
ATOM     82  F   UNL A   1      53.266  25.599  23.006  1.00  0.00    -0.200 F 
ATOM     83  C   UNL A   1      53.680  25.416  25.323  1.00  0.00     0.200 A 
ATOM     84  F   UNL A   1      54.048  25.256  27.650  1.00  0.00    -0.200 F 
ATOM     85  F   UNL A   1      54.642  24.511  25.095  1.00  0.00    -0.200 F 
ENDBRANCH  61  75
BRANCH  62  86
ATOM     86  C   UNL A   1      44.252  33.751  27.712  1.00  0.00     0.064 A 
ATOM     87  C   UNL A   1      43.740  34.593  26.714  1.00  0.00     0.173 A 
ATOM     88  C   UNL A   1      43.718  33.875  29.004  1.00  0.00     0.173 A 
ATOM     89  F   UNL A   1      44.231  34.528  25.467  1.00  0.00    -0.203 F 
ATOM     90  C   UNL A   1      42.759  35.540  27.002  1.00  0.00     0.198 A 
ATOM     91  C   UNL A   1      42.714  34.800  29.283  1.00  0.00     0.198 A 
ATOM     92  F   UNL A   1      44.168  33.091  29.994  1.00  0.00    -0.203 F 
ATOM     93  F   UNL A   1      42.332  36.371  26.041  1.00  0.00    -0.200 F 
ATOM     94  C   UNL A   1      42.244  35.639  28.285  1.00  0.00     0.200 A 
ATOM     95  F   UNL A   1      42.207  34.881  30.520  1.00  0.00    -0.200 F 
ATOM     96  F   UNL A   1      41.302  36.551  28.562  1.00  0.00    -0.200 F 
ENDBRANCH  62  86
BRANCH  74  97
ATOM     97  C   UNL A   1      51.136  34.417  26.862  1.00  0.00     0.064 A 
ATOM     98  C   UNL A   1      51.828  34.801  28.020  1.00  0.00     0.173 A 
ATOM     99  C   UNL A   1      51.348  35.163  25.692  1.00  0.00     0.173 A 
ATOM    100  F   UNL A   1      51.649  34.129  29.168  1.00  0.00    -0.203 F 
ATOM    101  C   UNL A   1      52.675  35.905  28.013  1.00  0.00     0.198 A 
ATOM    102  C   UNL A   1      52.223  36.245  25.682  1.00  0.00     0.198 A 
ATOM    103  F   UNL A   1      50.717  34.834  24.556  1.00  0.00    -0.203 F 
ATOM    104  F   UNL A   1      53.284  36.286  29.145  1.00  0.00    -0.200 F 
ATOM    105  C   UNL A   1      52.879  36.622  26.843  1.00  0.00     0.200 A 
ATOM    106  F   UNL A   1      52.431  36.925  24.546  1.00  0.00    -0.200 F 
ATOM    107  F   UNL A   1      53.702  37.679  26.838  1.00  0.00    -0.200 F 
ENDBRANCH  74  97
ENDBRANCH  48  49
ENDBRANCH  40  43
ENDBRANCH  38  39
ENDBRANCH  37  38
ENDBRANCH  36  37
ENDBRANCH   1  36
TORSDOF 17
ENDMDL
