MODEL 1
REMARK VINA RESULT:     -11.7      0.000      0.000
REMARK SMILES CC(C)CS(=O)(=O)Cc1c(C(=O)NCCCCCCNC(=O)c2ccc(-c3c4nc(c(-c5c(F)c(F)c(F)c(F)c5F)c5ccc([nH]5)c(-c5c(F)c(F)c(F)c(F)c5F)c5nc(c(-c6c(F)c(F)c(F)c(F)c6F)c6ccc3[nH]6)C=C5)C=C4)cc2)oc2ccccc12
REMARK SMILES IDX 15 1 14 2 13 3 11 4 12 5 10 7 9 8 92 9 86 10 87 11 91 12
REMARK SMILES IDX 88 13 90 14 89 15 8 16 5 17 6 18 7 19 4 20 2 21 1 22 3 23
REMARK SMILES IDX 16 24 17 25 18 26 19 27 20 28 21 29 22 31 23 32 24 33 85 34
REMARK SMILES IDX 25 35 84 36 26 37 27 38 28 39 78 40 29 41 83 42 77 43 79 44
REMARK SMILES IDX 30 45 82 46 76 47 75 48 31 50 63 51 43 52 62 53 44 54 47 55
REMARK SMILES IDX 61 56 80 57 45 58 46 59 60 61 81 62 48 63 32 64 33 65 41 66
REMARK SMILES IDX 34 67 35 68 39 69 42 70 36 71 37 72 40 73 38 74 64 75 65 76
REMARK SMILES IDX 73 77 66 78 67 79 71 80 74 81 68 82 69 83 72 84 70 85 49 86
REMARK SMILES IDX 50 87 58 88 51 89 52 90 56 91 59 92 53 93 54 94 57 95 55 96
REMARK H PARENT 13 6 20 30 79 49 47 60
REMARK Flexibility Score: inf
ROOT
ATOM      1  C   UNL A   1      36.449  22.684  23.670  1.00  0.00     0.021 C 
ENDROOT
BRANCH   1   2
ATOM      2  C   UNL A   1      35.543  23.840  24.086  1.00  0.00     0.116 C 
BRANCH   2   3
ATOM      3  N   UNL A   1      34.455  24.010  23.140  1.00  0.00    -0.349 N 
ATOM      4  C   UNL A   1      33.366  24.846  23.127  1.00  0.00     0.287 C 
ATOM      5  O   UNL A   1      32.566  24.666  22.202  1.00  0.00    -0.266 OA
ATOM      6  H   UNL A   1      34.509  23.413  22.359  1.00  0.00     0.163 HD
BRANCH   4   7
ATOM      7  C   UNL A   1      33.171  25.870  24.141  1.00  0.00     0.196 A 
ATOM      8  C   UNL A   1      32.800  25.786  25.488  1.00  0.00     0.027 A 
ATOM      9  C   UNL A   1      32.768  27.149  25.967  1.00  0.00     0.025 A 
ATOM     10  O   UNL A   1      33.390  27.172  23.818  1.00  0.00    -0.451 OA
ATOM     11  C   UNL A   1      33.150  27.939  24.896  1.00  0.00     0.135 A 
ATOM     12  C   UNL A   1      32.488  27.828  27.169  1.00  0.00     0.012 A 
ATOM     13  C   UNL A   1      33.279  29.327  24.918  1.00  0.00     0.048 A 
ATOM     14  C   UNL A   1      32.570  29.228  27.226  1.00  0.00     0.001 A 
ATOM     15  C   UNL A   1      32.969  29.966  26.116  1.00  0.00     0.004 A 
BRANCH   8  16
ATOM     16  C   UNL A   1      32.598  24.508  26.249  1.00  0.00     0.177 C 
BRANCH  16  17
ATOM     17  S   UNL A   1      31.074  23.600  25.975  1.00  0.00     0.154 S 
ATOM     18  O   UNL A   1      30.375  24.229  24.864  1.00  0.00    -0.228 OA
ATOM     19  O   UNL A   1      30.401  23.448  27.251  1.00  0.00    -0.228 OA
BRANCH  17  20
ATOM     20  C   UNL A   1      31.522  21.964  25.438  1.00  0.00     0.140 C 
BRANCH  20  21
ATOM     21  C   UNL A   1      33.016  21.601  25.382  1.00  0.00    -0.002 C 
ATOM     22  C   UNL A   1      33.654  21.078  26.669  1.00  0.00     0.008 C 
ATOM     23  C   UNL A   1      33.225  20.582  24.253  1.00  0.00     0.008 C 
ENDBRANCH  20  21
ENDBRANCH  17  20
ENDBRANCH  16  17
ENDBRANCH   8  16
ENDBRANCH   4   7
ENDBRANCH   2   3
ENDBRANCH   1   2
BRANCH   1  24
ATOM     24  C   UNL A   1      37.159  22.010  24.848  1.00  0.00     0.002 C 
BRANCH  24  25
ATOM     25  C   UNL A   1      36.867  20.512  25.001  1.00  0.00     0.002 C 
BRANCH  25  26
ATOM     26  C   UNL A   1      38.103  19.608  24.960  1.00  0.00     0.021 C 
BRANCH  26  27
ATOM     27  C   UNL A   1      39.272  20.113  25.796  1.00  0.00     0.116 C 
BRANCH  27  28
ATOM     28  N   UNL A   1      40.296  19.095  25.963  1.00  0.00    -0.352 N 
ATOM     29  C   UNL A   1      41.647  19.247  26.127  1.00  0.00     0.251 C 
ATOM     30  H   UNL A   1      39.971  18.166  25.958  1.00  0.00     0.163 HD
ATOM     31  O   UNL A   1      42.396  18.277  26.041  1.00  0.00    -0.269 OA
BRANCH  29  32
ATOM     32  C   UNL A   1      42.205  20.587  26.393  1.00  0.00     0.039 A 
ATOM     33  C   UNL A   1      42.600  21.381  25.315  1.00  0.00     0.014 A 
ATOM     34  C   UNL A   1      42.344  21.057  27.703  1.00  0.00     0.014 A 
ATOM     35  C   UNL A   1      43.084  22.669  25.546  1.00  0.00     0.010 A 
ATOM     36  C   UNL A   1      42.755  22.367  27.928  1.00  0.00     0.010 A 
ATOM     37  C   UNL A   1      43.134  23.184  26.853  1.00  0.00    -0.014 A 
BRANCH  37  38
ATOM     38  C   UNL A   1      43.587  24.573  27.113  1.00  0.00     0.031 A 
ATOM     39  C   UNL A   1      42.615  25.602  27.617  1.00  0.00     0.074 A 
ATOM     40  C   UNL A   1      44.859  24.920  26.838  1.00  0.00     0.049 A 
ATOM     41  N   UNL A   1      42.803  26.879  27.843  1.00  0.00    -0.248 NA
ATOM     42  C   UNL A   1      41.242  25.144  27.876  1.00  0.00     0.031 C 
ATOM     43  C   UNL A   1      45.883  24.021  26.303  1.00  0.00     0.029 A 
ATOM     44  N   UNL A   1      45.506  26.124  26.961  1.00  0.00    -0.354 N 
ATOM     45  C   UNL A   1      41.573  27.373  28.257  1.00  0.00     0.074 A 
ATOM     46  C   UNL A   1      40.633  26.276  28.196  1.00  0.00     0.031 C 
ATOM     47  C   UNL A   1      47.035  24.698  26.166  1.00  0.00     0.029 A 
ATOM     48  C   UNL A   1      46.820  26.086  26.563  1.00  0.00     0.049 A 
ATOM     49  H   UNL A   1      45.070  26.938  27.302  1.00  0.00     0.167 HD
ATOM     50  C   UNL A   1      41.264  28.625  28.673  1.00  0.00     0.037 A 
ATOM     51  C   UNL A   1      47.745  27.064  26.515  1.00  0.00     0.037 A 
ATOM     52  C   UNL A   1      42.209  29.707  28.750  1.00  0.00     0.049 A 
ATOM     53  C   UNL A   1      47.370  28.449  26.970  1.00  0.00     0.074 A 
ATOM     54  C   UNL A   1      42.009  30.996  29.213  1.00  0.00     0.029 A 
ATOM     55  N   UNL A   1      43.536  29.628  28.350  1.00  0.00    -0.354 N 
ATOM     56  N   UNL A   1      46.222  28.889  27.426  1.00  0.00    -0.248 NA
ATOM     57  C   UNL A   1      48.423  29.472  26.909  1.00  0.00     0.031 C 
ATOM     58  C   UNL A   1      43.198  31.712  29.042  1.00  0.00     0.029 A 
ATOM     59  C   UNL A   1      44.158  30.854  28.531  1.00  0.00     0.049 A 
ATOM     60  H   UNL A   1      43.971  28.821  27.992  1.00  0.00     0.167 HD
ATOM     61  C   UNL A   1      46.422  30.228  27.735  1.00  0.00     0.074 A 
ATOM     62  C   UNL A   1      47.806  30.524  27.429  1.00  0.00     0.031 C 
ATOM     63  C   UNL A   1      45.539  31.130  28.229  1.00  0.00     0.037 A 
BRANCH  50  64
ATOM     64  C   UNL A   1      39.842  28.891  29.078  1.00  0.00     0.064 A 
ATOM     65  C   UNL A   1      38.880  29.324  28.151  1.00  0.00     0.173 A 
ATOM     66  C   UNL A   1      39.424  28.672  30.399  1.00  0.00     0.173 A 
ATOM     67  F   UNL A   1      39.229  29.560  26.877  1.00  0.00    -0.203 F 
ATOM     68  C   UNL A   1      37.564  29.560  28.540  1.00  0.00     0.198 A 
ATOM     69  C   UNL A   1      38.100  28.875  30.776  1.00  0.00     0.198 A 
ATOM     70  F   UNL A   1      40.300  28.251  31.325  1.00  0.00    -0.203 F 
ATOM     71  F   UNL A   1      36.677  30.024  27.649  1.00  0.00    -0.200 F 
ATOM     72  C   UNL A   1      37.172  29.327  29.850  1.00  0.00     0.200 A 
ATOM     73  F   UNL A   1      37.720  28.635  32.039  1.00  0.00    -0.200 F 
ATOM     74  F   UNL A   1      35.903  29.545  30.220  1.00  0.00    -0.200 F 
ENDBRANCH  50  64
BRANCH  51  75
ATOM     75  C   UNL A   1      49.120  26.764  26.038  1.00  0.00     0.064 A 
ATOM     76  C   UNL A   1      50.093  26.262  26.914  1.00  0.00     0.173 A 
ATOM     77  C   UNL A   1      49.494  26.979  24.703  1.00  0.00     0.173 A 
ATOM     78  F   UNL A   1      49.791  26.058  28.204  1.00  0.00    -0.203 F 
ATOM     79  C   UNL A   1      51.393  26.009  26.479  1.00  0.00     0.198 A 
ATOM     80  C   UNL A   1      50.785  26.697  24.262  1.00  0.00     0.198 A 
ATOM     81  F   UNL A   1      48.600  27.453  23.823  1.00  0.00    -0.203 F 
ATOM     82  F   UNL A   1      52.315  25.579  27.349  1.00  0.00    -0.200 F 
ATOM     83  C   UNL A   1      51.736  26.222  25.153  1.00  0.00     0.200 A 
ATOM     84  F   UNL A   1      51.109  26.889  22.976  1.00  0.00    -0.200 F 
ATOM     85  F   UNL A   1      52.985  25.977  24.734  1.00  0.00    -0.200 F 
ENDBRANCH  51  75
BRANCH  63  86
ATOM     86  C   UNL A   1      46.052  32.514  28.508  1.00  0.00     0.064 A 
ATOM     87  C   UNL A   1      46.630  32.854  29.740  1.00  0.00     0.173 A 
ATOM     88  C   UNL A   1      45.999  33.503  27.512  1.00  0.00     0.173 A 
ATOM     89  F   UNL A   1      46.692  31.950  30.729  1.00  0.00    -0.203 F 
ATOM     90  C   UNL A   1      47.112  34.139  29.973  1.00  0.00     0.198 A 
ATOM     91  C   UNL A   1      46.512  34.777  27.739  1.00  0.00     0.198 A 
ATOM     92  F   UNL A   1      45.463  33.228  26.314  1.00  0.00    -0.203 F 
ATOM     93  F   UNL A   1      47.614  34.456  31.175  1.00  0.00    -0.200 F 
ATOM     94  C   UNL A   1      47.060  35.096  28.971  1.00  0.00     0.200 A 
ATOM     95  F   UNL A   1      46.475  35.694  26.763  1.00  0.00    -0.200 F 
ATOM     96  F   UNL A   1      47.531  36.331  29.196  1.00  0.00    -0.200 F 
ENDBRANCH  63  86
ENDBRANCH  37  38
ENDBRANCH  29  32
ENDBRANCH  27  28
ENDBRANCH  26  27
ENDBRANCH  25  26
ENDBRANCH  24  25
ENDBRANCH   1  24
TORSDOF 17
ENDMDL
MODEL 2
REMARK VINA RESULT:     -11.5      3.561      7.827
REMARK SMILES CC(C)CS(=O)(=O)Cc1c(C(=O)NCCCCCCNC(=O)c2ccc(-c3c4nc(c(-c5c(F)c(F)c(F)c(F)c5F)c5ccc([nH]5)c(-c5c(F)c(F)c(F)c(F)c5F)c5nc(c(-c6c(F)c(F)c(F)c(F)c6F)c6ccc3[nH]6)C=C5)C=C4)cc2)oc2ccccc12
REMARK SMILES IDX 15 1 14 2 13 3 11 4 12 5 10 7 9 8 92 9 86 10 87 11 91 12
REMARK SMILES IDX 88 13 90 14 89 15 8 16 5 17 6 18 7 19 4 20 2 21 1 22 3 23
REMARK SMILES IDX 16 24 17 25 18 26 19 27 20 28 21 29 22 31 23 32 24 33 85 34
REMARK SMILES IDX 25 35 84 36 26 37 27 38 28 39 78 40 29 41 83 42 77 43 79 44
REMARK SMILES IDX 30 45 82 46 76 47 75 48 31 50 63 51 43 52 62 53 44 54 47 55
REMARK SMILES IDX 61 56 80 57 45 58 46 59 60 61 81 62 48 63 32 64 33 65 41 66
REMARK SMILES IDX 34 67 35 68 39 69 42 70 36 71 37 72 40 73 38 74 64 75 65 76
REMARK SMILES IDX 73 77 66 78 67 79 71 80 74 81 68 82 69 83 72 84 70 85 49 86
REMARK SMILES IDX 50 87 58 88 51 89 52 90 56 91 59 92 53 93 54 94 57 95 55 96
REMARK H PARENT 13 6 20 30 79 49 47 60
REMARK Flexibility Score: inf
ROOT
ATOM      1  C   UNL A   1      33.608  27.435  23.041  1.00  0.00     0.021 C 
ENDROOT
BRANCH   1   2
ATOM      2  C   UNL A   1      33.652  25.910  23.098  1.00  0.00     0.116 C 
BRANCH   2   3
ATOM      3  N   UNL A   1      32.835  25.410  24.189  1.00  0.00    -0.349 N 
ATOM      4  C   UNL A   1      33.046  24.427  25.123  1.00  0.00     0.287 C 
ATOM      5  O   UNL A   1      32.088  24.184  25.867  1.00  0.00    -0.266 OA
ATOM      6  H   UNL A   1      31.965  25.862  24.275  1.00  0.00     0.163 HD
BRANCH   4   7
ATOM      7  C   UNL A   1      34.312  23.718  25.223  1.00  0.00     0.196 A 
ATOM      8  C   UNL A   1      34.675  22.412  24.874  1.00  0.00     0.027 A 
ATOM      9  C   UNL A   1      36.074  22.294  25.219  1.00  0.00     0.025 A 
ATOM     10  O   UNL A   1      35.400  24.371  25.708  1.00  0.00    -0.451 OA
ATOM     11  C   UNL A   1      36.451  23.533  25.712  1.00  0.00     0.135 A 
ATOM     12  C   UNL A   1      37.085  21.315  25.164  1.00  0.00     0.012 A 
ATOM     13  C   UNL A   1      37.730  23.877  26.145  1.00  0.00     0.048 A 
ATOM     14  C   UNL A   1      38.378  21.608  25.624  1.00  0.00     0.001 A 
ATOM     15  C   UNL A   1      38.697  22.876  26.101  1.00  0.00     0.004 A 
BRANCH   8  16
ATOM     16  C   UNL A   1      33.782  21.422  24.186  1.00  0.00     0.177 C 
BRANCH  16  17
ATOM     17  S   UNL A   1      33.339  19.929  25.078  1.00  0.00     0.154 S 
ATOM     18  O   UNL A   1      32.049  19.478  24.579  1.00  0.00    -0.228 OA
ATOM     19  O   UNL A   1      33.510  20.180  26.497  1.00  0.00    -0.228 OA
BRANCH  17  20
ATOM     20  C   UNL A   1      34.524  18.678  24.637  1.00  0.00     0.140 C 
BRANCH  20  21
ATOM     21  C   UNL A   1      34.005  17.264  24.322  1.00  0.00    -0.002 C 
ATOM     22  C   UNL A   1      34.035  16.820  22.860  1.00  0.00     0.008 C 
ATOM     23  C   UNL A   1      34.785  16.259  25.182  1.00  0.00     0.008 C 
ENDBRANCH  20  21
ENDBRANCH  17  20
ENDBRANCH  16  17
ENDBRANCH   8  16
ENDBRANCH   4   7
ENDBRANCH   2   3
ENDBRANCH   1   2
BRANCH   1  24
ATOM     24  C   UNL A   1      32.340  28.032  23.660  1.00  0.00     0.002 C 
BRANCH  24  25
ATOM     25  C   UNL A   1      32.565  28.794  24.973  1.00  0.00     0.002 C 
BRANCH  25  26
ATOM     26  C   UNL A   1      33.920  28.542  25.639  1.00  0.00     0.021 C 
BRANCH  26  27
ATOM     27  C   UNL A   1      33.895  28.642  27.159  1.00  0.00     0.116 C 
BRANCH  27  28
ATOM     28  N   UNL A   1      33.800  30.021  27.608  1.00  0.00    -0.352 N 
ATOM     29  C   UNL A   1      34.689  30.752  28.351  1.00  0.00     0.251 C 
ATOM     30  H   UNL A   1      32.981  30.496  27.340  1.00  0.00     0.163 HD
ATOM     31  O   UNL A   1      34.360  31.836  28.825  1.00  0.00    -0.269 OA
BRANCH  29  32
ATOM     32  C   UNL A   1      36.045  30.222  28.595  1.00  0.00     0.039 A 
ATOM     33  C   UNL A   1      36.999  30.314  27.580  1.00  0.00     0.014 A 
ATOM     34  C   UNL A   1      36.373  29.633  29.820  1.00  0.00     0.014 A 
ATOM     35  C   UNL A   1      38.299  29.863  27.811  1.00  0.00     0.010 A 
ATOM     36  C   UNL A   1      37.687  29.254  30.075  1.00  0.00     0.010 A 
ATOM     37  C   UNL A   1      38.661  29.359  29.073  1.00  0.00    -0.014 A 
BRANCH  37  38
ATOM     38  C   UNL A   1      40.054  28.932  29.356  1.00  0.00     0.031 A 
ATOM     39  C   UNL A   1      40.981  29.838  30.117  1.00  0.00     0.074 A 
ATOM     40  C   UNL A   1      40.500  27.755  28.877  1.00  0.00     0.049 A 
ATOM     41  N   UNL A   1      42.247  29.673  30.409  1.00  0.00    -0.248 NA
ATOM     42  C   UNL A   1      40.420  31.113  30.591  1.00  0.00     0.031 C 
ATOM     43  C   UNL A   1      39.709  26.811  28.087  1.00  0.00     0.029 A 
ATOM     44  N   UNL A   1      41.730  27.157  28.975  1.00  0.00    -0.354 N 
ATOM     45  C   UNL A   1      42.632  30.823  31.086  1.00  0.00     0.074 A 
ATOM     46  C   UNL A   1      41.484  31.703  31.112  1.00  0.00     0.031 C 
ATOM     47  C   UNL A   1      40.466  25.741  27.792  1.00  0.00     0.029 A 
ATOM     48  C   UNL A   1      41.804  25.943  28.336  1.00  0.00     0.049 A 
ATOM     49  H   UNL A   1      42.489  27.558  29.458  1.00  0.00     0.167 HD
ATOM     50  C   UNL A   1      43.828  31.107  31.655  1.00  0.00     0.037 A 
ATOM     51  C   UNL A   1      42.841  25.093  28.196  1.00  0.00     0.037 A 
ATOM     52  C   UNL A   1      44.960  30.218  31.642  1.00  0.00     0.049 A 
ATOM     53  C   UNL A   1      44.163  25.441  28.826  1.00  0.00     0.074 A 
ATOM     54  C   UNL A   1      46.197  30.388  32.238  1.00  0.00     0.029 A 
ATOM     55  N   UNL A   1      44.994  28.991  30.994  1.00  0.00    -0.354 N 
ATOM     56  N   UNL A   1      44.495  26.499  29.524  1.00  0.00    -0.248 NA
ATOM     57  C   UNL A   1      45.252  24.470  28.653  1.00  0.00     0.031 C 
ATOM     58  C   UNL A   1      46.998  29.290  31.907  1.00  0.00     0.029 A 
ATOM     59  C   UNL A   1      46.241  28.406  31.156  1.00  0.00     0.049 A 
ATOM     60  H   UNL A   1      44.245  28.594  30.495  1.00  0.00     0.167 HD
ATOM     61  C   UNL A   1      45.818  26.309  29.899  1.00  0.00     0.074 A 
ATOM     62  C   UNL A   1      46.223  25.026  29.365  1.00  0.00     0.031 C 
ATOM     63  C   UNL A   1      46.625  27.123  30.623  1.00  0.00     0.037 A 
BRANCH  50  64
ATOM     64  C   UNL A   1      43.974  32.435  32.339  1.00  0.00     0.064 A 
ATOM     65  C   UNL A   1      43.669  32.601  33.700  1.00  0.00     0.173 A 
ATOM     66  C   UNL A   1      44.462  33.549  31.639  1.00  0.00     0.173 A 
ATOM     67  F   UNL A   1      43.189  31.572  34.414  1.00  0.00    -0.203 F 
ATOM     68  C   UNL A   1      43.816  33.839  34.323  1.00  0.00     0.198 A 
ATOM     69  C   UNL A   1      44.640  34.775  32.273  1.00  0.00     0.198 A 
ATOM     70  F   UNL A   1      44.775  33.445  30.338  1.00  0.00    -0.203 F 
ATOM     71  F   UNL A   1      43.469  33.984  35.608  1.00  0.00    -0.200 F 
ATOM     72  C   UNL A   1      44.310  34.922  33.612  1.00  0.00     0.200 A 
ATOM     73  F   UNL A   1      45.131  35.817  31.588  1.00  0.00    -0.200 F 
ATOM     74  F   UNL A   1      44.460  36.109  34.215  1.00  0.00    -0.200 F 
ENDBRANCH  50  64
BRANCH  51  75
ATOM     75  C   UNL A   1      42.663  23.823  27.446  1.00  0.00     0.064 A 
ATOM     76  C   UNL A   1      42.149  22.680  28.075  1.00  0.00     0.173 A 
ATOM     77  C   UNL A   1      43.010  23.719  26.090  1.00  0.00     0.173 A 
ATOM     78  F   UNL A   1      41.822  22.722  29.375  1.00  0.00    -0.203 F 
ATOM     79  C   UNL A   1      42.011  21.477  27.385  1.00  0.00     0.198 A 
ATOM     80  C   UNL A   1      42.842  22.525  25.393  1.00  0.00     0.198 A 
ATOM     81  F   UNL A   1      43.500  24.784  25.439  1.00  0.00    -0.203 F 
ATOM     82  F   UNL A   1      41.566  20.388  28.025  1.00  0.00    -0.200 F 
ATOM     83  C   UNL A   1      42.353  21.402  26.044  1.00  0.00     0.200 A 
ATOM     84  F   UNL A   1      43.159  22.461  24.093  1.00  0.00    -0.200 F 
ATOM     85  F   UNL A   1      42.218  20.246  25.379  1.00  0.00    -0.200 F 
ENDBRANCH  51  75
BRANCH  63  86
ATOM     86  C   UNL A   1      48.015  26.634  30.914  1.00  0.00     0.064 A 
ATOM     87  C   UNL A   1      48.302  25.848  32.040  1.00  0.00     0.173 A 
ATOM     88  C   UNL A   1      49.067  26.925  30.031  1.00  0.00     0.173 A 
ATOM     89  F   UNL A   1      47.335  25.554  32.923  1.00  0.00    -0.203 F 
ATOM     90  C   UNL A   1      49.595  25.393  32.284  1.00  0.00     0.198 A 
ATOM     91  C   UNL A   1      50.352  26.440  30.261  1.00  0.00     0.198 A 
ATOM     92  F   UNL A   1      48.846  27.667  28.936  1.00  0.00    -0.203 F 
ATOM     93  F   UNL A   1      49.856  24.686  33.392  1.00  0.00    -0.200 F 
ATOM     94  C   UNL A   1      50.616  25.683  31.391  1.00  0.00     0.200 A 
ATOM     95  F   UNL A   1      51.333  26.708  29.389  1.00  0.00    -0.200 F 
ATOM     96  F   UNL A   1      51.859  25.237  31.625  1.00  0.00    -0.200 F 
ENDBRANCH  63  86
ENDBRANCH  37  38
ENDBRANCH  29  32
ENDBRANCH  27  28
ENDBRANCH  26  27
ENDBRANCH  25  26
ENDBRANCH  24  25
ENDBRANCH   1  24
TORSDOF 17
ENDMDL
MODEL 3
REMARK VINA RESULT:     -11.4      1.301      2.241
REMARK SMILES CC(C)CS(=O)(=O)Cc1c(C(=O)NCCCCCCNC(=O)c2ccc(-c3c4nc(c(-c5c(F)c(F)c(F)c(F)c5F)c5ccc([nH]5)c(-c5c(F)c(F)c(F)c(F)c5F)c5nc(c(-c6c(F)c(F)c(F)c(F)c6F)c6ccc3[nH]6)C=C5)C=C4)cc2)oc2ccccc12
REMARK SMILES IDX 15 1 14 2 13 3 11 4 12 5 10 7 9 8 92 9 86 10 87 11 91 12
REMARK SMILES IDX 88 13 90 14 89 15 8 16 5 17 6 18 7 19 4 20 2 21 1 22 3 23
REMARK SMILES IDX 16 24 17 25 18 26 19 27 20 28 21 29 22 31 23 32 24 33 85 34
REMARK SMILES IDX 25 35 84 36 26 37 27 38 28 39 78 40 29 41 83 42 77 43 79 44
REMARK SMILES IDX 30 45 82 46 76 47 75 48 31 50 63 51 43 52 62 53 44 54 47 55
REMARK SMILES IDX 61 56 80 57 45 58 46 59 60 61 81 62 48 63 32 64 33 65 41 66
REMARK SMILES IDX 34 67 35 68 39 69 42 70 36 71 37 72 40 73 38 74 64 75 65 76
REMARK SMILES IDX 73 77 66 78 67 79 71 80 74 81 68 82 69 83 72 84 70 85 49 86
REMARK SMILES IDX 50 87 58 88 51 89 52 90 56 91 59 92 53 93 54 94 57 95 55 96
REMARK H PARENT 13 6 20 30 79 49 47 60
REMARK Flexibility Score: inf
ROOT
ATOM      1  C   UNL A   1      36.748  22.605  23.907  1.00  0.00     0.021 C 
ENDROOT
BRANCH   1   2
ATOM      2  C   UNL A   1      35.770  23.718  24.272  1.00  0.00     0.116 C 
BRANCH   2   3
ATOM      3  N   UNL A   1      34.883  24.012  23.162  1.00  0.00    -0.349 N 
ATOM      4  C   UNL A   1      33.860  24.915  23.012  1.00  0.00     0.287 C 
ATOM      5  O   UNL A   1      33.233  24.839  21.949  1.00  0.00    -0.266 OA
ATOM      6  H   UNL A   1      35.046  23.458  22.363  1.00  0.00     0.163 HD
BRANCH   4   7
ATOM      7  C   UNL A   1      33.538  25.889  24.042  1.00  0.00     0.196 A 
ATOM      8  C   UNL A   1      33.065  25.736  25.350  1.00  0.00     0.027 A 
ATOM      9  C   UNL A   1      32.932  27.077  25.874  1.00  0.00     0.025 A 
ATOM     10  O   UNL A   1      33.721  27.211  23.784  1.00  0.00    -0.451 OA
ATOM     11  C   UNL A   1      33.361  27.924  24.866  1.00  0.00     0.135 A 
ATOM     12  C   UNL A   1      32.526  27.695  27.072  1.00  0.00     0.012 A 
ATOM     13  C   UNL A   1      33.423  29.314  24.947  1.00  0.00     0.048 A 
ATOM     14  C   UNL A   1      32.539  29.094  27.186  1.00  0.00     0.001 A 
ATOM     15  C   UNL A   1      32.990  29.892  26.138  1.00  0.00     0.004 A 
BRANCH   8  16
ATOM     16  C   UNL A   1      32.863  24.422  26.047  1.00  0.00     0.177 C 
BRANCH  16  17
ATOM     17  S   UNL A   1      31.270  23.615  25.870  1.00  0.00     0.154 S 
ATOM     18  O   UNL A   1      30.646  24.122  24.657  1.00  0.00    -0.228 OA
ATOM     19  O   UNL A   1      30.565  23.719  27.135  1.00  0.00    -0.228 OA
BRANCH  17  20
ATOM     20  C   UNL A   1      31.580  21.884  25.601  1.00  0.00     0.140 C 
BRANCH  20  21
ATOM     21  C   UNL A   1      32.736  21.490  24.666  1.00  0.00    -0.002 C 
ATOM     22  C   UNL A   1      33.375  20.119  24.888  1.00  0.00     0.008 C 
ATOM     23  C   UNL A   1      32.245  21.600  23.215  1.00  0.00     0.008 C 
ENDBRANCH  20  21
ENDBRANCH  17  20
ENDBRANCH  16  17
ENDBRANCH   8  16
ENDBRANCH   4   7
ENDBRANCH   2   3
ENDBRANCH   1   2
BRANCH   1  24
ATOM     24  C   UNL A   1      37.143  21.724  25.097  1.00  0.00     0.002 C 
BRANCH  24  25
ATOM     25  C   UNL A   1      36.937  20.220  24.878  1.00  0.00     0.002 C 
BRANCH  25  26
ATOM     26  C   UNL A   1      38.214  19.378  24.945  1.00  0.00     0.021 C 
BRANCH  26  27
ATOM     27  C   UNL A   1      39.268  19.920  25.903  1.00  0.00     0.116 C 
BRANCH  27  28
ATOM     28  N   UNL A   1      40.481  19.119  25.880  1.00  0.00    -0.352 N 
ATOM     29  C   UNL A   1      41.782  19.517  26.036  1.00  0.00     0.251 C 
ATOM     30  H   UNL A   1      40.347  18.156  25.732  1.00  0.00     0.163 HD
ATOM     31  O   UNL A   1      42.703  18.746  25.777  1.00  0.00    -0.269 OA
BRANCH  29  32
ATOM     32  C   UNL A   1      42.077  20.886  26.502  1.00  0.00     0.039 A 
ATOM     33  C   UNL A   1      42.229  21.115  27.871  1.00  0.00     0.014 A 
ATOM     34  C   UNL A   1      42.198  21.941  25.593  1.00  0.00     0.014 A 
ATOM     35  C   UNL A   1      42.555  22.394  28.325  1.00  0.00     0.010 A 
ATOM     36  C   UNL A   1      42.598  23.197  26.040  1.00  0.00     0.010 A 
ATOM     37  C   UNL A   1      42.774  23.437  27.410  1.00  0.00    -0.014 A 
BRANCH  37  38
ATOM     38  C   UNL A   1      43.183  24.788  27.870  1.00  0.00     0.031 A 
ATOM     39  C   UNL A   1      42.143  25.830  28.171  1.00  0.00     0.074 A 
ATOM     40  C   UNL A   1      44.492  25.092  27.959  1.00  0.00     0.049 A 
ATOM     41  N   UNL A   1      42.301  27.081  28.523  1.00  0.00    -0.248 NA
ATOM     42  C   UNL A   1      40.737  25.421  28.033  1.00  0.00     0.031 C 
ATOM     43  C   UNL A   1      45.594  24.179  27.651  1.00  0.00     0.029 A 
ATOM     44  N   UNL A   1      45.118  26.256  28.325  1.00  0.00    -0.354 N 
ATOM     45  C   UNL A   1      41.021  27.607  28.635  1.00  0.00     0.074 A 
ATOM     46  C   UNL A   1      40.098  26.559  28.258  1.00  0.00     0.031 C 
ATOM     47  C   UNL A   1      46.760  24.810  27.863  1.00  0.00     0.029 A 
ATOM     48  C   UNL A   1      46.489  26.181  28.282  1.00  0.00     0.049 A 
ATOM     49  H   UNL A   1      44.631  27.069  28.595  1.00  0.00     0.167 HD
ATOM     50  C   UNL A   1      40.649  28.846  29.039  1.00  0.00     0.037 A 
ATOM     51  C   UNL A   1      47.422  27.118  28.542  1.00  0.00     0.037 A 
ATOM     52  C   UNL A   1      41.573  29.878  29.431  1.00  0.00     0.049 A 
ATOM     53  C   UNL A   1      46.981  28.490  28.974  1.00  0.00     0.074 A 
ATOM     54  C   UNL A   1      41.295  31.146  29.910  1.00  0.00     0.029 A 
ATOM     55  N   UNL A   1      42.955  29.762  29.385  1.00  0.00    -0.354 N 
ATOM     56  N   UNL A   1      45.767  28.955  29.144  1.00  0.00    -0.248 NA
ATOM     57  C   UNL A   1      48.042  29.466  29.258  1.00  0.00     0.031 C 
ATOM     58  C   UNL A   1      42.508  31.817  30.102  1.00  0.00     0.029 A 
ATOM     59  C   UNL A   1      43.543  30.946  29.803  1.00  0.00     0.049 A 
ATOM     60  H   UNL A   1      43.445  28.958  29.099  1.00  0.00     0.167 HD
ATOM     61  C   UNL A   1      45.918  30.264  29.583  1.00  0.00     0.074 A 
ATOM     62  C   UNL A   1      47.341  30.514  29.668  1.00  0.00     0.031 C 
ATOM     63  C   UNL A   1      44.962  31.176  29.889  1.00  0.00     0.037 A 
BRANCH  50  64
ATOM     64  C   UNL A   1      39.180  29.153  29.076  1.00  0.00     0.064 A 
ATOM     65  C   UNL A   1      38.462  29.178  30.283  1.00  0.00     0.173 A 
ATOM     66  C   UNL A   1      38.487  29.465  27.897  1.00  0.00     0.173 A 
ATOM     67  F   UNL A   1      39.073  28.876  31.438  1.00  0.00    -0.203 F 
ATOM     68  C   UNL A   1      37.100  29.471  30.302  1.00  0.00     0.198 A 
ATOM     69  C   UNL A   1      37.134  29.792  27.924  1.00  0.00     0.198 A 
ATOM     70  F   UNL A   1      39.125  29.463  26.716  1.00  0.00    -0.203 F 
ATOM     71  F   UNL A   1      36.426  29.436  31.459  1.00  0.00    -0.200 F 
ATOM     72  C   UNL A   1      36.440  29.786  29.124  1.00  0.00     0.200 A 
ATOM     73  F   UNL A   1      36.500  30.110  26.787  1.00  0.00    -0.200 F 
ATOM     74  F   UNL A   1      35.132  30.078  29.146  1.00  0.00    -0.200 F 
ENDBRANCH  50  64
BRANCH  51  75
ATOM     75  C   UNL A   1      48.865  26.783  28.420  1.00  0.00     0.064 A 
ATOM     76  C   UNL A   1      49.531  26.903  27.191  1.00  0.00     0.173 A 
ATOM     77  C   UNL A   1      49.606  26.330  29.521  1.00  0.00     0.173 A 
ATOM     78  F   UNL A   1      48.861  27.313  26.105  1.00  0.00    -0.203 F 
ATOM     79  C   UNL A   1      50.875  26.560  27.064  1.00  0.00     0.198 A 
ATOM     80  C   UNL A   1      50.959  26.017  29.399  1.00  0.00     0.198 A 
ATOM     81  F   UNL A   1      49.019  26.203  30.720  1.00  0.00    -0.203 F 
ATOM     82  F   UNL A   1      51.472  26.636  25.867  1.00  0.00    -0.200 F 
ATOM     83  C   UNL A   1      51.589  26.123  28.169  1.00  0.00     0.200 A 
ATOM     84  F   UNL A   1      51.649  25.609  30.473  1.00  0.00    -0.200 F 
ATOM     85  F   UNL A   1      52.883  25.795  28.046  1.00  0.00    -0.200 F 
ENDBRANCH  51  75
BRANCH  63  86
ATOM     86  C   UNL A   1      45.424  32.517  30.384  1.00  0.00     0.064 A 
ATOM     87  C   UNL A   1      45.665  32.761  31.744  1.00  0.00     0.173 A 
ATOM     88  C   UNL A   1      45.665  33.561  29.477  1.00  0.00     0.173 A 
ATOM     89  F   UNL A   1      45.436  31.802  32.653  1.00  0.00    -0.203 F 
ATOM     90  C   UNL A   1      46.106  34.008  32.180  1.00  0.00     0.198 A 
ATOM     91  C   UNL A   1      46.138  34.796  29.913  1.00  0.00     0.198 A 
ATOM     92  F   UNL A   1      45.458  33.378  28.165  1.00  0.00    -0.203 F 
ATOM     93  F   UNL A   1      46.281  34.233  33.489  1.00  0.00    -0.200 F 
ATOM     94  C   UNL A   1      46.349  35.020  31.264  1.00  0.00     0.200 A 
ATOM     95  F   UNL A   1      46.388  35.767  29.024  1.00  0.00    -0.200 F 
ATOM     96  F   UNL A   1      46.781  36.218  31.686  1.00  0.00    -0.200 F 
ENDBRANCH  63  86
ENDBRANCH  37  38
ENDBRANCH  29  32
ENDBRANCH  27  28
ENDBRANCH  26  27
ENDBRANCH  25  26
ENDBRANCH  24  25
ENDBRANCH   1  24
TORSDOF 17
ENDMDL
