MODEL 1
REMARK VINA RESULT:     -11.5      0.000      0.000
REMARK SMILES Cn1nc(N2CCC(CC(=O)NCCCCCCNC(=O)c3ccc(-c4c5nc(c(-c6c(F)c(F)c(F)c(F)c6F)c6ccc([nH]6)c(-c6c(F)c(F)c(F)c(F)c6F)c6nc(c(-c7c(F)c(F)c(F)c(F)c7F)c7ccc4[nH]7)C=C6)C=C5)cc3)CC2)c(=O)n(C)c1=O
REMARK SMILES IDX 15 1 14 2 13 3 12 4 10 5 11 6 9 8 8 9 5 10 6 11 86 12 7 13
REMARK SMILES IDX 85 14 4 15 1 16 2 17 3 18 91 19 89 20 92 21 87 22 90 23
REMARK SMILES IDX 88 24 16 25 17 26 18 27 19 28 20 29 21 31 22 32 23 33 84 34
REMARK SMILES IDX 24 35 83 36 25 37 26 38 27 39 77 40 28 41 82 42 76 43 78 44
REMARK SMILES IDX 29 45 81 46 75 47 74 48 30 50 62 51 42 52 61 53 43 54 46 55
REMARK SMILES IDX 60 56 79 57 44 58 45 59 59 61 80 62 47 63 31 64 32 65 40 66
REMARK SMILES IDX 33 67 34 68 38 69 41 70 35 71 36 72 39 73 37 74 63 75 64 76
REMARK SMILES IDX 72 77 65 78 66 79 70 80 73 81 67 82 68 83 71 84 69 85 48 86
REMARK SMILES IDX 49 87 57 88 50 89 51 90 55 91 58 92 52 93 53 94 56 95 54 96
REMARK H PARENT 12 7 19 30 78 49 46 60
REMARK Flexibility Score: inf
ROOT
ATOM      1  C   UNL A   1      35.401  33.583  28.842  1.00  0.00     0.002 C 
ENDROOT
BRANCH   1   2
ATOM      2  C   UNL A   1      34.435  32.446  29.163  1.00  0.00     0.021 C 
BRANCH   2   3
ATOM      3  C   UNL A   1      34.122  31.512  27.985  1.00  0.00     0.116 C 
BRANCH   3   4
ATOM      4  N   UNL A   1      32.907  31.934  27.308  1.00  0.00    -0.356 N 
ATOM      5  C   UNL A   1      31.883  31.211  26.770  1.00  0.00     0.220 C 
ATOM      6  O   UNL A   1      31.021  31.820  26.133  1.00  0.00    -0.275 OA
ATOM      7  H   UNL A   1      32.805  32.909  27.223  1.00  0.00     0.163 HD
BRANCH   5   8
ATOM      8  C   UNL A   1      31.788  29.703  26.956  1.00  0.00     0.103 C 
BRANCH   8   9
ATOM      9  C   UNL A   1      32.532  28.869  25.889  1.00  0.00     0.002 C 
ATOM     10  N   UNL A   1      32.913  26.181  24.920  1.00  0.00    -0.351 N 
ATOM     11  C   UNL A   1      34.008  26.772  25.647  1.00  0.00     0.118 C 
ATOM     12  C   UNL A   1      32.167  27.093  24.070  1.00  0.00     0.118 C 
ATOM     13  C   UNL A   1      33.463  27.851  26.557  1.00  0.00     0.025 C 
ATOM     14  C   UNL A   1      31.522  28.170  24.952  1.00  0.00     0.025 C 
BRANCH  10  15
ATOM     15  C   UNL A   1      32.554  24.858  25.096  1.00  0.00     0.215 A 
ATOM     16  C   UNL A   1      33.422  21.586  23.876  1.00  0.00     0.180 C 
ATOM     17  N   UNL A   1      32.705  22.614  24.611  1.00  0.00    -0.216 N 
ATOM     18  N   UNL A   1      33.109  23.907  24.399  1.00  0.00    -0.145 NA
ATOM     19  C   UNL A   1      31.660  22.225  25.445  1.00  0.00     0.346 A 
ATOM     20  N   UNL A   1      31.033  23.231  26.149  1.00  0.00    -0.259 N 
ATOM     21  O   UNL A   1      31.323  21.043  25.546  1.00  0.00    -0.246 OA
ATOM     22  C   UNL A   1      31.440  24.546  26.095  1.00  0.00     0.299 A 
ATOM     23  C   UNL A   1      29.910  22.923  27.006  1.00  0.00     0.159 C 
ATOM     24  O   UNL A   1      30.953  25.461  26.750  1.00  0.00    -0.265 OA
ENDBRANCH  10  15
ENDBRANCH   8   9
ENDBRANCH   5   8
ENDBRANCH   3   4
ENDBRANCH   2   3
ENDBRANCH   1   2
BRANCH   1  25
ATOM     25  C   UNL A   1      34.752  34.822  28.225  1.00  0.00     0.002 C 
BRANCH  25  26
ATOM     26  C   UNL A   1      33.414  35.236  28.844  1.00  0.00     0.021 C 
BRANCH  26  27
ATOM     27  C   UNL A   1      33.487  36.428  29.794  1.00  0.00     0.116 C 
BRANCH  27  28
ATOM     28  N   UNL A   1      32.497  36.337  30.855  1.00  0.00    -0.352 N 
ATOM     29  C   UNL A   1      32.500  35.557  31.983  1.00  0.00     0.251 C 
ATOM     30  H   UNL A   1      31.711  36.920  30.749  1.00  0.00     0.163 HD
ATOM     31  O   UNL A   1      31.480  35.415  32.647  1.00  0.00    -0.269 OA
BRANCH  29  32
ATOM     32  C   UNL A   1      33.745  34.875  32.392  1.00  0.00     0.039 A 
ATOM     33  C   UNL A   1      33.676  33.568  32.876  1.00  0.00     0.014 A 
ATOM     34  C   UNL A   1      34.974  35.537  32.312  1.00  0.00     0.014 A 
ATOM     35  C   UNL A   1      34.850  32.903  33.232  1.00  0.00     0.010 A 
ATOM     36  C   UNL A   1      36.149  34.850  32.599  1.00  0.00     0.010 A 
ATOM     37  C   UNL A   1      36.098  33.530  33.070  1.00  0.00    -0.014 A 
BRANCH  37  38
ATOM     38  C   UNL A   1      37.356  32.823  33.414  1.00  0.00     0.031 A 
ATOM     39  C   UNL A   1      38.075  33.149  34.693  1.00  0.00     0.074 A 
ATOM     40  C   UNL A   1      37.870  31.922  32.555  1.00  0.00     0.049 A 
ATOM     41  N   UNL A   1      39.205  32.672  35.150  1.00  0.00    -0.248 NA
ATOM     42  C   UNL A   1      37.457  34.162  35.565  1.00  0.00     0.031 C 
ATOM     43  C   UNL A   1      37.284  31.555  31.266  1.00  0.00     0.029 A 
ATOM     44  N   UNL A   1      39.006  31.153  32.634  1.00  0.00    -0.354 N 
ATOM     45  C   UNL A   1      39.432  33.328  36.352  1.00  0.00     0.074 A 
ATOM     46  C   UNL A   1      38.356  34.276  36.532  1.00  0.00     0.031 C 
ATOM     47  C   UNL A   1      38.049  30.618  30.685  1.00  0.00     0.029 A 
ATOM     48  C   UNL A   1      39.199  30.342  31.541  1.00  0.00     0.049 A 
ATOM     49  H   UNL A   1      39.622  31.180  33.400  1.00  0.00     0.167 HD
ATOM     50  C   UNL A   1      40.436  33.134  37.239  1.00  0.00     0.037 A 
ATOM     51  C   UNL A   1      40.196  29.480  31.261  1.00  0.00     0.037 A 
ATOM     52  C   UNL A   1      41.486  32.164  37.070  1.00  0.00     0.049 A 
ATOM     53  C   UNL A   1      41.305  29.292  32.262  1.00  0.00     0.074 A 
ATOM     54  C   UNL A   1      42.508  31.846  37.946  1.00  0.00     0.029 A 
ATOM     55  N   UNL A   1      41.645  31.359  35.953  1.00  0.00    -0.354 N 
ATOM     56  N   UNL A   1      41.468  29.864  33.431  1.00  0.00    -0.248 NA
ATOM     57  C   UNL A   1      42.365  28.336  31.910  1.00  0.00     0.031 C 
ATOM     58  C   UNL A   1      43.320  30.887  37.336  1.00  0.00     0.029 A 
ATOM     59  C   UNL A   1      42.770  30.564  36.105  1.00  0.00     0.049 A 
ATOM     60  H   UNL A   1      41.049  31.352  35.170  1.00  0.00     0.167 HD
ATOM     61  C   UNL A   1      42.632  29.326  33.960  1.00  0.00     0.074 A 
ATOM     62  C   UNL A   1      43.125  28.364  32.996  1.00  0.00     0.031 C 
ATOM     63  C   UNL A   1      43.241  29.606  35.138  1.00  0.00     0.037 A 
BRANCH  50  64
ATOM     64  C   UNL A   1      40.449  33.967  38.486  1.00  0.00     0.064 A 
ATOM     65  C   UNL A   1      39.788  33.550  39.652  1.00  0.00     0.173 A 
ATOM     66  C   UNL A   1      41.210  35.144  38.548  1.00  0.00     0.173 A 
ATOM     67  F   UNL A   1      39.039  32.437  39.642  1.00  0.00    -0.203 F 
ATOM     68  C   UNL A   1      39.884  34.285  40.830  1.00  0.00     0.198 A 
ATOM     69  C   UNL A   1      41.326  35.861  39.736  1.00  0.00     0.198 A 
ATOM     70  F   UNL A   1      41.864  35.583  37.463  1.00  0.00    -0.203 F 
ATOM     71  F   UNL A   1      39.224  33.881  41.925  1.00  0.00    -0.200 F 
ATOM     72  C   UNL A   1      40.662  35.432  40.875  1.00  0.00     0.200 A 
ATOM     73  F   UNL A   1      42.092  36.960  39.781  1.00  0.00    -0.200 F 
ATOM     74  F   UNL A   1      40.774  36.123  42.017  1.00  0.00    -0.200 F 
ENDBRANCH  50  64
BRANCH  51  75
ATOM     75  C   UNL A   1      40.176  28.715  29.986  1.00  0.00     0.064 A 
ATOM     76  C   UNL A   1      39.559  27.458  29.907  1.00  0.00     0.173 A 
ATOM     77  C   UNL A   1      40.764  29.226  28.819  1.00  0.00     0.173 A 
ATOM     78  F   UNL A   1      38.999  26.917  30.999  1.00  0.00    -0.203 F 
ATOM     79  C   UNL A   1      39.547  26.735  28.715  1.00  0.00     0.198 A 
ATOM     80  C   UNL A   1      40.725  28.515  27.621  1.00  0.00     0.198 A 
ATOM     81  F   UNL A   1      41.362  30.426  28.838  1.00  0.00    -0.203 F 
ATOM     82  F   UNL A   1      38.987  25.518  28.679  1.00  0.00    -0.200 F 
ATOM     83  C   UNL A   1      40.122  27.267  27.572  1.00  0.00     0.200 A 
ATOM     84  F   UNL A   1      41.265  29.041  26.514  1.00  0.00    -0.200 F 
ATOM     85  F   UNL A   1      40.101  26.576  26.424  1.00  0.00    -0.200 F 
ENDBRANCH  51  75
BRANCH  63  86
ATOM     86  C   UNL A   1      44.502  28.861  35.469  1.00  0.00     0.064 A 
ATOM     87  C   UNL A   1      44.470  27.635  36.147  1.00  0.00     0.173 A 
ATOM     88  C   UNL A   1      45.746  29.335  35.023  1.00  0.00     0.173 A 
ATOM     89  F   UNL A   1      43.307  27.145  36.603  1.00  0.00    -0.203 F 
ATOM     90  C   UNL A   1      45.639  26.915  36.378  1.00  0.00     0.198 A 
ATOM     91  C   UNL A   1      46.908  28.597  35.228  1.00  0.00     0.198 A 
ATOM     92  F   UNL A   1      45.829  30.498  34.361  1.00  0.00    -0.203 F 
ATOM     93  F   UNL A   1      45.589  25.761  37.057  1.00  0.00    -0.200 F 
ATOM     94  C   UNL A   1      46.854  27.390  35.909  1.00  0.00     0.200 A 
ATOM     95  F   UNL A   1      48.078  29.049  34.757  1.00  0.00    -0.200 F 
ATOM     96  F   UNL A   1      47.975  26.684  36.112  1.00  0.00    -0.200 F 
ENDBRANCH  63  86
ENDBRANCH  37  38
ENDBRANCH  29  32
ENDBRANCH  27  28
ENDBRANCH  26  27
ENDBRANCH  25  26
ENDBRANCH   1  25
TORSDOF 15
ENDMDL
MODEL 2
REMARK VINA RESULT:     -11.4      0.892      1.943
REMARK SMILES Cn1nc(N2CCC(CC(=O)NCCCCCCNC(=O)c3ccc(-c4c5nc(c(-c6c(F)c(F)c(F)c(F)c6F)c6ccc([nH]6)c(-c6c(F)c(F)c(F)c(F)c6F)c6nc(c(-c7c(F)c(F)c(F)c(F)c7F)c7ccc4[nH]7)C=C6)C=C5)cc3)CC2)c(=O)n(C)c1=O
REMARK SMILES IDX 15 1 14 2 13 3 12 4 10 5 11 6 9 8 8 9 5 10 6 11 86 12 7 13
REMARK SMILES IDX 85 14 4 15 1 16 2 17 3 18 91 19 89 20 92 21 87 22 90 23
REMARK SMILES IDX 88 24 16 25 17 26 18 27 19 28 20 29 21 31 22 32 23 33 84 34
REMARK SMILES IDX 24 35 83 36 25 37 26 38 27 39 77 40 28 41 82 42 76 43 78 44
REMARK SMILES IDX 29 45 81 46 75 47 74 48 30 50 62 51 42 52 61 53 43 54 46 55
REMARK SMILES IDX 60 56 79 57 44 58 45 59 59 61 80 62 47 63 31 64 32 65 40 66
REMARK SMILES IDX 33 67 34 68 38 69 41 70 35 71 36 72 39 73 37 74 63 75 64 76
REMARK SMILES IDX 72 77 65 78 66 79 70 80 73 81 67 82 68 83 71 84 69 85 48 86
REMARK SMILES IDX 49 87 57 88 50 89 51 90 55 91 58 92 52 93 53 94 56 95 54 96
REMARK H PARENT 12 7 19 30 78 49 46 60
REMARK Flexibility Score: inf
ROOT
ATOM      1  C   UNL A   1      34.532  32.872  29.067  1.00  0.00     0.002 C 
ENDROOT
BRANCH   1   2
ATOM      2  C   UNL A   1      35.528  31.988  28.321  1.00  0.00     0.021 C 
BRANCH   2   3
ATOM      3  C   UNL A   1      34.912  30.764  27.628  1.00  0.00     0.116 C 
BRANCH   3   4
ATOM      4  N   UNL A   1      33.520  31.014  27.292  1.00  0.00    -0.356 N 
ATOM      5  C   UNL A   1      32.499  30.158  27.002  1.00  0.00     0.220 C 
ATOM      6  O   UNL A   1      31.430  30.643  26.623  1.00  0.00    -0.275 OA
ATOM      7  H   UNL A   1      33.271  31.966  27.270  1.00  0.00     0.163 HD
BRANCH   5   8
ATOM      8  C   UNL A   1      32.655  28.651  27.152  1.00  0.00     0.103 C 
BRANCH   8   9
ATOM      9  C   UNL A   1      32.309  27.834  25.887  1.00  0.00     0.002 C 
ATOM     10  N   UNL A   1      32.280  25.160  24.809  1.00  0.00    -0.351 N 
ATOM     11  C   UNL A   1      33.299  26.051  24.312  1.00  0.00     0.118 C 
ATOM     12  C   UNL A   1      30.995  25.778  25.084  1.00  0.00     0.118 C 
ATOM     13  C   UNL A   1      33.556  27.122  25.350  1.00  0.00     0.025 C 
ATOM     14  C   UNL A   1      31.179  26.824  26.191  1.00  0.00     0.025 C 
BRANCH  10  15
ATOM     15  C   UNL A   1      32.547  23.832  25.081  1.00  0.00     0.215 A 
ATOM     16  C   UNL A   1      34.020  21.792  27.653  1.00  0.00     0.180 C 
ATOM     17  N   UNL A   1      33.412  22.142  26.382  1.00  0.00    -0.216 N 
ATOM     18  N   UNL A   1      33.167  23.474  26.171  1.00  0.00    -0.145 NA
ATOM     19  C   UNL A   1      33.147  21.122  25.471  1.00  0.00     0.346 A 
ATOM     20  N   UNL A   1      32.536  21.498  24.294  1.00  0.00    -0.259 N 
ATOM     21  O   UNL A   1      33.442  19.950  25.714  1.00  0.00    -0.246 OA
ATOM     22  C   UNL A   1      32.144  22.792  24.035  1.00  0.00     0.299 A 
ATOM     23  C   UNL A   1      32.263  20.510  23.273  1.00  0.00     0.159 C 
ATOM     24  O   UNL A   1      31.543  23.159  23.031  1.00  0.00    -0.265 OA
ENDBRANCH  10  15
ENDBRANCH   8   9
ENDBRANCH   5   8
ENDBRANCH   3   4
ENDBRANCH   2   3
ENDBRANCH   1   2
BRANCH   1  25
ATOM     25  C   UNL A   1      34.573  34.350  28.682  1.00  0.00     0.002 C 
BRANCH  25  26
ATOM     26  C   UNL A   1      33.274  35.125  28.924  1.00  0.00     0.021 C 
BRANCH  26  27
ATOM     27  C   UNL A   1      33.414  36.346  29.829  1.00  0.00     0.116 C 
BRANCH  27  28
ATOM     28  N   UNL A   1      32.453  36.324  30.920  1.00  0.00    -0.352 N 
ATOM     29  C   UNL A   1      32.475  35.596  32.083  1.00  0.00     0.251 C 
ATOM     30  H   UNL A   1      31.676  36.916  30.809  1.00  0.00     0.163 HD
ATOM     31  O   UNL A   1      31.472  35.506  32.782  1.00  0.00    -0.269 OA
BRANCH  29  32
ATOM     32  C   UNL A   1      33.718  34.910  32.488  1.00  0.00     0.039 A 
ATOM     33  C   UNL A   1      33.649  33.592  32.944  1.00  0.00     0.014 A 
ATOM     34  C   UNL A   1      34.946  35.576  32.434  1.00  0.00     0.014 A 
ATOM     35  C   UNL A   1      34.822  32.923  33.295  1.00  0.00     0.010 A 
ATOM     36  C   UNL A   1      36.121  34.887  32.716  1.00  0.00     0.010 A 
ATOM     37  C   UNL A   1      36.069  33.557  33.158  1.00  0.00    -0.014 A 
BRANCH  37  38
ATOM     38  C   UNL A   1      37.327  32.846  33.498  1.00  0.00     0.031 A 
ATOM     39  C   UNL A   1      38.053  33.173  34.772  1.00  0.00     0.074 A 
ATOM     40  C   UNL A   1      37.833  31.941  32.638  1.00  0.00     0.049 A 
ATOM     41  N   UNL A   1      39.183  32.693  35.225  1.00  0.00    -0.248 NA
ATOM     42  C   UNL A   1      37.442  34.190  35.645  1.00  0.00     0.031 C 
ATOM     43  C   UNL A   1      37.240  31.573  31.353  1.00  0.00     0.029 A 
ATOM     44  N   UNL A   1      38.966  31.169  32.714  1.00  0.00    -0.354 N 
ATOM     45  C   UNL A   1      39.418  33.351  36.425  1.00  0.00     0.074 A 
ATOM     46  C   UNL A   1      38.347  34.303  36.607  1.00  0.00     0.031 C 
ATOM     47  C   UNL A   1      37.999  30.632  30.771  1.00  0.00     0.029 A 
ATOM     48  C   UNL A   1      39.152  30.354  31.622  1.00  0.00     0.049 A 
ATOM     49  H   UNL A   1      39.587  31.196  33.477  1.00  0.00     0.167 HD
ATOM     50  C   UNL A   1      40.426  33.156  37.307  1.00  0.00     0.037 A 
ATOM     51  C   UNL A   1      40.144  29.487  31.339  1.00  0.00     0.037 A 
ATOM     52  C   UNL A   1      41.471  32.182  37.136  1.00  0.00     0.049 A 
ATOM     53  C   UNL A   1      41.257  29.299  32.336  1.00  0.00     0.074 A 
ATOM     54  C   UNL A   1      42.497  31.862  38.007  1.00  0.00     0.029 A 
ATOM     55  N   UNL A   1      41.623  31.373  36.020  1.00  0.00    -0.354 N 
ATOM     56  N   UNL A   1      41.428  29.872  33.502  1.00  0.00    -0.248 NA
ATOM     57  C   UNL A   1      42.312  28.338  31.981  1.00  0.00     0.031 C 
ATOM     58  C   UNL A   1      43.302  30.899  37.396  1.00  0.00     0.029 A 
ATOM     59  C   UNL A   1      42.745  30.575  36.168  1.00  0.00     0.049 A 
ATOM     60  H   UNL A   1      41.023  31.366  35.240  1.00  0.00     0.167 HD
ATOM     61  C   UNL A   1      42.593  29.332  34.028  1.00  0.00     0.074 A 
ATOM     62  C   UNL A   1      43.077  28.366  33.063  1.00  0.00     0.031 C 
ATOM     63  C   UNL A   1      43.209  29.613  35.202  1.00  0.00     0.037 A 
BRANCH  50  64
ATOM     64  C   UNL A   1      40.448  33.991  38.552  1.00  0.00     0.064 A 
ATOM     65  C   UNL A   1      39.793  33.579  39.723  1.00  0.00     0.173 A 
ATOM     66  C   UNL A   1      41.211  35.167  38.607  1.00  0.00     0.173 A 
ATOM     67  F   UNL A   1      39.042  32.468  39.720  1.00  0.00    -0.203 F 
ATOM     68  C   UNL A   1      39.897  34.317  40.898  1.00  0.00     0.198 A 
ATOM     69  C   UNL A   1      41.336  35.887  39.792  1.00  0.00     0.198 A 
ATOM     70  F   UNL A   1      41.860  35.603  37.516  1.00  0.00    -0.203 F 
ATOM     71  F   UNL A   1      39.243  33.917  41.998  1.00  0.00    -0.200 F 
ATOM     72  C   UNL A   1      40.678  35.462  40.936  1.00  0.00     0.200 A 
ATOM     73  F   UNL A   1      42.104  36.985  39.830  1.00  0.00    -0.200 F 
ATOM     74  F   UNL A   1      40.798  36.155  42.076  1.00  0.00    -0.200 F 
ENDBRANCH  50  64
BRANCH  51  75
ATOM     75  C   UNL A   1      40.116  28.720  30.067  1.00  0.00     0.064 A 
ATOM     76  C   UNL A   1      40.708  29.230  28.902  1.00  0.00     0.173 A 
ATOM     77  C   UNL A   1      39.506  27.459  29.988  1.00  0.00     0.173 A 
ATOM     78  F   UNL A   1      41.288  30.438  28.920  1.00  0.00    -0.203 F 
ATOM     79  C   UNL A   1      40.676  28.515  27.705  1.00  0.00     0.198 A 
ATOM     80  C   UNL A   1      39.501  26.733  28.798  1.00  0.00     0.198 A 
ATOM     81  F   UNL A   1      38.930  26.922  31.073  1.00  0.00    -0.203 F 
ATOM     82  F   UNL A   1      41.214  29.045  26.598  1.00  0.00    -0.200 F 
ATOM     83  C   UNL A   1      40.080  27.265  27.656  1.00  0.00     0.200 A 
ATOM     84  F   UNL A   1      38.940  25.517  28.760  1.00  0.00    -0.200 F 
ATOM     85  F   UNL A   1      40.058  26.575  26.508  1.00  0.00    -0.200 F 
ENDBRANCH  51  75
BRANCH  63  86
ATOM     86  C   UNL A   1      44.468  28.864  35.528  1.00  0.00     0.064 A 
ATOM     87  C   UNL A   1      45.729  29.363  35.170  1.00  0.00     0.173 A 
ATOM     88  C   UNL A   1      44.418  27.683  36.283  1.00  0.00     0.173 A 
ATOM     89  F   UNL A   1      45.829  30.483  34.438  1.00  0.00    -0.203 F 
ATOM     90  C   UNL A   1      46.893  28.700  35.547  1.00  0.00     0.198 A 
ATOM     91  C   UNL A   1      45.585  27.040  36.686  1.00  0.00     0.198 A 
ATOM     92  F   UNL A   1      43.238  27.170  36.659  1.00  0.00    -0.203 F 
ATOM     93  F   UNL A   1      48.086  29.178  35.167  1.00  0.00    -0.200 F 
ATOM     94  C   UNL A   1      46.821  27.547  36.313  1.00  0.00     0.200 A 
ATOM     95  F   UNL A   1      45.514  25.937  37.443  1.00  0.00    -0.200 F 
ATOM     96  F   UNL A   1      47.944  26.923  36.695  1.00  0.00    -0.200 F 
ENDBRANCH  63  86
ENDBRANCH  37  38
ENDBRANCH  29  32
ENDBRANCH  27  28
ENDBRANCH  26  27
ENDBRANCH  25  26
ENDBRANCH   1  25
TORSDOF 15
ENDMDL
MODEL 3
REMARK VINA RESULT:     -11.4      6.664     12.438
REMARK SMILES Cn1nc(N2CCC(CC(=O)NCCCCCCNC(=O)c3ccc(-c4c5nc(c(-c6c(F)c(F)c(F)c(F)c6F)c6ccc([nH]6)c(-c6c(F)c(F)c(F)c(F)c6F)c6nc(c(-c7c(F)c(F)c(F)c(F)c7F)c7ccc4[nH]7)C=C6)C=C5)cc3)CC2)c(=O)n(C)c1=O
REMARK SMILES IDX 15 1 14 2 13 3 12 4 10 5 11 6 9 8 8 9 5 10 6 11 86 12 7 13
REMARK SMILES IDX 85 14 4 15 1 16 2 17 3 18 91 19 89 20 92 21 87 22 90 23
REMARK SMILES IDX 88 24 16 25 17 26 18 27 19 28 20 29 21 31 22 32 23 33 84 34
REMARK SMILES IDX 24 35 83 36 25 37 26 38 27 39 77 40 28 41 82 42 76 43 78 44
REMARK SMILES IDX 29 45 81 46 75 47 74 48 30 50 62 51 42 52 61 53 43 54 46 55
REMARK SMILES IDX 60 56 79 57 44 58 45 59 59 61 80 62 47 63 31 64 32 65 40 66
REMARK SMILES IDX 33 67 34 68 38 69 41 70 35 71 36 72 39 73 37 74 63 75 64 76
REMARK SMILES IDX 72 77 65 78 66 79 70 80 73 81 67 82 68 83 71 84 69 85 48 86
REMARK SMILES IDX 49 87 57 88 50 89 51 90 55 91 58 92 52 93 53 94 56 95 54 96
REMARK H PARENT 12 7 19 30 78 49 46 60
REMARK Flexibility Score: inf
ROOT
ATOM      1  C   UNL A   1      41.697  21.525  26.764  1.00  0.00     0.002 C 
ENDROOT
BRANCH   1   2
ATOM      2  C   UNL A   1      40.751  22.360  27.624  1.00  0.00     0.021 C 
BRANCH   2   3
ATOM      3  C   UNL A   1      39.667  23.116  26.843  1.00  0.00     0.116 C 
BRANCH   3   4
ATOM      4  N   UNL A   1      39.022  22.237  25.882  1.00  0.00    -0.356 N 
ATOM      5  C   UNL A   1      37.759  22.243  25.367  1.00  0.00     0.220 C 
ATOM      6  O   UNL A   1      37.424  21.295  24.652  1.00  0.00    -0.275 OA
ATOM      7  H   UNL A   1      39.596  21.513  25.544  1.00  0.00     0.163 HD
BRANCH   5   8
ATOM      8  C   UNL A   1      36.790  23.383  25.646  1.00  0.00     0.103 C 
BRANCH   8   9
ATOM      9  C   UNL A   1      35.353  23.156  25.123  1.00  0.00     0.002 C 
ATOM     10  N   UNL A   1      32.924  24.526  24.395  1.00  0.00    -0.351 N 
ATOM     11  C   UNL A   1      32.907  23.784  25.631  1.00  0.00     0.118 C 
ATOM     12  C   UNL A   1      33.694  23.925  23.320  1.00  0.00     0.118 C 
ATOM     13  C   UNL A   1      34.326  23.659  26.143  1.00  0.00     0.025 C 
ATOM     14  C   UNL A   1      35.163  23.845  23.754  1.00  0.00     0.025 C 
BRANCH  10  15
ATOM     15  C   UNL A   1      32.317  25.763  24.283  1.00  0.00     0.215 A 
ATOM     16  C   UNL A   1      33.084  29.252  24.707  1.00  0.00     0.180 C 
ATOM     17  N   UNL A   1      32.298  28.057  24.456  1.00  0.00    -0.216 N 
ATOM     18  N   UNL A   1      32.955  26.860  24.578  1.00  0.00    -0.145 NA
ATOM     19  C   UNL A   1      30.950  28.205  24.139  1.00  0.00     0.346 A 
ATOM     20  N   UNL A   1      30.254  27.045  23.873  1.00  0.00    -0.259 N 
ATOM     21  O   UNL A   1      30.417  29.316  24.095  1.00  0.00    -0.246 OA
ATOM     22  C   UNL A   1      30.850  25.803  23.855  1.00  0.00     0.299 A 
ATOM     23  C   UNL A   1      28.840  27.101  23.577  1.00  0.00     0.159 C 
ATOM     24  O   UNL A   1      30.284  24.755  23.564  1.00  0.00    -0.265 OA
ENDBRANCH  10  15
ENDBRANCH   8   9
ENDBRANCH   5   8
ENDBRANCH   3   4
ENDBRANCH   2   3
ENDBRANCH   1   2
BRANCH   1  25
ATOM     25  C   UNL A   1      41.828  20.063  27.188  1.00  0.00     0.002 C 
BRANCH  25  26
ATOM     26  C   UNL A   1      42.236  19.093  26.075  1.00  0.00     0.021 C 
BRANCH  26  27
ATOM     27  C   UNL A   1      43.703  18.672  26.096  1.00  0.00     0.116 C 
BRANCH  27  28
ATOM     28  N   UNL A   1      44.268  18.610  24.757  1.00  0.00    -0.352 N 
ATOM     29  C   UNL A   1      44.651  19.633  23.927  1.00  0.00     0.251 C 
ATOM     30  H   UNL A   1      44.394  17.705  24.395  1.00  0.00     0.163 HD
ATOM     31  O   UNL A   1      44.875  19.423  22.741  1.00  0.00    -0.269 OA
BRANCH  29  32
ATOM     32  C   UNL A   1      44.783  21.000  24.471  1.00  0.00     0.039 A 
ATOM     33  C   UNL A   1      45.423  21.184  25.698  1.00  0.00     0.014 A 
ATOM     34  C   UNL A   1      44.258  22.093  23.776  1.00  0.00     0.014 A 
ATOM     35  C   UNL A   1      45.584  22.474  26.204  1.00  0.00     0.010 A 
ATOM     36  C   UNL A   1      44.482  23.383  24.245  1.00  0.00     0.010 A 
ATOM     37  C   UNL A   1      45.138  23.585  25.467  1.00  0.00    -0.014 A 
BRANCH  37  38
ATOM     38  C   UNL A   1      45.332  24.965  25.978  1.00  0.00     0.031 A 
ATOM     39  C   UNL A   1      46.696  25.596  25.937  1.00  0.00     0.074 A 
ATOM     40  C   UNL A   1      44.291  25.629  26.515  1.00  0.00     0.049 A 
ATOM     41  N   UNL A   1      47.075  26.771  26.370  1.00  0.00    -0.248 NA
ATOM     42  C   UNL A   1      47.783  24.793  25.353  1.00  0.00     0.031 C 
ATOM     43  C   UNL A   1      42.932  25.103  26.648  1.00  0.00     0.029 A 
ATOM     44  N   UNL A   1      44.213  26.889  27.057  1.00  0.00    -0.354 N 
ATOM     45  C   UNL A   1      48.438  26.844  26.117  1.00  0.00     0.074 A 
ATOM     46  C   UNL A   1      48.834  25.578  25.544  1.00  0.00     0.031 C 
ATOM     47  C   UNL A   1      42.150  26.038  27.210  1.00  0.00     0.029 A 
ATOM     48  C   UNL A   1      42.958  27.216  27.512  1.00  0.00     0.049 A 
ATOM     49  H   UNL A   1      44.982  27.500  27.112  1.00  0.00     0.167 HD
ATOM     50  C   UNL A   1      49.277  27.887  26.321  1.00  0.00     0.037 A 
ATOM     51  C   UNL A   1      42.513  28.338  28.111  1.00  0.00     0.037 A 
ATOM     52  C   UNL A   1      48.868  29.157  26.861  1.00  0.00     0.049 A 
ATOM     53  C   UNL A   1      43.471  29.478  28.334  1.00  0.00     0.074 A 
ATOM     54  C   UNL A   1      49.630  30.297  27.041  1.00  0.00     0.029 A 
ATOM     55  N   UNL A   1      47.589  29.452  27.306  1.00  0.00    -0.354 N 
ATOM     56  N   UNL A   1      44.742  29.563  28.021  1.00  0.00    -0.248 NA
ATOM     57  C   UNL A   1      42.934  30.681  28.987  1.00  0.00     0.031 C 
ATOM     58  C   UNL A   1      48.826  31.266  27.646  1.00  0.00     0.029 A 
ATOM     59  C   UNL A   1      47.548  30.749  27.790  1.00  0.00     0.049 A 
ATOM     60  H   UNL A   1      46.824  28.833  27.283  1.00  0.00     0.167 HD
ATOM     61  C   UNL A   1      45.150  30.828  28.419  1.00  0.00     0.074 A 
ATOM     62  C   UNL A   1      43.987  31.487  28.977  1.00  0.00     0.031 C 
ATOM     63  C   UNL A   1      46.379  31.392  28.334  1.00  0.00     0.037 A 
BRANCH  50  64
ATOM     64  C   UNL A   1      50.718  27.720  25.945  1.00  0.00     0.064 A 
ATOM     65  C   UNL A   1      51.163  27.943  24.633  1.00  0.00     0.173 A 
ATOM     66  C   UNL A   1      51.680  27.429  26.924  1.00  0.00     0.173 A 
ATOM     67  F   UNL A   1      50.282  28.214  23.658  1.00  0.00    -0.203 F 
ATOM     68  C   UNL A   1      52.517  27.875  24.315  1.00  0.00     0.198 A 
ATOM     69  C   UNL A   1      53.036  27.390  26.608  1.00  0.00     0.198 A 
ATOM     70  F   UNL A   1      51.307  27.211  28.194  1.00  0.00    -0.203 F 
ATOM     71  F   UNL A   1      52.917  28.068  23.051  1.00  0.00    -0.200 F 
ATOM     72  C   UNL A   1      53.453  27.612  25.305  1.00  0.00     0.200 A 
ATOM     73  F   UNL A   1      53.940  27.150  27.568  1.00  0.00    -0.200 F 
ATOM     74  F   UNL A   1      54.757  27.573  25.001  1.00  0.00    -0.200 F 
ENDBRANCH  50  64
BRANCH  51  75
ATOM     75  C   UNL A   1      41.088  28.443  28.522  1.00  0.00     0.064 A 
ATOM     76  C   UNL A   1      40.121  28.964  27.650  1.00  0.00     0.173 A 
ATOM     77  C   UNL A   1      40.661  28.017  29.789  1.00  0.00     0.173 A 
ATOM     78  F   UNL A   1      40.482  29.402  26.436  1.00  0.00    -0.203 F 
ATOM     79  C   UNL A   1      38.786  29.071  28.036  1.00  0.00     0.198 A 
ATOM     80  C   UNL A   1      39.320  28.097  30.161  1.00  0.00     0.198 A 
ATOM     81  F   UNL A   1      41.542  27.505  30.659  1.00  0.00    -0.203 F 
ATOM     82  F   UNL A   1      37.891  29.611  27.198  1.00  0.00    -0.200 F 
ATOM     83  C   UNL A   1      38.385  28.630  29.287  1.00  0.00     0.200 A 
ATOM     84  F   UNL A   1      38.934  27.652  31.365  1.00  0.00    -0.200 F 
ATOM     85  F   UNL A   1      37.099  28.724  29.654  1.00  0.00    -0.200 F 
ENDBRANCH  51  75
BRANCH  63  86
ATOM     86  C   UNL A   1      46.541  32.796  28.840  1.00  0.00     0.064 A 
ATOM     87  C   UNL A   1      46.315  33.903  28.010  1.00  0.00     0.173 A 
ATOM     88  C   UNL A   1      46.839  33.036  30.191  1.00  0.00     0.173 A 
ATOM     89  F   UNL A   1      46.038  33.727  26.709  1.00  0.00    -0.203 F 
ATOM     90  C   UNL A   1      46.391  35.199  28.511  1.00  0.00     0.198 A 
ATOM     91  C   UNL A   1      46.883  34.332  30.695  1.00  0.00     0.198 A 
ATOM     92  F   UNL A   1      47.054  32.011  31.028  1.00  0.00    -0.203 F 
ATOM     93  F   UNL A   1      46.202  36.244  27.693  1.00  0.00    -0.200 F 
ATOM     94  C   UNL A   1      46.663  35.413  29.854  1.00  0.00     0.200 A 
ATOM     95  F   UNL A   1      47.126  34.535  31.997  1.00  0.00    -0.200 F 
ATOM     96  F   UNL A   1      46.713  36.661  30.340  1.00  0.00    -0.200 F 
ENDBRANCH  63  86
ENDBRANCH  37  38
ENDBRANCH  29  32
ENDBRANCH  27  28
ENDBRANCH  26  27
ENDBRANCH  25  26
ENDBRANCH   1  25
TORSDOF 15
ENDMDL
