MODEL 1
REMARK VINA RESULT:     -12.1      0.000      0.000
REMARK SMILES CC(C)c1ccc(NC(=O)C[C@H]2SC[C@@H](C(=O)NCCCCCCNC(=O)c3ccc(-c4c5nc(c(-c6c(F)c(F)c(F)c(F)c6F)c6ccc([nH]6)c(-c6c(F)c(F)c(F)c(F)c6F)c6nc(c(-c7c(F)c(F)c(F)c(F)c7F)c7ccc4[nH]7)C=C6)C=C5)cc3)NC2=O)cc1
REMARK SMILES IDX 20 1 19 2 18 3 16 4 17 5 15 7 12 8 13 9 92 10 14 11 91 12
REMARK SMILES IDX 93 13 11 15 9 16 8 17 10 19 7 20 4 21 5 22 95 23 6 24 94 25
REMARK SMILES IDX 2 26 1 27 3 28 21 29 22 30 23 31 24 32 25 33 26 34 27 36
REMARK SMILES IDX 28 37 29 38 90 39 30 40 89 41 31 42 32 43 33 44 83 45 34 46
REMARK SMILES IDX 88 47 82 48 84 49 35 50 87 51 81 52 80 53 36 55 68 56 48 57
REMARK SMILES IDX 67 58 49 59 52 60 66 61 85 62 50 63 51 64 65 66 86 67 53 68
REMARK SMILES IDX 37 69 38 70 46 71 39 72 40 73 44 74 47 75 41 76 42 77 45 78
REMARK SMILES IDX 43 79 69 80 70 81 78 82 71 83 72 84 76 85 79 86 73 87 74 88
REMARK SMILES IDX 77 89 75 90 54 91 55 92 63 93 56 94 57 95 61 96 64 97 58 98
REMARK SMILES IDX 59 99 62 100 60 101
REMARK H PARENT 18 6 91 14 8 18 25 35 84 54 52 65
REMARK Flexibility Score: inf
ROOT
ATOM      1  C   UNL A   1      34.515  32.350  29.106  1.00  0.00     0.021 C 
ENDROOT
BRANCH   1   2
ATOM      2  C   UNL A   1      34.620  31.397  27.915  1.00  0.00     0.116 C 
BRANCH   2   3
ATOM      3  N   UNL A   1      33.290  31.049  27.472  1.00  0.00    -0.354 N 
ATOM      4  C   UNL A   1      32.968  30.328  26.356  1.00  0.00     0.243 C 
ATOM      5  O   UNL A   1      31.912  30.603  25.789  1.00  0.00    -0.273 OA
ATOM      6  H   UNL A   1      32.541  31.363  28.030  1.00  0.00     0.163 HD
BRANCH   4   7
ATOM      7  C   UNL A   1      33.782  29.048  26.070  1.00  0.00     0.181 C 
ATOM      8  C   UNL A   1      31.659  26.880  25.725  1.00  0.00     0.145 C 
ATOM      9  S   UNL A   1      32.045  27.840  24.195  1.00  0.00    -0.145 SA
ATOM     10  C   UNL A   1      32.036  27.624  27.013  1.00  0.00     0.234 C 
ATOM     11  C   UNL A   1      33.662  28.529  24.646  1.00  0.00     0.105 C 
ATOM     12  N   UNL A   1      33.313  28.127  27.094  1.00  0.00    -0.343 N 
ATOM     13  O   UNL A   1      31.351  27.716  28.026  1.00  0.00    -0.274 OA
ATOM     14  H   UNL A   1      33.904  27.868  27.839  1.00  0.00     0.164 HD
BRANCH   8  15
ATOM     15  C   UNL A   1      30.226  26.344  25.595  1.00  0.00     0.124 C 
BRANCH  15  16
ATOM     16  C   UNL A   1      29.724  25.832  24.261  1.00  0.00     0.226 C 
ATOM     17  N   UNL A   1      30.104  24.648  23.711  1.00  0.00    -0.326 N 
ATOM     18  H   UNL A   1      29.682  24.462  22.841  1.00  0.00     0.169 HD
ATOM     19  O   UNL A   1      28.931  26.524  23.609  1.00  0.00    -0.275 OA
BRANCH  17  20
ATOM     20  C   UNL A   1      30.977  23.644  24.140  1.00  0.00     0.041 A 
ATOM     21  C   UNL A   1      32.713  21.506  24.740  1.00  0.00    -0.045 A 
ATOM     22  C   UNL A   1      31.723  21.907  25.647  1.00  0.00     0.006 A 
ATOM     23  C   UNL A   1      32.849  22.219  23.543  1.00  0.00     0.006 A 
ATOM     24  C   UNL A   1      30.870  22.976  25.354  1.00  0.00     0.026 A 
ATOM     25  C   UNL A   1      32.000  23.288  23.255  1.00  0.00     0.026 A 
BRANCH  21  26
ATOM     26  C   UNL A   1      33.619  20.337  25.075  1.00  0.00     0.013 C 
ATOM     27  C   UNL A   1      33.279  19.101  24.237  1.00  0.00     0.012 C 
ATOM     28  C   UNL A   1      35.093  20.717  24.917  1.00  0.00     0.012 C 
ENDBRANCH  21  26
ENDBRANCH  17  20
ENDBRANCH  15  16
ENDBRANCH   8  15
ENDBRANCH   4   7
ENDBRANCH   2   3
ENDBRANCH   1   2
BRANCH   1  29
ATOM     29  C   UNL A   1      35.271  33.673  28.900  1.00  0.00     0.002 C 
BRANCH  29  30
ATOM     30  C   UNL A   1      34.467  34.768  28.191  1.00  0.00     0.002 C 
BRANCH  30  31
ATOM     31  C   UNL A   1      33.187  35.187  28.916  1.00  0.00     0.021 C 
BRANCH  31  32
ATOM     32  C   UNL A   1      33.318  36.473  29.718  1.00  0.00     0.116 C 
BRANCH  32  33
ATOM     33  N   UNL A   1      32.466  36.473  30.895  1.00  0.00    -0.352 N 
ATOM     34  C   UNL A   1      32.584  35.730  32.040  1.00  0.00     0.251 C 
ATOM     35  H   UNL A   1      31.700  37.091  30.865  1.00  0.00     0.163 HD
ATOM     36  O   UNL A   1      31.672  35.704  32.863  1.00  0.00    -0.269 OA
BRANCH  34  37
ATOM     37  C   UNL A   1      33.808  34.936  32.272  1.00  0.00     0.039 A 
ATOM     38  C   UNL A   1      35.050  35.568  32.181  1.00  0.00     0.014 A 
ATOM     39  C   UNL A   1      33.729  33.576  32.586  1.00  0.00     0.014 A 
ATOM     40  C   UNL A   1      36.212  34.848  32.459  1.00  0.00     0.010 A 
ATOM     41  C   UNL A   1      34.882  32.880  32.937  1.00  0.00     0.010 A 
ATOM     42  C   UNL A   1      36.136  33.506  32.871  1.00  0.00    -0.014 A 
BRANCH  42  43
ATOM     43  C   UNL A   1      37.357  32.745  33.233  1.00  0.00     0.031 A 
ATOM     44  C   UNL A   1      38.091  33.057  34.509  1.00  0.00     0.074 A 
ATOM     45  C   UNL A   1      37.841  31.818  32.384  1.00  0.00     0.049 A 
ATOM     46  N   UNL A   1      39.207  32.549  34.968  1.00  0.00    -0.248 NA
ATOM     47  C   UNL A   1      37.508  34.097  35.372  1.00  0.00     0.031 C 
ATOM     48  C   UNL A   1      37.246  31.458  31.095  1.00  0.00     0.029 A 
ATOM     49  N   UNL A   1      38.951  31.013  32.471  1.00  0.00    -0.354 N 
ATOM     50  C   UNL A   1      39.468  33.219  36.155  1.00  0.00     0.074 A 
ATOM     51  C   UNL A   1      38.421  34.202  36.326  1.00  0.00     0.031 C 
ATOM     52  C   UNL A   1      37.983  30.491  30.524  1.00  0.00     0.029 A 
ATOM     53  C   UNL A   1      39.124  30.191  31.383  1.00  0.00     0.049 A 
ATOM     54  H   UNL A   1      39.566  31.026  33.240  1.00  0.00     0.167 HD
ATOM     55  C   UNL A   1      40.480  33.019  37.032  1.00  0.00     0.037 A 
ATOM     56  C   UNL A   1      40.099  29.305  31.107  1.00  0.00     0.037 A 
ATOM     57  C   UNL A   1      41.497  32.012  36.877  1.00  0.00     0.049 A 
ATOM     58  C   UNL A   1      41.212  29.106  32.102  1.00  0.00     0.074 A 
ATOM     59  C   UNL A   1      42.512  31.671  37.753  1.00  0.00     0.029 A 
ATOM     60  N   UNL A   1      41.629  31.186  35.771  1.00  0.00    -0.354 N 
ATOM     61  N   UNL A   1      41.398  29.684  33.264  1.00  0.00    -0.248 NA
ATOM     62  C   UNL A   1      42.250  28.127  31.748  1.00  0.00     0.031 C 
ATOM     63  C   UNL A   1      43.295  30.682  37.153  1.00  0.00     0.029 A 
ATOM     64  C   UNL A   1      42.731  30.361  35.929  1.00  0.00     0.049 A 
ATOM     65  H   UNL A   1      41.029  31.186  34.990  1.00  0.00     0.167 HD
ATOM     66  C   UNL A   1      42.548  29.113  33.794  1.00  0.00     0.074 A 
ATOM     67  C   UNL A   1      43.009  28.133  32.834  1.00  0.00     0.031 C 
ATOM     68  C   UNL A   1      43.167  29.377  34.971  1.00  0.00     0.037 A 
BRANCH  55  69
ATOM     69  C   UNL A   1      40.549  33.904  38.243  1.00  0.00     0.064 A 
ATOM     70  C   UNL A   1      41.292  35.094  38.248  1.00  0.00     0.173 A 
ATOM     71  C   UNL A   1      39.805  33.591  39.391  1.00  0.00     0.173 A 
ATOM     72  F   UNL A   1      42.029  35.435  37.181  1.00  0.00    -0.203 F 
ATOM     73  C   UNL A   1      41.303  35.926  39.365  1.00  0.00     0.198 A 
ATOM     74  C   UNL A   1      39.794  34.441  40.493  1.00  0.00     0.198 A 
ATOM     75  F   UNL A   1      39.073  32.468  39.436  1.00  0.00    -0.203 F 
ATOM     76  F   UNL A   1      42.051  37.038  39.361  1.00  0.00    -0.200 F 
ATOM     77  C   UNL A   1      40.547  35.605  40.482  1.00  0.00     0.200 A 
ATOM     78  F   UNL A   1      39.050  34.135  41.566  1.00  0.00    -0.200 F 
ATOM     79  F   UNL A   1      40.545  36.415  41.549  1.00  0.00    -0.200 F 
ENDBRANCH  55  69
BRANCH  56  80
ATOM     80  C   UNL A   1      40.069  28.523  29.842  1.00  0.00     0.064 A 
ATOM     81  C   UNL A   1      39.453  27.263  29.788  1.00  0.00     0.173 A 
ATOM     82  C   UNL A   1      40.689  28.994  28.675  1.00  0.00     0.173 A 
ATOM     83  F   UNL A   1      38.865  26.759  30.882  1.00  0.00    -0.203 F 
ATOM     84  C   UNL A   1      39.487  26.493  28.627  1.00  0.00     0.198 A 
ATOM     85  C   UNL A   1      40.694  28.237  27.506  1.00  0.00     0.198 A 
ATOM     86  F   UNL A   1      41.289  30.194  28.671  1.00  0.00    -0.203 F 
ATOM     87  F   UNL A   1      38.947  25.267  28.623  1.00  0.00    -0.200 F 
ATOM     88  C   UNL A   1      40.106  26.982  27.485  1.00  0.00     0.200 A 
ATOM     89  F   UNL A   1      41.279  28.720  26.401  1.00  0.00    -0.200 F 
ATOM     90  F   UNL A   1      40.145  26.239  26.372  1.00  0.00    -0.200 F 
ENDBRANCH  56  80
BRANCH  68  91
ATOM     91  C   UNL A   1      44.382  28.562  35.311  1.00  0.00     0.064 A 
ATOM     92  C   UNL A   1      44.285  27.346  36.003  1.00  0.00     0.173 A 
ATOM     93  C   UNL A   1      45.656  28.985  34.901  1.00  0.00     0.173 A 
ATOM     94  F   UNL A   1      43.092  26.904  36.430  1.00  0.00    -0.203 F 
ATOM     95  C   UNL A   1      45.423  26.600  36.300  1.00  0.00     0.198 A 
ATOM     96  C   UNL A   1      46.786  28.219  35.168  1.00  0.00     0.198 A 
ATOM     97  F   UNL A   1      45.802  30.136  34.228  1.00  0.00    -0.203 F 
ATOM     98  F   UNL A   1      45.312  25.467  37.009  1.00  0.00    -0.200 F 
ATOM     99  C   UNL A   1      46.671  27.031  35.874  1.00  0.00     0.200 A 
ATOM    100  F   UNL A   1      47.988  28.630  34.741  1.00  0.00    -0.200 F 
ATOM    101  F   UNL A   1      47.763  26.307  36.152  1.00  0.00    -0.200 F 
ENDBRANCH  68  91
ENDBRANCH  42  43
ENDBRANCH  34  37
ENDBRANCH  32  33
ENDBRANCH  31  32
ENDBRANCH  30  31
ENDBRANCH  29  30
ENDBRANCH   1  29
TORSDOF 17
ENDMDL
MODEL 2
REMARK VINA RESULT:     -11.8      6.675     12.218
REMARK SMILES CC(C)c1ccc(NC(=O)C[C@H]2SC[C@@H](C(=O)NCCCCCCNC(=O)c3ccc(-c4c5nc(c(-c6c(F)c(F)c(F)c(F)c6F)c6ccc([nH]6)c(-c6c(F)c(F)c(F)c(F)c6F)c6nc(c(-c7c(F)c(F)c(F)c(F)c7F)c7ccc4[nH]7)C=C6)C=C5)cc3)NC2=O)cc1
REMARK SMILES IDX 20 1 19 2 18 3 16 4 17 5 15 7 12 8 13 9 92 10 14 11 91 12
REMARK SMILES IDX 93 13 11 15 9 16 8 17 10 19 7 20 4 21 5 22 95 23 6 24 94 25
REMARK SMILES IDX 2 26 1 27 3 28 21 29 22 30 23 31 24 32 25 33 26 34 27 36
REMARK SMILES IDX 28 37 29 38 90 39 30 40 89 41 31 42 32 43 33 44 83 45 34 46
REMARK SMILES IDX 88 47 82 48 84 49 35 50 87 51 81 52 80 53 36 55 68 56 48 57
REMARK SMILES IDX 67 58 49 59 52 60 66 61 85 62 50 63 51 64 65 66 86 67 53 68
REMARK SMILES IDX 37 69 38 70 46 71 39 72 40 73 44 74 47 75 41 76 42 77 45 78
REMARK SMILES IDX 43 79 69 80 70 81 78 82 71 83 72 84 76 85 79 86 73 87 74 88
REMARK SMILES IDX 77 89 75 90 54 91 55 92 63 93 56 94 57 95 61 96 64 97 58 98
REMARK SMILES IDX 59 99 62 100 60 101
REMARK H PARENT 18 6 91 14 8 18 25 35 84 54 52 65
REMARK Flexibility Score: inf
ROOT
ATOM      1  C   UNL A   1      39.459  22.337  26.504  1.00  0.00     0.021 C 
ENDROOT
BRANCH   1   2
ATOM      2  C   UNL A   1      38.531  21.596  25.541  1.00  0.00     0.116 C 
BRANCH   2   3
ATOM      3  N   UNL A   1      37.460  22.481  25.145  1.00  0.00    -0.354 N 
ATOM      4  C   UNL A   1      36.200  22.113  24.765  1.00  0.00     0.243 C 
ATOM      5  O   UNL A   1      35.631  22.816  23.931  1.00  0.00    -0.273 OA
ATOM      6  H   UNL A   1      37.658  23.446  25.150  1.00  0.00     0.163 HD
BRANCH   4   7
ATOM      7  C   UNL A   1      35.479  21.043  25.613  1.00  0.00     0.181 C 
ATOM      8  C   UNL A   1      32.604  22.056  25.799  1.00  0.00     0.145 C 
ATOM      9  S   UNL A   1      32.979  21.056  24.293  1.00  0.00    -0.145 SA
ATOM     10  C   UNL A   1      33.856  22.669  26.441  1.00  0.00     0.234 C 
ATOM     11  C   UNL A   1      34.479  20.195  24.842  1.00  0.00     0.105 C 
ATOM     12  N   UNL A   1      34.906  21.820  26.701  1.00  0.00    -0.343 N 
ATOM     13  O   UNL A   1      33.973  23.819  26.852  1.00  0.00    -0.274 OA
ATOM     14  H   UNL A   1      35.267  21.740  27.614  1.00  0.00     0.164 HD
BRANCH   8  15
ATOM     15  C   UNL A   1      31.434  22.993  25.463  1.00  0.00     0.124 C 
BRANCH  15  16
ATOM     16  C   UNL A   1      30.594  23.587  26.574  1.00  0.00     0.226 C 
ATOM     17  N   UNL A   1      29.999  24.808  26.505  1.00  0.00    -0.326 N 
ATOM     18  H   UNL A   1      29.485  25.044  27.311  1.00  0.00     0.169 HD
ATOM     19  O   UNL A   1      30.439  22.947  27.622  1.00  0.00    -0.275 OA
BRANCH  17  20
ATOM     20  C   UNL A   1      29.976  25.794  25.512  1.00  0.00     0.041 A 
ATOM     21  C   UNL A   1      29.992  27.970  23.722  1.00  0.00    -0.045 A 
ATOM     22  C   UNL A   1      28.989  26.993  23.661  1.00  0.00     0.006 A 
ATOM     23  C   UNL A   1      31.013  27.818  24.668  1.00  0.00     0.006 A 
ATOM     24  C   UNL A   1      28.988  25.907  24.542  1.00  0.00     0.026 A 
ATOM     25  C   UNL A   1      31.013  26.732  25.542  1.00  0.00     0.026 A 
BRANCH  21  26
ATOM     26  C   UNL A   1      29.965  29.144  22.763  1.00  0.00     0.013 C 
ATOM     27  C   UNL A   1      29.527  30.434  23.463  1.00  0.00     0.012 C 
ATOM     28  C   UNL A   1      31.319  29.327  22.075  1.00  0.00     0.012 C 
ENDBRANCH  21  26
ENDBRANCH  17  20
ENDBRANCH  15  16
ENDBRANCH   8  15
ENDBRANCH   4   7
ENDBRANCH   2   3
ENDBRANCH   1   2
BRANCH   1  29
ATOM     29  C   UNL A   1      40.947  22.221  26.132  1.00  0.00     0.002 C 
BRANCH  29  30
ATOM     30  C   UNL A   1      41.709  21.118  26.873  1.00  0.00     0.002 C 
BRANCH  30  31
ATOM     31  C   UNL A   1      41.786  19.786  26.125  1.00  0.00     0.021 C 
BRANCH  31  32
ATOM     32  C   UNL A   1      43.053  18.990  26.399  1.00  0.00     0.116 C 
BRANCH  32  33
ATOM     33  N   UNL A   1      43.753  18.638  25.175  1.00  0.00    -0.352 N 
ATOM     34  C   UNL A   1      44.441  19.453  24.315  1.00  0.00     0.251 C 
ATOM     35  H   UNL A   1      43.728  17.684  24.931  1.00  0.00     0.163 HD
ATOM     36  O   UNL A   1      44.813  19.033  23.221  1.00  0.00    -0.269 OA
BRANCH  34  37
ATOM     37  C   UNL A   1      44.716  20.852  24.699  1.00  0.00     0.039 A 
ATOM     38  C   UNL A   1      44.261  21.881  23.872  1.00  0.00     0.014 A 
ATOM     39  C   UNL A   1      45.412  21.148  25.875  1.00  0.00     0.014 A 
ATOM     40  C   UNL A   1      44.456  23.209  24.252  1.00  0.00     0.010 A 
ATOM     41  C   UNL A   1      45.540  22.470  26.289  1.00  0.00     0.010 A 
ATOM     42  C   UNL A   1      45.068  23.515  25.480  1.00  0.00    -0.014 A 
BRANCH  42  43
ATOM     43  C   UNL A   1      45.226  24.921  25.929  1.00  0.00     0.031 A 
ATOM     44  C   UNL A   1      46.574  25.587  25.865  1.00  0.00     0.074 A 
ATOM     45  C   UNL A   1      44.172  25.576  26.452  1.00  0.00     0.049 A 
ATOM     46  N   UNL A   1      46.926  26.782  26.268  1.00  0.00    -0.248 NA
ATOM     47  C   UNL A   1      47.678  24.797  25.298  1.00  0.00     0.031 C 
ATOM     48  C   UNL A   1      42.826  25.022  26.611  1.00  0.00     0.029 A 
ATOM     49  N   UNL A   1      44.067  26.849  26.959  1.00  0.00    -0.354 N 
ATOM     50  C   UNL A   1      48.289  26.877  26.023  1.00  0.00     0.074 A 
ATOM     51  C   UNL A   1      48.712  25.605  25.480  1.00  0.00     0.031 C 
ATOM     52  C   UNL A   1      42.026  25.956  27.153  1.00  0.00     0.029 A 
ATOM     53  C   UNL A   1      42.810  27.157  27.420  1.00  0.00     0.049 A 
ATOM     54  H   UNL A   1      44.822  27.479  26.990  1.00  0.00     0.167 HD
ATOM     55  C   UNL A   1      49.110  27.937  26.218  1.00  0.00     0.037 A 
ATOM     56  C   UNL A   1      42.346  28.279  28.002  1.00  0.00     0.037 A 
ATOM     57  C   UNL A   1      48.676  29.214  26.721  1.00  0.00     0.049 A 
ATOM     58  C   UNL A   1      43.284  29.440  28.206  1.00  0.00     0.074 A 
ATOM     59  C   UNL A   1      49.411  30.376  26.870  1.00  0.00     0.029 A 
ATOM     60  N   UNL A   1      47.391  29.494  27.161  1.00  0.00    -0.354 N 
ATOM     61  N   UNL A   1      44.551  29.547  27.888  1.00  0.00    -0.248 NA
ATOM     62  C   UNL A   1      42.725  30.639  28.847  1.00  0.00     0.031 C 
ATOM     63  C   UNL A   1      48.589  31.342  27.455  1.00  0.00     0.029 A 
ATOM     64  C   UNL A   1      47.324  30.802  27.613  1.00  0.00     0.049 A 
ATOM     65  H   UNL A   1      46.639  28.859  27.152  1.00  0.00     0.167 HD
ATOM     66  C   UNL A   1      44.929  30.834  28.253  1.00  0.00     0.074 A 
ATOM     67  C   UNL A   1      43.753  31.473  28.804  1.00  0.00     0.031 C 
ATOM     68  C   UNL A   1      46.141  31.431  28.143  1.00  0.00     0.037 A 
BRANCH  55  69
ATOM     69  C   UNL A   1      50.565  27.771  25.890  1.00  0.00     0.064 A 
ATOM     70  C   UNL A   1      51.056  27.949  24.588  1.00  0.00     0.173 A 
ATOM     71  C   UNL A   1      51.493  27.497  26.908  1.00  0.00     0.173 A 
ATOM     72  F   UNL A   1      50.212  28.202  23.577  1.00  0.00    -0.203 F 
ATOM     73  C   UNL A   1      52.417  27.839  24.314  1.00  0.00     0.198 A 
ATOM     74  C   UNL A   1      52.855  27.419  26.636  1.00  0.00     0.198 A 
ATOM     75  F   UNL A   1      51.077  27.324  28.172  1.00  0.00    -0.203 F 
ATOM     76  F   UNL A   1      52.858  27.974  23.056  1.00  0.00    -0.200 F 
ATOM     77  C   UNL A   1      53.316  27.584  25.339  1.00  0.00     0.200 A 
ATOM     78  F   UNL A   1      53.723  27.187  27.630  1.00  0.00    -0.200 F 
ATOM     79  F   UNL A   1      54.627  27.495  25.076  1.00  0.00    -0.200 F 
ENDBRANCH  55  69
BRANCH  56  80
ATOM     80  C   UNL A   1      40.923  28.375  28.425  1.00  0.00     0.064 A 
ATOM     81  C   UNL A   1      39.951  28.910  27.567  1.00  0.00     0.173 A 
ATOM     82  C   UNL A   1      40.512  27.976  29.705  1.00  0.00     0.173 A 
ATOM     83  F   UNL A   1      40.297  29.326  26.340  1.00  0.00    -0.203 F 
ATOM     84  C   UNL A   1      38.631  29.073  27.985  1.00  0.00     0.198 A 
ATOM     85  C   UNL A   1      39.186  28.109  30.110  1.00  0.00     0.198 A 
ATOM     86  F   UNL A   1      41.401  27.454  30.564  1.00  0.00    -0.203 F 
ATOM     87  F   UNL A   1      37.738  29.646  27.167  1.00  0.00    -0.200 F 
ATOM     88  C   UNL A   1      38.249  28.670  29.256  1.00  0.00     0.200 A 
ATOM     89  F   UNL A   1      38.817  27.703  31.333  1.00  0.00    -0.200 F 
ATOM     90  F   UNL A   1      36.983  28.832  29.659  1.00  0.00    -0.200 F 
ENDBRANCH  56  80
BRANCH  68  91
ATOM     91  C   UNL A   1      46.247  32.863  28.581  1.00  0.00     0.064 A 
ATOM     92  C   UNL A   1      46.612  33.209  29.891  1.00  0.00     0.173 A 
ATOM     93  C   UNL A   1      46.019  33.902  27.666  1.00  0.00     0.173 A 
ATOM     94  F   UNL A   1      46.825  32.255  30.809  1.00  0.00    -0.203 F 
ATOM     95  C   UNL A   1      46.714  34.544  30.275  1.00  0.00     0.198 A 
ATOM     96  C   UNL A   1      46.158  35.234  28.044  1.00  0.00     0.198 A 
ATOM     97  F   UNL A   1      45.677  33.625  26.399  1.00  0.00    -0.203 F 
ATOM     98  F   UNL A   1      47.013  34.853  31.545  1.00  0.00    -0.200 F 
ATOM     99  C   UNL A   1      46.497  35.555  29.349  1.00  0.00     0.200 A 
ATOM    100  F   UNL A   1      45.963  36.208  27.144  1.00  0.00    -0.200 F 
ATOM    101  F   UNL A   1      46.606  36.838  29.718  1.00  0.00    -0.200 F 
ENDBRANCH  68  91
ENDBRANCH  42  43
ENDBRANCH  34  37
ENDBRANCH  32  33
ENDBRANCH  31  32
ENDBRANCH  30  31
ENDBRANCH  29  30
ENDBRANCH   1  29
TORSDOF 17
ENDMDL
MODEL 3
REMARK VINA RESULT:     -11.5      1.042      2.018
REMARK SMILES CC(C)c1ccc(NC(=O)C[C@H]2SC[C@@H](C(=O)NCCCCCCNC(=O)c3ccc(-c4c5nc(c(-c6c(F)c(F)c(F)c(F)c6F)c6ccc([nH]6)c(-c6c(F)c(F)c(F)c(F)c6F)c6nc(c(-c7c(F)c(F)c(F)c(F)c7F)c7ccc4[nH]7)C=C6)C=C5)cc3)NC2=O)cc1
REMARK SMILES IDX 20 1 19 2 18 3 16 4 17 5 15 7 12 8 13 9 92 10 14 11 91 12
REMARK SMILES IDX 93 13 11 15 9 16 8 17 10 19 7 20 4 21 5 22 95 23 6 24 94 25
REMARK SMILES IDX 2 26 1 27 3 28 21 29 22 30 23 31 24 32 25 33 26 34 27 36
REMARK SMILES IDX 28 37 29 38 90 39 30 40 89 41 31 42 32 43 33 44 83 45 34 46
REMARK SMILES IDX 88 47 82 48 84 49 35 50 87 51 81 52 80 53 36 55 68 56 48 57
REMARK SMILES IDX 67 58 49 59 52 60 66 61 85 62 50 63 51 64 65 66 86 67 53 68
REMARK SMILES IDX 37 69 38 70 46 71 39 72 40 73 44 74 47 75 41 76 42 77 45 78
REMARK SMILES IDX 43 79 69 80 70 81 78 82 71 83 72 84 76 85 79 86 73 87 74 88
REMARK SMILES IDX 77 89 75 90 54 91 55 92 63 93 56 94 57 95 61 96 64 97 58 98
REMARK SMILES IDX 59 99 62 100 60 101
REMARK H PARENT 18 6 91 14 8 18 25 35 84 54 52 65
REMARK Flexibility Score: inf
ROOT
ATOM      1  C   UNL A   1      34.482  31.819  28.869  1.00  0.00     0.021 C 
ENDROOT
BRANCH   1   2
ATOM      2  C   UNL A   1      33.644  31.631  27.605  1.00  0.00     0.116 C 
BRANCH   2   3
ATOM      3  N   UNL A   1      33.219  30.252  27.524  1.00  0.00    -0.354 N 
ATOM      4  C   UNL A   1      32.184  29.763  26.776  1.00  0.00     0.243 C 
ATOM      5  O   UNL A   1      31.572  28.793  27.220  1.00  0.00    -0.273 OA
ATOM      6  H   UNL A   1      33.726  29.600  28.060  1.00  0.00     0.163 HD
BRANCH   4   7
ATOM      7  C   UNL A   1      32.055  30.259  25.320  1.00  0.00     0.181 C 
ATOM      8  C   UNL A   1      32.024  27.695  23.662  1.00  0.00     0.145 C 
ATOM      9  S   UNL A   1      30.377  28.218  24.314  1.00  0.00    -0.145 SA
ATOM     10  C   UNL A   1      33.199  28.283  24.454  1.00  0.00     0.234 C 
ATOM     11  C   UNL A   1      30.712  29.966  24.670  1.00  0.00     0.105 C 
ATOM     12  N   UNL A   1      33.196  29.643  24.662  1.00  0.00    -0.343 N 
ATOM     13  O   UNL A   1      34.201  27.680  24.822  1.00  0.00    -0.274 OA
ATOM     14  H   UNL A   1      33.959  30.193  24.370  1.00  0.00     0.164 HD
BRANCH   8  15
ATOM     15  C   UNL A   1      31.986  26.174  23.452  1.00  0.00     0.124 C 
BRANCH  15  16
ATOM     16  C   UNL A   1      31.966  25.602  22.050  1.00  0.00     0.226 C 
ATOM     17  N   UNL A   1      32.477  24.386  21.720  1.00  0.00    -0.326 N 
ATOM     18  H   UNL A   1      32.380  24.161  20.766  1.00  0.00     0.169 HD
ATOM     19  O   UNL A   1      31.472  26.269  21.132  1.00  0.00    -0.275 OA
BRANCH  17  20
ATOM     20  C   UNL A   1      33.114  23.393  22.471  1.00  0.00     0.041 A 
ATOM     21  C   UNL A   1      34.159  21.382  24.147  1.00  0.00    -0.045 A 
ATOM     22  C   UNL A   1      34.944  22.476  23.757  1.00  0.00     0.006 A 
ATOM     23  C   UNL A   1      32.853  21.289  23.652  1.00  0.00     0.006 A 
ATOM     24  C   UNL A   1      34.429  23.467  22.915  1.00  0.00     0.026 A 
ATOM     25  C   UNL A   1      32.344  22.276  22.809  1.00  0.00     0.026 A 
BRANCH  21  26
ATOM     26  C   UNL A   1      34.737  20.326  25.069  1.00  0.00     0.013 C 
ATOM     27  C   UNL A   1      34.242  18.924  24.701  1.00  0.00     0.012 C 
ATOM     28  C   UNL A   1      36.265  20.381  25.084  1.00  0.00     0.012 C 
ENDBRANCH  21  26
ENDBRANCH  17  20
ENDBRANCH  15  16
ENDBRANCH   8  15
ENDBRANCH   4   7
ENDBRANCH   2   3
ENDBRANCH   1   2
BRANCH   1  29
ATOM     29  C   UNL A   1      35.234  33.160  28.912  1.00  0.00     0.002 C 
BRANCH  29  30
ATOM     30  C   UNL A   1      34.532  34.312  28.185  1.00  0.00     0.002 C 
BRANCH  30  31
ATOM     31  C   UNL A   1      33.240  34.790  28.851  1.00  0.00     0.021 C 
BRANCH  31  32
ATOM     32  C   UNL A   1      33.342  36.165  29.493  1.00  0.00     0.116 C 
BRANCH  32  33
ATOM     33  N   UNL A   1      32.535  36.268  30.697  1.00  0.00    -0.352 N 
ATOM     34  C   UNL A   1      32.702  35.632  31.899  1.00  0.00     0.251 C 
ATOM     35  H   UNL A   1      31.764  36.877  30.640  1.00  0.00     0.163 HD
ATOM     36  O   UNL A   1      31.822  35.678  32.756  1.00  0.00    -0.269 OA
BRANCH  34  37
ATOM     37  C   UNL A   1      33.940  34.868  32.155  1.00  0.00     0.039 A 
ATOM     38  C   UNL A   1      35.159  35.549  32.187  1.00  0.00     0.014 A 
ATOM     39  C   UNL A   1      33.897  33.488  32.370  1.00  0.00     0.014 A 
ATOM     40  C   UNL A   1      36.329  34.853  32.491  1.00  0.00     0.010 A 
ATOM     41  C   UNL A   1      35.052  32.810  32.746  1.00  0.00     0.010 A 
ATOM     42  C   UNL A   1      36.281  33.484  32.805  1.00  0.00    -0.014 A 
BRANCH  42  43
ATOM     43  C   UNL A   1      37.508  32.742  33.192  1.00  0.00     0.031 A 
ATOM     44  C   UNL A   1      38.196  33.051  34.494  1.00  0.00     0.074 A 
ATOM     45  C   UNL A   1      38.036  31.839  32.345  1.00  0.00     0.049 A 
ATOM     46  N   UNL A   1      39.309  32.559  34.979  1.00  0.00    -0.248 NA
ATOM     47  C   UNL A   1      37.566  34.065  35.355  1.00  0.00     0.031 C 
ATOM     48  C   UNL A   1      37.488  31.486  31.034  1.00  0.00     0.029 A 
ATOM     49  N   UNL A   1      39.160  31.056  32.453  1.00  0.00    -0.354 N 
ATOM     50  C   UNL A   1      39.520  33.217  36.183  1.00  0.00     0.074 A 
ATOM     51  C   UNL A   1      38.447  34.175  36.337  1.00  0.00     0.031 C 
ATOM     52  C   UNL A   1      38.262  30.543  30.471  1.00  0.00     0.029 A 
ATOM     53  C   UNL A   1      39.383  30.255  31.360  1.00  0.00     0.049 A 
ATOM     54  H   UNL A   1      39.752  31.070  33.240  1.00  0.00     0.167 HD
ATOM     55  C   UNL A   1      40.510  33.024  37.088  1.00  0.00     0.037 A 
ATOM     56  C   UNL A   1      40.385  29.393  31.100  1.00  0.00     0.037 A 
ATOM     57  C   UNL A   1      41.552  32.041  36.949  1.00  0.00     0.049 A 
ATOM     58  C   UNL A   1      41.472  29.203  32.126  1.00  0.00     0.074 A 
ATOM     59  C   UNL A   1      42.548  31.709  37.850  1.00  0.00     0.029 A 
ATOM     60  N   UNL A   1      41.734  31.235  35.835  1.00  0.00    -0.354 N 
ATOM     61  N   UNL A   1      41.610  29.767  33.301  1.00  0.00    -0.248 NA
ATOM     62  C   UNL A   1      42.540  28.251  31.789  1.00  0.00     0.031 C 
ATOM     63  C   UNL A   1      43.368  30.745  37.259  1.00  0.00     0.029 A 
ATOM     64  C   UNL A   1      42.848  30.431  36.014  1.00  0.00     0.049 A 
ATOM     65  H   UNL A   1      41.158  31.235  35.037  1.00  0.00     0.167 HD
ATOM     66  C   UNL A   1      42.756  29.212  33.857  1.00  0.00     0.074 A 
ATOM     67  C   UNL A   1      43.266  28.256  32.897  1.00  0.00     0.031 C 
ATOM     68  C   UNL A   1      43.334  29.471  35.056  1.00  0.00     0.037 A 
BRANCH  55  69
ATOM     69  C   UNL A   1      40.524  33.892  38.312  1.00  0.00     0.064 A 
ATOM     70  C   UNL A   1      39.813  33.548  39.472  1.00  0.00     0.173 A 
ATOM     71  C   UNL A   1      41.316  35.051  38.349  1.00  0.00     0.173 A 
ATOM     72  F   UNL A   1      39.033  32.457  39.487  1.00  0.00    -0.203 F 
ATOM     73  C   UNL A   1      39.879  34.342  40.614  1.00  0.00     0.198 A 
ATOM     74  C   UNL A   1      41.403  35.824  39.502  1.00  0.00     0.198 A 
ATOM     75  F   UNL A   1      42.020  35.422  37.269  1.00  0.00    -0.203 F 
ATOM     76  F   UNL A   1      39.160  34.014  41.697  1.00  0.00    -0.200 F 
ATOM     77  C   UNL A   1      40.681  35.473  40.633  1.00  0.00     0.200 A 
ATOM     78  F   UNL A   1      42.191  36.908  39.523  1.00  0.00    -0.200 F 
ATOM     79  F   UNL A   1      40.756  36.226  41.738  1.00  0.00    -0.200 F 
ENDBRANCH  55  69
BRANCH  56  80
ATOM     80  C   UNL A   1      40.409  28.630  29.824  1.00  0.00     0.064 A 
ATOM     81  C   UNL A   1      41.131  29.101  28.716  1.00  0.00     0.173 A 
ATOM     82  C   UNL A   1      39.682  27.441  29.667  1.00  0.00     0.173 A 
ATOM     83  F   UNL A   1      41.825  30.245  28.808  1.00  0.00    -0.203 F 
ATOM     84  C   UNL A   1      41.097  28.431  27.495  1.00  0.00     0.198 A 
ATOM     85  C   UNL A   1      39.676  26.754  28.456  1.00  0.00     0.198 A 
ATOM     86  F   UNL A   1      38.978  26.943  30.696  1.00  0.00    -0.203 F 
ATOM     87  F   UNL A   1      41.743  28.938  26.436  1.00  0.00    -0.200 F 
ATOM     88  C   UNL A   1      40.371  27.256  27.366  1.00  0.00     0.200 A 
ATOM     89  F   UNL A   1      38.986  25.610  28.340  1.00  0.00    -0.200 F 
ATOM     90  F   UNL A   1      40.333  26.616  26.191  1.00  0.00    -0.200 F 
ENDBRANCH  56  80
BRANCH  68  91
ATOM     91  C   UNL A   1      44.555  28.677  35.420  1.00  0.00     0.064 A 
ATOM     92  C   UNL A   1      44.463  27.449  36.092  1.00  0.00     0.173 A 
ATOM     93  C   UNL A   1      45.831  29.132  35.055  1.00  0.00     0.173 A 
ATOM     94  F   UNL A   1      43.268  26.975  36.476  1.00  0.00    -0.203 F 
ATOM     95  C   UNL A   1      45.607  26.722  36.411  1.00  0.00     0.198 A 
ATOM     96  C   UNL A   1      46.969  28.386  35.344  1.00  0.00     0.198 A 
ATOM     97  F   UNL A   1      45.973  30.296  34.403  1.00  0.00    -0.203 F 
ATOM     98  F   UNL A   1      45.500  25.577  37.100  1.00  0.00    -0.200 F 
ATOM     99  C   UNL A   1      46.858  27.186  36.030  1.00  0.00     0.200 A 
ATOM    100  F   UNL A   1      48.174  28.829  34.960  1.00  0.00    -0.200 F 
ATOM    101  F   UNL A   1      47.956  26.480  36.330  1.00  0.00    -0.200 F 
ENDBRANCH  68  91
ENDBRANCH  42  43
ENDBRANCH  34  37
ENDBRANCH  32  33
ENDBRANCH  31  32
ENDBRANCH  30  31
ENDBRANCH  29  30
ENDBRANCH   1  29
TORSDOF 17
ENDMDL
