MODEL 1
REMARK VINA RESULT:     -11.7      0.000      0.000
REMARK SMILES CCCC[C@H](C(=O)NCCCCCCNC(=O)c1ccc(-c2c3nc(c(-c4c(F)c(F)c(F)c(F)c4F)c4ccc([nH]4)c(-c4c(F)c(F)c(F)c(F)c4F)c4nc(c(-c5c(F)c(F)c(F)c(F)c5F)c5ccc2[nH]5)C=C4)C=C3)cc1)[C@H](O)c1ccc(C(F)(F)F)cc1
REMARK SMILES IDX 11 1 10 2 9 3 8 4 6 5 7 6 5 8 4 9 3 10 2 11 1 12 81 13 83 14
REMARK SMILES IDX 84 15 92 16 85 17 91 18 86 19 87 20 88 21 89 22 90 23 82 24
REMARK SMILES IDX 12 26 13 27 14 28 15 29 16 30 17 32 18 33 19 34 80 35 20 36
REMARK SMILES IDX 79 37 21 38 22 39 23 40 73 41 24 42 78 43 72 44 74 45 25 46
REMARK SMILES IDX 77 47 71 48 70 49 26 51 58 52 38 53 57 54 39 55 42 56 56 57
REMARK SMILES IDX 75 58 40 59 41 60 55 62 76 63 43 64 27 65 28 66 36 67 29 68
REMARK SMILES IDX 30 69 34 70 37 71 31 72 32 73 35 74 33 75 59 76 60 77 68 78
REMARK SMILES IDX 61 79 62 80 66 81 69 82 63 83 64 84 67 85 65 86 44 87 45 88
REMARK SMILES IDX 53 89 46 90 47 91 51 92 54 93 48 94 49 95 52 96 50 97
REMARK H PARENT 8 7 82 25 15 31 74 50 42 61
REMARK Flexibility Score: inf
ROOT
ATOM      1  C   UNL A   1      31.627  29.839  25.327  1.00  0.00     0.002 C 
ENDROOT
BRANCH   1   2
ATOM      2  C   UNL A   1      31.632  28.309  25.313  1.00  0.00     0.021 C 
BRANCH   2   3
ATOM      3  C   UNL A   1      32.562  27.667  26.345  1.00  0.00     0.116 C 
BRANCH   3   4
ATOM      4  N   UNL A   1      31.973  26.471  26.909  1.00  0.00    -0.356 N 
ATOM      5  C   UNL A   1      31.923  25.188  26.471  1.00  0.00     0.226 C 
ATOM      6  O   UNL A   1      31.261  24.406  27.161  1.00  0.00    -0.275 OA
ATOM      7  H   UNL A   1      31.523  26.616  27.772  1.00  0.00     0.163 HD
BRANCH   5   8
ATOM      8  C   UNL A   1      32.625  24.677  25.208  1.00  0.00     0.111 C 
BRANCH   8   9
ATOM      9  C   UNL A   1      34.014  24.029  25.466  1.00  0.00     0.016 C 
BRANCH   9  10
ATOM     10  C   UNL A   1      35.178  24.090  24.466  1.00  0.00     0.001 C 
BRANCH  10  11
ATOM     11  C   UNL A   1      35.603  22.811  23.743  1.00  0.00    -0.003 C 
ATOM     12  C   UNL A   1      35.595  21.576  24.630  1.00  0.00     0.004 C 
ENDBRANCH  10  11
ENDBRANCH   9  10
ENDBRANCH   8   9
BRANCH   8  13
ATOM     13  C   UNL A   1      31.663  24.016  24.203  1.00  0.00     0.157 C 
BRANCH  13  14
ATOM     14  C   UNL A   1      31.854  22.511  24.037  1.00  0.00    -0.019 A 
ATOM     15  C   UNL A   1      31.857  21.670  25.158  1.00  0.00     0.007 A 
ATOM     16  C   UNL A   1      32.082  21.933  22.775  1.00  0.00     0.007 A 
ATOM     17  C   UNL A   1      32.144  20.307  25.029  1.00  0.00     0.013 A 
ATOM     18  C   UNL A   1      32.374  20.574  22.646  1.00  0.00     0.013 A 
ATOM     19  C   UNL A   1      32.430  19.749  23.774  1.00  0.00     0.056 A 
BRANCH  19  20
ATOM     20  C   UNL A   1      32.816  18.296  23.652  1.00  0.00     0.416 C 
ATOM     21  F   UNL A   1      32.468  17.766  22.446  1.00  0.00    -0.166 F 
ATOM     22  F   UNL A   1      34.157  18.096  23.775  1.00  0.00    -0.166 F 
ATOM     23  F   UNL A   1      32.232  17.496  24.588  1.00  0.00    -0.166 F 
ENDBRANCH  19  20
ENDBRANCH  13  14
BRANCH  13  24
ATOM     24  O   UNL A   1      30.297  24.225  24.568  1.00  0.00    -0.388 OA
ATOM     25  H   UNL A   1      29.922  23.397  24.907  1.00  0.00     0.211 HD
ENDBRANCH  13  24
ENDBRANCH   8  13
ENDBRANCH   5   8
ENDBRANCH   3   4
ENDBRANCH   2   3
ENDBRANCH   1   2
BRANCH   1  26
ATOM     26  C   UNL A   1      31.677  30.477  26.719  1.00  0.00     0.002 C 
BRANCH  26  27
ATOM     27  C   UNL A   1      31.542  32.003  26.753  1.00  0.00     0.021 C 
BRANCH  27  28
ATOM     28  C   UNL A   1      32.787  32.753  27.223  1.00  0.00     0.116 C 
BRANCH  28  29
ATOM     29  N   UNL A   1      32.494  34.129  27.590  1.00  0.00    -0.352 N 
ATOM     30  C   UNL A   1      33.022  34.905  28.591  1.00  0.00     0.251 C 
ATOM     31  H   UNL A   1      31.811  34.572  27.035  1.00  0.00     0.163 HD
ATOM     32  O   UNL A   1      32.504  35.978  28.880  1.00  0.00    -0.269 OA
BRANCH  30  33
ATOM     33  C   UNL A   1      34.209  34.440  29.338  1.00  0.00     0.039 A 
ATOM     34  C   UNL A   1      34.029  33.848  30.591  1.00  0.00     0.014 A 
ATOM     35  C   UNL A   1      35.494  34.598  28.812  1.00  0.00     0.014 A 
ATOM     36  C   UNL A   1      35.131  33.341  31.282  1.00  0.00     0.010 A 
ATOM     37  C   UNL A   1      36.586  34.041  29.474  1.00  0.00     0.010 A 
ATOM     38  C   UNL A   1      36.411  33.396  30.708  1.00  0.00    -0.014 A 
BRANCH  38  39
ATOM     39  C   UNL A   1      37.574  32.742  31.358  1.00  0.00     0.031 A 
ATOM     40  C   UNL A   1      38.251  31.570  30.708  1.00  0.00     0.074 A 
ATOM     41  C   UNL A   1      37.962  33.156  32.579  1.00  0.00     0.049 A 
ATOM     42  N   UNL A   1      39.212  30.810  31.170  1.00  0.00    -0.248 NA
ATOM     43  C   UNL A   1      37.768  31.186  29.373  1.00  0.00     0.031 C 
ATOM     44  C   UNL A   1      37.356  34.257  33.330  1.00  0.00     0.029 A 
ATOM     45  N   UNL A   1      38.946  32.688  33.416  1.00  0.00    -0.354 N 
ATOM     46  C   UNL A   1      39.442  29.855  30.189  1.00  0.00     0.074 A 
ATOM     47  C   UNL A   1      38.492  30.102  29.127  1.00  0.00     0.031 C 
ATOM     48  C   UNL A   1      37.984  34.386  34.508  1.00  0.00     0.029 A 
ATOM     49  C   UNL A   1      39.009  33.352  34.616  1.00  0.00     0.049 A 
ATOM     50  H   UNL A   1      39.548  31.946  33.176  1.00  0.00     0.167 HD
ATOM     51  C   UNL A   1      40.374  28.872  30.173  1.00  0.00     0.037 A 
ATOM     52  C   UNL A   1      39.790  33.139  35.691  1.00  0.00     0.037 A 
ATOM     53  C   UNL A   1      41.331  28.644  31.225  1.00  0.00     0.049 A 
ATOM     54  C   UNL A   1      40.795  32.021  35.660  1.00  0.00     0.074 A 
ATOM     55  C   UNL A   1      42.367  27.727  31.265  1.00  0.00     0.029 A 
ATOM     56  N   UNL A   1      41.361  29.333  32.428  1.00  0.00    -0.354 N 
ATOM     57  N   UNL A   1      41.054  31.171  34.696  1.00  0.00    -0.248 NA
ATOM     58  C   UNL A   1      41.612  31.829  36.866  1.00  0.00     0.031 C 
ATOM     59  C   UNL A   1      42.991  27.827  32.513  1.00  0.00     0.029 A 
ATOM     60  C   UNL A   1      42.374  28.837  33.233  1.00  0.00     0.049 A 
ATOM     61  H   UNL A   1      40.752  30.067  32.674  1.00  0.00     0.167 HD
ATOM     62  C   UNL A   1      42.071  30.355  35.171  1.00  0.00     0.074 A 
ATOM     63  C   UNL A   1      42.396  30.823  36.503  1.00  0.00     0.031 C 
ATOM     64  C   UNL A   1      42.678  29.308  34.560  1.00  0.00     0.037 A 
BRANCH  51  65
ATOM     65  C   UNL A   1      40.410  27.965  28.978  1.00  0.00     0.064 A 
ATOM     66  C   UNL A   1      39.659  26.781  28.931  1.00  0.00     0.173 A 
ATOM     67  C   UNL A   1      41.166  28.308  27.847  1.00  0.00     0.173 A 
ATOM     68  F   UNL A   1      38.927  26.404  29.991  1.00  0.00    -0.203 F 
ATOM     69  C   UNL A   1      39.684  25.961  27.807  1.00  0.00     0.198 A 
ATOM     70  C   UNL A   1      41.166  27.500  26.713  1.00  0.00     0.198 A 
ATOM     71  F   UNL A   1      41.896  29.433  27.835  1.00  0.00    -0.203 F 
ATOM     72  F   UNL A   1      38.992  24.813  27.802  1.00  0.00    -0.200 F 
ATOM     73  C   UNL A   1      40.431  26.323  26.696  1.00  0.00     0.200 A 
ATOM     74  F   UNL A   1      41.878  27.858  25.635  1.00  0.00    -0.200 F 
ATOM     75  F   UNL A   1      40.446  25.537  25.611  1.00  0.00    -0.200 F 
ENDBRANCH  51  65
BRANCH  52  76
ATOM     76  C   UNL A   1      39.653  34.008  36.888  1.00  0.00     0.064 A 
ATOM     77  C   UNL A   1      40.336  35.230  36.972  1.00  0.00     0.173 A 
ATOM     78  C   UNL A   1      38.836  33.641  37.967  1.00  0.00     0.173 A 
ATOM     79  F   UNL A   1      41.147  35.613  35.975  1.00  0.00    -0.203 F 
ATOM     80  C   UNL A   1      40.216  36.044  38.096  1.00  0.00     0.198 A 
ATOM     81  C   UNL A   1      38.696  34.469  39.079  1.00  0.00     0.198 A 
ATOM     82  F   UNL A   1      38.159  32.484  37.934  1.00  0.00    -0.203 F 
ATOM     83  F   UNL A   1      40.910  37.189  38.167  1.00  0.00    -0.200 F 
ATOM     84  C   UNL A   1      39.392  35.667  39.144  1.00  0.00     0.200 A 
ATOM     85  F   UNL A   1      37.887  34.108  40.083  1.00  0.00    -0.200 F 
ATOM     86  F   UNL A   1      39.271  36.455  40.222  1.00  0.00    -0.200 F 
ENDBRANCH  52  76
BRANCH  64  87
ATOM     87  C   UNL A   1      43.757  28.599  35.323  1.00  0.00     0.064 A 
ATOM     88  C   UNL A   1      45.100  28.988  35.219  1.00  0.00     0.173 A 
ATOM     89  C   UNL A   1      43.440  27.554  36.203  1.00  0.00     0.173 A 
ATOM     90  F   UNL A   1      45.456  29.970  34.377  1.00  0.00    -0.203 F 
ATOM     91  C   UNL A   1      46.090  28.345  35.959  1.00  0.00     0.198 A 
ATOM     92  C   UNL A   1      44.428  26.932  36.962  1.00  0.00     0.198 A 
ATOM     93  F   UNL A   1      42.169  27.148  36.341  1.00  0.00    -0.203 F 
ATOM     94  F   UNL A   1      47.372  28.708  35.815  1.00  0.00    -0.200 F 
ATOM     95  C   UNL A   1      45.752  27.325  36.834  1.00  0.00     0.200 A 
ATOM     96  F   UNL A   1      44.099  25.955  37.816  1.00  0.00    -0.200 F 
ATOM     97  F   UNL A   1      46.705  26.714  37.554  1.00  0.00    -0.200 F 
ENDBRANCH  64  87
ENDBRANCH  38  39
ENDBRANCH  30  33
ENDBRANCH  28  29
ENDBRANCH  27  28
ENDBRANCH  26  27
ENDBRANCH   1  26
TORSDOF 20
ENDMDL
MODEL 2
REMARK VINA RESULT:     -11.5      2.624      3.766
REMARK SMILES CCCC[C@H](C(=O)NCCCCCCNC(=O)c1ccc(-c2c3nc(c(-c4c(F)c(F)c(F)c(F)c4F)c4ccc([nH]4)c(-c4c(F)c(F)c(F)c(F)c4F)c4nc(c(-c5c(F)c(F)c(F)c(F)c5F)c5ccc2[nH]5)C=C4)C=C3)cc1)[C@H](O)c1ccc(C(F)(F)F)cc1
REMARK SMILES IDX 11 1 10 2 9 3 8 4 6 5 7 6 5 8 4 9 3 10 2 11 1 12 81 13 83 14
REMARK SMILES IDX 84 15 92 16 85 17 91 18 86 19 87 20 88 21 89 22 90 23 82 24
REMARK SMILES IDX 12 26 13 27 14 28 15 29 16 30 17 32 18 33 19 34 80 35 20 36
REMARK SMILES IDX 79 37 21 38 22 39 23 40 73 41 24 42 78 43 72 44 74 45 25 46
REMARK SMILES IDX 77 47 71 48 70 49 26 51 58 52 38 53 57 54 39 55 42 56 56 57
REMARK SMILES IDX 75 58 40 59 41 60 55 62 76 63 43 64 27 65 28 66 36 67 29 68
REMARK SMILES IDX 30 69 34 70 37 71 31 72 32 73 35 74 33 75 59 76 60 77 68 78
REMARK SMILES IDX 61 79 62 80 66 81 69 82 63 83 64 84 67 85 65 86 44 87 45 88
REMARK SMILES IDX 53 89 46 90 47 91 51 92 54 93 48 94 49 95 52 96 50 97
REMARK H PARENT 8 7 82 25 15 31 74 50 42 61
REMARK Flexibility Score: inf
ROOT
ATOM      1  C   UNL A   1      33.114  30.078  26.101  1.00  0.00     0.002 C 
ENDROOT
BRANCH   1   2
ATOM      2  C   UNL A   1      33.367  28.778  25.334  1.00  0.00     0.021 C 
BRANCH   2   3
ATOM      3  C   UNL A   1      33.663  27.565  26.220  1.00  0.00     0.116 C 
BRANCH   3   4
ATOM      4  N   UNL A   1      32.455  26.827  26.519  1.00  0.00    -0.356 N 
ATOM      5  C   UNL A   1      31.737  25.927  25.801  1.00  0.00     0.226 C 
ATOM      6  O   UNL A   1      30.688  25.533  26.321  1.00  0.00    -0.275 OA
ATOM      7  H   UNL A   1      32.082  27.014  27.411  1.00  0.00     0.163 HD
BRANCH   5   8
ATOM      8  C   UNL A   1      32.150  25.391  24.426  1.00  0.00     0.111 C 
BRANCH   8   9
ATOM      9  C   UNL A   1      33.083  24.148  24.479  1.00  0.00     0.016 C 
BRANCH   9  10
ATOM     10  C   UNL A   1      34.277  23.944  23.537  1.00  0.00     0.001 C 
BRANCH  10  11
ATOM     11  C   UNL A   1      35.188  22.732  23.744  1.00  0.00    -0.003 C 
ATOM     12  C   UNL A   1      36.612  22.947  23.255  1.00  0.00     0.004 C 
ENDBRANCH  10  11
ENDBRANCH   9  10
ENDBRANCH   8   9
BRANCH   8  13
ATOM     13  C   UNL A   1      31.011  25.432  23.391  1.00  0.00     0.157 C 
BRANCH  13  14
ATOM     14  C   UNL A   1      30.347  26.796  23.230  1.00  0.00    -0.019 A 
ATOM     15  C   UNL A   1      31.098  27.903  22.810  1.00  0.00     0.007 A 
ATOM     16  C   UNL A   1      28.991  26.996  23.543  1.00  0.00     0.007 A 
ATOM     17  C   UNL A   1      30.528  29.180  22.768  1.00  0.00     0.013 A 
ATOM     18  C   UNL A   1      28.422  28.271  23.507  1.00  0.00     0.013 A 
ATOM     19  C   UNL A   1      29.189  29.381  23.140  1.00  0.00     0.056 A 
BRANCH  19  20
ATOM     20  C   UNL A   1      28.604  30.771  23.169  1.00  0.00     0.416 C 
ATOM     21  F   UNL A   1      28.519  31.323  21.926  1.00  0.00    -0.166 F 
ATOM     22  F   UNL A   1      27.343  30.800  23.678  1.00  0.00    -0.166 F 
ATOM     23  F   UNL A   1      29.328  31.653  23.915  1.00  0.00    -0.166 F 
ENDBRANCH  19  20
ENDBRANCH  13  14
BRANCH  13  24
ATOM     24  O   UNL A   1      31.464  25.033  22.095  1.00  0.00    -0.388 OA
ATOM     25  H   UNL A   1      31.671  25.820  21.568  1.00  0.00     0.211 HD
ENDBRANCH  13  24
ENDBRANCH   8  13
ENDBRANCH   5   8
ENDBRANCH   3   4
ENDBRANCH   2   3
ENDBRANCH   1   2
BRANCH   1  26
ATOM     26  C   UNL A   1      31.653  30.536  26.141  1.00  0.00     0.002 C 
BRANCH  26  27
ATOM     27  C   UNL A   1      31.426  31.988  26.573  1.00  0.00     0.021 C 
BRANCH  27  28
ATOM     28  C   UNL A   1      32.595  32.633  27.315  1.00  0.00     0.116 C 
BRANCH  28  29
ATOM     29  N   UNL A   1      32.361  34.043  27.587  1.00  0.00    -0.352 N 
ATOM     30  C   UNL A   1      32.947  34.869  28.514  1.00  0.00     0.251 C 
ATOM     31  H   UNL A   1      31.679  34.470  27.021  1.00  0.00     0.163 HD
ATOM     32  O   UNL A   1      32.476  35.979  28.738  1.00  0.00    -0.269 OA
BRANCH  30  33
ATOM     33  C   UNL A   1      34.139  34.415  29.260  1.00  0.00     0.039 A 
ATOM     34  C   UNL A   1      33.966  33.834  30.519  1.00  0.00     0.014 A 
ATOM     35  C   UNL A   1      35.420  34.572  28.727  1.00  0.00     0.014 A 
ATOM     36  C   UNL A   1      35.073  33.337  31.211  1.00  0.00     0.010 A 
ATOM     37  C   UNL A   1      36.517  34.025  29.390  1.00  0.00     0.010 A 
ATOM     38  C   UNL A   1      36.350  33.391  30.630  1.00  0.00    -0.014 A 
BRANCH  38  39
ATOM     39  C   UNL A   1      37.519  32.747  31.281  1.00  0.00     0.031 A 
ATOM     40  C   UNL A   1      38.218  31.593  30.623  1.00  0.00     0.074 A 
ATOM     41  C   UNL A   1      37.892  33.153  32.510  1.00  0.00     0.049 A 
ATOM     42  N   UNL A   1      39.187  30.842  31.083  1.00  0.00    -0.248 NA
ATOM     43  C   UNL A   1      37.751  31.218  29.279  1.00  0.00     0.031 C 
ATOM     44  C   UNL A   1      37.263  34.236  33.268  1.00  0.00     0.029 A 
ATOM     45  N   UNL A   1      38.876  32.690  33.348  1.00  0.00    -0.354 N 
ATOM     46  C   UNL A   1      39.438  29.902  30.092  1.00  0.00     0.074 A 
ATOM     47  C   UNL A   1      38.492  30.148  29.026  1.00  0.00     0.031 C 
ATOM     48  C   UNL A   1      37.880  34.360  34.453  1.00  0.00     0.029 A 
ATOM     49  C   UNL A   1      38.921  33.341  34.556  1.00  0.00     0.049 A 
ATOM     50  H   UNL A   1      39.491  31.960  33.105  1.00  0.00     0.167 HD
ATOM     51  C   UNL A   1      40.386  28.934  30.072  1.00  0.00     0.037 A 
ATOM     52  C   UNL A   1      39.697  33.127  35.634  1.00  0.00     0.037 A 
ATOM     53  C   UNL A   1      41.338  28.708  31.128  1.00  0.00     0.049 A 
ATOM     54  C   UNL A   1      40.719  32.025  35.597  1.00  0.00     0.074 A 
ATOM     55  C   UNL A   1      42.387  27.806  31.165  1.00  0.00     0.029 A 
ATOM     56  N   UNL A   1      41.349  29.384  32.339  1.00  0.00    -0.354 N 
ATOM     57  N   UNL A   1      40.998  31.190  34.626  1.00  0.00    -0.248 NA
ATOM     58  C   UNL A   1      41.530  31.831  36.808  1.00  0.00     0.031 C 
ATOM     59  C   UNL A   1      43.001  27.901  32.418  1.00  0.00     0.029 A 
ATOM     60  C   UNL A   1      42.363  28.893  33.146  1.00  0.00     0.049 A 
ATOM     61  H   UNL A   1      40.727  30.106  32.589  1.00  0.00     0.167 HD
ATOM     62  C   UNL A   1      42.023  30.383  35.099  1.00  0.00     0.074 A 
ATOM     63  C   UNL A   1      42.331  30.841  36.438  1.00  0.00     0.031 C 
ATOM     64  C   UNL A   1      42.651  29.354  34.480  1.00  0.00     0.037 A 
BRANCH  51  65
ATOM     65  C   UNL A   1      40.443  28.042  28.866  1.00  0.00     0.064 A 
ATOM     66  C   UNL A   1      39.726  26.838  28.808  1.00  0.00     0.173 A 
ATOM     67  C   UNL A   1      41.187  28.419  27.737  1.00  0.00     0.173 A 
ATOM     68  F   UNL A   1      39.007  26.429  29.865  1.00  0.00    -0.203 F 
ATOM     69  C   UNL A   1      39.771  26.031  27.675  1.00  0.00     0.198 A 
ATOM     70  C   UNL A   1      41.207  27.623  26.595  1.00  0.00     0.198 A 
ATOM     71  F   UNL A   1      41.886  29.564  27.737  1.00  0.00    -0.203 F 
ATOM     72  F   UNL A   1      39.111  24.865  27.658  1.00  0.00    -0.200 F 
ATOM     73  C   UNL A   1      40.505  26.427  26.566  1.00  0.00     0.200 A 
ATOM     74  F   UNL A   1      41.907  28.014  25.520  1.00  0.00    -0.200 F 
ATOM     75  F   UNL A   1      40.540  25.654  25.472  1.00  0.00    -0.200 F 
ENDBRANCH  51  65
BRANCH  52  76
ATOM     76  C   UNL A   1      39.538  33.980  36.840  1.00  0.00     0.064 A 
ATOM     77  C   UNL A   1      38.754  33.556  37.923  1.00  0.00     0.173 A 
ATOM     78  C   UNL A   1      40.166  35.230  36.939  1.00  0.00     0.173 A 
ATOM     79  F   UNL A   1      38.116  32.378  37.865  1.00  0.00    -0.203 F 
ATOM     80  C   UNL A   1      38.596  34.355  39.053  1.00  0.00     0.198 A 
ATOM     81  C   UNL A   1      40.029  36.016  38.081  1.00  0.00     0.198 A 
ATOM     82  F   UNL A   1      40.930  35.680  35.932  1.00  0.00    -0.203 F 
ATOM     83  F   UNL A   1      37.810  33.942  40.057  1.00  0.00    -0.200 F 
ATOM     84  C   UNL A   1      39.239  35.581  39.134  1.00  0.00     0.200 A 
ATOM     85  F   UNL A   1      40.663  37.194  38.161  1.00  0.00    -0.200 F 
ATOM     86  F   UNL A   1      39.091  36.346  40.224  1.00  0.00    -0.200 F 
ENDBRANCH  52  76
BRANCH  64  87
ATOM     87  C   UNL A   1      43.735  28.652  35.243  1.00  0.00     0.064 A 
ATOM     88  C   UNL A   1      45.073  29.061  35.151  1.00  0.00     0.173 A 
ATOM     89  C   UNL A   1      43.428  27.594  36.111  1.00  0.00     0.173 A 
ATOM     90  F   UNL A   1      45.420  30.056  34.322  1.00  0.00    -0.203 F 
ATOM     91  C   UNL A   1      46.067  28.424  35.891  1.00  0.00     0.198 A 
ATOM     92  C   UNL A   1      44.419  26.978  36.869  1.00  0.00     0.198 A 
ATOM     93  F   UNL A   1      42.161  27.169  36.237  1.00  0.00    -0.203 F 
ATOM     94  F   UNL A   1      47.345  28.806  35.759  1.00  0.00    -0.200 F 
ATOM     95  C   UNL A   1      45.738  27.390  36.754  1.00  0.00     0.200 A 
ATOM     96  F   UNL A   1      44.098  25.988  37.712  1.00  0.00    -0.200 F 
ATOM     97  F   UNL A   1      46.695  26.786  37.473  1.00  0.00    -0.200 F 
ENDBRANCH  64  87
ENDBRANCH  38  39
ENDBRANCH  30  33
ENDBRANCH  28  29
ENDBRANCH  27  28
ENDBRANCH  26  27
ENDBRANCH   1  26
TORSDOF 20
ENDMDL
MODEL 3
REMARK VINA RESULT:     -11.5      2.613      3.808
REMARK SMILES CCCC[C@H](C(=O)NCCCCCCNC(=O)c1ccc(-c2c3nc(c(-c4c(F)c(F)c(F)c(F)c4F)c4ccc([nH]4)c(-c4c(F)c(F)c(F)c(F)c4F)c4nc(c(-c5c(F)c(F)c(F)c(F)c5F)c5ccc2[nH]5)C=C4)C=C3)cc1)[C@H](O)c1ccc(C(F)(F)F)cc1
REMARK SMILES IDX 11 1 10 2 9 3 8 4 6 5 7 6 5 8 4 9 3 10 2 11 1 12 81 13 83 14
REMARK SMILES IDX 84 15 92 16 85 17 91 18 86 19 87 20 88 21 89 22 90 23 82 24
REMARK SMILES IDX 12 26 13 27 14 28 15 29 16 30 17 32 18 33 19 34 80 35 20 36
REMARK SMILES IDX 79 37 21 38 22 39 23 40 73 41 24 42 78 43 72 44 74 45 25 46
REMARK SMILES IDX 77 47 71 48 70 49 26 51 58 52 38 53 57 54 39 55 42 56 56 57
REMARK SMILES IDX 75 58 40 59 41 60 55 62 76 63 43 64 27 65 28 66 36 67 29 68
REMARK SMILES IDX 30 69 34 70 37 71 31 72 32 73 35 74 33 75 59 76 60 77 68 78
REMARK SMILES IDX 61 79 62 80 66 81 69 82 63 83 64 84 67 85 65 86 44 87 45 88
REMARK SMILES IDX 53 89 46 90 47 91 51 92 54 93 48 94 49 95 52 96 50 97
REMARK H PARENT 8 7 82 25 15 31 74 50 42 61
REMARK Flexibility Score: inf
ROOT
ATOM      1  C   UNL A   1      32.804  29.972  27.141  1.00  0.00     0.002 C 
ENDROOT
BRANCH   1   2
ATOM      2  C   UNL A   1      32.608  28.526  27.603  1.00  0.00     0.021 C 
BRANCH   2   3
ATOM      3  C   UNL A   1      32.332  27.530  26.474  1.00  0.00     0.116 C 
BRANCH   3   4
ATOM      4  N   UNL A   1      31.158  26.732  26.753  1.00  0.00    -0.356 N 
ATOM      5  C   UNL A   1      30.594  25.685  26.102  1.00  0.00     0.226 C 
ATOM      6  O   UNL A   1      29.527  25.270  26.565  1.00  0.00    -0.275 OA
ATOM      7  H   UNL A   1      30.677  27.001  27.569  1.00  0.00     0.163 HD
BRANCH   5   8
ATOM      8  C   UNL A   1      31.195  25.011  24.863  1.00  0.00     0.111 C 
BRANCH   8   9
ATOM      9  C   UNL A   1      31.784  23.597  25.127  1.00  0.00     0.016 C 
BRANCH   9  10
ATOM     10  C   UNL A   1      33.278  23.264  25.009  1.00  0.00     0.001 C 
BRANCH  10  11
ATOM     11  C   UNL A   1      33.732  22.252  23.956  1.00  0.00    -0.003 C 
ATOM     12  C   UNL A   1      32.585  21.602  23.199  1.00  0.00     0.004 C 
ENDBRANCH  10  11
ENDBRANCH   9  10
ENDBRANCH   8   9
BRANCH   8  13
ATOM     13  C   UNL A   1      30.379  25.257  23.581  1.00  0.00     0.157 C 
BRANCH  13  14
ATOM     14  C   UNL A   1      29.922  26.700  23.386  1.00  0.00    -0.019 A 
ATOM     15  C   UNL A   1      30.862  27.716  23.169  1.00  0.00     0.007 A 
ATOM     16  C   UNL A   1      28.565  27.060  23.468  1.00  0.00     0.007 A 
ATOM     17  C   UNL A   1      30.464  29.056  23.101  1.00  0.00     0.013 A 
ATOM     18  C   UNL A   1      28.167  28.397  23.407  1.00  0.00     0.013 A 
ATOM     19  C   UNL A   1      29.115  29.413  23.245  1.00  0.00     0.056 A 
BRANCH  19  20
ATOM     20  C   UNL A   1      28.703  30.864  23.251  1.00  0.00     0.416 C 
ATOM     21  F   UNL A   1      28.899  31.463  22.043  1.00  0.00    -0.166 F 
ATOM     22  F   UNL A   1      27.386  31.036  23.545  1.00  0.00    -0.166 F 
ATOM     23  F   UNL A   1      29.389  31.622  24.153  1.00  0.00    -0.166 F 
ENDBRANCH  19  20
ENDBRANCH  13  14
BRANCH  13  24
ATOM     24  O   UNL A   1      31.114  24.891  22.411  1.00  0.00    -0.388 OA
ATOM     25  H   UNL A   1      31.399  25.691  21.944  1.00  0.00     0.211 HD
ENDBRANCH  13  24
ENDBRANCH   8  13
ENDBRANCH   5   8
ENDBRANCH   3   4
ENDBRANCH   2   3
ENDBRANCH   1   2
BRANCH   1  26
ATOM     26  C   UNL A   1      31.581  30.616  26.480  1.00  0.00     0.002 C 
BRANCH  26  27
ATOM     27  C   UNL A   1      31.496  32.142  26.589  1.00  0.00     0.021 C 
BRANCH  27  28
ATOM     28  C   UNL A   1      32.700  32.812  27.249  1.00  0.00     0.116 C 
BRANCH  28  29
ATOM     29  N   UNL A   1      32.431  34.196  27.605  1.00  0.00    -0.352 N 
ATOM     30  C   UNL A   1      32.983  34.975  28.591  1.00  0.00     0.251 C 
ATOM     31  H   UNL A   1      31.749  34.644  27.053  1.00  0.00     0.163 HD
ATOM     32  O   UNL A   1      32.484  36.058  28.875  1.00  0.00    -0.269 OA
BRANCH  30  33
ATOM     33  C   UNL A   1      34.172  34.500  29.330  1.00  0.00     0.039 A 
ATOM     34  C   UNL A   1      33.998  33.926  30.591  1.00  0.00     0.014 A 
ATOM     35  C   UNL A   1      35.452  34.630  28.785  1.00  0.00     0.014 A 
ATOM     36  C   UNL A   1      35.101  33.410  31.276  1.00  0.00     0.010 A 
ATOM     37  C   UNL A   1      36.543  34.063  29.441  1.00  0.00     0.010 A 
ATOM     38  C   UNL A   1      36.374  33.437  30.685  1.00  0.00    -0.014 A 
BRANCH  38  39
ATOM     39  C   UNL A   1      37.535  32.772  31.328  1.00  0.00     0.031 A 
ATOM     40  C   UNL A   1      38.210  31.607  30.664  1.00  0.00     0.074 A 
ATOM     41  C   UNL A   1      37.921  33.169  32.555  1.00  0.00     0.049 A 
ATOM     42  N   UNL A   1      39.169  30.839  31.118  1.00  0.00    -0.248 NA
ATOM     43  C   UNL A   1      37.729  31.242  29.323  1.00  0.00     0.031 C 
ATOM     44  C   UNL A   1      37.315  34.261  33.319  1.00  0.00     0.029 A 
ATOM     45  N   UNL A   1      38.902  32.688  33.387  1.00  0.00    -0.354 N 
ATOM     46  C   UNL A   1      39.399  29.896  30.125  1.00  0.00     0.074 A 
ATOM     47  C   UNL A   1      38.451  30.160  29.064  1.00  0.00     0.031 C 
ATOM     48  C   UNL A   1      37.941  34.373  34.500  1.00  0.00     0.029 A 
ATOM     49  C   UNL A   1      38.964  33.336  34.596  1.00  0.00     0.049 A 
ATOM     50  H   UNL A   1      39.503  31.948  33.140  1.00  0.00     0.167 HD
ATOM     51  C   UNL A   1      40.329  28.912  30.097  1.00  0.00     0.037 A 
ATOM     52  C   UNL A   1      39.743  33.107  35.670  1.00  0.00     0.037 A 
ATOM     53  C   UNL A   1      41.283  28.668  31.148  1.00  0.00     0.049 A 
ATOM     54  C   UNL A   1      40.746  31.988  35.626  1.00  0.00     0.074 A 
ATOM     55  C   UNL A   1      42.317  27.748  31.178  1.00  0.00     0.029 A 
ATOM     56  N   UNL A   1      41.312  29.342  32.360  1.00  0.00    -0.354 N 
ATOM     57  N   UNL A   1      41.005  31.150  34.652  1.00  0.00    -0.248 NA
ATOM     58  C   UNL A   1      41.560  31.778  36.832  1.00  0.00     0.031 C 
ATOM     59  C   UNL A   1      42.940  27.831  32.428  1.00  0.00     0.029 A 
ATOM     60  C   UNL A   1      42.322  28.833  33.161  1.00  0.00     0.049 A 
ATOM     61  H   UNL A   1      40.704  30.074  32.615  1.00  0.00     0.167 HD
ATOM     62  C   UNL A   1      42.019  30.325  35.118  1.00  0.00     0.074 A 
ATOM     63  C   UNL A   1      42.342  30.775  36.456  1.00  0.00     0.031 C 
ATOM     64  C   UNL A   1      42.626  29.286  34.494  1.00  0.00     0.037 A 
BRANCH  51  65
ATOM     65  C   UNL A   1      40.365  28.021  28.890  1.00  0.00     0.064 A 
ATOM     66  C   UNL A   1      41.116  28.354  27.753  1.00  0.00     0.173 A 
ATOM     67  C   UNL A   1      39.679  26.798  28.889  1.00  0.00     0.173 A 
ATOM     68  F   UNL A   1      41.784  29.517  27.702  1.00  0.00    -0.203 F 
ATOM     69  C   UNL A   1      41.159  27.507  26.650  1.00  0.00     0.198 A 
ATOM     70  C   UNL A   1      39.746  25.939  27.794  1.00  0.00     0.198 A 
ATOM     71  F   UNL A   1      38.951  26.428  29.953  1.00  0.00    -0.203 F 
ATOM     72  F   UNL A   1      41.849  27.865  25.558  1.00  0.00    -0.200 F 
ATOM     73  C   UNL A   1      40.480  26.297  26.673  1.00  0.00     0.200 A 
ATOM     74  F   UNL A   1      39.100  24.766  27.823  1.00  0.00    -0.200 F 
ATOM     75  F   UNL A   1      40.530  25.479  25.613  1.00  0.00    -0.200 F 
ENDBRANCH  51  65
BRANCH  52  76
ATOM     76  C   UNL A   1      39.605  33.961  36.878  1.00  0.00     0.064 A 
ATOM     77  C   UNL A   1      40.274  35.189  36.972  1.00  0.00     0.173 A 
ATOM     78  C   UNL A   1      38.801  33.571  37.960  1.00  0.00     0.173 A 
ATOM     79  F   UNL A   1      41.072  35.593  35.972  1.00  0.00    -0.203 F 
ATOM     80  C   UNL A   1      40.153  35.989  38.106  1.00  0.00     0.198 A 
ATOM     81  C   UNL A   1      38.660  34.385  39.082  1.00  0.00     0.198 A 
ATOM     82  F   UNL A   1      38.137  32.406  37.919  1.00  0.00    -0.203 F 
ATOM     83  F   UNL A   1      40.835  37.140  38.185  1.00  0.00    -0.200 F 
ATOM     84  C   UNL A   1      39.342  35.590  39.156  1.00  0.00     0.200 A 
ATOM     85  F   UNL A   1      37.863  34.002  40.088  1.00  0.00    -0.200 F 
ATOM     86  F   UNL A   1      39.221  36.364  40.243  1.00  0.00    -0.200 F 
ENDBRANCH  52  76
BRANCH  64  87
ATOM     87  C   UNL A   1      43.702  28.564  35.250  1.00  0.00     0.064 A 
ATOM     88  C   UNL A   1      45.052  28.913  35.106  1.00  0.00     0.173 A 
ATOM     89  C   UNL A   1      43.376  27.550  36.162  1.00  0.00     0.173 A 
ATOM     90  F   UNL A   1      45.416  29.864  34.234  1.00  0.00    -0.203 F 
ATOM     91  C   UNL A   1      46.040  28.260  35.839  1.00  0.00     0.198 A 
ATOM     92  C   UNL A   1      44.363  26.918  36.913  1.00  0.00     0.198 A 
ATOM     93  F   UNL A   1      42.097  27.184  36.338  1.00  0.00    -0.203 F 
ATOM     94  F   UNL A   1      47.328  28.582  35.658  1.00  0.00    -0.200 F 
ATOM     95  C   UNL A   1      45.694  27.270  36.747  1.00  0.00     0.200 A 
ATOM     96  F   UNL A   1      44.027  25.971  37.798  1.00  0.00    -0.200 F 
ATOM     97  F   UNL A   1      46.646  26.650  37.459  1.00  0.00    -0.200 F 
ENDBRANCH  64  87
ENDBRANCH  38  39
ENDBRANCH  30  33
ENDBRANCH  28  29
ENDBRANCH  27  28
ENDBRANCH  26  27
ENDBRANCH   1  26
TORSDOF 20
ENDMDL
