MODEL 1
REMARK VINA RESULT:     -12.5      0.000      0.000
REMARK SMILES COc1ccc([N+](=O)[O-])cc1C(=O)N[C@@H](Cc1c[nH]c2ccccc12)C(=O)NCCCCCCNC(=O)c1ccc(-c2c3nc(c(-c4c(F)c(F)c(F)c(F)c4F)c4ccc([nH]4)c(-c4c(F)c(F)c(F)c(F)c4F)c4nc(c(-c5c(F)c(F)c(F)c(F)c5F)c5ccc2[nH]5)C=C4)C=C3)cc1
REMARK SMILES IDX 31 1 30 2 29 3 28 4 26 5 27 6 15 8 14 9 12 10 13 11 11 13
REMARK SMILES IDX 3 14 4 15 5 16 10 17 6 18 2 19 1 20 7 21 8 22 9 23 16 24
REMARK SMILES IDX 17 25 18 26 25 27 19 28 20 29 24 30 21 32 23 33 22 34 32 35
REMARK SMILES IDX 33 36 34 37 35 38 36 39 37 41 38 42 39 43 100 44 40 45 99 46
REMARK SMILES IDX 41 47 42 48 43 49 93 50 44 51 98 52 92 53 94 54 45 55 97 56
REMARK SMILES IDX 91 57 90 58 46 60 78 61 58 62 77 63 59 64 62 65 76 66 95 67
REMARK SMILES IDX 60 68 61 69 75 71 96 72 63 73 47 74 48 75 56 76 49 77 50 78
REMARK SMILES IDX 54 79 57 80 51 81 52 82 55 83 53 84 79 85 80 86 88 87 81 88
REMARK SMILES IDX 82 89 86 90 89 91 83 92 84 93 87 94 85 95 64 96 65 97 73 98
REMARK SMILES IDX 66 99 67 100 71 101 74 102 68 103 69 104 72 105 70 106
REMARK H PARENT 28 7 14 12 19 31 35 40 94 59 62 70
REMARK Flexibility Score: inf
ROOT
ATOM      1  C   UNL A   1      32.419  30.123  26.125  1.00  0.00     0.002 C 
ENDROOT
BRANCH   1   2
ATOM      2  C   UNL A   1      32.186  29.198  27.317  1.00  0.00     0.021 C 
BRANCH   2   3
ATOM      3  C   UNL A   1      31.654  27.794  26.993  1.00  0.00     0.116 C 
BRANCH   3   4
ATOM      4  N   UNL A   1      32.716  26.792  26.927  1.00  0.00    -0.354 N 
ATOM      5  C   UNL A   1      32.959  26.069  25.771  1.00  0.00     0.242 C 
ATOM      6  O   UNL A   1      33.715  26.558  24.930  1.00  0.00    -0.273 OA
ATOM      7  H   UNL A   1      33.271  26.628  27.723  1.00  0.00     0.163 HD
BRANCH   5   8
ATOM      8  C   UNL A   1      32.247  24.694  25.549  1.00  0.00     0.176 C 
BRANCH   8   9
ATOM      9  N   UNL A   1      32.367  23.895  26.776  1.00  0.00    -0.340 N 
ATOM     10  C   UNL A   1      32.861  22.664  27.087  1.00  0.00     0.255 C 
ATOM     11  O   UNL A   1      32.697  22.260  28.241  1.00  0.00    -0.269 OA
ATOM     12  H   UNL A   1      32.001  24.361  27.563  1.00  0.00     0.164 HD
BRANCH  10  13
ATOM     13  C   UNL A   1      33.619  21.787  26.165  1.00  0.00     0.088 A 
ATOM     14  C   UNL A   1      35.004  21.862  25.974  1.00  0.00     0.132 A 
ATOM     15  C   UNL A   1      35.681  20.887  25.227  1.00  0.00     0.054 A 
ATOM     16  C   UNL A   1      35.001  19.767  24.750  1.00  0.00     0.089 A 
ATOM     17  C   UNL A   1      32.932  20.659  25.671  1.00  0.00     0.103 A 
ATOM     18  C   UNL A   1      33.629  19.646  24.992  1.00  0.00     0.270 A 
BRANCH  14  19
ATOM     19  O   UNL A   1      35.777  22.852  26.517  1.00  0.00    -0.496 OA
ATOM     20  C   UNL A   1      36.046  23.866  25.547  1.00  0.00     0.278 C 
ENDBRANCH  14  19
BRANCH  18  21
ATOM     21  N   UNL A   1      32.929  18.416  24.592  1.00  0.00     0.062 N 
ATOM     22  O   UNL A   1      32.084  17.957  25.375  1.00  0.00    -0.258 OA
ATOM     23  O   UNL A   1      33.213  17.921  23.495  1.00  0.00    -0.258 OA
ENDBRANCH  18  21
ENDBRANCH  10  13
ENDBRANCH   8   9
BRANCH   8  24
ATOM     24  C   UNL A   1      30.791  24.787  24.960  1.00  0.00     0.072 C 
BRANCH  24  25
ATOM     25  C   UNL A   1      30.633  25.532  23.648  1.00  0.00    -0.020 A 
ATOM     26  C   UNL A   1      31.400  25.345  22.520  1.00  0.00     0.087 A 
ATOM     27  C   UNL A   1      30.115  26.832  23.363  1.00  0.00     0.003 A 
ATOM     28  N   UNL A   1      32.100  26.536  22.451  1.00  0.00    -0.361 N 
ATOM     29  C   UNL A   1      31.207  27.511  22.815  1.00  0.00     0.046 A 
ATOM     30  C   UNL A   1      28.893  27.522  23.429  1.00  0.00     0.010 A 
ATOM     31  H   UNL A   1      33.043  26.659  22.195  1.00  0.00     0.166 HD
ATOM     32  C   UNL A   1      31.259  28.877  22.581  1.00  0.00     0.026 A 
ATOM     33  C   UNL A   1      28.862  28.850  22.961  1.00  0.00     0.001 A 
ATOM     34  C   UNL A   1      30.034  29.531  22.613  1.00  0.00     0.002 A 
ENDBRANCH  24  25
ENDBRANCH   8  24
ENDBRANCH   5   8
ENDBRANCH   3   4
ENDBRANCH   2   3
ENDBRANCH   1   2
BRANCH   1  35
ATOM     35  C   UNL A   1      31.229  31.008  25.741  1.00  0.00     0.002 C 
BRANCH  35  36
ATOM     36  C   UNL A   1      31.125  32.362  26.453  1.00  0.00     0.021 C 
BRANCH  36  37
ATOM     37  C   UNL A   1      32.381  32.817  27.193  1.00  0.00     0.116 C 
BRANCH  37  38
ATOM     38  N   UNL A   1      32.312  34.218  27.570  1.00  0.00    -0.352 N 
ATOM     39  C   UNL A   1      32.983  34.904  28.551  1.00  0.00     0.251 C 
ATOM     40  H   UNL A   1      31.685  34.761  27.038  1.00  0.00     0.163 HD
ATOM     41  O   UNL A   1      32.608  36.023  28.879  1.00  0.00    -0.269 OA
BRANCH  39  42
ATOM     42  C   UNL A   1      34.160  34.304  29.216  1.00  0.00     0.039 A 
ATOM     43  C   UNL A   1      33.956  33.453  30.306  1.00  0.00     0.014 A 
ATOM     44  C   UNL A   1      35.459  34.622  28.811  1.00  0.00     0.014 A 
ATOM     45  C   UNL A   1      35.052  32.885  30.960  1.00  0.00     0.010 A 
ATOM     46  C   UNL A   1      36.550  34.006  29.423  1.00  0.00     0.010 A 
ATOM     47  C   UNL A   1      36.357  33.137  30.508  1.00  0.00    -0.014 A 
BRANCH  47  48
ATOM     48  C   UNL A   1      37.526  32.497  31.161  1.00  0.00     0.031 A 
ATOM     49  C   UNL A   1      38.251  31.365  30.486  1.00  0.00     0.074 A 
ATOM     50  C   UNL A   1      37.897  32.899  32.392  1.00  0.00     0.049 A 
ATOM     51  N   UNL A   1      39.261  30.653  30.918  1.00  0.00    -0.248 NA
ATOM     52  C   UNL A   1      37.759  30.961  29.160  1.00  0.00     0.031 C 
ATOM     53  C   UNL A   1      37.236  33.946  33.173  1.00  0.00     0.029 A 
ATOM     54  N   UNL A   1      38.913  32.466  33.209  1.00  0.00    -0.354 N 
ATOM     55  C   UNL A   1      39.513  29.711  29.930  1.00  0.00     0.074 A 
ATOM     56  C   UNL A   1      38.522  29.910  28.894  1.00  0.00     0.031 C 
ATOM     57  C   UNL A   1      37.871  34.084  34.348  1.00  0.00     0.029 A 
ATOM     58  C   UNL A   1      38.961  33.118  34.418  1.00  0.00     0.049 A 
ATOM     59  H   UNL A   1      39.546  31.758  32.953  1.00  0.00     0.167 HD
ATOM     60  C   UNL A   1      40.493  28.778  29.883  1.00  0.00     0.037 A 
ATOM     61  C   UNL A   1      39.786  32.946  35.467  1.00  0.00     0.037 A 
ATOM     62  C   UNL A   1      41.497  28.608  30.901  1.00  0.00     0.049 A 
ATOM     63  C   UNL A   1      40.881  31.917  35.378  1.00  0.00     0.074 A 
ATOM     64  C   UNL A   1      42.583  27.748  30.907  1.00  0.00     0.029 A 
ATOM     65  N   UNL A   1      41.533  29.306  32.098  1.00  0.00    -0.354 N 
ATOM     66  N   UNL A   1      41.163  31.093  34.399  1.00  0.00    -0.248 NA
ATOM     67  C   UNL A   1      41.778  31.802  36.536  1.00  0.00     0.031 C 
ATOM     68  C   UNL A   1      43.247  27.893  32.129  1.00  0.00     0.029 A 
ATOM     69  C   UNL A   1      42.608  28.878  32.863  1.00  0.00     0.049 A 
ATOM     70  H   UNL A   1      40.892  30.003  32.366  1.00  0.00     0.167 HD
ATOM     71  C   UNL A   1      42.281  30.380  34.810  1.00  0.00     0.074 A 
ATOM     72  C   UNL A   1      42.638  30.883  36.120  1.00  0.00     0.031 C 
ATOM     73  C   UNL A   1      42.950  29.393  34.164  1.00  0.00     0.037 A 
BRANCH  60  74
ATOM     74  C   UNL A   1      40.538  27.868  28.690  1.00  0.00     0.064 A 
ATOM     75  C   UNL A   1      39.837  26.653  28.661  1.00  0.00     0.173 A 
ATOM     76  C   UNL A   1      41.246  28.243  27.538  1.00  0.00     0.173 A 
ATOM     77  F   UNL A   1      39.152  26.243  29.740  1.00  0.00    -0.203 F 
ATOM     78  C   UNL A   1      39.861  25.838  27.533  1.00  0.00     0.198 A 
ATOM     79  C   UNL A   1      41.244  27.438  26.401  1.00  0.00     0.198 A 
ATOM     80  F   UNL A   1      41.929  29.397  27.508  1.00  0.00    -0.203 F 
ATOM     81  F   UNL A   1      39.216  24.662  27.544  1.00  0.00    -0.200 F 
ATOM     82  C   UNL A   1      40.557  26.235  26.401  1.00  0.00     0.200 A 
ATOM     83  F   UNL A   1      41.906  27.831  25.303  1.00  0.00    -0.200 F 
ATOM     84  F   UNL A   1      40.568  25.454  25.311  1.00  0.00    -0.200 F 
ENDBRANCH  60  74
BRANCH  61  85
ATOM     85  C   UNL A   1      39.621  33.779  36.688  1.00  0.00     0.064 A 
ATOM     86  C   UNL A   1      38.761  33.384  37.722  1.00  0.00     0.173 A 
ATOM     87  C   UNL A   1      40.312  34.990  36.840  1.00  0.00     0.173 A 
ATOM     88  F   UNL A   1      38.064  32.243  37.614  1.00  0.00    -0.203 F 
ATOM     89  C   UNL A   1      38.578  34.182  38.850  1.00  0.00     0.198 A 
ATOM     90  C   UNL A   1      40.151  35.771  37.983  1.00  0.00     0.198 A 
ATOM     91  F   UNL A   1      41.153  35.410  35.883  1.00  0.00    -0.203 F 
ATOM     92  F   UNL A   1      37.710  33.805  39.798  1.00  0.00    -0.200 F 
ATOM     93  C   UNL A   1      39.276  35.372  38.981  1.00  0.00     0.200 A 
ATOM     94  F   UNL A   1      40.840  36.913  38.113  1.00  0.00    -0.200 F 
ATOM     95  F   UNL A   1      39.101  36.138  40.067  1.00  0.00    -0.200 F 
ENDBRANCH  61  85
BRANCH  73  96
ATOM     96  C   UNL A   1      44.149  28.812  34.855  1.00  0.00     0.064 A 
ATOM     97  C   UNL A   1      45.419  29.397  34.739  1.00  0.00     0.173 A 
ATOM     98  C   UNL A   1      44.020  27.675  35.666  1.00  0.00     0.173 A 
ATOM     99  F   UNL A   1      45.598  30.476  33.962  1.00  0.00    -0.203 F 
ATOM    100  C   UNL A   1      46.521  28.846  35.389  1.00  0.00     0.198 A 
ATOM    101  C   UNL A   1      45.117  27.146  36.339  1.00  0.00     0.198 A 
ATOM    102  F   UNL A   1      42.826  27.083  35.815  1.00  0.00    -0.203 F 
ATOM    103  F   UNL A   1      47.735  29.389  35.221  1.00  0.00    -0.200 F 
ATOM    104  C   UNL A   1      46.368  27.726  36.192  1.00  0.00     0.200 A 
ATOM    105  F   UNL A   1      44.965  26.073  37.126  1.00  0.00    -0.200 F 
ATOM    106  F   UNL A   1      47.429  27.201  36.821  1.00  0.00    -0.200 F 
ENDBRANCH  73  96
ENDBRANCH  47  48
ENDBRANCH  39  42
ENDBRANCH  37  38
ENDBRANCH  36  37
ENDBRANCH  35  36
ENDBRANCH   1  35
TORSDOF 19
ENDMDL
MODEL 2
REMARK VINA RESULT:     -12.3      4.930     10.775
REMARK SMILES COc1ccc([N+](=O)[O-])cc1C(=O)N[C@@H](Cc1c[nH]c2ccccc12)C(=O)NCCCCCCNC(=O)c1ccc(-c2c3nc(c(-c4c(F)c(F)c(F)c(F)c4F)c4ccc([nH]4)c(-c4c(F)c(F)c(F)c(F)c4F)c4nc(c(-c5c(F)c(F)c(F)c(F)c5F)c5ccc2[nH]5)C=C4)C=C3)cc1
REMARK SMILES IDX 31 1 30 2 29 3 28 4 26 5 27 6 15 8 14 9 12 10 13 11 11 13
REMARK SMILES IDX 3 14 4 15 5 16 10 17 6 18 2 19 1 20 7 21 8 22 9 23 16 24
REMARK SMILES IDX 17 25 18 26 25 27 19 28 20 29 24 30 21 32 23 33 22 34 32 35
REMARK SMILES IDX 33 36 34 37 35 38 36 39 37 41 38 42 39 43 100 44 40 45 99 46
REMARK SMILES IDX 41 47 42 48 43 49 93 50 44 51 98 52 92 53 94 54 45 55 97 56
REMARK SMILES IDX 91 57 90 58 46 60 78 61 58 62 77 63 59 64 62 65 76 66 95 67
REMARK SMILES IDX 60 68 61 69 75 71 96 72 63 73 47 74 48 75 56 76 49 77 50 78
REMARK SMILES IDX 54 79 57 80 51 81 52 82 55 83 53 84 79 85 80 86 88 87 81 88
REMARK SMILES IDX 82 89 86 90 89 91 83 92 84 93 87 94 85 95 64 96 65 97 73 98
REMARK SMILES IDX 66 99 67 100 71 101 74 102 68 103 69 104 72 105 70 106
REMARK H PARENT 28 7 14 12 19 31 35 40 94 59 62 70
REMARK Flexibility Score: inf
ROOT
ATOM      1  C   UNL A   1      36.855  21.612  24.537  1.00  0.00     0.002 C 
ENDROOT
BRANCH   1   2
ATOM      2  C   UNL A   1      35.892  22.598  25.193  1.00  0.00     0.021 C 
BRANCH   2   3
ATOM      3  C   UNL A   1      36.300  24.078  25.150  1.00  0.00     0.116 C 
BRANCH   3   4
ATOM      4  N   UNL A   1      35.148  24.977  25.138  1.00  0.00    -0.354 N 
ATOM      5  C   UNL A   1      33.853  24.495  25.035  1.00  0.00     0.242 C 
ATOM      6  O   UNL A   1      33.270  24.172  26.072  1.00  0.00    -0.273 OA
ATOM      7  H   UNL A   1      35.295  25.948  25.205  1.00  0.00     0.163 HD
BRANCH   5   8
ATOM      8  C   UNL A   1      33.192  24.337  23.626  1.00  0.00     0.176 C 
BRANCH   8   9
ATOM      9  N   UNL A   1      33.705  25.391  22.740  1.00  0.00    -0.340 N 
ATOM     10  C   UNL A   1      33.387  26.693  22.497  1.00  0.00     0.255 C 
ATOM     11  O   UNL A   1      33.986  27.263  21.581  1.00  0.00    -0.269 OA
ATOM     12  H   UNL A   1      34.461  25.081  22.190  1.00  0.00     0.164 HD
BRANCH  10  13
ATOM     13  C   UNL A   1      32.412  27.496  23.270  1.00  0.00     0.088 A 
ATOM     14  C   UNL A   1      32.713  28.150  24.471  1.00  0.00     0.132 A 
ATOM     15  C   UNL A   1      31.799  29.040  25.055  1.00  0.00     0.054 A 
ATOM     16  C   UNL A   1      30.615  29.368  24.394  1.00  0.00     0.089 A 
ATOM     17  C   UNL A   1      31.208  27.820  22.611  1.00  0.00     0.103 A 
ATOM     18  C   UNL A   1      30.333  28.771  23.161  1.00  0.00     0.270 A 
BRANCH  14  19
ATOM     19  O   UNL A   1      33.906  27.996  25.123  1.00  0.00    -0.496 OA
ATOM     20  C   UNL A   1      33.701  27.951  26.536  1.00  0.00     0.278 C 
ENDBRANCH  14  19
BRANCH  18  21
ATOM     21  N   UNL A   1      29.145  29.196  22.407  1.00  0.00     0.062 N 
ATOM     22  O   UNL A   1      29.326  29.714  21.295  1.00  0.00    -0.258 OA
ATOM     23  O   UNL A   1      28.035  28.999  22.918  1.00  0.00    -0.258 OA
ENDBRANCH  18  21
ENDBRANCH  10  13
ENDBRANCH   8   9
BRANCH   8  24
ATOM     24  C   UNL A   1      33.247  22.883  23.025  1.00  0.00     0.072 C 
BRANCH  24  25
ATOM     25  C   UNL A   1      32.322  21.855  23.646  1.00  0.00    -0.020 A 
ATOM     26  C   UNL A   1      31.483  22.069  24.717  1.00  0.00     0.087 A 
ATOM     27  C   UNL A   1      32.402  20.429  23.697  1.00  0.00     0.003 A 
ATOM     28  N   UNL A   1      32.070  21.291  25.699  1.00  0.00    -0.361 N 
ATOM     29  C   UNL A   1      32.492  20.151  25.064  1.00  0.00     0.046 A 
ATOM     30  C   UNL A   1      32.359  19.335  22.817  1.00  0.00     0.010 A 
ATOM     31  H   UNL A   1      32.166  21.510  26.654  1.00  0.00     0.166 HD
ATOM     32  C   UNL A   1      32.808  18.914  25.606  1.00  0.00     0.026 A 
ATOM     33  C   UNL A   1      32.431  18.043  23.372  1.00  0.00     0.001 A 
ATOM     34  C   UNL A   1      32.721  17.842  24.726  1.00  0.00     0.002 A 
ENDBRANCH  24  25
ENDBRANCH   8  24
ENDBRANCH   5   8
ENDBRANCH   3   4
ENDBRANCH   2   3
ENDBRANCH   1   2
BRANCH   1  35
ATOM     35  C   UNL A   1      36.560  20.132  24.804  1.00  0.00     0.002 C 
BRANCH  35  36
ATOM     36  C   UNL A   1      37.768  19.238  25.112  1.00  0.00     0.021 C 
BRANCH  36  37
ATOM     37  C   UNL A   1      38.984  19.951  25.700  1.00  0.00     0.116 C 
BRANCH  37  38
ATOM     38  N   UNL A   1      40.108  19.049  25.881  1.00  0.00    -0.352 N 
ATOM     39  C   UNL A   1      41.440  19.321  26.057  1.00  0.00     0.251 C 
ATOM     40  H   UNL A   1      39.876  18.091  25.879  1.00  0.00     0.163 HD
ATOM     41  O   UNL A   1      42.267  18.424  25.942  1.00  0.00    -0.269 OA
BRANCH  39  42
ATOM     42  C   UNL A   1      41.891  20.692  26.384  1.00  0.00     0.039 A 
ATOM     43  C   UNL A   1      42.037  21.050  27.727  1.00  0.00     0.014 A 
ATOM     44  C   UNL A   1      42.112  21.638  25.380  1.00  0.00     0.014 A 
ATOM     45  C   UNL A   1      42.448  22.342  28.062  1.00  0.00     0.010 A 
ATOM     46  C   UNL A   1      42.584  22.907  25.711  1.00  0.00     0.010 A 
ATOM     47  C   UNL A   1      42.749  23.274  27.055  1.00  0.00    -0.014 A 
BRANCH  47  48
ATOM     48  C   UNL A   1      43.238  24.633  27.398  1.00  0.00     0.031 A 
ATOM     49  C   UNL A   1      42.303  25.653  27.988  1.00  0.00     0.074 A 
ATOM     50  C   UNL A   1      44.513  24.966  27.120  1.00  0.00     0.049 A 
ATOM     51  N   UNL A   1      42.534  26.901  28.310  1.00  0.00    -0.248 NA
ATOM     52  C   UNL A   1      40.916  25.221  28.225  1.00  0.00     0.031 C 
ATOM     53  C   UNL A   1      45.498  24.083  26.494  1.00  0.00     0.029 A 
ATOM     54  N   UNL A   1      45.198  26.140  27.317  1.00  0.00    -0.354 N 
ATOM     55  C   UNL A   1      41.325  27.406  28.768  1.00  0.00     0.074 A 
ATOM     56  C   UNL A   1      40.349  26.345  28.641  1.00  0.00     0.031 C 
ATOM     57  C   UNL A   1      46.663  24.740  26.371  1.00  0.00     0.029 A 
ATOM     58  C   UNL A   1      46.499  26.098  26.879  1.00  0.00     0.049 A 
ATOM     59  H   UNL A   1      44.795  26.936  27.733  1.00  0.00     0.167 HD
ATOM     60  C   UNL A   1      41.059  28.636  29.267  1.00  0.00     0.037 A 
ATOM     61  C   UNL A   1      47.449  27.051  26.878  1.00  0.00     0.037 A 
ATOM     62  C   UNL A   1      42.042  29.676  29.421  1.00  0.00     0.049 A 
ATOM     63  C   UNL A   1      47.132  28.403  27.459  1.00  0.00     0.074 A 
ATOM     64  C   UNL A   1      41.892  30.928  29.995  1.00  0.00     0.029 A 
ATOM     65  N   UNL A   1      43.359  29.588  28.996  1.00  0.00    -0.354 N 
ATOM     66  N   UNL A   1      46.007  28.839  27.972  1.00  0.00    -0.248 NA
ATOM     67  C   UNL A   1      48.218  29.391  27.471  1.00  0.00     0.031 C 
ATOM     68  C   UNL A   1      43.104  31.614  29.870  1.00  0.00     0.029 A 
ATOM     69  C   UNL A   1      44.025  30.773  29.268  1.00  0.00     0.049 A 
ATOM     70  H   UNL A   1      43.761  28.800  28.563  1.00  0.00     0.167 HD
ATOM     71  C   UNL A   1      46.256  30.139  28.388  1.00  0.00     0.074 A 
ATOM     72  C   UNL A   1      47.645  30.415  28.087  1.00  0.00     0.031 C 
ATOM     73  C   UNL A   1      45.409  31.028  28.964  1.00  0.00     0.037 A 
BRANCH  60  74
ATOM     74  C   UNL A   1      39.648  28.931  29.689  1.00  0.00     0.064 A 
ATOM     75  C   UNL A   1      39.210  28.711  31.003  1.00  0.00     0.173 A 
ATOM     76  C   UNL A   1      38.740  29.498  28.782  1.00  0.00     0.173 A 
ATOM     77  F   UNL A   1      40.036  28.163  31.908  1.00  0.00    -0.203 F 
ATOM     78  C   UNL A   1      37.909  29.024  31.388  1.00  0.00     0.198 A 
ATOM     79  C   UNL A   1      37.448  29.836  29.178  1.00  0.00     0.198 A 
ATOM     80  F   UNL A   1      39.109  29.736  27.514  1.00  0.00    -0.203 F 
ATOM     81  F   UNL A   1      37.501  28.766  32.639  1.00  0.00    -0.200 F 
ATOM     82  C   UNL A   1      37.032  29.595  30.478  1.00  0.00     0.200 A 
ATOM     83  F   UNL A   1      36.607  30.401  28.300  1.00  0.00    -0.200 F 
ATOM     84  F   UNL A   1      35.784  29.907  30.853  1.00  0.00    -0.200 F 
ENDBRANCH  60  74
BRANCH  61  85
ATOM     85  C   UNL A   1      48.798  26.758  26.324  1.00  0.00     0.064 A 
ATOM     86  C   UNL A   1      49.104  27.033  24.984  1.00  0.00     0.173 A 
ATOM     87  C   UNL A   1      49.802  26.188  27.120  1.00  0.00     0.173 A 
ATOM     88  F   UNL A   1      48.170  27.560  24.179  1.00  0.00    -0.203 F 
ATOM     89  C   UNL A   1      50.356  26.725  24.455  1.00  0.00     0.198 A 
ATOM     90  C   UNL A   1      51.063  25.910  26.597  1.00  0.00     0.198 A 
ATOM     91  F   UNL A   1      49.562  25.913  28.411  1.00  0.00    -0.203 F 
ATOM     92  F   UNL A   1      50.605  26.950  23.158  1.00  0.00    -0.200 F 
ATOM     93  C   UNL A   1      51.336  26.168  25.263  1.00  0.00     0.200 A 
ATOM     94  F   UNL A   1      52.012  25.387  27.385  1.00  0.00    -0.200 F 
ATOM     95  F   UNL A   1      52.539  25.874  24.753  1.00  0.00    -0.200 F 
ENDBRANCH  61  85
BRANCH  73  96
ATOM     96  C   UNL A   1      45.970  32.373  29.327  1.00  0.00     0.064 A 
ATOM     97  C   UNL A   1      45.906  33.460  28.443  1.00  0.00     0.173 A 
ATOM     98  C   UNL A   1      46.551  32.582  30.587  1.00  0.00     0.173 A 
ATOM     99  F   UNL A   1      45.375  33.306  27.220  1.00  0.00    -0.203 F 
ATOM    100  C   UNL A   1      46.430  34.700  28.797  1.00  0.00     0.198 A 
ATOM    101  C   UNL A   1      47.044  33.832  30.949  1.00  0.00     0.198 A 
ATOM    102  F   UNL A   1      46.630  31.577  31.472  1.00  0.00    -0.203 F 
ATOM    103  F   UNL A   1      46.406  35.711  27.917  1.00  0.00    -0.200 F 
ATOM    104  C   UNL A   1      46.993  34.887  30.051  1.00  0.00     0.200 A 
ATOM    105  F   UNL A   1      47.574  34.015  32.166  1.00  0.00    -0.200 F 
ATOM    106  F   UNL A   1      47.490  36.084  30.392  1.00  0.00    -0.200 F 
ENDBRANCH  73  96
ENDBRANCH  47  48
ENDBRANCH  39  42
ENDBRANCH  37  38
ENDBRANCH  36  37
ENDBRANCH  35  36
ENDBRANCH   1  35
TORSDOF 19
ENDMDL
MODEL 3
REMARK VINA RESULT:     -12.2      4.913      9.737
REMARK SMILES COc1ccc([N+](=O)[O-])cc1C(=O)N[C@@H](Cc1c[nH]c2ccccc12)C(=O)NCCCCCCNC(=O)c1ccc(-c2c3nc(c(-c4c(F)c(F)c(F)c(F)c4F)c4ccc([nH]4)c(-c4c(F)c(F)c(F)c(F)c4F)c4nc(c(-c5c(F)c(F)c(F)c(F)c5F)c5ccc2[nH]5)C=C4)C=C3)cc1
REMARK SMILES IDX 31 1 30 2 29 3 28 4 26 5 27 6 15 8 14 9 12 10 13 11 11 13
REMARK SMILES IDX 3 14 4 15 5 16 10 17 6 18 2 19 1 20 7 21 8 22 9 23 16 24
REMARK SMILES IDX 17 25 18 26 25 27 19 28 20 29 24 30 21 32 23 33 22 34 32 35
REMARK SMILES IDX 33 36 34 37 35 38 36 39 37 41 38 42 39 43 100 44 40 45 99 46
REMARK SMILES IDX 41 47 42 48 43 49 93 50 44 51 98 52 92 53 94 54 45 55 97 56
REMARK SMILES IDX 91 57 90 58 46 60 78 61 58 62 77 63 59 64 62 65 76 66 95 67
REMARK SMILES IDX 60 68 61 69 75 71 96 72 63 73 47 74 48 75 56 76 49 77 50 78
REMARK SMILES IDX 54 79 57 80 51 81 52 82 55 83 53 84 79 85 80 86 88 87 81 88
REMARK SMILES IDX 82 89 86 90 89 91 83 92 84 93 87 94 85 95 64 96 65 97 73 98
REMARK SMILES IDX 66 99 67 100 71 101 74 102 68 103 69 104 72 105 70 106
REMARK H PARENT 28 7 14 12 19 31 35 40 94 59 62 70
REMARK Flexibility Score: inf
ROOT
ATOM      1  C   UNL A   1      36.857  21.649  24.578  1.00  0.00     0.002 C 
ENDROOT
BRANCH   1   2
ATOM      2  C   UNL A   1      35.894  22.636  25.233  1.00  0.00     0.021 C 
BRANCH   2   3
ATOM      3  C   UNL A   1      36.292  24.118  25.173  1.00  0.00     0.116 C 
BRANCH   3   4
ATOM      4  N   UNL A   1      35.135  25.009  25.145  1.00  0.00    -0.354 N 
ATOM      5  C   UNL A   1      33.844  24.518  25.036  1.00  0.00     0.242 C 
ATOM      6  O   UNL A   1      33.256  24.201  26.072  1.00  0.00    -0.273 OA
ATOM      7  H   UNL A   1      35.276  25.982  25.205  1.00  0.00     0.163 HD
BRANCH   5   8
ATOM      8  C   UNL A   1      33.195  24.344  23.625  1.00  0.00     0.176 C 
BRANCH   8   9
ATOM      9  N   UNL A   1      33.710  25.391  22.732  1.00  0.00    -0.340 N 
ATOM     10  C   UNL A   1      33.398  26.694  22.486  1.00  0.00     0.255 C 
ATOM     11  O   UNL A   1      33.995  27.257  21.565  1.00  0.00    -0.269 OA
ATOM     12  H   UNL A   1      34.461  25.075  22.180  1.00  0.00     0.164 HD
BRANCH  10  13
ATOM     13  C   UNL A   1      32.431  27.505  23.261  1.00  0.00     0.088 A 
ATOM     14  C   UNL A   1      32.744  28.170  24.452  1.00  0.00     0.132 A 
ATOM     15  C   UNL A   1      31.836  29.066  25.037  1.00  0.00     0.054 A 
ATOM     16  C   UNL A   1      30.648  29.390  24.384  1.00  0.00     0.089 A 
ATOM     17  C   UNL A   1      31.222  27.826  22.609  1.00  0.00     0.103 A 
ATOM     18  C   UNL A   1      30.353  28.783  23.159  1.00  0.00     0.270 A 
BRANCH  14  19
ATOM     19  O   UNL A   1      33.943  28.020  25.095  1.00  0.00    -0.496 OA
ATOM     20  C   UNL A   1      33.753  28.013  26.512  1.00  0.00     0.278 C 
ENDBRANCH  14  19
BRANCH  18  21
ATOM     21  N   UNL A   1      29.159  29.203  22.412  1.00  0.00     0.062 N 
ATOM     22  O   UNL A   1      29.332  29.721  21.298  1.00  0.00    -0.258 OA
ATOM     23  O   UNL A   1      28.053  29.004  22.930  1.00  0.00    -0.258 OA
ENDBRANCH  18  21
ENDBRANCH  10  13
ENDBRANCH   8   9
BRANCH   8  24
ATOM     24  C   UNL A   1      33.261  22.885  23.038  1.00  0.00     0.072 C 
BRANCH  24  25
ATOM     25  C   UNL A   1      32.352  21.852  23.677  1.00  0.00    -0.020 A 
ATOM     26  C   UNL A   1      31.546  22.059  24.774  1.00  0.00     0.087 A 
ATOM     27  C   UNL A   1      32.431  20.426  23.713  1.00  0.00     0.003 A 
ATOM     28  N   UNL A   1      32.160  21.271  25.731  1.00  0.00    -0.361 N 
ATOM     29  C   UNL A   1      32.560  20.136  25.075  1.00  0.00     0.046 A 
ATOM     30  C   UNL A   1      32.360  19.340  22.826  1.00  0.00     0.010 A 
ATOM     31  H   UNL A   1      32.284  21.482  26.685  1.00  0.00     0.166 HD
ATOM     32  C   UNL A   1      32.889  18.894  25.596  1.00  0.00     0.026 A 
ATOM     33  C   UNL A   1      32.445  18.042  23.367  1.00  0.00     0.001 A 
ATOM     34  C   UNL A   1      32.774  17.830  24.711  1.00  0.00     0.002 A 
ENDBRANCH  24  25
ENDBRANCH   8  24
ENDBRANCH   5   8
ENDBRANCH   3   4
ENDBRANCH   2   3
ENDBRANCH   1   2
BRANCH   1  35
ATOM     35  C   UNL A   1      36.580  20.171  24.870  1.00  0.00     0.002 C 
BRANCH  35  36
ATOM     36  C   UNL A   1      37.802  19.289  25.152  1.00  0.00     0.021 C 
BRANCH  36  37
ATOM     37  C   UNL A   1      39.028  20.015  25.704  1.00  0.00     0.116 C 
BRANCH  37  38
ATOM     38  N   UNL A   1      40.156  19.118  25.882  1.00  0.00    -0.352 N 
ATOM     39  C   UNL A   1      41.486  19.398  26.067  1.00  0.00     0.251 C 
ATOM     40  H   UNL A   1      39.931  18.159  25.869  1.00  0.00     0.163 HD
ATOM     41  O   UNL A   1      42.320  18.507  25.948  1.00  0.00    -0.269 OA
BRANCH  39  42
ATOM     42  C   UNL A   1      41.926  20.768  26.411  1.00  0.00     0.039 A 
ATOM     43  C   UNL A   1      42.142  21.684  25.378  1.00  0.00     0.014 A 
ATOM     44  C   UNL A   1      42.184  21.133  27.735  1.00  0.00     0.014 A 
ATOM     45  C   UNL A   1      42.570  22.980  25.676  1.00  0.00     0.010 A 
ATOM     46  C   UNL A   1      42.549  22.443  28.037  1.00  0.00     0.010 A 
ATOM     47  C   UNL A   1      42.754  23.378  27.010  1.00  0.00    -0.014 A 
BRANCH  47  48
ATOM     48  C   UNL A   1      43.158  24.767  27.342  1.00  0.00     0.031 A 
ATOM     49  C   UNL A   1      44.585  25.209  27.163  1.00  0.00     0.074 A 
ATOM     50  C   UNL A   1      42.248  25.613  27.860  1.00  0.00     0.049 A 
ATOM     51  N   UNL A   1      45.135  26.364  27.439  1.00  0.00    -0.248 NA
ATOM     52  C   UNL A   1      45.524  24.212  26.627  1.00  0.00     0.031 C 
ATOM     53  C   UNL A   1      40.849  25.283  28.135  1.00  0.00     0.029 A 
ATOM     54  N   UNL A   1      42.365  26.921  28.262  1.00  0.00    -0.354 N 
ATOM     55  C   UNL A   1      46.481  26.229  27.129  1.00  0.00     0.074 A 
ATOM     56  C   UNL A   1      46.677  24.865  26.685  1.00  0.00     0.031 C 
ATOM     57  C   UNL A   1      40.234  26.362  28.646  1.00  0.00     0.029 A 
ATOM     58  C   UNL A   1      41.200  27.449  28.764  1.00  0.00     0.049 A 
ATOM     59  H   UNL A   1      43.203  27.433  28.195  1.00  0.00     0.167 HD
ATOM     60  C   UNL A   1      47.459  27.162  27.190  1.00  0.00     0.037 A 
ATOM     61  C   UNL A   1      40.944  28.669  29.272  1.00  0.00     0.037 A 
ATOM     62  C   UNL A   1      47.251  28.527  27.600  1.00  0.00     0.049 A 
ATOM     63  C   UNL A   1      42.046  29.694  29.308  1.00  0.00     0.074 A 
ATOM     64  C   UNL A   1      48.160  29.571  27.615  1.00  0.00     0.029 A 
ATOM     65  N   UNL A   1      46.051  29.034  28.073  1.00  0.00    -0.354 N 
ATOM     66  N   UNL A   1      43.295  29.578  28.927  1.00  0.00    -0.248 NA
ATOM     67  C   UNL A   1      41.699  31.021  29.833  1.00  0.00     0.031 C 
ATOM     68  C   UNL A   1      47.522  30.698  28.145  1.00  0.00     0.029 A 
ATOM     69  C   UNL A   1      46.202  30.371  28.410  1.00  0.00     0.049 A 
ATOM     70  H   UNL A   1      45.215  28.522  28.159  1.00  0.00     0.167 HD
ATOM     71  C   UNL A   1      43.876  30.820  29.143  1.00  0.00     0.074 A 
ATOM     72  C   UNL A   1      42.837  31.681  29.669  1.00  0.00     0.031 C 
ATOM     73  C   UNL A   1      45.156  31.213  28.930  1.00  0.00     0.037 A 
BRANCH  60  74
ATOM     74  C   UNL A   1      48.849  26.748  26.800  1.00  0.00     0.064 A 
ATOM     75  C   UNL A   1      49.303  26.840  25.476  1.00  0.00     0.173 A 
ATOM     76  C   UNL A   1      49.758  26.309  27.775  1.00  0.00     0.173 A 
ATOM     77  F   UNL A   1      48.471  27.245  24.504  1.00  0.00    -0.203 F 
ATOM     78  C   UNL A   1      50.606  26.485  25.138  1.00  0.00     0.198 A 
ATOM     79  C   UNL A   1      51.070  25.983  27.438  1.00  0.00     0.198 A 
ATOM     80  F   UNL A   1      49.379  26.209  29.058  1.00  0.00    -0.203 F 
ATOM     81  F   UNL A   1      51.004  26.542  23.859  1.00  0.00    -0.200 F 
ATOM     82  C   UNL A   1      51.491  26.066  26.120  1.00  0.00     0.200 A 
ATOM     83  F   UNL A   1      51.927  25.591  28.391  1.00  0.00    -0.200 F 
ATOM     84  F   UNL A   1      52.749  25.737  25.795  1.00  0.00    -0.200 F 
ENDBRANCH  60  74
BRANCH  61  85
ATOM     85  C   UNL A   1      39.583  28.995  29.775  1.00  0.00     0.064 A 
ATOM     86  C   UNL A   1      39.224  28.741  31.105  1.00  0.00     0.173 A 
ATOM     87  C   UNL A   1      38.614  29.558  28.932  1.00  0.00     0.173 A 
ATOM     88  F   UNL A   1      40.110  28.186  31.944  1.00  0.00    -0.203 F 
ATOM     89  C   UNL A   1      37.937  29.013  31.567  1.00  0.00     0.198 A 
ATOM     90  C   UNL A   1      37.338  29.859  29.404  1.00  0.00     0.198 A 
ATOM     91  F   UNL A   1      38.910  29.828  27.652  1.00  0.00    -0.203 F 
ATOM     92  F   UNL A   1      37.605  28.712  32.829  1.00  0.00    -0.200 F 
ATOM     93  C   UNL A   1      36.997  29.576  30.717  1.00  0.00     0.200 A 
ATOM     94  F   UNL A   1      36.437  30.417  28.584  1.00  0.00    -0.200 F 
ATOM     95  F   UNL A   1      35.761  29.839  31.163  1.00  0.00    -0.200 F 
ENDBRANCH  61  85
BRANCH  73  96
ATOM     96  C   UNL A   1      45.496  32.641  29.243  1.00  0.00     0.064 A 
ATOM     97  C   UNL A   1      45.993  33.020  30.499  1.00  0.00     0.173 A 
ATOM     98  C   UNL A   1      45.353  33.636  28.265  1.00  0.00     0.173 A 
ATOM     99  F   UNL A   1      46.133  32.108  31.474  1.00  0.00    -0.203 F 
ATOM    100  C   UNL A   1      46.305  34.349  30.772  1.00  0.00     0.198 A 
ATOM    101  C   UNL A   1      45.697  34.958  28.532  1.00  0.00     0.198 A 
ATOM    102  F   UNL A   1      44.889  33.324  27.045  1.00  0.00    -0.203 F 
ATOM    103  F   UNL A   1      46.727  34.698  31.996  1.00  0.00    -0.200 F 
ATOM    104  C   UNL A   1      46.163  35.315  29.788  1.00  0.00     0.200 A 
ATOM    105  F   UNL A   1      45.573  35.887  27.575  1.00  0.00    -0.200 F 
ATOM    106  F   UNL A   1      46.470  36.592  30.051  1.00  0.00    -0.200 F 
ENDBRANCH  73  96
ENDBRANCH  47  48
ENDBRANCH  39  42
ENDBRANCH  37  38
ENDBRANCH  36  37
ENDBRANCH  35  36
ENDBRANCH   1  35
TORSDOF 19
ENDMDL
