MODEL 1
REMARK VINA RESULT:     -11.8      0.000      0.000
REMARK SMILES CO[C@H]1C[C@H](C(=O)NCCCCCCNC(=O)c2ccc(-c3c4nc(c(-c5c(F)c(F)c(F)c(F)c5F)c5ccc([nH]5)c(-c5c(F)c(F)c(F)c(F)c5F)c5nc(c(-c6c(F)c(F)c(F)c(F)c6F)c6ccc3[nH]6)C=C5)C=C4)cc2)N(C(=O)[C@H]2C=C[C@@H]([NH3+])C2)C1
REMARK SMILES IDX 11 1 10 2 9 3 8 4 6 5 7 6 5 8 3 9 4 10 90 11 81 12 2 13 1 14
REMARK SMILES IDX 82 15 83 16 84 17 85 18 89 19 86 20 87 21 88 22 12 26 13 27
REMARK SMILES IDX 14 28 15 29 16 30 17 32 18 33 19 34 80 35 20 36 79 37 21 38
REMARK SMILES IDX 22 39 23 40 73 41 24 42 78 43 72 44 74 45 25 46 77 47 71 48
REMARK SMILES IDX 70 49 26 51 58 52 38 53 57 54 39 55 42 56 56 57 75 58 40 59
REMARK SMILES IDX 41 60 55 62 76 63 43 64 27 65 28 66 36 67 29 68 30 69 34 70
REMARK SMILES IDX 37 71 31 72 32 73 35 74 33 75 59 76 60 77 68 78 61 79 62 80
REMARK SMILES IDX 66 81 69 82 63 83 64 84 67 85 65 86 44 87 45 88 53 89 46 90
REMARK SMILES IDX 47 91 51 92 54 93 48 94 49 95 52 96 50 97
REMARK H PARENT 8 7 88 23 88 24 88 25 15 31 74 50 42 61
REMARK Flexibility Score: inf
ROOT
ATOM      1  C   UNL A   1      32.343  29.934  26.924  1.00  0.00     0.002 C 
ENDROOT
BRANCH   1   2
ATOM      2  C   UNL A   1      31.776  28.554  27.274  1.00  0.00     0.021 C 
BRANCH   2   3
ATOM      3  C   UNL A   1      32.421  27.397  26.500  1.00  0.00     0.116 C 
BRANCH   3   4
ATOM      4  N   UNL A   1      31.716  26.161  26.763  1.00  0.00    -0.354 N 
ATOM      5  C   UNL A   1      31.037  25.312  25.949  1.00  0.00     0.242 C 
ATOM      6  O   UNL A   1      30.280  24.512  26.516  1.00  0.00    -0.273 OA
ATOM      7  H   UNL A   1      31.732  25.883  27.708  1.00  0.00     0.163 HD
BRANCH   5   8
ATOM      8  C   UNL A   1      31.018  25.398  24.403  1.00  0.00     0.177 C 
ATOM      9  C   UNL A   1      30.604  27.577  23.411  1.00  0.00     0.139 C 
ATOM     10  C   UNL A   1      29.900  26.315  23.902  1.00  0.00     0.069 C 
ATOM     11  C   UNL A   1      31.964  27.067  22.945  1.00  0.00     0.152 C 
ATOM     12  N   UNL A   1      32.215  25.838  23.685  1.00  0.00    -0.327 N 
BRANCH   9  13
ATOM     13  O   UNL A   1      29.905  28.214  22.347  1.00  0.00    -0.380 OA
ATOM     14  C   UNL A   1      30.249  29.587  22.206  1.00  0.00     0.195 C 
ENDBRANCH   9  13
BRANCH  12  15
ATOM     15  C   UNL A   1      33.375  25.143  23.410  1.00  0.00     0.230 C 
ATOM     16  O   UNL A   1      33.991  25.373  22.362  1.00  0.00    -0.274 OA
BRANCH  15  17
ATOM     17  C   UNL A   1      33.904  24.033  24.335  1.00  0.00     0.107 C 
ATOM     18  C   UNL A   1      34.386  22.789  23.667  1.00  0.00    -0.012 C 
ATOM     19  C   UNL A   1      35.078  24.466  25.226  1.00  0.00     0.087 C 
ATOM     20  C   UNL A   1      35.557  22.381  24.170  1.00  0.00     0.033 C 
ATOM     21  C   UNL A   1      36.061  23.283  25.247  1.00  0.00     0.205 C 
BRANCH  21  22
ATOM     22  N   UNL A   1      37.429  23.702  24.995  1.00  0.00    -0.352 N 
ATOM     23  H   UNL A   1      38.017  22.880  24.860  1.00  0.00     0.345 HD
ATOM     24  H   UNL A   1      37.772  24.239  25.791  1.00  0.00     0.345 HD
ATOM     25  H   UNL A   1      37.457  24.281  24.156  1.00  0.00     0.345 HD
ENDBRANCH  21  22
ENDBRANCH  15  17
ENDBRANCH  12  15
ENDBRANCH   5   8
ENDBRANCH   3   4
ENDBRANCH   2   3
ENDBRANCH   1   2
BRANCH   1  26
ATOM     26  C   UNL A   1      31.408  30.819  26.090  1.00  0.00     0.002 C 
BRANCH  26  27
ATOM     27  C   UNL A   1      31.343  32.291  26.510  1.00  0.00     0.021 C 
BRANCH  27  28
ATOM     28  C   UNL A   1      32.589  32.816  27.219  1.00  0.00     0.116 C 
BRANCH  28  29
ATOM     29  N   UNL A   1      32.437  34.203  27.626  1.00  0.00    -0.352 N 
ATOM     30  C   UNL A   1      33.046  34.887  28.648  1.00  0.00     0.251 C 
ATOM     31  H   UNL A   1      31.803  34.730  27.088  1.00  0.00     0.163 HD
ATOM     32  O   UNL A   1      32.627  35.989  28.986  1.00  0.00    -0.269 OA
BRANCH  30  33
ATOM     33  C   UNL A   1      34.208  34.300  29.349  1.00  0.00     0.039 A 
ATOM     34  C   UNL A   1      33.984  33.492  30.468  1.00  0.00     0.014 A 
ATOM     35  C   UNL A   1      35.513  34.577  28.934  1.00  0.00     0.014 A 
ATOM     36  C   UNL A   1      35.067  32.922  31.141  1.00  0.00     0.010 A 
ATOM     37  C   UNL A   1      36.589  33.962  29.569  1.00  0.00     0.010 A 
ATOM     38  C   UNL A   1      36.377  33.132  30.680  1.00  0.00    -0.014 A 
BRANCH  38  39
ATOM     39  C   UNL A   1      37.538  32.496  31.351  1.00  0.00     0.031 A 
ATOM     40  C   UNL A   1      38.290  31.387  30.671  1.00  0.00     0.074 A 
ATOM     41  C   UNL A   1      37.878  32.878  32.596  1.00  0.00     0.049 A 
ATOM     42  N   UNL A   1      39.278  30.657  31.124  1.00  0.00    -0.248 NA
ATOM     43  C   UNL A   1      37.860  31.034  29.308  1.00  0.00     0.031 C 
ATOM     44  C   UNL A   1      37.205  33.918  33.373  1.00  0.00     0.029 A 
ATOM     45  N   UNL A   1      38.871  32.430  33.430  1.00  0.00    -0.354 N 
ATOM     46  C   UNL A   1      39.574  29.751  30.114  1.00  0.00     0.074 A 
ATOM     47  C   UNL A   1      38.636  29.995  29.039  1.00  0.00     0.031 C 
ATOM     48  C   UNL A   1      37.819  34.048  34.560  1.00  0.00     0.029 A 
ATOM     49  C   UNL A   1      38.905  33.075  34.642  1.00  0.00     0.049 A 
ATOM     50  H   UNL A   1      39.499  31.713  33.184  1.00  0.00     0.167 HD
ATOM     51  C   UNL A   1      40.553  28.816  30.080  1.00  0.00     0.037 A 
ATOM     52  C   UNL A   1      39.719  32.901  35.700  1.00  0.00     0.037 A 
ATOM     53  C   UNL A   1      41.505  28.596  31.136  1.00  0.00     0.049 A 
ATOM     54  C   UNL A   1      40.798  31.856  35.633  1.00  0.00     0.074 A 
ATOM     55  C   UNL A   1      42.563  27.706  31.173  1.00  0.00     0.029 A 
ATOM     56  N   UNL A   1      41.514  29.280  32.344  1.00  0.00    -0.354 N 
ATOM     57  N   UNL A   1      41.095  31.034  34.657  1.00  0.00    -0.248 NA
ATOM     58  C   UNL A   1      41.660  31.718  36.817  1.00  0.00     0.031 C 
ATOM     59  C   UNL A   1      43.193  27.825  32.417  1.00  0.00     0.029 A 
ATOM     60  C   UNL A   1      42.553  28.821  33.137  1.00  0.00     0.049 A 
ATOM     61  H   UNL A   1      40.876  29.986  32.599  1.00  0.00     0.167 HD
ATOM     62  C   UNL A   1      42.190  30.301  35.095  1.00  0.00     0.074 A 
ATOM     63  C   UNL A   1      42.512  30.784  36.422  1.00  0.00     0.031 C 
ATOM     64  C   UNL A   1      42.866  29.318  34.453  1.00  0.00     0.037 A 
BRANCH  51  65
ATOM     65  C   UNL A   1      40.652  27.957  28.852  1.00  0.00     0.064 A 
ATOM     66  C   UNL A   1      39.914  26.771  28.726  1.00  0.00     0.173 A 
ATOM     67  C   UNL A   1      41.455  28.349  27.771  1.00  0.00     0.173 A 
ATOM     68  F   UNL A   1      39.141  26.346  29.737  1.00  0.00    -0.203 F 
ATOM     69  C   UNL A   1      39.989  26.000  27.570  1.00  0.00     0.198 A 
ATOM     70  C   UNL A   1      41.507  27.589  26.605  1.00  0.00     0.198 A 
ATOM     71  F   UNL A   1      42.177  29.477  27.838  1.00  0.00    -0.203 F 
ATOM     72  F   UNL A   1      39.304  24.850  27.487  1.00  0.00    -0.200 F 
ATOM     73  C   UNL A   1      40.780  26.412  26.508  1.00  0.00     0.200 A 
ATOM     74  F   UNL A   1      42.263  27.995  25.576  1.00  0.00    -0.200 F 
ATOM     75  F   UNL A   1      40.844  25.674  25.391  1.00  0.00    -0.200 F 
ENDBRANCH  51  65
BRANCH  52  76
ATOM     76  C   UNL A   1      39.568  33.765  36.898  1.00  0.00     0.064 A 
ATOM     77  C   UNL A   1      40.199  35.014  36.960  1.00  0.00     0.173 A 
ATOM     78  C   UNL A   1      38.785  33.372  37.992  1.00  0.00     0.173 A 
ATOM     79  F   UNL A   1      40.975  35.424  35.945  1.00  0.00    -0.203 F 
ATOM     80  C   UNL A   1      40.064  35.834  38.079  1.00  0.00     0.198 A 
ATOM     81  C   UNL A   1      38.631  34.202  39.100  1.00  0.00     0.198 A 
ATOM     82  F   UNL A   1      38.157  32.187  37.977  1.00  0.00    -0.203 F 
ATOM     83  F   UNL A   1      40.706  37.008  38.128  1.00  0.00    -0.200 F 
ATOM     84  C   UNL A   1      39.275  35.430  39.145  1.00  0.00     0.200 A 
ATOM     85  F   UNL A   1      37.857  33.814  40.123  1.00  0.00    -0.200 F 
ATOM     86  F   UNL A   1      39.139  36.221  40.218  1.00  0.00    -0.200 F 
ENDBRANCH  52  76
BRANCH  64  87
ATOM     87  C   UNL A   1      44.045  28.719  35.161  1.00  0.00     0.064 A 
ATOM     88  C   UNL A   1      43.905  27.622  36.022  1.00  0.00     0.173 A 
ATOM     89  C   UNL A   1      45.337  29.221  34.936  1.00  0.00     0.173 A 
ATOM     90  F   UNL A   1      42.690  27.116  36.279  1.00  0.00    -0.203 F 
ATOM     91  C   UNL A   1      45.014  27.061  36.650  1.00  0.00     0.198 A 
ATOM     92  C   UNL A   1      46.445  28.641  35.545  1.00  0.00     0.198 A 
ATOM     93  F   UNL A   1      45.522  30.265  34.115  1.00  0.00    -0.203 F 
ATOM     94  F   UNL A   1      44.853  26.039  37.502  1.00  0.00    -0.200 F 
ATOM     95  C   UNL A   1      46.283  27.566  36.406  1.00  0.00     0.200 A 
ATOM     96  F   UNL A   1      47.671  29.122  35.298  1.00  0.00    -0.200 F 
ATOM     97  F   UNL A   1      47.350  27.020  37.006  1.00  0.00    -0.200 F 
ENDBRANCH  64  87
ENDBRANCH  38  39
ENDBRANCH  30  33
ENDBRANCH  28  29
ENDBRANCH  27  28
ENDBRANCH  26  27
ENDBRANCH   1  26
TORSDOF 17
ENDMDL
MODEL 2
REMARK VINA RESULT:     -11.7      5.747     11.128
REMARK SMILES CO[C@H]1C[C@H](C(=O)NCCCCCCNC(=O)c2ccc(-c3c4nc(c(-c5c(F)c(F)c(F)c(F)c5F)c5ccc([nH]5)c(-c5c(F)c(F)c(F)c(F)c5F)c5nc(c(-c6c(F)c(F)c(F)c(F)c6F)c6ccc3[nH]6)C=C5)C=C4)cc2)N(C(=O)[C@H]2C=C[C@@H]([NH3+])C2)C1
REMARK SMILES IDX 11 1 10 2 9 3 8 4 6 5 7 6 5 8 3 9 4 10 90 11 81 12 2 13 1 14
REMARK SMILES IDX 82 15 83 16 84 17 85 18 89 19 86 20 87 21 88 22 12 26 13 27
REMARK SMILES IDX 14 28 15 29 16 30 17 32 18 33 19 34 80 35 20 36 79 37 21 38
REMARK SMILES IDX 22 39 23 40 73 41 24 42 78 43 72 44 74 45 25 46 77 47 71 48
REMARK SMILES IDX 70 49 26 51 58 52 38 53 57 54 39 55 42 56 56 57 75 58 40 59
REMARK SMILES IDX 41 60 55 62 76 63 43 64 27 65 28 66 36 67 29 68 30 69 34 70
REMARK SMILES IDX 37 71 31 72 32 73 35 74 33 75 59 76 60 77 68 78 61 79 62 80
REMARK SMILES IDX 66 81 69 82 63 83 64 84 67 85 65 86 44 87 45 88 53 89 46 90
REMARK SMILES IDX 47 91 51 92 54 93 48 94 49 95 52 96 50 97
REMARK H PARENT 8 7 88 23 88 24 88 25 15 31 74 50 42 61
REMARK Flexibility Score: inf
ROOT
ATOM      1  C   UNL A   1      37.473  21.887  25.361  1.00  0.00     0.002 C 
ENDROOT
BRANCH   1   2
ATOM      2  C   UNL A   1      36.760  23.069  24.696  1.00  0.00     0.021 C 
BRANCH   2   3
ATOM      3  C   UNL A   1      36.195  24.096  25.685  1.00  0.00     0.116 C 
BRANCH   3   4
ATOM      4  N   UNL A   1      35.082  24.807  25.092  1.00  0.00    -0.354 N 
ATOM      5  C   UNL A   1      33.765  24.496  24.976  1.00  0.00     0.242 C 
ATOM      6  O   UNL A   1      33.127  25.156  24.144  1.00  0.00    -0.273 OA
ATOM      7  H   UNL A   1      35.325  25.677  24.699  1.00  0.00     0.163 HD
BRANCH   5   8
ATOM      8  C   UNL A   1      33.077  23.295  25.671  1.00  0.00     0.177 C 
ATOM      9  C   UNL A   1      30.817  23.628  26.498  1.00  0.00     0.139 C 
ATOM     10  C   UNL A   1      32.285  23.734  26.904  1.00  0.00     0.069 C 
ATOM     11  C   UNL A   1      30.813  22.497  25.475  1.00  0.00     0.152 C 
ATOM     12  N   UNL A   1      32.156  22.447  24.913  1.00  0.00    -0.327 N 
BRANCH   9  13
ATOM     13  O   UNL A   1      29.967  23.325  27.598  1.00  0.00    -0.380 OA
ATOM     14  C   UNL A   1      28.928  22.414  27.257  1.00  0.00     0.195 C 
ENDBRANCH   9  13
BRANCH  12  15
ATOM     15  C   UNL A   1      32.433  21.466  23.984  1.00  0.00     0.230 C 
ATOM     16  O   UNL A   1      32.803  21.788  22.848  1.00  0.00    -0.274 OA
BRANCH  15  17
ATOM     17  C   UNL A   1      32.235  19.971  24.287  1.00  0.00     0.107 C 
ATOM     18  C   UNL A   1      32.249  19.050  23.113  1.00  0.00    -0.012 C 
ATOM     19  C   UNL A   1      33.282  19.382  25.245  1.00  0.00     0.087 C 
ATOM     20  C   UNL A   1      33.003  17.969  23.343  1.00  0.00     0.033 C 
ATOM     21  C   UNL A   1      33.628  17.986  24.699  1.00  0.00     0.205 C 
BRANCH  21  22
ATOM     22  N   UNL A   1      35.062  17.765  24.628  1.00  0.00    -0.352 N 
ATOM     23  H   UNL A   1      35.372  17.853  23.660  1.00  0.00     0.345 HD
ATOM     24  H   UNL A   1      35.280  16.831  24.972  1.00  0.00     0.345 HD
ATOM     25  H   UNL A   1      35.541  18.460  25.201  1.00  0.00     0.345 HD
ENDBRANCH  21  22
ENDBRANCH  15  17
ENDBRANCH  12  15
ENDBRANCH   5   8
ENDBRANCH   3   4
ENDBRANCH   2   3
ENDBRANCH   1   2
BRANCH   1  26
ATOM     26  C   UNL A   1      37.301  20.544  24.640  1.00  0.00     0.002 C 
BRANCH  26  27
ATOM     27  C   UNL A   1      38.319  19.460  25.010  1.00  0.00     0.021 C 
BRANCH  27  28
ATOM     28  C   UNL A   1      39.377  19.887  26.025  1.00  0.00     0.116 C 
BRANCH  28  29
ATOM     29  N   UNL A   1      40.490  18.953  26.073  1.00  0.00    -0.352 N 
ATOM     30  C   UNL A   1      41.839  19.201  26.112  1.00  0.00     0.251 C 
ATOM     31  H   UNL A   1      40.237  18.002  26.079  1.00  0.00     0.163 HD
ATOM     32  O   UNL A   1      42.637  18.290  25.919  1.00  0.00    -0.269 OA
BRANCH  30  33
ATOM     33  C   UNL A   1      42.339  20.565  26.383  1.00  0.00     0.039 A 
ATOM     34  C   UNL A   1      42.637  21.402  25.303  1.00  0.00     0.014 A 
ATOM     35  C   UNL A   1      42.553  21.006  27.691  1.00  0.00     0.014 A 
ATOM     36  C   UNL A   1      43.104  22.697  25.537  1.00  0.00     0.010 A 
ATOM     37  C   UNL A   1      42.962  22.316  27.925  1.00  0.00     0.010 A 
ATOM     38  C   UNL A   1      43.245  23.173  26.851  1.00  0.00    -0.014 A 
BRANCH  38  39
ATOM     39  C   UNL A   1      43.693  24.563  27.120  1.00  0.00     0.031 A 
ATOM     40  C   UNL A   1      42.727  25.574  27.670  1.00  0.00     0.074 A 
ATOM     41  C   UNL A   1      44.952  24.926  26.815  1.00  0.00     0.049 A 
ATOM     42  N   UNL A   1      42.907  26.851  27.898  1.00  0.00    -0.248 NA
ATOM     43  C   UNL A   1      41.372  25.094  27.983  1.00  0.00     0.031 C 
ATOM     44  C   UNL A   1      45.971  24.045  26.246  1.00  0.00     0.029 A 
ATOM     45  N   UNL A   1      45.588  26.136  26.935  1.00  0.00    -0.354 N 
ATOM     46  C   UNL A   1      41.689  27.328  28.363  1.00  0.00     0.074 A 
ATOM     47  C   UNL A   1      40.764  26.214  28.347  1.00  0.00     0.031 C 
ATOM     48  C   UNL A   1      47.112  24.735  26.090  1.00  0.00     0.029 A 
ATOM     49  C   UNL A   1      46.895  26.116  26.513  1.00  0.00     0.049 A 
ATOM     50  H   UNL A   1      45.149  26.944  27.288  1.00  0.00     0.167 HD
ATOM     51  C   UNL A   1      41.376  28.577  28.784  1.00  0.00     0.037 A 
ATOM     52  C   UNL A   1      47.813  27.099  26.469  1.00  0.00     0.037 A 
ATOM     53  C   UNL A   1      42.304  29.675  28.829  1.00  0.00     0.049 A 
ATOM     54  C   UNL A   1      47.438  28.476  26.945  1.00  0.00     0.074 A 
ATOM     55  C   UNL A   1      42.094  30.964  29.286  1.00  0.00     0.029 A 
ATOM     56  N   UNL A   1      43.623  29.611  28.404  1.00  0.00    -0.354 N 
ATOM     57  N   UNL A   1      46.296  28.904  27.421  1.00  0.00    -0.248 NA
ATOM     58  C   UNL A   1      48.486  29.506  26.881  1.00  0.00     0.031 C 
ATOM     59  C   UNL A   1      43.276  31.691  29.105  1.00  0.00     0.029 A 
ATOM     60  C   UNL A   1      44.235  30.842  28.577  1.00  0.00     0.049 A 
ATOM     61  H   UNL A   1      44.060  28.809  28.034  1.00  0.00     0.167 HD
ATOM     62  C   UNL A   1      46.491  30.242  27.737  1.00  0.00     0.074 A 
ATOM     63  C   UNL A   1      47.867  30.552  27.409  1.00  0.00     0.031 C 
ATOM     64  C   UNL A   1      45.609  31.132  28.253  1.00  0.00     0.037 A 
BRANCH  51  65
ATOM     65  C   UNL A   1      39.967  28.826  29.238  1.00  0.00     0.064 A 
ATOM     66  C   UNL A   1      38.970  29.238  28.343  1.00  0.00     0.173 A 
ATOM     67  C   UNL A   1      39.598  28.600  30.573  1.00  0.00     0.173 A 
ATOM     68  F   UNL A   1      39.273  29.479  27.058  1.00  0.00    -0.203 F 
ATOM     69  C   UNL A   1      37.659  29.435  28.770  1.00  0.00     0.198 A 
ATOM     70  C   UNL A   1      38.281  28.772  30.991  1.00  0.00     0.198 A 
ATOM     71  F   UNL A   1      40.513  28.201  31.469  1.00  0.00    -0.203 F 
ATOM     72  F   UNL A   1      36.731  29.867  27.904  1.00  0.00    -0.200 F 
ATOM     73  C   UNL A   1      37.314  29.195  30.091  1.00  0.00     0.200 A 
ATOM     74  F   UNL A   1      37.948  28.528  32.266  1.00  0.00    -0.200 F 
ATOM     75  F   UNL A   1      36.051  29.375  30.500  1.00  0.00    -0.200 F 
ENDBRANCH  51  65
BRANCH  52  76
ATOM     76  C   UNL A   1      49.188  26.805  25.994  1.00  0.00     0.064 A 
ATOM     77  C   UNL A   1      50.155  26.301  26.875  1.00  0.00     0.173 A 
ATOM     78  C   UNL A   1      49.561  27.006  24.658  1.00  0.00     0.173 A 
ATOM     79  F   UNL A   1      49.849  26.111  28.167  1.00  0.00    -0.203 F 
ATOM     80  C   UNL A   1      51.448  26.021  26.439  1.00  0.00     0.198 A 
ATOM     81  C   UNL A   1      50.847  26.703  24.218  1.00  0.00     0.198 A 
ATOM     82  F   UNL A   1      48.670  27.482  23.776  1.00  0.00    -0.203 F 
ATOM     83  F   UNL A   1      52.362  25.573  27.309  1.00  0.00    -0.200 F 
ATOM     84  C   UNL A   1      51.791  26.216  25.110  1.00  0.00     0.200 A 
ATOM     85  F   UNL A   1      51.173  26.881  22.930  1.00  0.00    -0.200 F 
ATOM     86  F   UNL A   1      53.034  25.939  24.690  1.00  0.00    -0.200 F 
ENDBRANCH  52  76
BRANCH  64  87
ATOM     87  C   UNL A   1      46.111  32.518  28.529  1.00  0.00     0.064 A 
ATOM     88  C   UNL A   1      46.013  33.538  27.573  1.00  0.00     0.173 A 
ATOM     89  C   UNL A   1      46.655  32.838  29.783  1.00  0.00     0.173 A 
ATOM     90  F   UNL A   1      45.514  33.278  26.355  1.00  0.00    -0.203 F 
ATOM     91  C   UNL A   1      46.460  34.827  27.855  1.00  0.00     0.198 A 
ATOM     92  C   UNL A   1      47.075  34.133  30.070  1.00  0.00     0.198 A 
ATOM     93  F   UNL A   1      46.763  31.897  30.733  1.00  0.00    -0.203 F 
ATOM     94  F   UNL A   1      46.395  35.778  26.913  1.00  0.00    -0.200 F 
ATOM     95  C   UNL A   1      46.984  35.124  29.105  1.00  0.00     0.200 A 
ATOM     96  F   UNL A   1      47.570  34.421  31.282  1.00  0.00    -0.200 F 
ATOM     97  F   UNL A   1      47.407  36.367  29.377  1.00  0.00    -0.200 F 
ENDBRANCH  64  87
ENDBRANCH  38  39
ENDBRANCH  30  33
ENDBRANCH  28  29
ENDBRANCH  27  28
ENDBRANCH  26  27
ENDBRANCH   1  26
TORSDOF 17
ENDMDL
MODEL 3
REMARK VINA RESULT:     -11.7      1.948      8.122
REMARK SMILES CO[C@H]1C[C@H](C(=O)NCCCCCCNC(=O)c2ccc(-c3c4nc(c(-c5c(F)c(F)c(F)c(F)c5F)c5ccc([nH]5)c(-c5c(F)c(F)c(F)c(F)c5F)c5nc(c(-c6c(F)c(F)c(F)c(F)c6F)c6ccc3[nH]6)C=C5)C=C4)cc2)N(C(=O)[C@H]2C=C[C@@H]([NH3+])C2)C1
REMARK SMILES IDX 11 1 10 2 9 3 8 4 6 5 7 6 5 8 3 9 4 10 90 11 81 12 2 13 1 14
REMARK SMILES IDX 82 15 83 16 84 17 85 18 89 19 86 20 87 21 88 22 12 26 13 27
REMARK SMILES IDX 14 28 15 29 16 30 17 32 18 33 19 34 80 35 20 36 79 37 21 38
REMARK SMILES IDX 22 39 23 40 73 41 24 42 78 43 72 44 74 45 25 46 77 47 71 48
REMARK SMILES IDX 70 49 26 51 58 52 38 53 57 54 39 55 42 56 56 57 75 58 40 59
REMARK SMILES IDX 41 60 55 62 76 63 43 64 27 65 28 66 36 67 29 68 30 69 34 70
REMARK SMILES IDX 37 71 31 72 32 73 35 74 33 75 59 76 60 77 68 78 61 79 62 80
REMARK SMILES IDX 66 81 69 82 63 83 64 84 67 85 65 86 44 87 45 88 53 89 46 90
REMARK SMILES IDX 47 91 51 92 54 93 48 94 49 95 52 96 50 97
REMARK H PARENT 8 7 88 23 88 24 88 25 15 31 74 50 42 61
REMARK Flexibility Score: inf
ROOT
ATOM      1  C   UNL A   1      34.438  32.290  28.877  1.00  0.00     0.002 C 
ENDROOT
BRANCH   1   2
ATOM      2  C   UNL A   1      33.860  31.619  27.626  1.00  0.00     0.021 C 
BRANCH   2   3
ATOM      3  C   UNL A   1      34.424  30.220  27.349  1.00  0.00     0.116 C 
BRANCH   3   4
ATOM      4  N   UNL A   1      33.427  29.210  27.637  1.00  0.00    -0.354 N 
ATOM      5  C   UNL A   1      32.628  28.467  26.828  1.00  0.00     0.242 C 
ATOM      6  O   UNL A   1      31.663  27.921  27.379  1.00  0.00    -0.273 OA
ATOM      7  H   UNL A   1      33.306  29.028  28.597  1.00  0.00     0.163 HD
BRANCH   5   8
ATOM      8  C   UNL A   1      32.746  28.407  25.285  1.00  0.00     0.177 C 
ATOM      9  C   UNL A   1      32.590  26.219  24.239  1.00  0.00     0.139 C 
ATOM     10  C   UNL A   1      33.588  27.212  24.830  1.00  0.00     0.069 C 
ATOM     11  C   UNL A   1      31.479  27.112  23.696  1.00  0.00     0.152 C 
ATOM     12  N   UNL A   1      31.535  28.349  24.465  1.00  0.00    -0.327 N 
BRANCH   9  13
ATOM     13  O   UNL A   1      33.158  25.425  23.204  1.00  0.00    -0.380 OA
ATOM     14  C   UNL A   1      32.980  25.994  21.912  1.00  0.00     0.195 C 
ENDBRANCH   9  13
BRANCH  12  15
ATOM     15  C   UNL A   1      30.653  29.357  24.135  1.00  0.00     0.230 C 
ATOM     16  O   UNL A   1      30.668  30.415  24.776  1.00  0.00    -0.274 OA
BRANCH  15  17
ATOM     17  C   UNL A   1      29.594  29.190  23.032  1.00  0.00     0.107 C 
ATOM     18  C   UNL A   1      28.205  29.610  23.380  1.00  0.00    -0.012 C 
ATOM     19  C   UNL A   1      29.910  29.956  21.739  1.00  0.00     0.087 C 
ATOM     20  C   UNL A   1      27.653  30.343  22.406  1.00  0.00     0.033 C 
ATOM     21  C   UNL A   1      28.576  30.547  21.251  1.00  0.00     0.205 C 
BRANCH  21  22
ATOM     22  N   UNL A   1      28.694  31.953  20.904  1.00  0.00    -0.352 N 
ATOM     23  H   UNL A   1      29.635  32.279  21.124  1.00  0.00     0.345 HD
ATOM     24  H   UNL A   1      28.012  32.493  21.436  1.00  0.00     0.345 HD
ATOM     25  H   UNL A   1      28.518  32.071  19.906  1.00  0.00     0.345 HD
ENDBRANCH  21  22
ENDBRANCH  15  17
ENDBRANCH  12  15
ENDBRANCH   5   8
ENDBRANCH   3   4
ENDBRANCH   2   3
ENDBRANCH   1   2
BRANCH   1  26
ATOM     26  C   UNL A   1      34.566  33.816  28.786  1.00  0.00     0.002 C 
BRANCH  26  27
ATOM     27  C   UNL A   1      33.246  34.594  28.826  1.00  0.00     0.021 C 
BRANCH  27  28
ATOM     28  C   UNL A   1      33.365  36.042  29.296  1.00  0.00     0.116 C 
BRANCH  28  29
ATOM     29  N   UNL A   1      32.516  36.308  30.446  1.00  0.00    -0.352 N 
ATOM     30  C   UNL A   1      32.592  35.812  31.723  1.00  0.00     0.251 C 
ATOM     31  H   UNL A   1      31.778  36.939  30.284  1.00  0.00     0.163 HD
ATOM     32  O   UNL A   1      31.657  35.970  32.501  1.00  0.00    -0.269 OA
BRANCH  30  33
ATOM     33  C   UNL A   1      33.797  35.080  32.169  1.00  0.00     0.039 A 
ATOM     34  C   UNL A   1      33.653  33.782  32.668  1.00  0.00     0.014 A 
ATOM     35  C   UNL A   1      35.057  35.683  32.136  1.00  0.00     0.014 A 
ATOM     36  C   UNL A   1      34.779  33.071  33.087  1.00  0.00     0.010 A 
ATOM     37  C   UNL A   1      36.186  34.953  32.499  1.00  0.00     0.010 A 
ATOM     38  C   UNL A   1      36.058  33.642  32.982  1.00  0.00    -0.014 A 
BRANCH  38  39
ATOM     39  C   UNL A   1      37.272  32.885  33.376  1.00  0.00     0.031 A 
ATOM     40  C   UNL A   1      37.946  33.166  34.689  1.00  0.00     0.074 A 
ATOM     41  C   UNL A   1      37.800  31.986  32.524  1.00  0.00     0.049 A 
ATOM     42  N   UNL A   1      39.055  32.667  35.174  1.00  0.00    -0.248 NA
ATOM     43  C   UNL A   1      37.300  34.157  35.565  1.00  0.00     0.031 C 
ATOM     44  C   UNL A   1      37.258  31.650  31.208  1.00  0.00     0.029 A 
ATOM     45  N   UNL A   1      38.916  31.195  32.636  1.00  0.00    -0.354 N 
ATOM     46  C   UNL A   1      39.248  33.293  36.398  1.00  0.00     0.074 A 
ATOM     47  C   UNL A   1      38.165  34.239  36.565  1.00  0.00     0.031 C 
ATOM     48  C   UNL A   1      38.026  30.703  30.644  1.00  0.00     0.029 A 
ATOM     49  C   UNL A   1      39.134  30.393  31.543  1.00  0.00     0.049 A 
ATOM     50  H   UNL A   1      39.505  31.202  33.425  1.00  0.00     0.167 HD
ATOM     51  C   UNL A   1      40.229  33.083  37.308  1.00  0.00     0.037 A 
ATOM     52  C   UNL A   1      40.118  29.508  31.293  1.00  0.00     0.037 A 
ATOM     53  C   UNL A   1      41.287  32.120  37.154  1.00  0.00     0.049 A 
ATOM     54  C   UNL A   1      41.193  29.294  32.322  1.00  0.00     0.074 A 
ATOM     55  C   UNL A   1      42.298  31.800  38.043  1.00  0.00     0.029 A 
ATOM     56  N   UNL A   1      41.466  31.317  36.038  1.00  0.00    -0.354 N 
ATOM     57  N   UNL A   1      41.342  29.862  33.492  1.00  0.00    -0.248 NA
ATOM     58  C   UNL A   1      42.235  28.310  31.995  1.00  0.00     0.031 C 
ATOM     59  C   UNL A   1      43.111  30.828  37.450  1.00  0.00     0.029 A 
ATOM     60  C   UNL A   1      42.580  30.511  36.210  1.00  0.00     0.049 A 
ATOM     61  H   UNL A   1      40.888  31.320  35.240  1.00  0.00     0.167 HD
ATOM     62  C   UNL A   1      42.476  29.289  34.053  1.00  0.00     0.074 A 
ATOM     63  C   UNL A   1      42.970  28.319  33.098  1.00  0.00     0.031 C 
ATOM     64  C   UNL A   1      43.054  29.544  35.252  1.00  0.00     0.037 A 
BRANCH  51  65
ATOM     65  C   UNL A   1      40.204  33.909  38.562  1.00  0.00     0.064 A 
ATOM     66  C   UNL A   1      39.495  33.493  39.698  1.00  0.00     0.173 A 
ATOM     67  C   UNL A   1      40.936  35.102  38.644  1.00  0.00     0.173 A 
ATOM     68  F   UNL A   1      38.769  32.365  39.667  1.00  0.00    -0.203 F 
ATOM     69  C   UNL A   1      39.505  34.251  40.866  1.00  0.00     0.198 A 
ATOM     70  C   UNL A   1      40.966  35.844  39.822  1.00  0.00     0.198 A 
ATOM     71  F   UNL A   1      41.635  35.542  37.587  1.00  0.00    -0.203 F 
ATOM     72  F   UNL A   1      38.789  33.855  41.928  1.00  0.00    -0.200 F 
ATOM     73  C   UNL A   1      40.246  35.422  40.930  1.00  0.00     0.200 A 
ATOM     74  F   UNL A   1      41.692  36.969  39.885  1.00  0.00    -0.200 F 
ATOM     75  F   UNL A   1      40.263  36.146  42.057  1.00  0.00    -0.200 F 
ENDBRANCH  51  65
BRANCH  52  76
ATOM     76  C   UNL A   1      40.107  28.730  30.029  1.00  0.00     0.064 A 
ATOM     77  C   UNL A   1      39.484  27.476  29.969  1.00  0.00     0.173 A 
ATOM     78  C   UNL A   1      40.701  29.223  28.859  1.00  0.00     0.173 A 
ATOM     79  F   UNL A   1      38.920  26.955  31.069  1.00  0.00    -0.203 F 
ATOM     80  C   UNL A   1      39.468  26.737  28.788  1.00  0.00     0.198 A 
ATOM     81  C   UNL A   1      40.662  28.494  27.672  1.00  0.00     0.198 A 
ATOM     82  F   UNL A   1      41.304  30.420  28.865  1.00  0.00    -0.203 F 
ATOM     83  F   UNL A   1      38.896  25.526  28.767  1.00  0.00    -0.200 F 
ATOM     84  C   UNL A   1      40.051  27.249  27.639  1.00  0.00     0.200 A 
ATOM     85  F   UNL A   1      41.216  28.997  26.560  1.00  0.00    -0.200 F 
ATOM     86  F   UNL A   1      40.028  26.542  26.501  1.00  0.00    -0.200 F 
ENDBRANCH  52  76
BRANCH  64  87
ATOM     87  C   UNL A   1      44.266  28.740  35.617  1.00  0.00     0.064 A 
ATOM     88  C   UNL A   1      45.560  29.175  35.297  1.00  0.00     0.173 A 
ATOM     89  C   UNL A   1      44.132  27.543  36.337  1.00  0.00     0.173 A 
ATOM     90  F   UNL A   1      45.739  30.306  34.598  1.00  0.00    -0.203 F 
ATOM     91  C   UNL A   1      46.676  28.429  35.667  1.00  0.00     0.198 A 
ATOM     92  C   UNL A   1      45.251  26.814  36.727  1.00  0.00     0.198 A 
ATOM     93  F   UNL A   1      42.915  27.088  36.672  1.00  0.00    -0.203 F 
ATOM     94  F   UNL A   1      47.902  28.842  35.315  1.00  0.00    -0.200 F 
ATOM     95  C   UNL A   1      46.521  27.254  36.387  1.00  0.00     0.200 A 
ATOM     96  F   UNL A   1      45.100  25.685  37.434  1.00  0.00    -0.200 F 
ATOM     97  F   UNL A   1      47.598  26.541  36.748  1.00  0.00    -0.200 F 
ENDBRANCH  64  87
ENDBRANCH  38  39
ENDBRANCH  30  33
ENDBRANCH  28  29
ENDBRANCH  27  28
ENDBRANCH  26  27
ENDBRANCH   1  26
TORSDOF 17
ENDMDL
