MODEL 1
REMARK VINA RESULT:     -11.4      0.000      0.000
REMARK SMILES C#CC[N@@H+](CC(=O)NCCCCCCNC(=O)c1ccc(-c2c3nc(c(-c4c(F)c(F)c(F)c(F)c4F)c4ccc([nH]4)c(-c4c(F)c(F)c(F)c(F)c4F)c4nc(c(-c5c(F)c(F)c(F)c(F)c5F)c5ccc2[nH]5)C=C4)C=C3)cc1)Cc1cn(CC)c2ccccc12
REMARK SMILES IDX 10 1 9 2 8 3 6 4 7 5 5 7 4 8 3 10 2 11 1 12 81 13 82 14
REMARK SMILES IDX 83 15 92 16 84 17 87 18 91 19 88 20 90 21 89 22 85 23 86 24
REMARK SMILES IDX 11 25 12 26 13 27 14 28 15 29 16 30 17 32 18 33 19 34 80 35
REMARK SMILES IDX 20 36 79 37 21 38 22 39 23 40 73 41 24 42 78 43 72 44 74 45
REMARK SMILES IDX 25 46 77 47 71 48 70 49 26 51 58 52 38 53 57 54 39 55 42 56
REMARK SMILES IDX 56 57 75 58 40 59 41 60 55 62 76 63 43 64 27 65 28 66 36 67
REMARK SMILES IDX 29 68 30 69 34 70 37 71 31 72 32 73 35 74 33 75 59 76 60 77
REMARK SMILES IDX 68 78 61 79 62 80 66 81 69 82 63 83 64 84 67 85 65 86 44 87
REMARK SMILES IDX 45 88 53 89 46 90 47 91 51 92 54 93 48 94 49 95 52 96 50 97
REMARK H PARENT 8 6 4 9 15 31 74 50 42 61
REMARK Flexibility Score: inf
ROOT
ATOM      1  C   UNL A   1      32.549  28.817  27.249  1.00  0.00     0.021 C 
ENDROOT
BRANCH   1   2
ATOM      2  C   UNL A   1      31.299  28.084  26.728  1.00  0.00     0.116 C 
BRANCH   2   3
ATOM      3  N   UNL A   1      31.335  26.688  27.103  1.00  0.00    -0.351 N 
ATOM      4  C   UNL A   1      31.480  25.529  26.406  1.00  0.00     0.275 C 
ATOM      5  O   UNL A   1      31.389  24.513  27.103  1.00  0.00    -0.269 OA
ATOM      6  H   UNL A   1      31.233  26.546  28.072  1.00  0.00     0.163 HD
BRANCH   4   7
ATOM      7  C   UNL A   1      31.832  25.455  24.902  1.00  0.00     0.364 C 
BRANCH   7   8
ATOM      8  N   UNL A   1      33.248  25.105  24.522  1.00  0.00    -0.313 N 
ATOM      9  H   UNL A   1      33.549  24.328  25.110  1.00  0.00     0.349 HD
BRANCH   8  10
ATOM     10  C   UNL A   1      33.983  26.314  24.701  1.00  0.00     0.354 C 
BRANCH  10  11
ATOM     11  C   UNL A   1      33.713  27.574  23.895  1.00  0.00    -0.047 C 
ATOM     12  C   UNL A   1      33.481  28.655  23.203  1.00  0.00     0.010 C 
ENDBRANCH  10  11
ENDBRANCH   8  10
BRANCH   8  13
ATOM     13  C   UNL A   1      33.468  24.564  23.161  1.00  0.00     0.302 C 
BRANCH  13  14
ATOM     14  C   UNL A   1      33.806  23.123  23.268  1.00  0.00     0.032 A 
ATOM     15  C   UNL A   1      32.897  22.085  23.263  1.00  0.00     0.096 A 
ATOM     16  C   UNL A   1      35.051  22.597  23.715  1.00  0.00     0.008 A 
ATOM     17  N   UNL A   1      33.401  21.154  24.152  1.00  0.00    -0.347 N 
ATOM     18  C   UNL A   1      34.757  21.380  24.340  1.00  0.00     0.048 A 
ATOM     19  C   UNL A   1      36.329  23.174  23.868  1.00  0.00     0.011 A 
ATOM     20  C   UNL A   1      35.715  20.726  25.126  1.00  0.00     0.027 A 
ATOM     21  C   UNL A   1      37.283  22.529  24.651  1.00  0.00     0.001 A 
ATOM     22  C   UNL A   1      36.973  21.324  25.274  1.00  0.00     0.002 A 
BRANCH  17  23
ATOM     23  C   UNL A   1      32.515  20.498  25.104  1.00  0.00     0.119 C 
ATOM     24  C   UNL A   1      32.702  19.012  25.281  1.00  0.00     0.027 C 
ENDBRANCH  17  23
ENDBRANCH  13  14
ENDBRANCH   8  13
ENDBRANCH   7   8
ENDBRANCH   4   7
ENDBRANCH   2   3
ENDBRANCH   1   2
BRANCH   1  25
ATOM     25  C   UNL A   1      32.771  30.190  26.628  1.00  0.00     0.002 C 
BRANCH  25  26
ATOM     26  C   UNL A   1      31.488  30.850  26.145  1.00  0.00     0.002 C 
BRANCH  26  27
ATOM     27  C   UNL A   1      31.352  32.308  26.587  1.00  0.00     0.021 C 
BRANCH  27  28
ATOM     28  C   UNL A   1      32.612  32.862  27.239  1.00  0.00     0.116 C 
BRANCH  28  29
ATOM     29  N   UNL A   1      32.427  34.252  27.615  1.00  0.00    -0.352 N 
ATOM     30  C   UNL A   1      33.015  34.909  28.664  1.00  0.00     0.251 C 
ATOM     31  H   UNL A   1      31.814  34.779  27.055  1.00  0.00     0.163 HD
ATOM     32  O   UNL A   1      32.582  35.966  29.086  1.00  0.00    -0.269 OA
BRANCH  30  33
ATOM     33  C   UNL A   1      34.205  34.279  29.264  1.00  0.00     0.039 A 
ATOM     34  C   UNL A   1      35.470  34.593  28.773  1.00  0.00     0.014 A 
ATOM     35  C   UNL A   1      34.042  33.439  30.371  1.00  0.00     0.014 A 
ATOM     36  C   UNL A   1      36.592  34.070  29.414  1.00  0.00     0.010 A 
ATOM     37  C   UNL A   1      35.160  32.995  31.057  1.00  0.00     0.010 A 
ATOM     38  C   UNL A   1      36.443  33.281  30.566  1.00  0.00    -0.014 A 
BRANCH  38  39
ATOM     39  C   UNL A   1      37.608  32.672  31.247  1.00  0.00     0.031 A 
ATOM     40  C   UNL A   1      38.326  31.535  30.576  1.00  0.00     0.074 A 
ATOM     41  C   UNL A   1      37.968  33.086  32.475  1.00  0.00     0.049 A 
ATOM     42  N   UNL A   1      39.282  30.771  31.036  1.00  0.00    -0.248 NA
ATOM     43  C   UNL A   1      37.881  31.187  29.216  1.00  0.00     0.031 C 
ATOM     44  C   UNL A   1      37.325  34.161  33.231  1.00  0.00     0.029 A 
ATOM     45  N   UNL A   1      38.958  32.636  33.311  1.00  0.00    -0.354 N 
ATOM     46  C   UNL A   1      39.533  29.843  30.034  1.00  0.00     0.074 A 
ATOM     47  C   UNL A   1      38.588  30.096  28.970  1.00  0.00     0.031 C 
ATOM     48  C   UNL A   1      37.950  34.300  34.412  1.00  0.00     0.029 A 
ATOM     49  C   UNL A   1      39.003  33.294  34.515  1.00  0.00     0.049 A 
ATOM     50  H   UNL A   1      39.577  31.909  33.071  1.00  0.00     0.167 HD
ATOM     51  C   UNL A   1      40.487  28.884  29.993  1.00  0.00     0.037 A 
ATOM     52  C   UNL A   1      39.798  33.093  35.583  1.00  0.00     0.037 A 
ATOM     53  C   UNL A   1      41.440  28.661  31.047  1.00  0.00     0.049 A 
ATOM     54  C   UNL A   1      40.835  32.002  35.525  1.00  0.00     0.074 A 
ATOM     55  C   UNL A   1      42.478  27.748  31.092  1.00  0.00     0.029 A 
ATOM     56  N   UNL A   1      41.466  29.362  32.245  1.00  0.00    -0.354 N 
ATOM     57  N   UNL A   1      41.102  31.163  34.552  1.00  0.00    -0.248 NA
ATOM     58  C   UNL A   1      41.686  31.832  36.711  1.00  0.00     0.031 C 
ATOM     59  C   UNL A   1      43.098  27.858  32.339  1.00  0.00     0.029 A 
ATOM     60  C   UNL A   1      42.491  28.887  33.045  1.00  0.00     0.049 A 
ATOM     61  H   UNL A   1      40.849  30.088  32.489  1.00  0.00     0.167 HD
ATOM     62  C   UNL A   1      42.174  30.398  34.990  1.00  0.00     0.074 A 
ATOM     63  C   UNL A   1      42.511  30.874  36.316  1.00  0.00     0.031 C 
ATOM     64  C   UNL A   1      42.825  29.395  34.352  1.00  0.00     0.037 A 
BRANCH  51  65
ATOM     65  C   UNL A   1      40.542  28.009  28.775  1.00  0.00     0.064 A 
ATOM     66  C   UNL A   1      41.326  28.342  27.660  1.00  0.00     0.173 A 
ATOM     67  C   UNL A   1      39.815  26.810  28.728  1.00  0.00     0.173 A 
ATOM     68  F   UNL A   1      42.030  29.485  27.645  1.00  0.00    -0.203 F 
ATOM     69  C   UNL A   1      41.353  27.527  26.531  1.00  0.00     0.198 A 
ATOM     70  C   UNL A   1      39.873  25.978  27.612  1.00  0.00     0.198 A 
ATOM     71  F   UNL A   1      39.050  26.441  29.767  1.00  0.00    -0.203 F 
ATOM     72  F   UNL A   1      42.062  27.898  25.456  1.00  0.00    -0.200 F 
ATOM     73  C   UNL A   1      40.633  26.343  26.512  1.00  0.00     0.200 A 
ATOM     74  F   UNL A   1      39.188  24.826  27.602  1.00  0.00    -0.200 F 
ATOM     75  F   UNL A   1      40.666  25.556  25.427  1.00  0.00    -0.200 F 
ENDBRANCH  51  65
BRANCH  52  76
ATOM     76  C   UNL A   1      39.660  33.954  36.788  1.00  0.00     0.064 A 
ATOM     77  C   UNL A   1      40.339  35.177  36.879  1.00  0.00     0.173 A 
ATOM     78  C   UNL A   1      38.860  33.572  37.874  1.00  0.00     0.173 A 
ATOM     79  F   UNL A   1      41.131  35.580  35.873  1.00  0.00    -0.203 F 
ATOM     80  C   UNL A   1      40.245  35.972  38.019  1.00  0.00     0.198 A 
ATOM     81  C   UNL A   1      38.742  34.382  39.002  1.00  0.00     0.198 A 
ATOM     82  F   UNL A   1      38.182  32.415  37.836  1.00  0.00    -0.203 F 
ATOM     83  F   UNL A   1      40.946  37.111  38.100  1.00  0.00    -0.200 F 
ATOM     84  C   UNL A   1      39.442  35.575  39.078  1.00  0.00     0.200 A 
ATOM     85  F   UNL A   1      37.950  34.004  40.015  1.00  0.00    -0.200 F 
ATOM     86  F   UNL A   1      39.349  36.341  40.175  1.00  0.00    -0.200 F 
ENDBRANCH  52  76
BRANCH  64  87
ATOM     87  C   UNL A   1      44.012  28.785  35.041  1.00  0.00     0.064 A 
ATOM     88  C   UNL A   1      45.303  29.315  34.905  1.00  0.00     0.173 A 
ATOM     89  C   UNL A   1      43.836  27.696  35.908  1.00  0.00     0.173 A 
ATOM     90  F   UNL A   1      45.526  30.347  34.078  1.00  0.00    -0.203 F 
ATOM     91  C   UNL A   1      46.378  28.761  35.595  1.00  0.00     0.198 A 
ATOM     92  C   UNL A   1      44.906  27.167  36.623  1.00  0.00     0.198 A 
ATOM     93  F   UNL A   1      42.618  27.158  36.080  1.00  0.00    -0.203 F 
ATOM     94  F   UNL A   1      47.611  29.255  35.417  1.00  0.00    -0.200 F 
ATOM     95  C   UNL A   1      46.177  27.697  36.461  1.00  0.00     0.200 A 
ATOM     96  F   UNL A   1      44.706  26.151  37.473  1.00  0.00    -0.200 F 
ATOM     97  F   UNL A   1      47.211  27.177  37.139  1.00  0.00    -0.200 F 
ENDBRANCH  64  87
ENDBRANCH  38  39
ENDBRANCH  30  33
ENDBRANCH  28  29
ENDBRANCH  27  28
ENDBRANCH  26  27
ENDBRANCH  25  26
ENDBRANCH   1  25
TORSDOF 19
ENDMDL
MODEL 2
REMARK VINA RESULT:     -11.1      0.335      2.027
REMARK SMILES C#CC[N@@H+](CC(=O)NCCCCCCNC(=O)c1ccc(-c2c3nc(c(-c4c(F)c(F)c(F)c(F)c4F)c4ccc([nH]4)c(-c4c(F)c(F)c(F)c(F)c4F)c4nc(c(-c5c(F)c(F)c(F)c(F)c5F)c5ccc2[nH]5)C=C4)C=C3)cc1)Cc1cn(CC)c2ccccc12
REMARK SMILES IDX 10 1 9 2 8 3 6 4 7 5 5 7 4 8 3 10 2 11 1 12 81 13 82 14
REMARK SMILES IDX 83 15 92 16 84 17 87 18 91 19 88 20 90 21 89 22 85 23 86 24
REMARK SMILES IDX 11 25 12 26 13 27 14 28 15 29 16 30 17 32 18 33 19 34 80 35
REMARK SMILES IDX 20 36 79 37 21 38 22 39 23 40 73 41 24 42 78 43 72 44 74 45
REMARK SMILES IDX 25 46 77 47 71 48 70 49 26 51 58 52 38 53 57 54 39 55 42 56
REMARK SMILES IDX 56 57 75 58 40 59 41 60 55 62 76 63 43 64 27 65 28 66 36 67
REMARK SMILES IDX 29 68 30 69 34 70 37 71 31 72 32 73 35 74 33 75 59 76 60 77
REMARK SMILES IDX 68 78 61 79 62 80 66 81 69 82 63 83 64 84 67 85 65 86 44 87
REMARK SMILES IDX 45 88 53 89 46 90 47 91 51 92 54 93 48 94 49 95 52 96 50 97
REMARK H PARENT 8 6 4 9 15 31 74 50 42 61
REMARK Flexibility Score: inf
ROOT
ATOM      1  C   UNL A   1      32.961  28.766  27.044  1.00  0.00     0.021 C 
ENDROOT
BRANCH   1   2
ATOM      2  C   UNL A   1      31.556  28.142  26.946  1.00  0.00     0.116 C 
BRANCH   2   3
ATOM      3  N   UNL A   1      31.619  26.713  27.157  1.00  0.00    -0.351 N 
ATOM      4  C   UNL A   1      31.712  25.640  26.325  1.00  0.00     0.275 C 
ATOM      5  O   UNL A   1      31.672  24.552  26.908  1.00  0.00    -0.269 OA
ATOM      6  H   UNL A   1      31.588  26.462  28.109  1.00  0.00     0.163 HD
BRANCH   4   7
ATOM      7  C   UNL A   1      31.952  25.739  24.801  1.00  0.00     0.364 C 
BRANCH   7   8
ATOM      8  N   UNL A   1      33.321  25.387  24.275  1.00  0.00    -0.313 N 
ATOM      9  H   UNL A   1      33.698  24.637  24.854  1.00  0.00     0.349 HD
BRANCH   8  10
ATOM     10  C   UNL A   1      34.054  26.609  24.322  1.00  0.00     0.354 C 
BRANCH  10  11
ATOM     11  C   UNL A   1      33.572  27.890  23.659  1.00  0.00    -0.047 C 
ATOM     12  C   UNL A   1      33.159  28.988  23.091  1.00  0.00     0.010 C 
ENDBRANCH  10  11
ENDBRANCH   8  10
BRANCH   8  13
ATOM     13  C   UNL A   1      33.391  24.794  22.920  1.00  0.00     0.302 C 
BRANCH  13  14
ATOM     14  C   UNL A   1      33.638  23.336  23.049  1.00  0.00     0.032 A 
ATOM     15  C   UNL A   1      32.666  22.358  23.061  1.00  0.00     0.096 A 
ATOM     16  C   UNL A   1      34.849  22.739  23.501  1.00  0.00     0.008 A 
ATOM     17  N   UNL A   1      33.111  21.411  23.962  1.00  0.00    -0.347 N 
ATOM     18  C   UNL A   1      34.479  21.554  24.145  1.00  0.00     0.048 A 
ATOM     19  C   UNL A   1      36.161  23.237  23.644  1.00  0.00     0.011 A 
ATOM     20  C   UNL A   1      35.396  20.852  24.940  1.00  0.00     0.027 A 
ATOM     21  C   UNL A   1      37.073  22.545  24.436  1.00  0.00     0.001 A 
ATOM     22  C   UNL A   1      36.690  21.372  25.077  1.00  0.00     0.002 A 
BRANCH  17  23
ATOM     23  C   UNL A   1      32.188  20.826  24.926  1.00  0.00     0.119 C 
ATOM     24  C   UNL A   1      31.230  21.777  25.599  1.00  0.00     0.027 C 
ENDBRANCH  17  23
ENDBRANCH  13  14
ENDBRANCH   8  13
ENDBRANCH   7   8
ENDBRANCH   4   7
ENDBRANCH   2   3
ENDBRANCH   1   2
BRANCH   1  25
ATOM     25  C   UNL A   1      33.004  30.257  26.737  1.00  0.00     0.002 C 
BRANCH  25  26
ATOM     26  C   UNL A   1      31.626  30.880  26.566  1.00  0.00     0.002 C 
BRANCH  26  27
ATOM     27  C   UNL A   1      31.644  32.408  26.597  1.00  0.00     0.021 C 
BRANCH  27  28
ATOM     28  C   UNL A   1      32.749  32.983  27.473  1.00  0.00     0.116 C 
BRANCH  28  29
ATOM     29  N   UNL A   1      32.540  34.401  27.700  1.00  0.00    -0.352 N 
ATOM     30  C   UNL A   1      33.050  35.158  28.722  1.00  0.00     0.251 C 
ATOM     31  H   UNL A   1      31.971  34.870  27.048  1.00  0.00     0.163 HD
ATOM     32  O   UNL A   1      32.589  36.248  29.008  1.00  0.00    -0.269 OA
BRANCH  30  33
ATOM     33  C   UNL A   1      34.190  34.595  29.466  1.00  0.00     0.039 A 
ATOM     34  C   UNL A   1      33.964  33.926  30.668  1.00  0.00     0.014 A 
ATOM     35  C   UNL A   1      35.470  34.673  28.907  1.00  0.00     0.014 A 
ATOM     36  C   UNL A   1      35.037  33.310  31.310  1.00  0.00     0.010 A 
ATOM     37  C   UNL A   1      36.515  33.985  29.501  1.00  0.00     0.010 A 
ATOM     38  C   UNL A   1      36.313  33.325  30.723  1.00  0.00    -0.014 A 
BRANCH  38  39
ATOM     39  C   UNL A   1      37.485  32.720  31.397  1.00  0.00     0.031 A 
ATOM     40  C   UNL A   1      38.205  31.588  30.721  1.00  0.00     0.074 A 
ATOM     41  C   UNL A   1      37.849  33.134  32.624  1.00  0.00     0.049 A 
ATOM     42  N   UNL A   1      39.168  30.829  31.174  1.00  0.00    -0.248 NA
ATOM     43  C   UNL A   1      37.755  31.240  29.362  1.00  0.00     0.031 C 
ATOM     44  C   UNL A   1      37.204  34.204  33.385  1.00  0.00     0.029 A 
ATOM     45  N   UNL A   1      38.846  32.688  33.454  1.00  0.00    -0.354 N 
ATOM     46  C   UNL A   1      39.419  29.903  30.169  1.00  0.00     0.074 A 
ATOM     47  C   UNL A   1      38.467  30.153  29.110  1.00  0.00     0.031 C 
ATOM     48  C   UNL A   1      37.834  34.344  34.564  1.00  0.00     0.029 A 
ATOM     49  C   UNL A   1      38.893  33.344  34.659  1.00  0.00     0.049 A 
ATOM     50  H   UNL A   1      39.468  31.965  33.210  1.00  0.00     0.167 HD
ATOM     51  C   UNL A   1      40.377  28.950  30.122  1.00  0.00     0.037 A 
ATOM     52  C   UNL A   1      39.695  33.145  35.723  1.00  0.00     0.037 A 
ATOM     53  C   UNL A   1      41.337  28.730  31.170  1.00  0.00     0.049 A 
ATOM     54  C   UNL A   1      40.738  32.060  35.658  1.00  0.00     0.074 A 
ATOM     55  C   UNL A   1      42.380  27.823  31.208  1.00  0.00     0.029 A 
ATOM     56  N   UNL A   1      41.366  29.429  32.369  1.00  0.00    -0.354 N 
ATOM     57  N   UNL A   1      41.004  31.224  34.682  1.00  0.00    -0.248 NA
ATOM     58  C   UNL A   1      41.595  31.892  36.839  1.00  0.00     0.031 C 
ATOM     59  C   UNL A   1      43.006  27.934  32.453  1.00  0.00     0.029 A 
ATOM     60  C   UNL A   1      42.397  28.958  33.164  1.00  0.00     0.049 A 
ATOM     61  H   UNL A   1      40.745  30.151  32.618  1.00  0.00     0.167 HD
ATOM     62  C   UNL A   1      42.082  30.464  35.113  1.00  0.00     0.074 A 
ATOM     63  C   UNL A   1      42.424  30.939  36.438  1.00  0.00     0.031 C 
ATOM     64  C   UNL A   1      42.735  29.466  34.469  1.00  0.00     0.037 A 
BRANCH  51  65
ATOM     65  C   UNL A   1      40.430  28.077  28.902  1.00  0.00     0.064 A 
ATOM     66  C   UNL A   1      39.741  26.857  28.836  1.00  0.00     0.173 A 
ATOM     67  C   UNL A   1      41.166  28.475  27.775  1.00  0.00     0.173 A 
ATOM     68  F   UNL A   1      39.033  26.421  29.890  1.00  0.00    -0.203 F 
ATOM     69  C   UNL A   1      39.814  26.051  27.702  1.00  0.00     0.198 A 
ATOM     70  C   UNL A   1      41.207  27.684  26.629  1.00  0.00     0.198 A 
ATOM     71  F   UNL A   1      41.843  29.633  27.783  1.00  0.00    -0.203 F 
ATOM     72  F   UNL A   1      39.196  24.862  27.686  1.00  0.00    -0.200 F 
ATOM     73  C   UNL A   1      40.540  26.469  26.598  1.00  0.00     0.200 A 
ATOM     74  F   UNL A   1      41.897  28.097  25.557  1.00  0.00    -0.200 F 
ATOM     75  F   UNL A   1      40.603  25.696  25.505  1.00  0.00    -0.200 F 
ENDBRANCH  51  65
BRANCH  52  76
ATOM     76  C   UNL A   1      39.558  34.003  36.930  1.00  0.00     0.064 A 
ATOM     77  C   UNL A   1      38.811  33.575  38.036  1.00  0.00     0.173 A 
ATOM     78  C   UNL A   1      40.159  35.268  37.002  1.00  0.00     0.173 A 
ATOM     79  F   UNL A   1      38.202  32.379  38.010  1.00  0.00    -0.203 F 
ATOM     80  C   UNL A   1      38.646  34.388  39.155  1.00  0.00     0.198 A 
ATOM     81  C   UNL A   1      40.021  36.068  38.135  1.00  0.00     0.198 A 
ATOM     82  F   UNL A   1      40.892  35.724  35.975  1.00  0.00    -0.203 F 
ATOM     83  F   UNL A   1      37.884  33.974  40.176  1.00  0.00    -0.200 F 
ATOM     84  C   UNL A   1      39.256  35.632  39.206  1.00  0.00     0.200 A 
ATOM     85  F   UNL A   1      40.627  37.262  38.187  1.00  0.00    -0.200 F 
ATOM     86  F   UNL A   1      39.102  36.414  40.283  1.00  0.00    -0.200 F 
ENDBRANCH  52  76
BRANCH  64  87
ATOM     87  C   UNL A   1      43.928  28.861  35.152  1.00  0.00     0.064 A 
ATOM     88  C   UNL A   1      43.813  27.754  36.005  1.00  0.00     0.173 A 
ATOM     89  C   UNL A   1      45.215  29.358  34.889  1.00  0.00     0.173 A 
ATOM     90  F   UNL A   1      42.605  27.250  36.299  1.00  0.00    -0.203 F 
ATOM     91  C   UNL A   1      44.941  27.180  36.586  1.00  0.00     0.198 A 
ATOM     92  C   UNL A   1      46.342  28.761  35.443  1.00  0.00     0.198 A 
ATOM     93  F   UNL A   1      45.379  30.411  34.072  1.00  0.00    -0.203 F 
ATOM     94  F   UNL A   1      44.806  26.150  37.432  1.00  0.00    -0.200 F 
ATOM     95  C   UNL A   1      46.204  27.676  36.295  1.00  0.00     0.200 A 
ATOM     96  F   UNL A   1      47.561  29.230  35.146  1.00  0.00    -0.200 F 
ATOM     97  F   UNL A   1      47.290  27.111  36.842  1.00  0.00    -0.200 F 
ENDBRANCH  64  87
ENDBRANCH  38  39
ENDBRANCH  30  33
ENDBRANCH  28  29
ENDBRANCH  27  28
ENDBRANCH  26  27
ENDBRANCH  25  26
ENDBRANCH   1  25
TORSDOF 19
ENDMDL
MODEL 3
REMARK VINA RESULT:     -11.1      0.562      7.240
REMARK SMILES C#CC[N@@H+](CC(=O)NCCCCCCNC(=O)c1ccc(-c2c3nc(c(-c4c(F)c(F)c(F)c(F)c4F)c4ccc([nH]4)c(-c4c(F)c(F)c(F)c(F)c4F)c4nc(c(-c5c(F)c(F)c(F)c(F)c5F)c5ccc2[nH]5)C=C4)C=C3)cc1)Cc1cn(CC)c2ccccc12
REMARK SMILES IDX 10 1 9 2 8 3 6 4 7 5 5 7 4 8 3 10 2 11 1 12 81 13 82 14
REMARK SMILES IDX 83 15 92 16 84 17 87 18 91 19 88 20 90 21 89 22 85 23 86 24
REMARK SMILES IDX 11 25 12 26 13 27 14 28 15 29 16 30 17 32 18 33 19 34 80 35
REMARK SMILES IDX 20 36 79 37 21 38 22 39 23 40 73 41 24 42 78 43 72 44 74 45
REMARK SMILES IDX 25 46 77 47 71 48 70 49 26 51 58 52 38 53 57 54 39 55 42 56
REMARK SMILES IDX 56 57 75 58 40 59 41 60 55 62 76 63 43 64 27 65 28 66 36 67
REMARK SMILES IDX 29 68 30 69 34 70 37 71 31 72 32 73 35 74 33 75 59 76 60 77
REMARK SMILES IDX 68 78 61 79 62 80 66 81 69 82 63 83 64 84 67 85 65 86 44 87
REMARK SMILES IDX 45 88 53 89 46 90 47 91 51 92 54 93 48 94 49 95 52 96 50 97
REMARK H PARENT 8 6 4 9 15 31 74 50 42 61
REMARK Flexibility Score: inf
ROOT
ATOM      1  C   UNL A   1      32.754  28.655  27.140  1.00  0.00     0.021 C 
ENDROOT
BRANCH   1   2
ATOM      2  C   UNL A   1      31.447  28.044  26.602  1.00  0.00     0.116 C 
BRANCH   2   3
ATOM      3  N   UNL A   1      31.352  26.647  26.966  1.00  0.00    -0.351 N 
ATOM      4  C   UNL A   1      31.397  25.484  26.262  1.00  0.00     0.275 C 
ATOM      5  O   UNL A   1      31.208  24.476  26.950  1.00  0.00    -0.269 OA
ATOM      6  H   UNL A   1      31.228  26.509  27.933  1.00  0.00     0.163 HD
BRANCH   4   7
ATOM      7  C   UNL A   1      31.755  25.389  24.760  1.00  0.00     0.364 C 
BRANCH   7   8
ATOM      8  N   UNL A   1      33.148  24.944  24.391  1.00  0.00    -0.313 N 
ATOM      9  H   UNL A   1      33.430  24.215  25.045  1.00  0.00     0.349 HD
BRANCH   8  10
ATOM     10  C   UNL A   1      33.935  26.133  24.439  1.00  0.00     0.354 C 
BRANCH  10  11
ATOM     11  C   UNL A   1      33.551  27.410  23.710  1.00  0.00    -0.047 C 
ATOM     12  C   UNL A   1      33.222  28.506  23.085  1.00  0.00     0.010 C 
ENDBRANCH  10  11
ENDBRANCH   8  10
BRANCH   8  13
ATOM     13  C   UNL A   1      33.316  24.267  23.084  1.00  0.00     0.302 C 
BRANCH  13  14
ATOM     14  C   UNL A   1      33.833  22.896  23.320  1.00  0.00     0.032 A 
ATOM     15  C   UNL A   1      33.062  21.756  23.415  1.00  0.00     0.096 A 
ATOM     16  C   UNL A   1      35.132  22.574  23.805  1.00  0.00     0.008 A 
ATOM     17  N   UNL A   1      33.674  20.981  24.381  1.00  0.00    -0.347 N 
ATOM     18  C   UNL A   1      34.989  21.392  24.540  1.00  0.00     0.048 A 
ATOM     19  C   UNL A   1      36.325  23.319  23.898  1.00  0.00     0.011 A 
ATOM     20  C   UNL A   1      36.018  20.938  25.376  1.00  0.00     0.027 A 
ATOM     21  C   UNL A   1      37.348  22.874  24.731  1.00  0.00     0.001 A 
ATOM     22  C   UNL A   1      37.190  21.701  25.463  1.00  0.00     0.002 A 
BRANCH  17  23
ATOM     23  C   UNL A   1      32.872  20.307  25.395  1.00  0.00     0.119 C 
ATOM     24  C   UNL A   1      32.635  18.831  25.190  1.00  0.00     0.027 C 
ENDBRANCH  17  23
ENDBRANCH  13  14
ENDBRANCH   8  13
ENDBRANCH   7   8
ENDBRANCH   4   7
ENDBRANCH   2   3
ENDBRANCH   1   2
BRANCH   1  25
ATOM     25  C   UNL A   1      32.900  30.148  26.871  1.00  0.00     0.002 C 
BRANCH  25  26
ATOM     26  C   UNL A   1      31.621  30.801  26.369  1.00  0.00     0.002 C 
BRANCH  26  27
ATOM     27  C   UNL A   1      31.512  32.282  26.736  1.00  0.00     0.021 C 
BRANCH  27  28
ATOM     28  C   UNL A   1      32.839  32.899  27.156  1.00  0.00     0.116 C 
BRANCH  28  29
ATOM     29  N   UNL A   1      32.652  34.271  27.594  1.00  0.00    -0.352 N 
ATOM     30  C   UNL A   1      33.151  34.850  28.731  1.00  0.00     0.251 C 
ATOM     31  H   UNL A   1      32.109  34.847  27.010  1.00  0.00     0.163 HD
ATOM     32  O   UNL A   1      32.704  35.894  29.171  1.00  0.00    -0.269 OA
BRANCH  30  33
ATOM     33  C   UNL A   1      34.262  34.153  29.404  1.00  0.00     0.039 A 
ATOM     34  C   UNL A   1      33.985  33.117  30.293  1.00  0.00     0.014 A 
ATOM     35  C   UNL A   1      35.577  34.495  29.071  1.00  0.00     0.014 A 
ATOM     36  C   UNL A   1      35.045  32.399  30.844  1.00  0.00     0.010 A 
ATOM     37  C   UNL A   1      36.622  33.723  29.551  1.00  0.00     0.010 A 
ATOM     38  C   UNL A   1      36.367  32.689  30.466  1.00  0.00    -0.014 A 
BRANCH  38  39
ATOM     39  C   UNL A   1      37.520  31.979  31.063  1.00  0.00     0.031 A 
ATOM     40  C   UNL A   1      37.989  32.383  32.432  1.00  0.00     0.074 A 
ATOM     41  C   UNL A   1      38.176  31.038  30.360  1.00  0.00     0.049 A 
ATOM     42  N   UNL A   1      39.046  31.993  33.096  1.00  0.00    -0.248 NA
ATOM     43  C   UNL A   1      37.177  33.391  33.135  1.00  0.00     0.031 C 
ATOM     44  C   UNL A   1      37.825  30.588  29.012  1.00  0.00     0.029 A 
ATOM     45  N   UNL A   1      39.289  30.303  30.679  1.00  0.00    -0.354 N 
ATOM     46  C   UNL A   1      39.037  32.724  34.277  1.00  0.00     0.074 A 
ATOM     47  C   UNL A   1      37.909  33.626  34.213  1.00  0.00     0.031 C 
ATOM     48  C   UNL A   1      38.696  29.639  28.628  1.00  0.00     0.029 A 
ATOM     49  C   UNL A   1      39.691  29.451  29.680  1.00  0.00     0.049 A 
ATOM     50  H   UNL A   1      39.756  30.380  31.541  1.00  0.00     0.167 HD
ATOM     51  C   UNL A   1      39.877  32.630  35.333  1.00  0.00     0.037 A 
ATOM     52  C   UNL A   1      40.752  28.625  29.621  1.00  0.00     0.037 A 
ATOM     53  C   UNL A   1      40.979  31.708  35.396  1.00  0.00     0.049 A 
ATOM     54  C   UNL A   1      41.689  28.556  30.798  1.00  0.00     0.074 A 
ATOM     55  C   UNL A   1      41.867  31.496  36.434  1.00  0.00     0.029 A 
ATOM     56  N   UNL A   1      41.343  30.846  34.371  1.00  0.00    -0.354 N 
ATOM     57  N   UNL A   1      41.642  29.211  31.933  1.00  0.00    -0.248 NA
ATOM     58  C   UNL A   1      42.824  27.630  30.689  1.00  0.00     0.031 C 
ATOM     59  C   UNL A   1      42.802  30.544  36.018  1.00  0.00     0.029 A 
ATOM     60  C   UNL A   1      42.456  30.113  34.745  1.00  0.00     0.049 A 
ATOM     61  H   UNL A   1      40.879  30.767  33.507  1.00  0.00     0.167 HD
ATOM     62  C   UNL A   1      42.711  28.747  32.687  1.00  0.00     0.074 A 
ATOM     63  C   UNL A   1      43.388  27.752  31.882  1.00  0.00     0.031 C 
ATOM     64  C   UNL A   1      43.097  29.107  33.936  1.00  0.00     0.037 A 
BRANCH  51  65
ATOM     65  C   UNL A   1      39.636  33.546  36.497  1.00  0.00     0.064 A 
ATOM     66  C   UNL A   1      38.807  33.178  37.568  1.00  0.00     0.173 A 
ATOM     67  C   UNL A   1      40.257  34.803  36.553  1.00  0.00     0.173 A 
ATOM     68  F   UNL A   1      38.177  31.993  37.560  1.00  0.00    -0.203 F 
ATOM     69  C   UNL A   1      38.582  34.046  38.634  1.00  0.00     0.198 A 
ATOM     70  C   UNL A   1      40.059  35.654  37.638  1.00  0.00     0.198 A 
ATOM     71  F   UNL A   1      41.061  35.205  35.558  1.00  0.00    -0.203 F 
ATOM     72  F   UNL A   1      37.738  33.696  39.614  1.00  0.00    -0.200 F 
ATOM     73  C   UNL A   1      39.214  35.279  38.671  1.00  0.00     0.200 A 
ATOM     74  F   UNL A   1      40.682  36.839  37.679  1.00  0.00    -0.200 F 
ATOM     75  F   UNL A   1      39.001  36.111  39.700  1.00  0.00    -0.200 F 
ENDBRANCH  51  65
BRANCH  52  76
ATOM     76  C   UNL A   1      40.974  27.782  28.416  1.00  0.00     0.064 A 
ATOM     77  C   UNL A   1      41.796  28.225  27.370  1.00  0.00     0.173 A 
ATOM     78  C   UNL A   1      40.366  26.526  28.277  1.00  0.00     0.173 A 
ATOM     79  F   UNL A   1      42.388  29.427  27.447  1.00  0.00    -0.203 F 
ATOM     80  C   UNL A   1      41.980  27.458  26.221  1.00  0.00     0.198 A 
ATOM     81  C   UNL A   1      40.575  25.746  27.141  1.00  0.00     0.198 A 
ATOM     82  F   UNL A   1      39.575  26.050  29.251  1.00  0.00    -0.203 F 
ATOM     83  F   UNL A   1      42.729  27.929  25.216  1.00  0.00    -0.200 F 
ATOM     84  C   UNL A   1      41.372  26.217  26.110  1.00  0.00     0.200 A 
ATOM     85  F   UNL A   1      40.001  24.539  27.047  1.00  0.00    -0.200 F 
ATOM     86  F   UNL A   1      41.551  25.477  25.007  1.00  0.00    -0.200 F 
ENDBRANCH  52  76
BRANCH  64  87
ATOM     87  C   UNL A   1      44.261  28.379  34.542  1.00  0.00     0.064 A 
ATOM     88  C   UNL A   1      45.573  28.867  34.448  1.00  0.00     0.173 A 
ATOM     89  C   UNL A   1      44.047  27.211  35.290  1.00  0.00     0.173 A 
ATOM     90  F   UNL A   1      45.832  29.972  33.734  1.00  0.00    -0.203 F 
ATOM     91  C   UNL A   1      46.629  28.199  35.062  1.00  0.00     0.198 A 
ATOM     92  C   UNL A   1      45.099  26.565  35.931  1.00  0.00     0.198 A 
ATOM     93  F   UNL A   1      42.809  26.707  35.418  1.00  0.00    -0.203 F 
ATOM     94  F   UNL A   1      47.880  28.658  34.924  1.00  0.00    -0.200 F 
ATOM     95  C   UNL A   1      46.390  27.057  35.812  1.00  0.00     0.200 A 
ATOM     96  F   UNL A   1      44.863  25.473  36.670  1.00  0.00    -0.200 F 
ATOM     97  F   UNL A   1      47.406  26.426  36.418  1.00  0.00    -0.200 F 
ENDBRANCH  64  87
ENDBRANCH  38  39
ENDBRANCH  30  33
ENDBRANCH  28  29
ENDBRANCH  27  28
ENDBRANCH  26  27
ENDBRANCH  25  26
ENDBRANCH   1  25
TORSDOF 19
ENDMDL
