MODEL 1
REMARK VINA RESULT:     -11.7      0.000      0.000
REMARK SMILES CCN(C(=O)C1(C)CCCC1)[C@@H]1COC[C@H]1C(=O)NCCCCCCNC(=O)c1ccc(-c2c3nc(c(-c4c(F)c(F)c(F)c(F)c4F)c4ccc([nH]4)c(-c4c(F)c(F)c(F)c(F)c4F)c4nc(c(-c5c(F)c(F)c(F)c(F)c5F)c5ccc2[nH]5)C=C4)C=C3)cc1
REMARK SMILES IDX 22 1 21 2 20 3 19 4 17 5 18 6 16 8 12 9 13 10 14 11 15 12
REMARK SMILES IDX 3 13 2 14 1 15 4 16 5 17 6 18 7 19 8 20 11 21 9 22 10 23
REMARK SMILES IDX 23 24 24 25 25 26 26 27 27 28 28 30 29 31 30 32 91 33 31 34
REMARK SMILES IDX 90 35 32 36 33 37 34 38 84 39 35 40 89 41 83 42 85 43 36 44
REMARK SMILES IDX 88 45 82 46 81 47 37 49 69 50 49 51 68 52 50 53 53 54 67 55
REMARK SMILES IDX 86 56 51 57 52 58 66 60 87 61 54 62 38 63 39 64 47 65 40 66
REMARK SMILES IDX 41 67 45 68 48 69 42 70 43 71 46 72 44 73 70 74 71 75 79 76
REMARK SMILES IDX 72 77 73 78 77 79 80 80 74 81 75 82 78 83 76 84 55 85 56 86
REMARK SMILES IDX 64 87 57 88 58 89 62 90 65 91 59 92 60 93 63 94 61 95
REMARK H PARENT 19 7 26 29 85 48 53 59
REMARK Flexibility Score: inf
ROOT
ATOM      1  C   UNL A   1      31.884  29.559  26.816  1.00  0.00     0.002 C 
ENDROOT
BRANCH   1   2
ATOM      2  C   UNL A   1      33.325  29.043  26.752  1.00  0.00     0.021 C 
BRANCH   2   3
ATOM      3  C   UNL A   1      33.610  28.118  25.566  1.00  0.00     0.116 C 
BRANCH   3   4
ATOM      4  N   UNL A   1      32.390  27.741  24.876  1.00  0.00    -0.356 N 
ATOM      5  C   UNL A   1      32.079  26.679  24.088  1.00  0.00     0.227 C 
ATOM      6  O   UNL A   1      30.902  26.590  23.723  1.00  0.00    -0.275 OA
ATOM      7  H   UNL A   1      31.647  28.375  25.003  1.00  0.00     0.163 HD
BRANCH   5   8
ATOM      8  C   UNL A   1      33.078  25.608  23.688  1.00  0.00     0.129 C 
ATOM      9  C   UNL A   1      32.557  24.179  23.648  1.00  0.00     0.125 C 
ATOM     10  C   UNL A   1      33.257  23.616  22.404  1.00  0.00     0.186 C 
ATOM     11  O   UNL A   1      33.295  24.715  21.481  1.00  0.00    -0.378 OA
ATOM     12  C   UNL A   1      33.572  25.884  22.269  1.00  0.00     0.176 C 
BRANCH   9  13
ATOM     13  N   UNL A   1      32.603  23.364  24.875  1.00  0.00    -0.336 N 
BRANCH  13  14
ATOM     14  C   UNL A   1      31.866  23.862  26.043  1.00  0.00     0.116 C 
ATOM     15  C   UNL A   1      30.760  22.923  26.501  1.00  0.00     0.027 C 
ENDBRANCH  13  14
BRANCH  13  16
ATOM     16  C   UNL A   1      33.434  22.248  24.932  1.00  0.00     0.228 C 
ATOM     17  O   UNL A   1      33.101  21.197  24.382  1.00  0.00    -0.274 OA
BRANCH  16  18
ATOM     18  C   UNL A   1      34.706  22.322  25.831  1.00  0.00     0.047 C 
ATOM     19  C   UNL A   1      34.377  21.829  27.251  1.00  0.00     0.022 C 
ATOM     20  C   UNL A   1      35.815  21.408  25.255  1.00  0.00     0.016 C 
ATOM     21  C   UNL A   1      35.424  23.677  25.805  1.00  0.00     0.016 C 
ATOM     22  C   UNL A   1      36.520  22.233  24.182  1.00  0.00     0.001 C 
ATOM     23  C   UNL A   1      36.194  23.688  24.490  1.00  0.00     0.001 C 
ENDBRANCH  16  18
ENDBRANCH  13  16
ENDBRANCH   9  13
ENDBRANCH   5   8
ENDBRANCH   3   4
ENDBRANCH   2   3
ENDBRANCH   1   2
BRANCH   1  24
ATOM     24  C   UNL A   1      31.622  30.838  26.016  1.00  0.00     0.002 C 
BRANCH  24  25
ATOM     25  C   UNL A   1      31.403  32.094  26.864  1.00  0.00     0.021 C 
BRANCH  25  26
ATOM     26  C   UNL A   1      32.684  32.811  27.277  1.00  0.00     0.116 C 
BRANCH  26  27
ATOM     27  N   UNL A   1      32.442  34.201  27.626  1.00  0.00    -0.352 N 
ATOM     28  C   UNL A   1      33.008  34.965  28.613  1.00  0.00     0.251 C 
ATOM     29  H   UNL A   1      31.773  34.663  27.070  1.00  0.00     0.163 HD
ATOM     30  O   UNL A   1      32.528  36.061  28.898  1.00  0.00    -0.269 OA
BRANCH  28  31
ATOM     31  C   UNL A   1      34.182  34.464  29.356  1.00  0.00     0.039 A 
ATOM     32  C   UNL A   1      33.989  33.877  30.609  1.00  0.00     0.014 A 
ATOM     33  C   UNL A   1      35.470  34.571  28.822  1.00  0.00     0.014 A 
ATOM     34  C   UNL A   1      35.076  33.331  31.292  1.00  0.00     0.010 A 
ATOM     35  C   UNL A   1      36.542  33.962  29.471  1.00  0.00     0.010 A 
ATOM     36  C   UNL A   1      36.353  33.328  30.708  1.00  0.00    -0.014 A 
BRANCH  36  37
ATOM     37  C   UNL A   1      37.489  32.626  31.359  1.00  0.00     0.031 A 
ATOM     38  C   UNL A   1      38.164  31.467  30.683  1.00  0.00     0.074 A 
ATOM     39  C   UNL A   1      37.867  32.998  32.597  1.00  0.00     0.049 A 
ATOM     40  N   UNL A   1      39.132  30.702  31.122  1.00  0.00    -0.248 NA
ATOM     41  C   UNL A   1      37.674  31.105  29.344  1.00  0.00     0.031 C 
ATOM     42  C   UNL A   1      37.258  34.078  33.377  1.00  0.00     0.029 A 
ATOM     43  N   UNL A   1      38.847  32.506  33.423  1.00  0.00    -0.354 N 
ATOM     44  C   UNL A   1      39.362  29.769  30.121  1.00  0.00     0.074 A 
ATOM     45  C   UNL A   1      38.397  30.028  29.074  1.00  0.00     0.031 C 
ATOM     46  C   UNL A   1      37.892  34.182  34.555  1.00  0.00     0.029 A 
ATOM     47  C   UNL A   1      38.920  33.150  34.636  1.00  0.00     0.049 A 
ATOM     48  H   UNL A   1      39.442  31.763  33.171  1.00  0.00     0.167 HD
ATOM     49  C   UNL A   1      40.306  28.798  30.073  1.00  0.00     0.037 A 
ATOM     50  C   UNL A   1      39.716  32.924  35.698  1.00  0.00     0.037 A 
ATOM     51  C   UNL A   1      41.269  28.550  31.116  1.00  0.00     0.049 A 
ATOM     52  C   UNL A   1      40.734  31.818  35.629  1.00  0.00     0.074 A 
ATOM     53  C   UNL A   1      42.301  27.628  31.135  1.00  0.00     0.029 A 
ATOM     54  N   UNL A   1      41.311  29.221  32.331  1.00  0.00    -0.354 N 
ATOM     55  N   UNL A   1      40.994  30.990  34.645  1.00  0.00    -0.248 NA
ATOM     56  C   UNL A   1      41.574  31.617  36.817  1.00  0.00     0.031 C 
ATOM     57  C   UNL A   1      42.928  27.697  32.383  1.00  0.00     0.029 A 
ATOM     58  C   UNL A   1      42.330  28.708  33.120  1.00  0.00     0.049 A 
ATOM     59  H   UNL A   1      40.707  29.951  32.593  1.00  0.00     0.167 HD
ATOM     60  C   UNL A   1      42.040  30.191  35.085  1.00  0.00     0.074 A 
ATOM     61  C   UNL A   1      42.382  30.648  36.416  1.00  0.00     0.031 C 
ATOM     62  C   UNL A   1      42.659  29.170  34.444  1.00  0.00     0.037 A 
BRANCH  49  63
ATOM     63  C   UNL A   1      40.345  27.923  28.852  1.00  0.00     0.064 A 
ATOM     64  C   UNL A   1      41.109  28.262  27.724  1.00  0.00     0.173 A 
ATOM     65  C   UNL A   1      39.647  26.705  28.825  1.00  0.00     0.173 A 
ATOM     66  F   UNL A   1      41.789  29.418  27.693  1.00  0.00    -0.203 F 
ATOM     67  C   UNL A   1      41.150  27.430  26.608  1.00  0.00     0.198 A 
ATOM     68  C   UNL A   1      39.716  25.860  27.721  1.00  0.00     0.198 A 
ATOM     69  F   UNL A   1      38.905  26.328  29.878  1.00  0.00    -0.203 F 
ATOM     70  F   UNL A   1      41.847  27.800  25.525  1.00  0.00    -0.200 F 
ATOM     71  C   UNL A   1      40.461  26.227  26.611  1.00  0.00     0.200 A 
ATOM     72  F   UNL A   1      39.062  24.691  27.731  1.00  0.00    -0.200 F 
ATOM     73  F   UNL A   1      40.509  25.424  25.539  1.00  0.00    -0.200 F 
ENDBRANCH  49  63
BRANCH  50  74
ATOM     74  C   UNL A   1      39.588  33.768  36.915  1.00  0.00     0.064 A 
ATOM     75  C   UNL A   1      38.736  33.398  37.964  1.00  0.00     0.173 A 
ATOM     76  C   UNL A   1      40.306  34.965  37.052  1.00  0.00     0.173 A 
ATOM     77  F   UNL A   1      38.011  32.271  37.873  1.00  0.00    -0.203 F 
ATOM     78  C   UNL A   1      38.588  34.203  39.092  1.00  0.00     0.198 A 
ATOM     79  C   UNL A   1      40.184  35.753  38.194  1.00  0.00     0.198 A 
ATOM     80  F   UNL A   1      41.140  35.363  36.079  1.00  0.00    -0.203 F 
ATOM     81  F   UNL A   1      37.726  33.850  40.056  1.00  0.00    -0.200 F 
ATOM     82  C   UNL A   1      39.317  35.377  39.209  1.00  0.00     0.200 A 
ATOM     83  F   UNL A   1      40.904  36.877  38.311  1.00  0.00    -0.200 F 
ATOM     84  F   UNL A   1      39.179  36.148  40.296  1.00  0.00    -0.200 F 
ENDBRANCH  50  74
BRANCH  62  85
ATOM     85  C   UNL A   1      43.791  28.492  35.164  1.00  0.00     0.064 A 
ATOM     86  C   UNL A   1      45.109  28.962  35.074  1.00  0.00     0.173 A 
ATOM     87  C   UNL A   1      43.548  27.378  35.982  1.00  0.00     0.173 A 
ATOM     88  F   UNL A   1      45.400  30.015  34.295  1.00  0.00    -0.203 F 
ATOM     89  C   UNL A   1      46.146  28.323  35.751  1.00  0.00     0.198 A 
ATOM     90  C   UNL A   1      44.580  26.763  36.686  1.00  0.00     0.198 A 
ATOM     91  F   UNL A   1      42.304  26.892  36.110  1.00  0.00    -0.203 F 
ATOM     92  F   UNL A   1      47.405  28.756  35.604  1.00  0.00    -0.200 F 
ATOM     93  C   UNL A   1      45.879  27.230  36.562  1.00  0.00     0.200 A 
ATOM     94  F   UNL A   1      44.317  25.718  37.480  1.00  0.00    -0.200 F 
ATOM     95  F   UNL A   1      46.876  26.621  37.217  1.00  0.00    -0.200 F 
ENDBRANCH  62  85
ENDBRANCH  36  37
ENDBRANCH  28  31
ENDBRANCH  26  27
ENDBRANCH  25  26
ENDBRANCH  24  25
ENDBRANCH   1  24
TORSDOF 17
ENDMDL
MODEL 2
REMARK VINA RESULT:     -11.6      0.471      7.332
REMARK SMILES CCN(C(=O)C1(C)CCCC1)[C@@H]1COC[C@H]1C(=O)NCCCCCCNC(=O)c1ccc(-c2c3nc(c(-c4c(F)c(F)c(F)c(F)c4F)c4ccc([nH]4)c(-c4c(F)c(F)c(F)c(F)c4F)c4nc(c(-c5c(F)c(F)c(F)c(F)c5F)c5ccc2[nH]5)C=C4)C=C3)cc1
REMARK SMILES IDX 22 1 21 2 20 3 19 4 17 5 18 6 16 8 12 9 13 10 14 11 15 12
REMARK SMILES IDX 3 13 2 14 1 15 4 16 5 17 6 18 7 19 8 20 11 21 9 22 10 23
REMARK SMILES IDX 23 24 24 25 25 26 26 27 27 28 28 30 29 31 30 32 91 33 31 34
REMARK SMILES IDX 90 35 32 36 33 37 34 38 84 39 35 40 89 41 83 42 85 43 36 44
REMARK SMILES IDX 88 45 82 46 81 47 37 49 69 50 49 51 68 52 50 53 53 54 67 55
REMARK SMILES IDX 86 56 51 57 52 58 66 60 87 61 54 62 38 63 39 64 47 65 40 66
REMARK SMILES IDX 41 67 45 68 48 69 42 70 43 71 46 72 44 73 70 74 71 75 79 76
REMARK SMILES IDX 72 77 73 78 77 79 80 80 74 81 75 82 78 83 76 84 55 85 56 86
REMARK SMILES IDX 64 87 57 88 58 89 62 90 65 91 59 92 60 93 63 94 61 95
REMARK H PARENT 19 7 26 29 85 48 53 59
REMARK Flexibility Score: inf
ROOT
ATOM      1  C   UNL A   1      31.780  29.653  27.021  1.00  0.00     0.002 C 
ENDROOT
BRANCH   1   2
ATOM      2  C   UNL A   1      33.176  29.021  26.992  1.00  0.00     0.021 C 
BRANCH   2   3
ATOM      3  C   UNL A   1      33.242  27.674  26.269  1.00  0.00     0.116 C 
BRANCH   3   4
ATOM      4  N   UNL A   1      32.212  27.562  25.252  1.00  0.00    -0.356 N 
ATOM      5  C   UNL A   1      32.055  26.713  24.203  1.00  0.00     0.227 C 
ATOM      6  O   UNL A   1      31.001  26.812  23.566  1.00  0.00    -0.275 OA
ATOM      7  H   UNL A   1      31.491  28.227  25.338  1.00  0.00     0.163 HD
BRANCH   5   8
ATOM      8  C   UNL A   1      33.070  25.650  23.822  1.00  0.00     0.129 C 
ATOM      9  C   UNL A   1      32.557  24.219  23.748  1.00  0.00     0.125 C 
ATOM     10  C   UNL A   1      33.300  23.675  22.520  1.00  0.00     0.186 C 
ATOM     11  O   UNL A   1      33.362  24.785  21.612  1.00  0.00    -0.378 OA
ATOM     12  C   UNL A   1      33.609  25.945  22.424  1.00  0.00     0.176 C 
BRANCH   9  13
ATOM     13  N   UNL A   1      32.567  23.389  24.965  1.00  0.00    -0.336 N 
BRANCH  13  14
ATOM     14  C   UNL A   1      31.823  23.890  26.128  1.00  0.00     0.116 C 
ATOM     15  C   UNL A   1      30.712  22.954  26.581  1.00  0.00     0.027 C 
ENDBRANCH  13  14
BRANCH  13  16
ATOM     16  C   UNL A   1      33.371  22.255  25.021  1.00  0.00     0.228 C 
ATOM     17  O   UNL A   1      33.021  21.216  24.457  1.00  0.00    -0.274 OA
BRANCH  16  18
ATOM     18  C   UNL A   1      34.635  22.291  25.934  1.00  0.00     0.047 C 
ATOM     19  C   UNL A   1      34.273  21.816  27.353  1.00  0.00     0.022 C 
ATOM     20  C   UNL A   1      35.720  21.340  25.376  1.00  0.00     0.016 C 
ATOM     21  C   UNL A   1      35.396  23.622  25.911  1.00  0.00     0.016 C 
ATOM     22  C   UNL A   1      36.464  22.136  24.307  1.00  0.00     0.001 C 
ATOM     23  C   UNL A   1      36.182  23.602  24.606  1.00  0.00     0.001 C 
ENDBRANCH  16  18
ENDBRANCH  13  16
ENDBRANCH   9  13
ENDBRANCH   5   8
ENDBRANCH   3   4
ENDBRANCH   2   3
ENDBRANCH   1   2
BRANCH   1  24
ATOM     24  C   UNL A   1      31.564  30.783  26.012  1.00  0.00     0.002 C 
BRANCH  24  25
ATOM     25  C   UNL A   1      31.362  32.170  26.630  1.00  0.00     0.021 C 
BRANCH  25  26
ATOM     26  C   UNL A   1      32.625  32.792  27.215  1.00  0.00     0.116 C 
BRANCH  26  27
ATOM     27  N   UNL A   1      32.425  34.183  27.588  1.00  0.00    -0.352 N 
ATOM     28  C   UNL A   1      33.019  34.914  28.584  1.00  0.00     0.251 C 
ATOM     29  H   UNL A   1      31.765  34.672  27.045  1.00  0.00     0.163 HD
ATOM     30  O   UNL A   1      32.572  36.018  28.890  1.00  0.00    -0.269 OA
BRANCH  28  31
ATOM     31  C   UNL A   1      34.184  34.368  29.309  1.00  0.00     0.039 A 
ATOM     32  C   UNL A   1      33.968  33.637  30.480  1.00  0.00     0.014 A 
ATOM     33  C   UNL A   1      35.485  34.575  28.840  1.00  0.00     0.014 A 
ATOM     34  C   UNL A   1      35.050  33.051  31.138  1.00  0.00     0.010 A 
ATOM     35  C   UNL A   1      36.555  33.930  29.457  1.00  0.00     0.010 A 
ATOM     36  C   UNL A   1      36.346  33.154  30.606  1.00  0.00    -0.014 A 
BRANCH  36  37
ATOM     37  C   UNL A   1      37.483  32.417  31.217  1.00  0.00     0.031 A 
ATOM     38  C   UNL A   1      38.011  32.806  32.568  1.00  0.00     0.074 A 
ATOM     39  C   UNL A   1      38.081  31.435  30.515  1.00  0.00     0.049 A 
ATOM     40  N   UNL A   1      39.027  32.314  33.232  1.00  0.00    -0.248 NA
ATOM     41  C   UNL A   1      37.320  33.906  33.258  1.00  0.00     0.031 C 
ATOM     42  C   UNL A   1      37.689  30.997  29.174  1.00  0.00     0.029 A 
ATOM     43  N   UNL A   1      39.150  30.632  30.827  1.00  0.00    -0.354 N 
ATOM     44  C   UNL A   1      39.101  33.045  34.409  1.00  0.00     0.074 A 
ATOM     45  C   UNL A   1      38.062  34.051  34.346  1.00  0.00     0.031 C 
ATOM     46  C   UNL A   1      38.490  29.992  28.787  1.00  0.00     0.029 A 
ATOM     47  C   UNL A   1      39.479  29.743  29.831  1.00  0.00     0.049 A 
ATOM     48  H   UNL A   1      39.635  30.687  31.682  1.00  0.00     0.167 HD
ATOM     49  C   UNL A   1      39.947  32.879  35.454  1.00  0.00     0.037 A 
ATOM     50  C   UNL A   1      40.475  28.840  29.761  1.00  0.00     0.037 A 
ATOM     51  C   UNL A   1      40.974  31.871  35.514  1.00  0.00     0.049 A 
ATOM     52  C   UNL A   1      41.419  28.699  30.924  1.00  0.00     0.074 A 
ATOM     53  C   UNL A   1      41.844  31.585  36.553  1.00  0.00     0.029 A 
ATOM     54  N   UNL A   1      41.280  30.990  34.486  1.00  0.00    -0.354 N 
ATOM     55  N   UNL A   1      41.432  29.345  32.065  1.00  0.00    -0.248 NA
ATOM     56  C   UNL A   1      42.486  27.697  30.791  1.00  0.00     0.031 C 
ATOM     57  C   UNL A   1      42.714  30.575  36.132  1.00  0.00     0.029 A 
ATOM     58  C   UNL A   1      42.348  30.184  34.854  1.00  0.00     0.049 A 
ATOM     59  H   UNL A   1      40.809  30.944  33.623  1.00  0.00     0.167 HD
ATOM     60  C   UNL A   1      42.487  28.813  32.793  1.00  0.00     0.074 A 
ATOM     61  C   UNL A   1      43.077  27.775  31.974  1.00  0.00     0.031 C 
ATOM     62  C   UNL A   1      42.927  29.156  34.029  1.00  0.00     0.037 A 
BRANCH  49  63
ATOM     63  C   UNL A   1      39.802  33.811  36.624  1.00  0.00     0.064 A 
ATOM     64  C   UNL A   1      38.954  33.516  37.703  1.00  0.00     0.173 A 
ATOM     65  C   UNL A   1      40.556  34.994  36.691  1.00  0.00     0.173 A 
ATOM     66  F   UNL A   1      38.205  32.403  37.688  1.00  0.00    -0.203 F 
ATOM     67  C   UNL A   1      38.846  34.381  38.789  1.00  0.00     0.198 A 
ATOM     68  C   UNL A   1      40.469  35.840  37.793  1.00  0.00     0.198 A 
ATOM     69  F   UNL A   1      41.386  35.323  35.690  1.00  0.00    -0.203 F 
ATOM     70  F   UNL A   1      37.992  34.100  39.784  1.00  0.00    -0.200 F 
ATOM     71  C   UNL A   1      39.609  35.538  38.836  1.00  0.00     0.200 A 
ATOM     72  F   UNL A   1      41.220  36.949  37.844  1.00  0.00    -0.200 F 
ATOM     73  F   UNL A   1      39.511  36.364  39.887  1.00  0.00    -0.200 F 
ENDBRANCH  49  63
BRANCH  50  74
ATOM     74  C   UNL A   1      40.625  27.992  28.548  1.00  0.00     0.064 A 
ATOM     75  C   UNL A   1      40.013  26.734  28.467  1.00  0.00     0.173 A 
ATOM     76  C   UNL A   1      41.390  28.416  27.452  1.00  0.00     0.173 A 
ATOM     77  F   UNL A   1      39.287  26.275  29.499  1.00  0.00    -0.203 F 
ATOM     78  C   UNL A   1      40.179  25.922  27.347  1.00  0.00     0.198 A 
ATOM     79  C   UNL A   1      41.528  27.618  26.318  1.00  0.00     0.198 A 
ATOM     80  F   UNL A   1      41.993  29.614  27.475  1.00  0.00    -0.203 F 
ATOM     81  F   UNL A   1      39.625  24.702  27.318  1.00  0.00    -0.200 F 
ATOM     82  C   UNL A   1      40.931  26.368  26.270  1.00  0.00     0.200 A 
ATOM     83  F   UNL A   1      42.241  28.060  25.273  1.00  0.00    -0.200 F 
ATOM     84  F   UNL A   1      41.086  25.589  25.191  1.00  0.00    -0.200 F 
ENDBRANCH  50  74
BRANCH  62  85
ATOM     85  C   UNL A   1      44.090  28.381  34.582  1.00  0.00     0.064 A 
ATOM     86  C   UNL A   1      43.910  27.179  35.283  1.00  0.00     0.173 A 
ATOM     87  C   UNL A   1      45.405  28.831  34.381  1.00  0.00     0.173 A 
ATOM     88  F   UNL A   1      42.674  26.712  35.516  1.00  0.00    -0.203 F 
ATOM     89  C   UNL A   1      45.000  26.473  35.787  1.00  0.00     0.198 A 
ATOM     90  C   UNL A   1      46.493  28.104  34.855  1.00  0.00     0.198 A 
ATOM     91  F   UNL A   1      45.634  29.970  33.711  1.00  0.00    -0.203 F 
ATOM     92  F   UNL A   1      44.799  25.358  36.502  1.00  0.00    -0.200 F 
ATOM     93  C   UNL A   1      46.290  26.932  35.566  1.00  0.00     0.200 A 
ATOM     94  F   UNL A   1      47.739  28.541  34.626  1.00  0.00    -0.200 F 
ATOM     95  F   UNL A   1      47.337  26.248  36.046  1.00  0.00    -0.200 F 
ENDBRANCH  62  85
ENDBRANCH  36  37
ENDBRANCH  28  31
ENDBRANCH  26  27
ENDBRANCH  25  26
ENDBRANCH  24  25
ENDBRANCH   1  24
TORSDOF 17
ENDMDL
MODEL 3
REMARK VINA RESULT:     -11.5      0.809      2.192
REMARK SMILES CCN(C(=O)C1(C)CCCC1)[C@@H]1COC[C@H]1C(=O)NCCCCCCNC(=O)c1ccc(-c2c3nc(c(-c4c(F)c(F)c(F)c(F)c4F)c4ccc([nH]4)c(-c4c(F)c(F)c(F)c(F)c4F)c4nc(c(-c5c(F)c(F)c(F)c(F)c5F)c5ccc2[nH]5)C=C4)C=C3)cc1
REMARK SMILES IDX 22 1 21 2 20 3 19 4 17 5 18 6 16 8 12 9 13 10 14 11 15 12
REMARK SMILES IDX 3 13 2 14 1 15 4 16 5 17 6 18 7 19 8 20 11 21 9 22 10 23
REMARK SMILES IDX 23 24 24 25 25 26 26 27 27 28 28 30 29 31 30 32 91 33 31 34
REMARK SMILES IDX 90 35 32 36 33 37 34 38 84 39 35 40 89 41 83 42 85 43 36 44
REMARK SMILES IDX 88 45 82 46 81 47 37 49 69 50 49 51 68 52 50 53 53 54 67 55
REMARK SMILES IDX 86 56 51 57 52 58 66 60 87 61 54 62 38 63 39 64 47 65 40 66
REMARK SMILES IDX 41 67 45 68 48 69 42 70 43 71 46 72 44 73 70 74 71 75 79 76
REMARK SMILES IDX 72 77 73 78 77 79 80 80 74 81 75 82 78 83 76 84 55 85 56 86
REMARK SMILES IDX 64 87 57 88 58 89 62 90 65 91 59 92 60 93 63 94 61 95
REMARK H PARENT 19 7 26 29 85 48 53 59
REMARK Flexibility Score: inf
ROOT
ATOM      1  C   UNL A   1      32.931  30.075  26.568  1.00  0.00     0.002 C 
ENDROOT
BRANCH   1   2
ATOM      2  C   UNL A   1      33.621  29.218  25.501  1.00  0.00     0.021 C 
BRANCH   2   3
ATOM      3  C   UNL A   1      34.070  27.840  25.993  1.00  0.00     0.116 C 
BRANCH   3   4
ATOM      4  N   UNL A   1      32.996  27.139  26.672  1.00  0.00    -0.356 N 
ATOM      5  C   UNL A   1      31.914  26.461  26.207  1.00  0.00     0.227 C 
ATOM      6  O   UNL A   1      31.224  25.879  27.051  1.00  0.00    -0.275 OA
ATOM      7  H   UNL A   1      33.064  27.157  27.654  1.00  0.00     0.163 HD
BRANCH   5   8
ATOM      8  C   UNL A   1      31.554  26.356  24.736  1.00  0.00     0.129 C 
ATOM      9  C   UNL A   1      31.817  25.014  24.069  1.00  0.00     0.125 C 
ATOM     10  C   UNL A   1      30.593  24.864  23.155  1.00  0.00     0.186 C 
ATOM     11  O   UNL A   1      29.510  25.438  23.902  1.00  0.00    -0.378 OA
ATOM     12  C   UNL A   1      30.055  26.591  24.565  1.00  0.00     0.176 C 
BRANCH   9  13
ATOM     13  N   UNL A   1      33.140  24.755  23.474  1.00  0.00    -0.336 N 
BRANCH  13  14
ATOM     14  C   UNL A   1      33.838  25.893  22.864  1.00  0.00     0.116 C 
ATOM     15  C   UNL A   1      33.228  26.335  21.541  1.00  0.00     0.027 C 
ENDBRANCH  13  14
BRANCH  13  16
ATOM     16  C   UNL A   1      33.614  23.449  23.386  1.00  0.00     0.228 C 
ATOM     17  O   UNL A   1      32.992  22.604  22.740  1.00  0.00    -0.274 OA
BRANCH  16  18
ATOM     18  C   UNL A   1      34.855  23.056  24.244  1.00  0.00     0.047 C 
ATOM     19  C   UNL A   1      36.139  23.184  23.403  1.00  0.00     0.022 C 
ATOM     20  C   UNL A   1      34.984  24.010  25.457  1.00  0.00     0.016 C 
ATOM     21  C   UNL A   1      34.728  21.708  24.965  1.00  0.00     0.016 C 
ATOM     22  C   UNL A   1      34.058  23.446  26.531  1.00  0.00     0.001 C 
ATOM     23  C   UNL A   1      33.827  21.987  26.162  1.00  0.00     0.001 C 
ENDBRANCH  16  18
ENDBRANCH  13  16
ENDBRANCH   9  13
ENDBRANCH   5   8
ENDBRANCH   3   4
ENDBRANCH   2   3
ENDBRANCH   1   2
BRANCH   1  24
ATOM     24  C   UNL A   1      31.620  30.726  26.122  1.00  0.00     0.002 C 
BRANCH  24  25
ATOM     25  C   UNL A   1      31.373  32.129  26.684  1.00  0.00     0.021 C 
BRANCH  25  26
ATOM     26  C   UNL A   1      32.596  32.782  27.316  1.00  0.00     0.116 C 
BRANCH  26  27
ATOM     27  N   UNL A   1      32.373  34.189  27.609  1.00  0.00    -0.352 N 
ATOM     28  C   UNL A   1      32.962  34.988  28.553  1.00  0.00     0.251 C 
ATOM     29  H   UNL A   1      31.699  34.632  27.045  1.00  0.00     0.163 HD
ATOM     30  O   UNL A   1      32.497  36.100  28.799  1.00  0.00    -0.269 OA
BRANCH  28  31
ATOM     31  C   UNL A   1      34.144  34.508  29.297  1.00  0.00     0.039 A 
ATOM     32  C   UNL A   1      33.964  33.958  30.568  1.00  0.00     0.014 A 
ATOM     33  C   UNL A   1      35.426  34.600  28.747  1.00  0.00     0.014 A 
ATOM     34  C   UNL A   1      35.059  33.431  31.255  1.00  0.00     0.010 A 
ATOM     35  C   UNL A   1      36.505  34.010  29.401  1.00  0.00     0.010 A 
ATOM     36  C   UNL A   1      36.330  33.411  30.657  1.00  0.00    -0.014 A 
BRANCH  36  37
ATOM     37  C   UNL A   1      37.473  32.727  31.316  1.00  0.00     0.031 A 
ATOM     38  C   UNL A   1      38.158  31.566  30.654  1.00  0.00     0.074 A 
ATOM     39  C   UNL A   1      37.849  33.119  32.549  1.00  0.00     0.049 A 
ATOM     40  N   UNL A   1      39.132  30.816  31.102  1.00  0.00    -0.248 NA
ATOM     41  C   UNL A   1      37.669  31.183  29.320  1.00  0.00     0.031 C 
ATOM     42  C   UNL A   1      37.231  34.203  33.316  1.00  0.00     0.029 A 
ATOM     43  N   UNL A   1      38.834  32.646  33.380  1.00  0.00    -0.354 N 
ATOM     44  C   UNL A   1      39.370  29.872  30.113  1.00  0.00     0.074 A 
ATOM     45  C   UNL A   1      38.402  30.109  29.063  1.00  0.00     0.031 C 
ATOM     46  C   UNL A   1      37.865  34.328  34.492  1.00  0.00     0.029 A 
ATOM     47  C   UNL A   1      38.902  33.306  34.584  1.00  0.00     0.049 A 
ATOM     48  H   UNL A   1      39.435  31.905  33.137  1.00  0.00     0.167 HD
ATOM     49  C   UNL A   1      40.323  28.909  30.076  1.00  0.00     0.037 A 
ATOM     50  C   UNL A   1      39.701  33.101  35.648  1.00  0.00     0.037 A 
ATOM     51  C   UNL A   1      41.289  28.683  31.120  1.00  0.00     0.049 A 
ATOM     52  C   UNL A   1      40.729  32.003  35.592  1.00  0.00     0.074 A 
ATOM     53  C   UNL A   1      42.329  27.770  31.151  1.00  0.00     0.029 A 
ATOM     54  N   UNL A   1      41.326  29.369  32.326  1.00  0.00    -0.354 N 
ATOM     55  N   UNL A   1      40.995  31.165  34.619  1.00  0.00    -0.248 NA
ATOM     56  C   UNL A   1      41.573  31.825  36.782  1.00  0.00     0.031 C 
ATOM     57  C   UNL A   1      42.957  27.861  32.397  1.00  0.00     0.029 A 
ATOM     58  C   UNL A   1      42.350  28.875  33.121  1.00  0.00     0.049 A 
ATOM     59  H   UNL A   1      40.716  30.098  32.580  1.00  0.00     0.167 HD
ATOM     60  C   UNL A   1      42.049  30.381  35.068  1.00  0.00     0.074 A 
ATOM     61  C   UNL A   1      42.388  30.858  36.392  1.00  0.00     0.031 C 
ATOM     62  C   UNL A   1      42.677  29.357  34.439  1.00  0.00     0.037 A 
BRANCH  49  63
ATOM     63  C   UNL A   1      40.368  28.019  28.866  1.00  0.00     0.064 A 
ATOM     64  C   UNL A   1      41.124  28.352  27.732  1.00  0.00     0.173 A 
ATOM     65  C   UNL A   1      39.684  26.792  28.857  1.00  0.00     0.173 A 
ATOM     66  F   UNL A   1      41.791  29.516  27.683  1.00  0.00    -0.203 F 
ATOM     67  C   UNL A   1      41.172  27.507  26.626  1.00  0.00     0.198 A 
ATOM     68  C   UNL A   1      39.760  25.935  27.763  1.00  0.00     0.198 A 
ATOM     69  F   UNL A   1      38.950  26.420  29.917  1.00  0.00    -0.203 F 
ATOM     70  F   UNL A   1      41.861  27.871  25.536  1.00  0.00    -0.200 F 
ATOM     71  C   UNL A   1      40.497  26.296  26.646  1.00  0.00     0.200 A 
ATOM     72  F   UNL A   1      39.120  24.758  27.791  1.00  0.00    -0.200 F 
ATOM     73  F   UNL A   1      40.552  25.479  25.585  1.00  0.00    -0.200 F 
ENDBRANCH  49  63
BRANCH  50  74
ATOM     74  C   UNL A   1      39.567  33.959  36.855  1.00  0.00     0.064 A 
ATOM     75  C   UNL A   1      40.221  35.195  36.938  1.00  0.00     0.173 A 
ATOM     76  C   UNL A   1      38.791  33.559  37.952  1.00  0.00     0.173 A 
ATOM     77  F   UNL A   1      40.992  35.614  35.922  1.00  0.00    -0.203 F 
ATOM     78  C   UNL A   1      40.125  35.987  38.080  1.00  0.00     0.198 A 
ATOM     79  C   UNL A   1      38.667  34.366  39.081  1.00  0.00     0.198 A 
ATOM     80  F   UNL A   1      38.138  32.387  37.923  1.00  0.00    -0.203 F 
ATOM     81  F   UNL A   1      40.804  37.141  38.153  1.00  0.00    -0.200 F 
ATOM     82  C   UNL A   1      39.343  35.574  39.149  1.00  0.00     0.200 A 
ATOM     83  F   UNL A   1      37.896  33.972  40.103  1.00  0.00    -0.200 F 
ATOM     84  F   UNL A   1      39.246  36.339  40.245  1.00  0.00    -0.200 F 
ENDBRANCH  50  74
BRANCH  62  85
ATOM     85  C   UNL A   1      43.815  28.699  35.166  1.00  0.00     0.064 A 
ATOM     86  C   UNL A   1      43.607  27.629  36.048  1.00  0.00     0.173 A 
ATOM     87  C   UNL A   1      45.136  29.125  34.954  1.00  0.00     0.173 A 
ATOM     88  F   UNL A   1      42.364  27.192  36.299  1.00  0.00    -0.203 F 
ATOM     89  C   UNL A   1      44.675  27.030  36.713  1.00  0.00     0.198 A 
ATOM     90  C   UNL A   1      46.204  28.501  35.592  1.00  0.00     0.198 A 
ATOM     91  F   UNL A   1      45.392  30.140  34.115  1.00  0.00    -0.203 F 
ATOM     92  F   UNL A   1      44.445  26.046  37.593  1.00  0.00    -0.200 F 
ATOM     93  C   UNL A   1      45.972  27.460  36.478  1.00  0.00     0.200 A 
ATOM     94  F   UNL A   1      47.457  28.909  35.351  1.00  0.00    -0.200 F 
ATOM     95  F   UNL A   1      46.998  26.878  37.113  1.00  0.00    -0.200 F 
ENDBRANCH  62  85
ENDBRANCH  36  37
ENDBRANCH  28  31
ENDBRANCH  26  27
ENDBRANCH  25  26
ENDBRANCH  24  25
ENDBRANCH   1  24
TORSDOF 17
ENDMDL
