MODEL 1
REMARK VINA RESULT:     -11.2      0.000      0.000
REMARK SMILES C=CCCC[C@@]1(C(=O)NCCCCCCNC(=O)c2ccc(-c3c4nc(c(-c5c(F)c(F)c(F)c(F)c5F)c5ccc([nH]5)c(-c5c(F)c(F)c(F)c(F)c5F)c5nc(c(-c6c(F)c(F)c(F)c(F)c6F)c6ccc3[nH]6)C=C5)C=C4)cc2)CCCN(C(=O)OC(C)(C)C)C1
REMARK SMILES IDX 11 1 10 2 9 3 7 4 8 5 6 7 82 8 93 9 83 10 85 11 84 12 5 13
REMARK SMILES IDX 4 14 3 15 2 16 1 17 86 18 87 19 88 20 89 21 90 22 91 23
REMARK SMILES IDX 92 24 12 25 13 26 14 27 15 28 16 29 17 30 18 32 19 33 20 34
REMARK SMILES IDX 81 35 21 36 80 37 22 38 23 39 24 40 74 41 25 42 79 43 73 44
REMARK SMILES IDX 75 45 26 46 78 47 72 48 71 49 27 51 59 52 39 53 58 54 40 55
REMARK SMILES IDX 43 56 57 57 76 58 41 59 42 60 56 62 77 63 44 64 28 65 29 66
REMARK SMILES IDX 37 67 30 68 31 69 35 70 38 71 32 72 33 73 36 74 34 75 60 76
REMARK SMILES IDX 61 77 69 78 62 79 63 80 67 81 70 82 64 83 65 84 68 85 66 86
REMARK SMILES IDX 45 87 46 88 54 89 47 90 48 91 52 92 55 93 49 94 50 95 53 96
REMARK SMILES IDX 51 97
REMARK H PARENT 9 6 16 31 75 50 43 61
REMARK Flexibility Score: inf
ROOT
ATOM      1  C   UNL A   1      31.927  28.782  27.335  1.00  0.00     0.021 C 
ENDROOT
BRANCH   1   2
ATOM      2  C   UNL A   1      32.496  27.461  26.831  1.00  0.00     0.116 C 
BRANCH   2   3
ATOM      3  N   UNL A   1      31.509  26.401  26.866  1.00  0.00    -0.356 N 
ATOM      4  C   UNL A   1      30.842  25.754  25.875  1.00  0.00     0.228 C 
ATOM      5  O   UNL A   1      30.013  24.918  26.247  1.00  0.00    -0.274 OA
ATOM      6  H   UNL A   1      31.281  26.093  27.773  1.00  0.00     0.163 HD
BRANCH   4   7
ATOM      7  C   UNL A   1      31.050  26.094  24.376  1.00  0.00     0.067 C 
ATOM      8  C   UNL A   1      30.257  25.054  23.518  1.00  0.00     0.020 C 
ATOM      9  C   UNL A   1      32.537  25.954  23.985  1.00  0.00     0.140 C 
ATOM     10  C   UNL A   1      30.829  23.628  23.590  1.00  0.00     0.023 C 
ATOM     11  N   UNL A   1      33.021  24.592  24.146  1.00  0.00    -0.307 N 
ATOM     12  C   UNL A   1      32.336  23.580  23.351  1.00  0.00     0.123 C 
BRANCH   7  13
ATOM     13  C   UNL A   1      30.437  27.514  24.139  1.00  0.00     0.019 C 
BRANCH  13  14
ATOM     14  C   UNL A   1      31.108  28.442  23.111  1.00  0.00     0.005 C 
BRANCH  14  15
ATOM     15  C   UNL A   1      30.214  29.500  22.460  1.00  0.00     0.027 C 
BRANCH  15  16
ATOM     16  C   UNL A   1      28.994  29.840  23.263  1.00  0.00    -0.035 C 
ATOM     17  C   UNL A   1      28.563  31.092  23.459  1.00  0.00     0.004 C 
ENDBRANCH  15  16
ENDBRANCH  14  15
ENDBRANCH  13  14
ENDBRANCH   7  13
BRANCH  11  18
ATOM     18  C   UNL A   1      34.076  24.350  25.005  1.00  0.00     0.410 C 
ATOM     19  O   UNL A   1      34.702  25.250  25.557  1.00  0.00    -0.224 OA
BRANCH  18  20
ATOM     20  O   UNL A   1      34.339  23.030  25.175  1.00  0.00    -0.444 OA
BRANCH  20  21
ATOM     21  C   UNL A   1      35.633  22.499  24.786  1.00  0.00     0.106 C 
ATOM     22  C   UNL A   1      35.681  20.968  24.888  1.00  0.00     0.056 C 
ATOM     23  C   UNL A   1      36.023  22.993  23.386  1.00  0.00     0.056 C 
ATOM     24  C   UNL A   1      36.626  23.078  25.804  1.00  0.00     0.056 C 
ENDBRANCH  20  21
ENDBRANCH  18  20
ENDBRANCH  11  18
ENDBRANCH   4   7
ENDBRANCH   2   3
ENDBRANCH   1   2
BRANCH   1  25
ATOM     25  C   UNL A   1      32.475  30.025  26.626  1.00  0.00     0.002 C 
BRANCH  25  26
ATOM     26  C   UNL A   1      31.427  30.899  25.930  1.00  0.00     0.002 C 
BRANCH  26  27
ATOM     27  C   UNL A   1      31.270  32.311  26.499  1.00  0.00     0.021 C 
BRANCH  27  28
ATOM     28  C   UNL A   1      32.485  32.838  27.251  1.00  0.00     0.116 C 
BRANCH  28  29
ATOM     29  N   UNL A   1      32.341  34.231  27.637  1.00  0.00    -0.352 N 
ATOM     30  C   UNL A   1      33.015  34.938  28.600  1.00  0.00     0.251 C 
ATOM     31  H   UNL A   1      31.663  34.740  27.138  1.00  0.00     0.163 HD
ATOM     32  O   UNL A   1      32.651  36.068  28.909  1.00  0.00    -0.269 OA
BRANCH  30  33
ATOM     33  C   UNL A   1      34.170  34.324  29.287  1.00  0.00     0.039 A 
ATOM     34  C   UNL A   1      33.932  33.443  30.344  1.00  0.00     0.014 A 
ATOM     35  C   UNL A   1      35.479  34.612  28.891  1.00  0.00     0.014 A 
ATOM     36  C   UNL A   1      35.006  32.806  30.968  1.00  0.00     0.010 A 
ATOM     37  C   UNL A   1      36.543  33.916  29.460  1.00  0.00     0.010 A 
ATOM     38  C   UNL A   1      36.317  33.011  30.507  1.00  0.00    -0.014 A 
BRANCH  38  39
ATOM     39  C   UNL A   1      37.463  32.285  31.112  1.00  0.00     0.031 A 
ATOM     40  C   UNL A   1      37.962  32.664  32.479  1.00  0.00     0.074 A 
ATOM     41  C   UNL A   1      38.088  31.322  30.408  1.00  0.00     0.049 A 
ATOM     42  N   UNL A   1      38.981  32.188  33.151  1.00  0.00    -0.248 NA
ATOM     43  C   UNL A   1      37.237  33.741  33.172  1.00  0.00     0.031 C 
ATOM     44  C   UNL A   1      37.726  30.894  29.055  1.00  0.00     0.029 A 
ATOM     45  N   UNL A   1      39.165  30.533  30.728  1.00  0.00    -0.354 N 
ATOM     46  C   UNL A   1      39.022  32.911  34.336  1.00  0.00     0.074 A 
ATOM     47  C   UNL A   1      37.967  33.898  34.267  1.00  0.00     0.031 C 
ATOM     48  C   UNL A   1      38.548  29.905  28.672  1.00  0.00     0.029 A 
ATOM     49  C   UNL A   1      39.523  29.659  29.730  1.00  0.00     0.049 A 
ATOM     50  H   UNL A   1      39.637  30.589  31.591  1.00  0.00     0.167 HD
ATOM     51  C   UNL A   1      39.850  32.750  35.395  1.00  0.00     0.037 A 
ATOM     52  C   UNL A   1      40.531  28.767  29.672  1.00  0.00     0.037 A 
ATOM     53  C   UNL A   1      40.889  31.756  35.464  1.00  0.00     0.049 A 
ATOM     54  C   UNL A   1      41.452  28.625  30.854  1.00  0.00     0.074 A 
ATOM     55  C   UNL A   1      41.745  31.475  36.515  1.00  0.00     0.029 A 
ATOM     56  N   UNL A   1      41.219  30.884  34.436  1.00  0.00    -0.354 N 
ATOM     57  N   UNL A   1      41.436  29.263  31.998  1.00  0.00    -0.248 NA
ATOM     58  C   UNL A   1      42.528  27.630  30.738  1.00  0.00     0.031 C 
ATOM     59  C   UNL A   1      42.632  30.475  36.100  1.00  0.00     0.029 A 
ATOM     60  C   UNL A   1      42.286  30.086  34.816  1.00  0.00     0.049 A 
ATOM     61  H   UNL A   1      40.762  30.839  33.565  1.00  0.00     0.167 HD
ATOM     62  C   UNL A   1      42.476  28.729  32.749  1.00  0.00     0.074 A 
ATOM     63  C   UNL A   1      43.091  27.702  31.935  1.00  0.00     0.031 C 
ATOM     64  C   UNL A   1      42.885  29.061  33.999  1.00  0.00     0.037 A 
BRANCH  51  65
ATOM     65  C   UNL A   1      39.670  33.673  36.567  1.00  0.00     0.064 A 
ATOM     66  C   UNL A   1      40.283  34.934  36.616  1.00  0.00     0.173 A 
ATOM     67  C   UNL A   1      38.840  33.307  37.639  1.00  0.00     0.173 A 
ATOM     68  F   UNL A   1      41.093  35.330  35.623  1.00  0.00    -0.203 F 
ATOM     69  C   UNL A   1      40.100  35.780  37.708  1.00  0.00     0.198 A 
ATOM     70  C   UNL A   1      38.632  34.169  38.712  1.00  0.00     0.198 A 
ATOM     71  F   UNL A   1      38.222  32.116  37.642  1.00  0.00    -0.203 F 
ATOM     72  F   UNL A   1      40.741  36.956  37.757  1.00  0.00    -0.200 F 
ATOM     73  C   UNL A   1      39.269  35.401  38.750  1.00  0.00     0.200 A 
ATOM     74  F   UNL A   1      37.815  33.808  39.711  1.00  0.00    -0.200 F 
ATOM     75  F   UNL A   1      39.086  36.219  39.796  1.00  0.00    -0.200 F 
ENDBRANCH  51  65
BRANCH  52  76
ATOM     76  C   UNL A   1      40.713  27.928  28.457  1.00  0.00     0.064 A 
ATOM     77  C   UNL A   1      41.486  28.379  27.379  1.00  0.00     0.173 A 
ATOM     78  C   UNL A   1      40.108  26.667  28.344  1.00  0.00     0.173 A 
ATOM     79  F   UNL A   1      42.067  29.587  27.430  1.00  0.00    -0.203 F 
ATOM     80  C   UNL A   1      41.626  27.612  26.224  1.00  0.00     0.198 A 
ATOM     81  C   UNL A   1      40.278  25.887  27.202  1.00  0.00     0.198 A 
ATOM     82  F   UNL A   1      39.362  26.186  29.349  1.00  0.00    -0.203 F 
ATOM     83  F   UNL A   1      42.326  28.092  25.186  1.00  0.00    -0.200 F 
ATOM     84  C   UNL A   1      41.028  26.365  26.138  1.00  0.00     0.200 A 
ATOM     85  F   UNL A   1      39.710  24.676  27.131  1.00  0.00    -0.200 F 
ATOM     86  F   UNL A   1      41.165  25.628  25.028  1.00  0.00    -0.200 F 
ENDBRANCH  52  76
BRANCH  64  87
ATOM     87  C   UNL A   1      44.028  28.279  34.582  1.00  0.00     0.064 A 
ATOM     88  C   UNL A   1      45.357  28.714  34.470  1.00  0.00     0.173 A 
ATOM     89  C   UNL A   1      43.784  27.094  35.295  1.00  0.00     0.173 A 
ATOM     90  F   UNL A   1      45.645  29.832  33.787  1.00  0.00    -0.203 F 
ATOM     91  C   UNL A   1      46.401  27.978  35.025  1.00  0.00     0.198 A 
ATOM     92  C   UNL A   1      44.826  26.381  35.879  1.00  0.00     0.198 A 
ATOM     93  F   UNL A   1      42.531  26.636  35.438  1.00  0.00    -0.203 F 
ATOM     94  F   UNL A   1      47.667  28.385  34.860  1.00  0.00    -0.200 F 
ATOM     95  C   UNL A   1      46.134  26.818  35.737  1.00  0.00     0.200 A 
ATOM     96  F   UNL A   1      44.564  25.269  36.581  1.00  0.00    -0.200 F 
ATOM     97  F   UNL A   1      47.139  26.117  36.278  1.00  0.00    -0.200 F 
ENDBRANCH  64  87
ENDBRANCH  38  39
ENDBRANCH  30  33
ENDBRANCH  28  29
ENDBRANCH  27  28
ENDBRANCH  26  27
ENDBRANCH  25  26
ENDBRANCH   1  25
TORSDOF 20
ENDMDL
MODEL 2
REMARK VINA RESULT:     -11.1      5.081      9.709
REMARK SMILES C=CCCC[C@@]1(C(=O)NCCCCCCNC(=O)c2ccc(-c3c4nc(c(-c5c(F)c(F)c(F)c(F)c5F)c5ccc([nH]5)c(-c5c(F)c(F)c(F)c(F)c5F)c5nc(c(-c6c(F)c(F)c(F)c(F)c6F)c6ccc3[nH]6)C=C5)C=C4)cc2)CCCN(C(=O)OC(C)(C)C)C1
REMARK SMILES IDX 11 1 10 2 9 3 7 4 8 5 6 7 82 8 93 9 83 10 85 11 84 12 5 13
REMARK SMILES IDX 4 14 3 15 2 16 1 17 86 18 87 19 88 20 89 21 90 22 91 23
REMARK SMILES IDX 92 24 12 25 13 26 14 27 15 28 16 29 17 30 18 32 19 33 20 34
REMARK SMILES IDX 81 35 21 36 80 37 22 38 23 39 24 40 74 41 25 42 79 43 73 44
REMARK SMILES IDX 75 45 26 46 78 47 72 48 71 49 27 51 59 52 39 53 58 54 40 55
REMARK SMILES IDX 43 56 57 57 76 58 41 59 42 60 56 62 77 63 44 64 28 65 29 66
REMARK SMILES IDX 37 67 30 68 31 69 35 70 38 71 32 72 33 73 36 74 34 75 60 76
REMARK SMILES IDX 61 77 69 78 62 79 63 80 67 81 70 82 64 83 65 84 68 85 66 86
REMARK SMILES IDX 45 87 46 88 54 89 47 90 48 91 52 92 55 93 49 94 50 95 53 96
REMARK SMILES IDX 51 97
REMARK H PARENT 9 6 16 31 75 50 43 61
REMARK Flexibility Score: inf
ROOT
ATOM      1  C   UNL A   1      36.855  23.188  25.450  1.00  0.00     0.021 C 
ENDROOT
BRANCH   1   2
ATOM      2  C   UNL A   1      35.702  24.165  25.251  1.00  0.00     0.116 C 
BRANCH   2   3
ATOM      3  N   UNL A   1      35.028  23.952  23.987  1.00  0.00    -0.356 N 
ATOM      4  C   UNL A   1      33.739  23.643  23.691  1.00  0.00     0.228 C 
ATOM      5  O   UNL A   1      33.492  23.477  22.493  1.00  0.00    -0.274 OA
ATOM      6  H   UNL A   1      35.610  24.051  23.198  1.00  0.00     0.163 HD
BRANCH   4   7
ATOM      7  C   UNL A   1      32.662  23.437  24.787  1.00  0.00     0.067 C 
ATOM      8  C   UNL A   1      31.294  23.143  24.089  1.00  0.00     0.020 C 
ATOM      9  C   UNL A   1      32.473  24.725  25.617  1.00  0.00     0.140 C 
ATOM     10  C   UNL A   1      30.720  24.347  23.322  1.00  0.00     0.023 C 
ATOM     11  N   UNL A   1      31.996  25.834  24.807  1.00  0.00    -0.307 N 
ATOM     12  C   UNL A   1      30.711  25.629  24.150  1.00  0.00     0.123 C 
BRANCH   7  13
ATOM     13  C   UNL A   1      33.086  22.176  25.614  1.00  0.00     0.019 C 
BRANCH  13  14
ATOM     14  C   UNL A   1      32.415  20.829  25.296  1.00  0.00     0.005 C 
BRANCH  14  15
ATOM     15  C   UNL A   1      33.194  19.877  24.384  1.00  0.00     0.027 C 
BRANCH  15  16
ATOM     16  C   UNL A   1      32.470  19.522  23.119  1.00  0.00    -0.035 C 
ATOM     17  C   UNL A   1      32.308  18.265  22.688  1.00  0.00     0.004 C 
ENDBRANCH  15  16
ENDBRANCH  14  15
ENDBRANCH  13  14
ENDBRANCH   7  13
BRANCH  11  18
ATOM     18  C   UNL A   1      32.758  26.983  24.724  1.00  0.00     0.410 C 
ATOM     19  O   UNL A   1      33.895  26.993  24.262  1.00  0.00    -0.224 OA
BRANCH  18  20
ATOM     20  O   UNL A   1      32.122  28.085  25.195  1.00  0.00    -0.444 OA
BRANCH  20  21
ATOM     21  C   UNL A   1      32.558  28.688  26.442  1.00  0.00     0.106 C 
ATOM     22  C   UNL A   1      33.969  28.234  26.839  1.00  0.00     0.056 C 
ATOM     23  C   UNL A   1      32.445  30.217  26.372  1.00  0.00     0.056 C 
ATOM     24  C   UNL A   1      31.573  28.173  27.501  1.00  0.00     0.056 C 
ENDBRANCH  20  21
ENDBRANCH  18  20
ENDBRANCH  11  18
ENDBRANCH   4   7
ENDBRANCH   2   3
ENDBRANCH   1   2
BRANCH   1  25
ATOM     25  C   UNL A   1      36.904  22.043  24.433  1.00  0.00     0.002 C 
BRANCH  25  26
ATOM     26  C   UNL A   1      36.737  20.637  25.017  1.00  0.00     0.002 C 
BRANCH  26  27
ATOM     27  C   UNL A   1      37.966  19.732  24.911  1.00  0.00     0.021 C 
BRANCH  27  28
ATOM     28  C   UNL A   1      39.151  20.158  25.767  1.00  0.00     0.116 C 
BRANCH  28  29
ATOM     29  N   UNL A   1      40.162  19.121  25.877  1.00  0.00    -0.352 N 
ATOM     30  C   UNL A   1      41.511  19.243  26.089  1.00  0.00     0.251 C 
ATOM     31  H   UNL A   1      39.831  18.198  25.785  1.00  0.00     0.163 HD
ATOM     32  O   UNL A   1      42.247  18.265  25.989  1.00  0.00    -0.269 OA
BRANCH  30  33
ATOM     33  C   UNL A   1      42.085  20.565  26.413  1.00  0.00     0.039 A 
ATOM     34  C   UNL A   1      42.486  21.399  25.366  1.00  0.00     0.014 A 
ATOM     35  C   UNL A   1      42.227  20.982  27.739  1.00  0.00     0.014 A 
ATOM     36  C   UNL A   1      42.976  22.675  25.647  1.00  0.00     0.010 A 
ATOM     37  C   UNL A   1      42.639  22.284  28.014  1.00  0.00     0.010 A 
ATOM     38  C   UNL A   1      43.023  23.140  26.972  1.00  0.00    -0.014 A 
BRANCH  38  39
ATOM     39  C   UNL A   1      43.472  24.522  27.282  1.00  0.00     0.031 A 
ATOM     40  C   UNL A   1      42.496  25.536  27.808  1.00  0.00     0.074 A 
ATOM     41  C   UNL A   1      44.749  24.876  27.038  1.00  0.00     0.049 A 
ATOM     42  N   UNL A   1      42.683  26.802  28.084  1.00  0.00    -0.248 NA
ATOM     43  C   UNL A   1      41.116  25.073  28.028  1.00  0.00     0.031 C 
ATOM     44  C   UNL A   1      45.780  23.995  26.486  1.00  0.00     0.029 A 
ATOM     45  N   UNL A   1      45.395  26.074  27.213  1.00  0.00    -0.354 N 
ATOM     46  C   UNL A   1      41.449  27.286  28.499  1.00  0.00     0.074 A 
ATOM     47  C   UNL A   1      40.506  26.195  28.381  1.00  0.00     0.031 C 
ATOM     48  C   UNL A   1      46.934  24.673  26.392  1.00  0.00     0.029 A 
ATOM     49  C   UNL A   1      46.716  26.048  26.833  1.00  0.00     0.049 A 
ATOM     50  H   UNL A   1      44.954  26.877  27.576  1.00  0.00     0.167 HD
ATOM     51  C   UNL A   1      41.137  28.520  28.959  1.00  0.00     0.037 A 
ATOM     52  C   UNL A   1      47.642  27.026  26.831  1.00  0.00     0.037 A 
ATOM     53  C   UNL A   1      42.084  29.597  29.089  1.00  0.00     0.049 A 
ATOM     54  C   UNL A   1      47.262  28.396  27.325  1.00  0.00     0.074 A 
ATOM     55  C   UNL A   1      41.879  30.868  29.596  1.00  0.00     0.029 A 
ATOM     56  N   UNL A   1      43.414  29.532  28.699  1.00  0.00    -0.354 N 
ATOM     57  N   UNL A   1      46.111  28.822  27.783  1.00  0.00    -0.248 NA
ATOM     58  C   UNL A   1      48.316  29.421  27.307  1.00  0.00     0.031 C 
ATOM     59  C   UNL A   1      43.069  31.591  29.457  1.00  0.00     0.029 A 
ATOM     60  C   UNL A   1      44.034  30.750  28.926  1.00  0.00     0.049 A 
ATOM     61  H   UNL A   1      43.853  28.737  28.318  1.00  0.00     0.167 HD
ATOM     62  C   UNL A   1      46.307  30.151  28.137  1.00  0.00     0.074 A 
ATOM     63  C   UNL A   1      47.694  30.455  27.855  1.00  0.00     0.031 C 
ATOM     64  C   UNL A   1      45.418  31.038  28.648  1.00  0.00     0.037 A 
BRANCH  51  65
ATOM     65  C   UNL A   1      39.710  28.775  29.355  1.00  0.00     0.064 A 
ATOM     66  C   UNL A   1      39.250  28.533  30.658  1.00  0.00     0.173 A 
ATOM     67  C   UNL A   1      38.799  29.306  28.428  1.00  0.00     0.173 A 
ATOM     68  F   UNL A   1      40.076  28.018  31.581  1.00  0.00    -0.203 F 
ATOM     69  C   UNL A   1      37.924  28.781  31.009  1.00  0.00     0.198 A 
ATOM     70  C   UNL A   1      37.485  29.586  28.792  1.00  0.00     0.198 A 
ATOM     71  F   UNL A   1      39.186  29.564  27.169  1.00  0.00    -0.203 F 
ATOM     72  F   UNL A   1      37.496  28.490  32.245  1.00  0.00    -0.200 F 
ATOM     73  C   UNL A   1      37.047  29.314  30.079  1.00  0.00     0.200 A 
ATOM     74  F   UNL A   1      36.641  30.116  27.896  1.00  0.00    -0.200 F 
ATOM     75  F   UNL A   1      35.774  29.561  30.421  1.00  0.00    -0.200 F 
ENDBRANCH  51  65
BRANCH  52  76
ATOM     76  C   UNL A   1      49.024  26.741  26.358  1.00  0.00     0.064 A 
ATOM     77  C   UNL A   1      49.388  26.960  25.023  1.00  0.00     0.173 A 
ATOM     78  C   UNL A   1      50.002  26.232  27.226  1.00  0.00     0.173 A 
ATOM     79  F   UNL A   1      48.484  27.425  24.149  1.00  0.00    -0.203 F 
ATOM     80  C   UNL A   1      50.671  26.657  24.568  1.00  0.00     0.198 A 
ATOM     81  C   UNL A   1      51.293  25.962  26.778  1.00  0.00     0.198 A 
ATOM     82  F   UNL A   1      49.706  26.009  28.515  1.00  0.00    -0.203 F 
ATOM     83  F   UNL A   1      50.977  26.824  23.274  1.00  0.00    -0.200 F 
ATOM     84  C   UNL A   1      51.623  26.164  25.447  1.00  0.00     0.200 A 
ATOM     85  F   UNL A   1      52.213  25.501  27.634  1.00  0.00    -0.200 F 
ATOM     86  F   UNL A   1      52.856  25.875  25.009  1.00  0.00    -0.200 F 
ENDBRANCH  52  76
BRANCH  64  87
ATOM     87  C   UNL A   1      45.927  32.414  28.974  1.00  0.00     0.064 A 
ATOM     88  C   UNL A   1      45.832  33.475  28.061  1.00  0.00     0.173 A 
ATOM     89  C   UNL A   1      46.483  32.683  30.235  1.00  0.00     0.173 A 
ATOM     90  F   UNL A   1      45.322  33.269  26.838  1.00  0.00    -0.203 F 
ATOM     91  C   UNL A   1      46.303  34.745  28.387  1.00  0.00     0.198 A 
ATOM     92  C   UNL A   1      46.918  33.961  30.570  1.00  0.00     0.198 A 
ATOM     93  F   UNL A   1      46.591  31.706  31.149  1.00  0.00    -0.203 F 
ATOM     94  F   UNL A   1      46.251  35.729  27.480  1.00  0.00    -0.200 F 
ATOM     95  C   UNL A   1      46.836  34.988  29.644  1.00  0.00     0.200 A 
ATOM     96  F   UNL A   1      47.418  34.198  31.792  1.00  0.00    -0.200 F 
ATOM     97  F   UNL A   1      47.279  36.213  29.959  1.00  0.00    -0.200 F 
ENDBRANCH  64  87
ENDBRANCH  38  39
ENDBRANCH  30  33
ENDBRANCH  28  29
ENDBRANCH  27  28
ENDBRANCH  26  27
ENDBRANCH  25  26
ENDBRANCH   1  25
TORSDOF 20
ENDMDL
MODEL 3
REMARK VINA RESULT:     -11.0      5.085      9.811
REMARK SMILES C=CCCC[C@@]1(C(=O)NCCCCCCNC(=O)c2ccc(-c3c4nc(c(-c5c(F)c(F)c(F)c(F)c5F)c5ccc([nH]5)c(-c5c(F)c(F)c(F)c(F)c5F)c5nc(c(-c6c(F)c(F)c(F)c(F)c6F)c6ccc3[nH]6)C=C5)C=C4)cc2)CCCN(C(=O)OC(C)(C)C)C1
REMARK SMILES IDX 11 1 10 2 9 3 7 4 8 5 6 7 82 8 93 9 83 10 85 11 84 12 5 13
REMARK SMILES IDX 4 14 3 15 2 16 1 17 86 18 87 19 88 20 89 21 90 22 91 23
REMARK SMILES IDX 92 24 12 25 13 26 14 27 15 28 16 29 17 30 18 32 19 33 20 34
REMARK SMILES IDX 81 35 21 36 80 37 22 38 23 39 24 40 74 41 25 42 79 43 73 44
REMARK SMILES IDX 75 45 26 46 78 47 72 48 71 49 27 51 59 52 39 53 58 54 40 55
REMARK SMILES IDX 43 56 57 57 76 58 41 59 42 60 56 62 77 63 44 64 28 65 29 66
REMARK SMILES IDX 37 67 30 68 31 69 35 70 38 71 32 72 33 73 36 74 34 75 60 76
REMARK SMILES IDX 61 77 69 78 62 79 63 80 67 81 70 82 64 83 65 84 68 85 66 86
REMARK SMILES IDX 45 87 46 88 54 89 47 90 48 91 52 92 55 93 49 94 50 95 53 96
REMARK SMILES IDX 51 97
REMARK H PARENT 9 6 16 31 75 50 43 61
REMARK Flexibility Score: inf
ROOT
ATOM      1  C   UNL A   1      37.051  23.366  25.604  1.00  0.00     0.021 C 
ENDROOT
BRANCH   1   2
ATOM      2  C   UNL A   1      35.644  23.953  25.606  1.00  0.00     0.116 C 
BRANCH   2   3
ATOM      3  N   UNL A   1      35.143  24.156  24.262  1.00  0.00    -0.356 N 
ATOM      4  C   UNL A   1      33.946  23.863  23.690  1.00  0.00     0.228 C 
ATOM      5  O   UNL A   1      33.852  24.122  22.487  1.00  0.00    -0.274 OA
ATOM      6  H   UNL A   1      35.787  24.584  23.652  1.00  0.00     0.163 HD
BRANCH   4   7
ATOM      7  C   UNL A   1      32.796  23.180  24.475  1.00  0.00     0.067 C 
ATOM      8  C   UNL A   1      31.568  23.027  23.521  1.00  0.00     0.020 C 
ATOM      9  C   UNL A   1      32.338  24.065  25.655  1.00  0.00     0.140 C 
ATOM     10  C   UNL A   1      30.917  24.365  23.130  1.00  0.00     0.023 C 
ATOM     11  N   UNL A   1      31.800  25.340  25.207  1.00  0.00    -0.307 N 
ATOM     12  C   UNL A   1      30.636  25.262  24.333  1.00  0.00     0.123 C 
BRANCH   7  13
ATOM     13  C   UNL A   1      33.301  21.754  24.879  1.00  0.00     0.019 C 
BRANCH  13  14
ATOM     14  C   UNL A   1      32.787  20.541  24.085  1.00  0.00     0.005 C 
BRANCH  14  15
ATOM     15  C   UNL A   1      33.426  19.189  24.415  1.00  0.00     0.027 C 
BRANCH  15  16
ATOM     16  C   UNL A   1      32.451  18.050  24.449  1.00  0.00    -0.035 C 
ATOM     17  C   UNL A   1      32.557  17.010  25.285  1.00  0.00     0.004 C 
ENDBRANCH  15  16
ENDBRANCH  14  15
ENDBRANCH  13  14
ENDBRANCH   7  13
BRANCH  11  18
ATOM     18  C   UNL A   1      32.397  26.510  25.635  1.00  0.00     0.410 C 
ATOM     19  O   UNL A   1      33.535  26.545  26.093  1.00  0.00    -0.224 OA
BRANCH  18  20
ATOM     20  O   UNL A   1      31.604  27.601  25.492  1.00  0.00    -0.444 OA
BRANCH  20  21
ATOM     21  C   UNL A   1      32.019  28.682  24.616  1.00  0.00     0.106 C 
ATOM     22  C   UNL A   1      32.752  29.794  25.380  1.00  0.00     0.056 C 
ATOM     23  C   UNL A   1      32.854  28.141  23.447  1.00  0.00     0.056 C 
ATOM     24  C   UNL A   1      30.714  29.267  24.056  1.00  0.00     0.056 C 
ENDBRANCH  20  21
ENDBRANCH  18  20
ENDBRANCH  11  18
ENDBRANCH   4   7
ENDBRANCH   2   3
ENDBRANCH   1   2
BRANCH   1  25
ATOM     25  C   UNL A   1      37.300  22.309  24.524  1.00  0.00     0.002 C 
BRANCH  25  26
ATOM     26  C   UNL A   1      36.863  20.885  24.884  1.00  0.00     0.002 C 
BRANCH  26  27
ATOM     27  C   UNL A   1      37.986  19.846  24.923  1.00  0.00     0.021 C 
BRANCH  27  28
ATOM     28  C   UNL A   1      39.093  20.136  25.927  1.00  0.00     0.116 C 
BRANCH  28  29
ATOM     29  N   UNL A   1      40.120  19.109  25.937  1.00  0.00    -0.352 N 
ATOM     30  C   UNL A   1      41.480  19.242  26.059  1.00  0.00     0.251 C 
ATOM     31  H   UNL A   1      39.794  18.185  25.843  1.00  0.00     0.163 HD
ATOM     32  O   UNL A   1      42.217  18.278  25.881  1.00  0.00    -0.269 OA
BRANCH  30  33
ATOM     33  C   UNL A   1      42.060  20.563  26.380  1.00  0.00     0.039 A 
ATOM     34  C   UNL A   1      42.370  21.433  25.332  1.00  0.00     0.014 A 
ATOM     35  C   UNL A   1      42.297  20.942  27.704  1.00  0.00     0.014 A 
ATOM     36  C   UNL A   1      42.863  22.707  25.615  1.00  0.00     0.010 A 
ATOM     37  C   UNL A   1      42.713  22.240  27.987  1.00  0.00     0.010 A 
ATOM     38  C   UNL A   1      43.005  23.134  26.946  1.00  0.00    -0.014 A 
BRANCH  38  39
ATOM     39  C   UNL A   1      43.461  24.511  27.264  1.00  0.00     0.031 A 
ATOM     40  C   UNL A   1      42.488  25.525  27.799  1.00  0.00     0.074 A 
ATOM     41  C   UNL A   1      44.737  24.863  27.019  1.00  0.00     0.049 A 
ATOM     42  N   UNL A   1      42.681  26.789  28.083  1.00  0.00    -0.248 NA
ATOM     43  C   UNL A   1      41.108  25.065  28.019  1.00  0.00     0.031 C 
ATOM     44  C   UNL A   1      45.765  23.982  26.460  1.00  0.00     0.029 A 
ATOM     45  N   UNL A   1      45.388  26.058  27.201  1.00  0.00    -0.354 N 
ATOM     46  C   UNL A   1      41.449  27.274  28.504  1.00  0.00     0.074 A 
ATOM     47  C   UNL A   1      40.503  26.187  28.381  1.00  0.00     0.031 C 
ATOM     48  C   UNL A   1      46.920  24.658  26.368  1.00  0.00     0.029 A 
ATOM     49  C   UNL A   1      46.708  26.030  26.818  1.00  0.00     0.049 A 
ATOM     50  H   UNL A   1      44.951  26.860  27.570  1.00  0.00     0.167 HD
ATOM     51  C   UNL A   1      41.142  28.506  28.973  1.00  0.00     0.037 A 
ATOM     52  C   UNL A   1      47.637  27.005  26.820  1.00  0.00     0.037 A 
ATOM     53  C   UNL A   1      42.092  29.580  29.107  1.00  0.00     0.049 A 
ATOM     54  C   UNL A   1      47.263  28.373  27.324  1.00  0.00     0.074 A 
ATOM     55  C   UNL A   1      41.894  30.848  29.623  1.00  0.00     0.029 A 
ATOM     56  N   UNL A   1      43.422  29.512  28.714  1.00  0.00    -0.354 N 
ATOM     57  N   UNL A   1      46.114  28.799  27.787  1.00  0.00    -0.248 NA
ATOM     58  C   UNL A   1      48.320  29.394  27.310  1.00  0.00     0.031 C 
ATOM     59  C   UNL A   1      43.086  31.568  29.487  1.00  0.00     0.029 A 
ATOM     60  C   UNL A   1      44.047  30.727  28.948  1.00  0.00     0.049 A 
ATOM     61  H   UNL A   1      43.857  28.719  28.326  1.00  0.00     0.167 HD
ATOM     62  C   UNL A   1      46.316  30.125  28.149  1.00  0.00     0.074 A 
ATOM     63  C   UNL A   1      47.703  30.427  27.866  1.00  0.00     0.031 C 
ATOM     64  C   UNL A   1      45.431  31.013  28.668  1.00  0.00     0.037 A 
BRANCH  51  65
ATOM     65  C   UNL A   1      39.717  28.764  29.373  1.00  0.00     0.064 A 
ATOM     66  C   UNL A   1      39.258  28.511  30.675  1.00  0.00     0.173 A 
ATOM     67  C   UNL A   1      38.806  29.306  28.453  1.00  0.00     0.173 A 
ATOM     68  F   UNL A   1      40.083  27.985  31.592  1.00  0.00    -0.203 F 
ATOM     69  C   UNL A   1      37.934  28.762  31.031  1.00  0.00     0.198 A 
ATOM     70  C   UNL A   1      37.494  29.588  28.822  1.00  0.00     0.198 A 
ATOM     71  F   UNL A   1      39.192  29.574  27.196  1.00  0.00    -0.203 F 
ATOM     72  F   UNL A   1      37.507  28.461  32.265  1.00  0.00    -0.200 F 
ATOM     73  C   UNL A   1      37.057  29.307  30.108  1.00  0.00     0.200 A 
ATOM     74  F   UNL A   1      36.651  30.130  27.932  1.00  0.00    -0.200 F 
ATOM     75  F   UNL A   1      35.786  29.556  30.454  1.00  0.00    -0.200 F 
ENDBRANCH  51  65
BRANCH  52  76
ATOM     76  C   UNL A   1      49.017  26.718  26.342  1.00  0.00     0.064 A 
ATOM     77  C   UNL A   1      49.997  26.235  27.220  1.00  0.00     0.173 A 
ATOM     78  C   UNL A   1      49.387  26.933  25.006  1.00  0.00     0.173 A 
ATOM     79  F   UNL A   1      49.700  26.033  28.512  1.00  0.00    -0.203 F 
ATOM     80  C   UNL A   1      51.301  26.002  26.785  1.00  0.00     0.198 A 
ATOM     81  C   UNL A   1      50.681  26.668  24.565  1.00  0.00     0.198 A 
ATOM     82  F   UNL A   1      48.486  27.390  24.124  1.00  0.00    -0.203 F 
ATOM     83  F   UNL A   1      52.232  25.592  27.657  1.00  0.00    -0.200 F 
ATOM     84  C   UNL A   1      51.640  26.213  25.458  1.00  0.00     0.200 A 
ATOM     85  F   UNL A   1      51.000  26.858  23.278  1.00  0.00    -0.200 F 
ATOM     86  F   UNL A   1      52.894  25.987  25.040  1.00  0.00    -0.200 F 
ENDBRANCH  52  76
BRANCH  64  87
ATOM     87  C   UNL A   1      45.945  32.384  29.002  1.00  0.00     0.064 A 
ATOM     88  C   UNL A   1      46.520  32.677  30.248  1.00  0.00     0.173 A 
ATOM     89  C   UNL A   1      45.896  33.411  28.046  1.00  0.00     0.173 A 
ATOM     90  F   UNL A   1      46.578  31.736  31.202  1.00  0.00    -0.203 F 
ATOM     91  C   UNL A   1      46.998  33.953  30.534  1.00  0.00     0.198 A 
ATOM     92  C   UNL A   1      46.408  34.675  28.323  1.00  0.00     0.198 A 
ATOM     93  F   UNL A   1      45.363  33.183  26.835  1.00  0.00    -0.203 F 
ATOM     94  F   UNL A   1      47.493  34.225  31.750  1.00  0.00    -0.200 F 
ATOM     95  C   UNL A   1      46.950  34.948  29.568  1.00  0.00     0.200 A 
ATOM     96  F   UNL A   1      46.376  35.630  27.382  1.00  0.00    -0.200 F 
ATOM     97  F   UNL A   1      47.419  36.173  29.843  1.00  0.00    -0.200 F 
ENDBRANCH  64  87
ENDBRANCH  38  39
ENDBRANCH  30  33
ENDBRANCH  28  29
ENDBRANCH  27  28
ENDBRANCH  26  27
ENDBRANCH  25  26
ENDBRANCH   1  25
TORSDOF 20
ENDMDL
