MODEL 1
REMARK VINA RESULT:     -10.1      0.000      0.000
REMARK SMILES C/C=C/C[C@@H](C(=O)NCCCCCCNC(=O)c1ccc(-c2c3nc(c(-c4c(F)c(F)c(F)c(F)c4F)c4ccc([nH]4)c(-c4c(F)c(F)c(F)c(F)c4F)c4nc(c(-c5c(F)c(F)c(F)c(F)c5F)c5ccc2[nH]5)C=C4)C=C3)cc1)c1cccc(Cl)c1
REMARK SMILES IDX 11 1 10 2 9 3 8 4 6 5 7 6 5 8 4 9 3 10 1 11 2 12 81 13 82 14
REMARK SMILES IDX 87 15 83 16 85 17 84 18 86 19 12 20 13 21 14 22 15 23 16 24
REMARK SMILES IDX 17 26 18 27 19 28 80 29 20 30 79 31 21 32 22 33 23 34 73 35
REMARK SMILES IDX 24 36 78 37 72 38 74 39 25 40 77 41 71 42 70 43 26 45 58 46
REMARK SMILES IDX 38 47 57 48 39 49 42 50 56 51 75 52 40 53 41 54 55 56 76 57
REMARK SMILES IDX 43 58 27 59 28 60 36 61 29 62 30 63 34 64 37 65 31 66 32 67
REMARK SMILES IDX 35 68 33 69 59 70 60 71 68 72 61 73 62 74 66 75 69 76 63 77
REMARK SMILES IDX 64 78 67 79 65 80 44 81 45 82 53 83 46 84 47 85 51 86 54 87
REMARK SMILES IDX 48 88 49 89 52 90 50 91
REMARK H PARENT 8 7 15 25 74 44 42 55
REMARK Flexibility Score: inf
ROOT
ATOM      1  C   UNL A   1      43.196  19.849  25.552  1.00  0.00     0.002 C 
ENDROOT
BRANCH   1   2
ATOM      2  C   UNL A   1      44.486  19.112  25.182  1.00  0.00     0.021 C 
BRANCH   2   3
ATOM      3  C   UNL A   1      45.739  19.994  25.162  1.00  0.00     0.116 C 
BRANCH   3   4
ATOM      4  N   UNL A   1      45.597  21.015  24.144  1.00  0.00    -0.356 N 
ATOM      5  C   UNL A   1      45.288  22.339  24.267  1.00  0.00     0.227 C 
ATOM      6  O   UNL A   1      44.893  22.906  23.244  1.00  0.00    -0.274 OA
ATOM      7  H   UNL A   1      45.745  20.707  23.221  1.00  0.00     0.163 HD
BRANCH   5   8
ATOM      8  C   UNL A   1      45.487  23.089  25.601  1.00  0.00     0.112 C 
BRANCH   8   9
ATOM      9  C   UNL A   1      44.213  23.095  26.482  1.00  0.00     0.045 C 
BRANCH   9  10
ATOM     10  C   UNL A   1      44.389  23.368  27.950  1.00  0.00    -0.030 C 
ATOM     11  C   UNL A   1      43.770  23.202  30.370  1.00  0.00     0.035 C 
ATOM     12  C   UNL A   1      43.552  22.947  28.912  1.00  0.00    -0.035 C 
ENDBRANCH   9  10
ENDBRANCH   8   9
BRANCH   8  13
ATOM     13  C   UNL A   1      45.961  24.526  25.298  1.00  0.00    -0.034 A 
ATOM     14  C   UNL A   1      45.049  25.593  25.378  1.00  0.00     0.004 A 
ATOM     15  C   UNL A   1      47.309  24.826  25.023  1.00  0.00     0.025 A 
ATOM     16  C   UNL A   1      45.471  26.912  25.173  1.00  0.00     0.002 A 
ATOM     17  C   UNL A   1      47.720  26.142  24.807  1.00  0.00     0.041 A 
ATOM     18  C   UNL A   1      46.807  27.187  24.882  1.00  0.00     0.020 A 
ATOM     19  Cl  UNL A   1      49.373  26.471  24.455  1.00  0.00    -0.084 Cl
ENDBRANCH   8  13
ENDBRANCH   5   8
ENDBRANCH   3   4
ENDBRANCH   2   3
ENDBRANCH   1   2
BRANCH   1  20
ATOM     20  C   UNL A   1      42.316  19.137  26.584  1.00  0.00     0.002 C 
BRANCH  20  21
ATOM     21  C   UNL A   1      41.217  19.991  27.222  1.00  0.00     0.021 C 
BRANCH  21  22
ATOM     22  C   UNL A   1      41.021  21.378  26.612  1.00  0.00     0.116 C 
BRANCH  22  23
ATOM     23  N   UNL A   1      39.688  21.560  26.065  1.00  0.00    -0.352 N 
ATOM     24  C   UNL A   1      38.839  22.634  26.127  1.00  0.00     0.251 C 
ATOM     25  H   UNL A   1      39.337  20.784  25.570  1.00  0.00     0.163 HD
ATOM     26  O   UNL A   1      37.677  22.511  25.751  1.00  0.00    -0.269 OA
BRANCH  24  27
ATOM     27  C   UNL A   1      39.296  23.942  26.654  1.00  0.00     0.039 A 
ATOM     28  C   UNL A   1      38.975  24.271  27.974  1.00  0.00     0.014 A 
ATOM     29  C   UNL A   1      39.978  24.863  25.854  1.00  0.00     0.014 A 
ATOM     30  C   UNL A   1      39.378  25.498  28.506  1.00  0.00     0.010 A 
ATOM     31  C   UNL A   1      40.434  26.063  26.403  1.00  0.00     0.010 A 
ATOM     32  C   UNL A   1      40.133  26.395  27.732  1.00  0.00    -0.014 A 
BRANCH  32  33
ATOM     33  C   UNL A   1      40.619  27.669  28.321  1.00  0.00     0.031 A 
ATOM     34  C   UNL A   1      42.079  27.878  28.611  1.00  0.00     0.074 A 
ATOM     35  C   UNL A   1      39.731  28.635  28.627  1.00  0.00     0.049 A 
ATOM     36  N   UNL A   1      42.683  28.930  29.106  1.00  0.00    -0.248 NA
ATOM     37  C   UNL A   1      42.978  26.749  28.330  1.00  0.00     0.031 C 
ATOM     38  C   UNL A   1      38.281  28.532  28.454  1.00  0.00     0.029 A 
ATOM     39  N   UNL A   1      39.915  29.891  29.149  1.00  0.00    -0.354 N 
ATOM     40  C   UNL A   1      44.024  28.587  29.204  1.00  0.00     0.074 A 
ATOM     41  C   UNL A   1      44.141  27.213  28.764  1.00  0.00     0.031 C 
ATOM     42  C   UNL A   1      37.710  29.685  28.837  1.00  0.00     0.029 A 
ATOM     43  C   UNL A   1      38.749  30.599  29.303  1.00  0.00     0.049 A 
ATOM     44  H   UNL A   1      40.800  30.250  29.389  1.00  0.00     0.167 HD
ATOM     45  C   UNL A   1      45.067  29.356  29.606  1.00  0.00     0.037 A 
ATOM     46  C   UNL A   1      38.540  31.847  29.762  1.00  0.00     0.037 A 
ATOM     47  C   UNL A   1      44.953  30.730  30.018  1.00  0.00     0.049 A 
ATOM     48  C   UNL A   1      39.717  32.689  30.170  1.00  0.00     0.074 A 
ATOM     49  C   UNL A   1      45.961  31.613  30.368  1.00  0.00     0.029 A 
ATOM     50  N   UNL A   1      43.757  31.422  30.142  1.00  0.00    -0.354 N 
ATOM     51  N   UNL A   1      40.991  32.382  30.177  1.00  0.00    -0.248 NA
ATOM     52  C   UNL A   1      39.426  34.057  30.621  1.00  0.00     0.031 C 
ATOM     53  C   UNL A   1      45.371  32.827  30.743  1.00  0.00     0.029 A 
ATOM     54  C   UNL A   1      44.000  32.713  30.584  1.00  0.00     0.049 A 
ATOM     55  H   UNL A   1      42.867  31.050  29.943  1.00  0.00     0.167 HD
ATOM     56  C   UNL A   1      41.655  33.519  30.616  1.00  0.00     0.074 A 
ATOM     57  C   UNL A   1      40.644  34.532  30.842  1.00  0.00     0.031 C 
ATOM     58  C   UNL A   1      42.982  33.706  30.816  1.00  0.00     0.037 A 
BRANCH  45  59
ATOM     59  C   UNL A   1      46.429  28.725  29.613  1.00  0.00     0.064 A 
ATOM     60  C   UNL A   1      46.941  28.093  30.757  1.00  0.00     0.173 A 
ATOM     61  C   UNL A   1      47.217  28.717  28.452  1.00  0.00     0.173 A 
ATOM     62  F   UNL A   1      46.231  28.080  31.895  1.00  0.00    -0.203 F 
ATOM     63  C   UNL A   1      48.201  27.502  30.746  1.00  0.00     0.198 A 
ATOM     64  C   UNL A   1      48.466  28.102  28.436  1.00  0.00     0.198 A 
ATOM     65  F   UNL A   1      46.773  29.301  27.329  1.00  0.00    -0.203 F 
ATOM     66  F   UNL A   1      48.689  26.945  31.863  1.00  0.00    -0.200 F 
ATOM     67  C   UNL A   1      48.960  27.502  29.585  1.00  0.00     0.200 A 
ATOM     68  F   UNL A   1      49.193  28.091  27.311  1.00  0.00    -0.200 F 
ATOM     69  F   UNL A   1      50.172  26.928  29.575  1.00  0.00    -0.200 F 
ENDBRANCH  45  59
BRANCH  46  70
ATOM     70  C   UNL A   1      37.158  32.387  29.822  1.00  0.00     0.064 A 
ATOM     71  C   UNL A   1      36.367  32.214  30.967  1.00  0.00     0.173 A 
ATOM     72  C   UNL A   1      36.605  33.092  28.744  1.00  0.00     0.173 A 
ATOM     73  F   UNL A   1      36.847  31.528  32.015  1.00  0.00    -0.203 F 
ATOM     74  C   UNL A   1      35.069  32.714  31.024  1.00  0.00     0.198 A 
ATOM     75  C   UNL A   1      35.315  33.613  28.813  1.00  0.00     0.198 A 
ATOM     76  F   UNL A   1      37.325  33.288  27.630  1.00  0.00    -0.203 F 
ATOM     77  F   UNL A   1      34.320  32.502  32.115  1.00  0.00    -0.200 F 
ATOM     78  C   UNL A   1      34.545  33.418  29.951  1.00  0.00     0.200 A 
ATOM     79  F   UNL A   1      34.818  34.306  27.779  1.00  0.00    -0.200 F 
ATOM     80  F   UNL A   1      33.299  33.904  30.009  1.00  0.00    -0.200 F 
ENDBRANCH  46  70
BRANCH  58  81
ATOM     81  C   UNL A   1      43.414  35.062  31.295  1.00  0.00     0.064 A 
ATOM     82  C   UNL A   1      43.514  35.356  32.663  1.00  0.00     0.173 A 
ATOM     83  C   UNL A   1      43.744  36.072  30.378  1.00  0.00     0.173 A 
ATOM     84  F   UNL A   1      43.193  34.430  33.579  1.00  0.00    -0.203 F 
ATOM     85  C   UNL A   1      43.900  36.622  33.096  1.00  0.00     0.198 A 
ATOM     86  C   UNL A   1      44.156  37.328  30.816  1.00  0.00     0.198 A 
ATOM     87  F   UNL A   1      43.669  35.838  29.060  1.00  0.00    -0.203 F 
ATOM     88  F   UNL A   1      43.937  36.898  34.407  1.00  0.00    -0.200 F 
ATOM     89  C   UNL A   1      44.224  37.605  32.173  1.00  0.00     0.200 A 
ATOM     90  F   UNL A   1      44.479  38.273  29.922  1.00  0.00    -0.200 F 
ATOM     91  F   UNL A   1      44.593  38.824  32.591  1.00  0.00    -0.200 F 
ENDBRANCH  58  81
ENDBRANCH  32  33
ENDBRANCH  24  27
ENDBRANCH  22  23
ENDBRANCH  21  22
ENDBRANCH  20  21
ENDBRANCH   1  20
TORSDOF 16
ENDMDL
MODEL 2
REMARK VINA RESULT:      -9.9      2.312      4.141
REMARK SMILES C/C=C/C[C@@H](C(=O)NCCCCCCNC(=O)c1ccc(-c2c3nc(c(-c4c(F)c(F)c(F)c(F)c4F)c4ccc([nH]4)c(-c4c(F)c(F)c(F)c(F)c4F)c4nc(c(-c5c(F)c(F)c(F)c(F)c5F)c5ccc2[nH]5)C=C4)C=C3)cc1)c1cccc(Cl)c1
REMARK SMILES IDX 11 1 10 2 9 3 8 4 6 5 7 6 5 8 4 9 3 10 1 11 2 12 81 13 82 14
REMARK SMILES IDX 87 15 83 16 85 17 84 18 86 19 12 20 13 21 14 22 15 23 16 24
REMARK SMILES IDX 17 26 18 27 19 28 80 29 20 30 79 31 21 32 22 33 23 34 73 35
REMARK SMILES IDX 24 36 78 37 72 38 74 39 25 40 77 41 71 42 70 43 26 45 58 46
REMARK SMILES IDX 38 47 57 48 39 49 42 50 56 51 75 52 40 53 41 54 55 56 76 57
REMARK SMILES IDX 43 58 27 59 28 60 36 61 29 62 30 63 34 64 37 65 31 66 32 67
REMARK SMILES IDX 35 68 33 69 59 70 60 71 68 72 61 73 62 74 66 75 69 76 63 77
REMARK SMILES IDX 64 78 67 79 65 80 44 81 45 82 53 83 46 84 47 85 51 86 54 87
REMARK SMILES IDX 48 88 49 89 52 90 50 91
REMARK H PARENT 8 7 15 25 74 44 42 55
REMARK Flexibility Score: inf
ROOT
ATOM      1  C   UNL A   1      45.615  21.140  25.292  1.00  0.00     0.002 C 
ENDROOT
BRANCH   1   2
ATOM      2  C   UNL A   1      45.110  22.161  24.270  1.00  0.00     0.021 C 
BRANCH   2   3
ATOM      3  C   UNL A   1      46.029  23.371  24.072  1.00  0.00     0.116 C 
BRANCH   3   4
ATOM      4  N   UNL A   1      46.666  23.707  25.330  1.00  0.00    -0.356 N 
ATOM      5  C   UNL A   1      47.370  24.821  25.686  1.00  0.00     0.227 C 
ATOM      6  O   UNL A   1      48.092  24.717  26.681  1.00  0.00    -0.274 OA
ATOM      7  H   UNL A   1      46.577  23.028  26.036  1.00  0.00     0.163 HD
BRANCH   5   8
ATOM      8  C   UNL A   1      47.215  26.149  24.916  1.00  0.00     0.112 C 
BRANCH   8   9
ATOM      9  C   UNL A   1      48.527  26.970  24.864  1.00  0.00     0.045 C 
BRANCH   9  10
ATOM     10  C   UNL A   1      49.339  26.897  23.601  1.00  0.00    -0.030 C 
ATOM     11  C   UNL A   1      51.359  27.321  22.184  1.00  0.00     0.035 C 
ATOM     12  C   UNL A   1      50.557  27.440  23.441  1.00  0.00    -0.035 C 
ENDBRANCH   9  10
ENDBRANCH   8   9
BRANCH   8  13
ATOM     13  C   UNL A   1      46.073  26.965  25.557  1.00  0.00    -0.034 A 
ATOM     14  C   UNL A   1      46.377  28.032  26.420  1.00  0.00     0.004 A 
ATOM     15  C   UNL A   1      44.720  26.734  25.241  1.00  0.00     0.025 A 
ATOM     16  C   UNL A   1      45.360  28.828  26.961  1.00  0.00     0.002 A 
ATOM     17  C   UNL A   1      43.711  27.524  25.793  1.00  0.00     0.041 A 
ATOM     18  C   UNL A   1      44.025  28.571  26.651  1.00  0.00     0.020 A 
ATOM     19  Cl  UNL A   1      42.066  27.202  25.398  1.00  0.00    -0.084 Cl
ENDBRANCH   8  13
ENDBRANCH   5   8
ENDBRANCH   3   4
ENDBRANCH   2   3
ENDBRANCH   1   2
BRANCH   1  20
ATOM     20  C   UNL A   1      45.903  19.746  24.726  1.00  0.00     0.002 C 
BRANCH  20  21
ATOM     21  C   UNL A   1      44.783  18.716  24.896  1.00  0.00     0.021 C 
BRANCH  21  22
ATOM     22  C   UNL A   1      43.892  18.906  26.122  1.00  0.00     0.116 C 
BRANCH  22  23
ATOM     23  N   UNL A   1      42.478  18.847  25.795  1.00  0.00    -0.352 N 
ATOM     24  C   UNL A   1      41.464  19.729  26.062  1.00  0.00     0.251 C 
ATOM     25  H   UNL A   1      42.204  18.040  25.301  1.00  0.00     0.163 HD
ATOM     26  O   UNL A   1      40.301  19.397  25.855  1.00  0.00    -0.269 OA
BRANCH  24  27
ATOM     27  C   UNL A   1      41.747  21.076  26.612  1.00  0.00     0.039 A 
ATOM     28  C   UNL A   1      41.676  21.252  27.997  1.00  0.00     0.014 A 
ATOM     29  C   UNL A   1      42.019  22.169  25.785  1.00  0.00     0.014 A 
ATOM     30  C   UNL A   1      41.925  22.508  28.555  1.00  0.00     0.010 A 
ATOM     31  C   UNL A   1      42.328  23.410  26.345  1.00  0.00     0.010 A 
ATOM     32  C   UNL A   1      42.278  23.594  27.735  1.00  0.00    -0.014 A 
BRANCH  32  33
ATOM     33  C   UNL A   1      42.609  24.911  28.335  1.00  0.00     0.031 A 
ATOM     34  C   UNL A   1      44.008  25.224  28.786  1.00  0.00     0.074 A 
ATOM     35  C   UNL A   1      41.631  25.822  28.506  1.00  0.00     0.049 A 
ATOM     36  N   UNL A   1      44.481  26.326  29.315  1.00  0.00    -0.248 NA
ATOM     37  C   UNL A   1      45.004  24.151  28.648  1.00  0.00     0.031 C 
ATOM     38  C   UNL A   1      40.222  25.619  28.169  1.00  0.00     0.029 A 
ATOM     39  N   UNL A   1      41.673  27.100  29.005  1.00  0.00    -0.354 N 
ATOM     40  C   UNL A   1      45.821  26.076  29.579  1.00  0.00     0.074 A 
ATOM     41  C   UNL A   1      46.076  24.703  29.199  1.00  0.00     0.031 C 
ATOM     42  C   UNL A   1      39.538  26.740  28.447  1.00  0.00     0.029 A 
ATOM     43  C   UNL A   1      40.454  27.732  29.001  1.00  0.00     0.049 A 
ATOM     44  H   UNL A   1      42.498  27.524  29.335  1.00  0.00     0.167 HD
ATOM     45  C   UNL A   1      46.758  26.922  30.074  1.00  0.00     0.037 A 
ATOM     46  C   UNL A   1      40.113  28.974  29.393  1.00  0.00     0.037 A 
ATOM     47  C   UNL A   1      46.509  28.295  30.427  1.00  0.00     0.049 A 
ATOM     48  C   UNL A   1      41.178  29.902  29.908  1.00  0.00     0.074 A 
ATOM     49  C   UNL A   1      47.411  29.252  30.863  1.00  0.00     0.029 A 
ATOM     50  N   UNL A   1      45.265  28.908  30.389  1.00  0.00    -0.354 N 
ATOM     51  N   UNL A   1      42.459  29.681  30.072  1.00  0.00    -0.248 NA
ATOM     52  C   UNL A   1      40.750  31.258  30.278  1.00  0.00     0.031 C 
ATOM     53  C   UNL A   1      46.705  30.431  31.128  1.00  0.00     0.029 A 
ATOM     54  C   UNL A   1      45.372  30.223  30.815  1.00  0.00     0.049 A 
ATOM     55  H   UNL A   1      44.431  28.473  30.100  1.00  0.00     0.167 HD
ATOM     56  C   UNL A   1      42.993  30.871  30.548  1.00  0.00     0.074 A 
ATOM     57  C   UNL A   1      41.900  31.818  30.623  1.00  0.00     0.031 C 
ATOM     58  C   UNL A   1      44.273  31.151  30.895  1.00  0.00     0.037 A 
BRANCH  45  59
ATOM     59  C   UNL A   1      48.148  26.383  30.259  1.00  0.00     0.064 A 
ATOM     60  C   UNL A   1      49.157  26.612  29.311  1.00  0.00     0.173 A 
ATOM     61  C   UNL A   1      48.485  25.664  31.416  1.00  0.00     0.173 A 
ATOM     62  F   UNL A   1      48.884  27.285  28.183  1.00  0.00    -0.203 F 
ATOM     63  C   UNL A   1      50.443  26.116  29.501  1.00  0.00     0.198 A 
ATOM     64  C   UNL A   1      49.779  25.193  31.616  1.00  0.00     0.198 A 
ATOM     65  F   UNL A   1      47.559  25.424  32.357  1.00  0.00    -0.203 F 
ATOM     66  F   UNL A   1      51.379  26.306  28.561  1.00  0.00    -0.200 F 
ATOM     67  C   UNL A   1      50.756  25.412  30.655  1.00  0.00     0.200 A 
ATOM     68  F   UNL A   1      50.083  24.525  32.736  1.00  0.00    -0.200 F 
ATOM     69  F   UNL A   1      51.997  24.940  30.839  1.00  0.00    -0.200 F 
ENDBRANCH  45  59
BRANCH  46  70
ATOM     70  C   UNL A   1      38.703  29.421  29.275  1.00  0.00     0.064 A 
ATOM     71  C   UNL A   1      38.142  29.709  28.023  1.00  0.00     0.173 A 
ATOM     72  C   UNL A   1      37.886  29.561  30.406  1.00  0.00     0.173 A 
ATOM     73  F   UNL A   1      38.891  29.610  26.915  1.00  0.00    -0.203 F 
ATOM     74  C   UNL A   1      36.821  30.135  27.908  1.00  0.00     0.198 A 
ATOM     75  C   UNL A   1      36.557  29.962  30.287  1.00  0.00     0.198 A 
ATOM     76  F   UNL A   1      38.375  29.291  31.625  1.00  0.00    -0.203 F 
ATOM     77  F   UNL A   1      36.320  30.441  26.703  1.00  0.00    -0.200 F 
ATOM     78  C   UNL A   1      36.028  30.256  29.039  1.00  0.00     0.200 A 
ATOM     79  F   UNL A   1      35.790  30.063  31.381  1.00  0.00    -0.200 F 
ATOM     80  F   UNL A   1      34.755  30.659  28.928  1.00  0.00    -0.200 F 
ENDBRANCH  46  70
BRANCH  58  81
ATOM     81  C   UNL A   1      44.558  32.544  31.378  1.00  0.00     0.064 A 
ATOM     82  C   UNL A   1      44.504  32.870  32.742  1.00  0.00     0.173 A 
ATOM     83  C   UNL A   1      44.902  33.557  30.471  1.00  0.00     0.173 A 
ATOM     84  F   UNL A   1      44.162  31.940  33.646  1.00  0.00    -0.203 F 
ATOM     85  C   UNL A   1      44.754  34.170  33.177  1.00  0.00     0.198 A 
ATOM     86  C   UNL A   1      45.179  34.849  30.913  1.00  0.00     0.198 A 
ATOM     87  F   UNL A   1      44.973  33.294  29.158  1.00  0.00    -0.203 F 
ATOM     88  F   UNL A   1      44.644  34.472  34.477  1.00  0.00    -0.200 F 
ATOM     89  C   UNL A   1      45.095  35.156  32.263  1.00  0.00     0.200 A 
ATOM     90  F   UNL A   1      45.519  35.798  30.030  1.00  0.00    -0.200 F 
ATOM     91  F   UNL A   1      45.334  36.406  32.683  1.00  0.00    -0.200 F 
ENDBRANCH  58  81
ENDBRANCH  32  33
ENDBRANCH  24  27
ENDBRANCH  22  23
ENDBRANCH  21  22
ENDBRANCH  20  21
ENDBRANCH   1  20
TORSDOF 16
ENDMDL
MODEL 3
REMARK VINA RESULT:      -9.8      4.981     10.332
REMARK SMILES C/C=C/C[C@@H](C(=O)NCCCCCCNC(=O)c1ccc(-c2c3nc(c(-c4c(F)c(F)c(F)c(F)c4F)c4ccc([nH]4)c(-c4c(F)c(F)c(F)c(F)c4F)c4nc(c(-c5c(F)c(F)c(F)c(F)c5F)c5ccc2[nH]5)C=C4)C=C3)cc1)c1cccc(Cl)c1
REMARK SMILES IDX 11 1 10 2 9 3 8 4 6 5 7 6 5 8 4 9 3 10 1 11 2 12 81 13 82 14
REMARK SMILES IDX 87 15 83 16 85 17 84 18 86 19 12 20 13 21 14 22 15 23 16 24
REMARK SMILES IDX 17 26 18 27 19 28 80 29 20 30 79 31 21 32 22 33 23 34 73 35
REMARK SMILES IDX 24 36 78 37 72 38 74 39 25 40 77 41 71 42 70 43 26 45 58 46
REMARK SMILES IDX 38 47 57 48 39 49 42 50 56 51 75 52 40 53 41 54 55 56 76 57
REMARK SMILES IDX 43 58 27 59 28 60 36 61 29 62 30 63 34 64 37 65 31 66 32 67
REMARK SMILES IDX 35 68 33 69 59 70 60 71 68 72 61 73 62 74 66 75 69 76 63 77
REMARK SMILES IDX 64 78 67 79 65 80 44 81 45 82 53 83 46 84 47 85 51 86 54 87
REMARK SMILES IDX 48 88 49 89 52 90 50 91
REMARK H PARENT 8 7 15 25 74 44 42 55
REMARK Flexibility Score: inf
ROOT
ATOM      1  C   UNL A   1      31.779  25.696  26.144  1.00  0.00     0.002 C 
ENDROOT
BRANCH   1   2
ATOM      2  C   UNL A   1      32.699  24.495  25.911  1.00  0.00     0.021 C 
BRANCH   2   3
ATOM      3  C   UNL A   1      34.118  24.860  25.460  1.00  0.00     0.116 C 
BRANCH   3   4
ATOM      4  N   UNL A   1      34.383  24.264  24.166  1.00  0.00    -0.356 N 
ATOM      5  C   UNL A   1      35.104  23.150  23.845  1.00  0.00     0.227 C 
ATOM      6  O   UNL A   1      35.465  23.051  22.669  1.00  0.00    -0.274 OA
ATOM      7  H   UNL A   1      33.984  24.736  23.400  1.00  0.00     0.163 HD
BRANCH   5   8
ATOM      8  C   UNL A   1      35.391  22.052  24.890  1.00  0.00     0.112 C 
BRANCH   8   9
ATOM      9  C   UNL A   1      36.869  21.590  24.885  1.00  0.00     0.045 C 
BRANCH   9  10
ATOM     10  C   UNL A   1      37.850  22.400  25.688  1.00  0.00    -0.030 C 
ATOM     11  C   UNL A   1      38.647  24.453  26.876  1.00  0.00     0.035 C 
ATOM     12  C   UNL A   1      37.671  23.681  26.045  1.00  0.00    -0.035 C 
ENDBRANCH   9  10
ENDBRANCH   8   9
BRANCH   8  13
ATOM     13  C   UNL A   1      34.437  20.865  24.639  1.00  0.00    -0.034 A 
ATOM     14  C   UNL A   1      33.091  21.108  24.314  1.00  0.00     0.004 A 
ATOM     15  C   UNL A   1      34.887  19.531  24.640  1.00  0.00     0.025 A 
ATOM     16  C   UNL A   1      32.223  20.050  24.017  1.00  0.00     0.002 A 
ATOM     17  C   UNL A   1      34.014  18.480  24.356  1.00  0.00     0.041 A 
ATOM     18  C   UNL A   1      32.684  18.734  24.042  1.00  0.00     0.020 A 
ATOM     19  Cl  UNL A   1      34.595  16.860  24.383  1.00  0.00    -0.084 Cl
ENDBRANCH   8  13
ENDBRANCH   5   8
ENDBRANCH   3   4
ENDBRANCH   2   3
ENDBRANCH   1   2
BRANCH   1  20
ATOM     20  C   UNL A   1      32.496  27.002  26.501  1.00  0.00     0.002 C 
BRANCH  20  21
ATOM     21  C   UNL A   1      32.414  28.113  25.450  1.00  0.00     0.021 C 
BRANCH  21  22
ATOM     22  C   UNL A   1      33.535  29.149  25.496  1.00  0.00     0.116 C 
BRANCH  22  23
ATOM     23  N   UNL A   1      33.066  30.455  25.923  1.00  0.00    -0.352 N 
ATOM     24  C   UNL A   1      33.476  31.255  26.958  1.00  0.00     0.251 C 
ATOM     25  H   UNL A   1      32.332  30.827  25.380  1.00  0.00     0.163 HD
ATOM     26  O   UNL A   1      32.816  32.246  27.256  1.00  0.00    -0.269 OA
BRANCH  24  27
ATOM     27  C   UNL A   1      34.696  30.934  27.735  1.00  0.00     0.039 A 
ATOM     28  C   UNL A   1      34.784  29.675  28.338  1.00  0.00     0.014 A 
ATOM     29  C   UNL A   1      35.717  31.870  27.926  1.00  0.00     0.014 A 
ATOM     30  C   UNL A   1      35.913  29.338  29.088  1.00  0.00     0.010 A 
ATOM     31  C   UNL A   1      36.872  31.511  28.624  1.00  0.00     0.010 A 
ATOM     32  C   UNL A   1      36.979  30.244  29.217  1.00  0.00    -0.014 A 
BRANCH  32  33
ATOM     33  C   UNL A   1      38.207  29.858  29.958  1.00  0.00     0.031 A 
ATOM     34  C   UNL A   1      38.470  30.385  31.342  1.00  0.00     0.074 A 
ATOM     35  C   UNL A   1      39.108  29.052  29.366  1.00  0.00     0.049 A 
ATOM     36  N   UNL A   1      39.478  30.141  32.142  1.00  0.00    -0.248 NA
ATOM     37  C   UNL A   1      37.484  31.327  31.891  1.00  0.00     0.031 C 
ATOM     38  C   UNL A   1      39.001  28.525  28.005  1.00  0.00     0.029 A 
ATOM     39  N   UNL A   1      40.293  28.536  29.831  1.00  0.00    -0.354 N 
ATOM     40  C   UNL A   1      39.253  30.904  33.280  1.00  0.00     0.074 A 
ATOM     41  C   UNL A   1      38.039  31.657  33.048  1.00  0.00     0.031 C 
ATOM     42  C   UNL A   1      40.061  27.740  27.753  1.00  0.00     0.029 A 
ATOM     43  C   UNL A   1      40.932  27.726  28.925  1.00  0.00     0.049 A 
ATOM     44  H   UNL A   1      40.649  28.728  30.728  1.00  0.00     0.167 HD
ATOM     45  C   UNL A   1      39.982  30.955  34.422  1.00  0.00     0.037 A 
ATOM     46  C   UNL A   1      42.087  27.043  29.028  1.00  0.00     0.037 A 
ATOM     47  C   UNL A   1      41.175  30.186  34.661  1.00  0.00     0.049 A 
ATOM     48  C   UNL A   1      42.859  27.092  30.318  1.00  0.00     0.074 A 
ATOM     49  C   UNL A   1      41.939  30.113  35.815  1.00  0.00     0.029 A 
ATOM     50  N   UNL A   1      41.783  29.359  33.728  1.00  0.00    -0.354 N 
ATOM     51  N   UNL A   1      42.590  27.750  31.419  1.00  0.00    -0.248 NA
ATOM     52  C   UNL A   1      44.089  26.291  30.382  1.00  0.00     0.031 C 
ATOM     53  C   UNL A   1      43.031  29.273  35.565  1.00  0.00     0.029 A 
ATOM     54  C   UNL A   1      42.924  28.789  34.271  1.00  0.00     0.049 A 
ATOM     55  H   UNL A   1      41.451  29.200  32.815  1.00  0.00     0.167 HD
ATOM     56  C   UNL A   1      43.605  27.432  32.311  1.00  0.00     0.074 A 
ATOM     57  C   UNL A   1      44.482  26.501  31.630  1.00  0.00     0.031 C 
ATOM     58  C   UNL A   1      43.793  27.873  33.578  1.00  0.00     0.037 A 
BRANCH  45  59
ATOM     59  C   UNL A   1      39.504  31.876  35.508  1.00  0.00     0.064 A 
ATOM     60  C   UNL A   1      39.922  33.214  35.575  1.00  0.00     0.173 A 
ATOM     61  C   UNL A   1      38.586  31.427  36.469  1.00  0.00     0.173 A 
ATOM     62  F   UNL A   1      40.807  33.690  34.685  1.00  0.00    -0.203 F 
ATOM     63  C   UNL A   1      39.462  34.059  36.581  1.00  0.00     0.198 A 
ATOM     64  C   UNL A   1      38.106  32.282  37.457  1.00  0.00     0.198 A 
ATOM     65  F   UNL A   1      38.148  30.159  36.446  1.00  0.00    -0.203 F 
ATOM     66  F   UNL A   1      39.912  35.319  36.653  1.00  0.00    -0.200 F 
ATOM     67  C   UNL A   1      38.550  33.595  37.517  1.00  0.00     0.200 A 
ATOM     68  F   UNL A   1      37.216  31.837  38.354  1.00  0.00    -0.200 F 
ATOM     69  F   UNL A   1      38.104  34.412  38.482  1.00  0.00    -0.200 F 
ENDBRANCH  45  59
BRANCH  46  70
ATOM     70  C   UNL A   1      42.561  26.222  27.886  1.00  0.00     0.064 A 
ATOM     71  C   UNL A   1      43.405  26.769  26.908  1.00  0.00     0.173 A 
ATOM     72  C   UNL A   1      42.191  24.877  27.753  1.00  0.00     0.173 A 
ATOM     73  F   UNL A   1      43.769  28.057  26.983  1.00  0.00    -0.203 F 
ATOM     74  C   UNL A   1      43.847  26.004  25.832  1.00  0.00     0.198 A 
ATOM     75  C   UNL A   1      42.654  24.106  26.689  1.00  0.00     0.198 A 
ATOM     76  F   UNL A   1      41.391  24.307  28.666  1.00  0.00    -0.203 F 
ATOM     77  F   UNL A   1      44.621  26.561  24.891  1.00  0.00    -0.200 F 
ATOM     78  C   UNL A   1      43.477  24.672  25.726  1.00  0.00     0.200 A 
ATOM     79  F   UNL A   1      42.306  22.815  26.598  1.00  0.00    -0.200 F 
ATOM     80  F   UNL A   1      43.907  23.934  24.694  1.00  0.00    -0.200 F 
ENDBRANCH  46  70
BRANCH  58  81
ATOM     81  C   UNL A   1      44.992  27.344  34.312  1.00  0.00     0.064 A 
ATOM     82  C   UNL A   1      44.926  26.162  35.064  1.00  0.00     0.173 A 
ATOM     83  C   UNL A   1      46.221  28.019  34.251  1.00  0.00     0.173 A 
ATOM     84  F   UNL A   1      43.769  25.490  35.167  1.00  0.00    -0.203 F 
ATOM     85  C   UNL A   1      46.040  25.690  35.754  1.00  0.00     0.198 A 
ATOM     86  C   UNL A   1      47.340  27.528  34.919  1.00  0.00     0.198 A 
ATOM     87  F   UNL A   1      46.336  29.151  33.541  1.00  0.00    -0.203 F 
ATOM     88  F   UNL A   1      45.941  24.588  36.509  1.00  0.00    -0.200 F 
ATOM     89  C   UNL A   1      47.246  26.370  35.677  1.00  0.00     0.200 A 
ATOM     90  F   UNL A   1      48.507  28.182  34.836  1.00  0.00    -0.200 F 
ATOM     91  F   UNL A   1      48.317  25.916  36.343  1.00  0.00    -0.200 F 
ENDBRANCH  58  81
ENDBRANCH  32  33
ENDBRANCH  24  27
ENDBRANCH  22  23
ENDBRANCH  21  22
ENDBRANCH  20  21
ENDBRANCH   1  20
TORSDOF 16
ENDMDL
