MODEL 1
REMARK VINA RESULT:      -9.0      0.000      0.000
REMARK SMILES O=C(NCCCCCCNC(=O)c1ccc(C[NH2+]Cc2cc(F)ccc2F)nc1)c1ccc(-c2c3nc(c(-c4c(F)c(F)c(F)c(F)c4F)c4ccc([nH]4)c(-c4c(F)c(F)c(F)c(F)c4F)c4nc(c(-c5c(F)c(F)c(F)c(F)c5F)c5ccc2[nH]5)C=C4)C=C3)cc1
REMARK SMILES IDX 7 1 6 2 5 3 4 4 3 5 1 6 2 7 30 9 31 10 92 11 32 12 91 13
REMARK SMILES IDX 33 14 34 15 35 16 85 17 36 18 90 19 84 20 86 21 37 22 89 23
REMARK SMILES IDX 83 24 82 25 38 27 70 28 50 29 69 30 51 31 54 32 68 33 87 34
REMARK SMILES IDX 52 35 53 36 67 38 88 39 55 40 39 41 40 42 48 43 41 44 42 45
REMARK SMILES IDX 46 46 49 47 43 48 44 49 47 50 45 51 71 52 72 53 80 54 73 55
REMARK SMILES IDX 74 56 78 57 81 58 75 59 76 60 79 61 77 62 56 63 57 64 65 65
REMARK SMILES IDX 58 66 59 67 63 68 66 69 60 70 61 71 64 72 62 73 8 74 9 75
REMARK SMILES IDX 10 76 11 77 12 79 13 80 14 81 29 82 15 83 28 84 16 85 17 86
REMARK SMILES IDX 18 87 19 90 20 91 21 92 26 93 22 94 25 95 27 96 23 97 24 98
REMARK H PARENT 3 8 86 26 54 37 10 78 18 88 18 89
REMARK Flexibility Score: inf
ROOT
ATOM      1  C   UNL A   1      37.467  33.119  30.202  1.00  0.00     0.002 C 
ENDROOT
BRANCH   1   2
ATOM      2  C   UNL A   1      37.091  33.424  28.749  1.00  0.00     0.002 C 
BRANCH   2   3
ATOM      3  C   UNL A   1      35.595  33.378  28.442  1.00  0.00     0.021 C 
BRANCH   3   4
ATOM      4  C   UNL A   1      34.805  32.382  29.277  1.00  0.00     0.116 C 
BRANCH   4   5
ATOM      5  N   UNL A   1      34.173  31.355  28.466  1.00  0.00    -0.352 N 
ATOM      6  O   UNL A   1      34.092  29.567  27.088  1.00  0.00    -0.269 OA
ATOM      7  C   UNL A   1      34.732  30.243  27.886  1.00  0.00     0.251 C 
ATOM      8  H   UNL A   1      33.207  31.472  28.312  1.00  0.00     0.163 HD
BRANCH   7   9
ATOM      9  C   UNL A   1      36.126  29.875  28.212  1.00  0.00     0.039 A 
ATOM     10  C   UNL A   1      36.442  29.327  29.457  1.00  0.00     0.014 A 
ATOM     11  C   UNL A   1      37.126  30.077  27.258  1.00  0.00     0.014 A 
ATOM     12  C   UNL A   1      37.770  29.107  29.797  1.00  0.00     0.010 A 
ATOM     13  C   UNL A   1      38.453  29.769  27.569  1.00  0.00     0.010 A 
ATOM     14  C   UNL A   1      38.788  29.300  28.849  1.00  0.00    -0.014 A 
BRANCH  14  15
ATOM     15  C   UNL A   1      40.181  28.920  29.191  1.00  0.00     0.031 A 
ATOM     16  C   UNL A   1      41.047  29.805  30.041  1.00  0.00     0.074 A 
ATOM     17  C   UNL A   1      40.652  27.744  28.733  1.00  0.00     0.049 A 
ATOM     18  N   UNL A   1      42.284  29.617  30.427  1.00  0.00    -0.248 NA
ATOM     19  C   UNL A   1      40.454  31.063  30.517  1.00  0.00     0.031 C 
ATOM     20  C   UNL A   1      39.899  26.810  27.894  1.00  0.00     0.029 A 
ATOM     21  N   UNL A   1      41.861  27.124  28.916  1.00  0.00    -0.354 N 
ATOM     22  C   UNL A   1      42.623  30.735  31.178  1.00  0.00     0.074 A 
ATOM     23  C   UNL A   1      41.471  31.611  31.171  1.00  0.00     0.031 C 
ATOM     24  C   UNL A   1      40.642  25.717  27.675  1.00  0.00     0.029 A 
ATOM     25  C   UNL A   1      41.948  25.903  28.295  1.00  0.00     0.049 A 
ATOM     26  H   UNL A   1      42.596  27.518  29.441  1.00  0.00     0.167 HD
ATOM     27  C   UNL A   1      43.789  30.995  31.818  1.00  0.00     0.037 A 
ATOM     28  C   UNL A   1      42.973  25.035  28.212  1.00  0.00     0.037 A 
ATOM     29  C   UNL A   1      44.926  30.108  31.823  1.00  0.00     0.049 A 
ATOM     30  C   UNL A   1      44.266  25.369  28.898  1.00  0.00     0.074 A 
ATOM     31  C   UNL A   1      46.140  30.271  32.466  1.00  0.00     0.029 A 
ATOM     32  N   UNL A   1      44.990  28.896  31.149  1.00  0.00    -0.354 N 
ATOM     33  N   UNL A   1      44.565  26.417  29.627  1.00  0.00    -0.248 NA
ATOM     34  C   UNL A   1      45.365  24.408  28.746  1.00  0.00     0.031 C 
ATOM     35  C   UNL A   1      46.958  29.186  32.139  1.00  0.00     0.029 A 
ATOM     36  C   UNL A   1      46.234  28.314  31.341  1.00  0.00     0.049 A 
ATOM     37  H   UNL A   1      44.261  28.507  30.614  1.00  0.00     0.167 HD
ATOM     38  C   UNL A   1      45.877  26.234  30.036  1.00  0.00     0.074 A 
ATOM     39  C   UNL A   1      46.311  24.964  29.489  1.00  0.00     0.031 C 
ATOM     40  C   UNL A   1      46.652  27.049  30.793  1.00  0.00     0.037 A 
BRANCH  27  41
ATOM     41  C   UNL A   1      43.910  32.291  32.566  1.00  0.00     0.064 A 
ATOM     42  C   UNL A   1      44.318  33.460  31.902  1.00  0.00     0.173 A 
ATOM     43  C   UNL A   1      43.709  32.363  33.952  1.00  0.00     0.173 A 
ATOM     44  F   UNL A   1      44.532  33.445  30.578  1.00  0.00    -0.203 F 
ATOM     45  C   UNL A   1      44.536  34.644  32.601  1.00  0.00     0.198 A 
ATOM     46  C   UNL A   1      43.900  33.558  34.643  1.00  0.00     0.198 A 
ATOM     47  F   UNL A   1      43.310  31.279  34.634  1.00  0.00    -0.203 F 
ATOM     48  F   UNL A   1      44.961  35.736  31.950  1.00  0.00    -0.200 F 
ATOM     49  C   UNL A   1      44.323  34.693  33.969  1.00  0.00     0.200 A 
ATOM     50  F   UNL A   1      43.673  33.609  35.964  1.00  0.00    -0.200 F 
ATOM     51  F   UNL A   1      44.526  35.836  34.640  1.00  0.00    -0.200 F 
ENDBRANCH  27  41
BRANCH  28  52
ATOM     52  C   UNL A   1      42.800  23.770  27.454  1.00  0.00     0.064 A 
ATOM     53  C   UNL A   1      42.300  22.612  28.070  1.00  0.00     0.173 A 
ATOM     54  C   UNL A   1      43.175  23.682  26.106  1.00  0.00     0.173 A 
ATOM     55  F   UNL A   1      41.936  22.643  29.361  1.00  0.00    -0.203 F 
ATOM     56  C   UNL A   1      42.209  21.409  27.376  1.00  0.00     0.198 A 
ATOM     57  C   UNL A   1      43.052  22.485  25.404  1.00  0.00     0.198 A 
ATOM     58  F   UNL A   1      43.642  24.765  25.469  1.00  0.00    -0.203 F 
ATOM     59  F   UNL A   1      41.774  20.308  28.003  1.00  0.00    -0.200 F 
ATOM     60  C   UNL A   1      42.580  21.348  26.042  1.00  0.00     0.200 A 
ATOM     61  F   UNL A   1      43.391  22.434  24.108  1.00  0.00    -0.200 F 
ATOM     62  F   UNL A   1      42.482  20.192  25.371  1.00  0.00    -0.200 F 
ENDBRANCH  28  52
BRANCH  40  63
ATOM     63  C   UNL A   1      48.046  26.586  31.100  1.00  0.00     0.064 A 
ATOM     64  C   UNL A   1      49.115  26.958  30.271  1.00  0.00     0.173 A 
ATOM     65  C   UNL A   1      48.314  25.723  32.172  1.00  0.00     0.173 A 
ATOM     66  F   UNL A   1      48.911  27.776  29.228  1.00  0.00    -0.203 F 
ATOM     67  C   UNL A   1      50.400  26.471  30.497  1.00  0.00     0.198 A 
ATOM     68  C   UNL A   1      49.606  25.264  32.413  1.00  0.00     0.198 A 
ATOM     69  F   UNL A   1      47.329  25.351  33.002  1.00  0.00    -0.203 F 
ATOM     70  F   UNL A   1      51.399  26.813  29.671  1.00  0.00    -0.200 F 
ATOM     71  C   UNL A   1      50.645  25.629  31.570  1.00  0.00     0.200 A 
ATOM     72  F   UNL A   1      49.847  24.471  33.467  1.00  0.00    -0.200 F 
ATOM     73  F   UNL A   1      51.884  25.171  31.794  1.00  0.00    -0.200 F 
ENDBRANCH  40  63
ENDBRANCH  14  15
ENDBRANCH   7   9
ENDBRANCH   4   5
ENDBRANCH   3   4
ENDBRANCH   2   3
ENDBRANCH   1   2
BRANCH   1  74
ATOM     74  C   UNL A   1      37.969  34.316  31.016  1.00  0.00     0.021 C 
BRANCH  74  75
ATOM     75  C   UNL A   1      38.754  33.952  32.273  1.00  0.00     0.116 C 
BRANCH  75  76
ATOM     76  N   UNL A   1      37.887  33.816  33.431  1.00  0.00    -0.352 N 
ATOM     77  C   UNL A   1      37.606  32.694  34.165  1.00  0.00     0.252 C 
ATOM     78  H   UNL A   1      37.442  34.642  33.728  1.00  0.00     0.163 HD
ATOM     79  O   UNL A   1      36.696  32.695  34.988  1.00  0.00    -0.269 OA
BRANCH  77  80
ATOM     80  C   UNL A   1      38.397  31.478  33.951  1.00  0.00     0.058 A 
ATOM     81  C   UNL A   1      37.919  30.414  33.190  1.00  0.00     0.017 A 
ATOM     82  C   UNL A   1      39.655  31.382  34.519  1.00  0.00     0.125 A 
ATOM     83  C   UNL A   1      38.697  29.268  33.074  1.00  0.00     0.030 A 
ATOM     84  N   UNL A   1      40.423  30.272  34.438  1.00  0.00    -0.255 NA
ATOM     85  C   UNL A   1      39.934  29.223  33.724  1.00  0.00     0.094 A 
BRANCH  85  86
ATOM     86  C   UNL A   1      40.796  27.980  33.616  1.00  0.00     0.318 C 
BRANCH  86  87
ATOM     87  N   UNL A   1      42.215  28.306  33.467  1.00  0.00    -0.337 N 
ATOM     88  H   UNL A   1      42.323  29.319  33.538  1.00  0.00     0.346 HD
ATOM     89  H   UNL A   1      42.513  27.951  32.558  1.00  0.00     0.346 HD
BRANCH  87  90
ATOM     90  C   UNL A   1      43.061  27.679  34.476  1.00  0.00     0.300 C 
BRANCH  90  91
ATOM     91  C   UNL A   1      43.190  26.189  34.293  1.00  0.00     0.045 A 
ATOM     92  C   UNL A   1      43.973  25.658  33.257  1.00  0.00     0.051 A 
ATOM     93  C   UNL A   1      42.585  25.305  35.194  1.00  0.00     0.132 A 
ATOM     94  C   UNL A   1      44.151  24.281  33.159  1.00  0.00     0.123 A 
ATOM     95  C   UNL A   1      42.762  23.927  35.090  1.00  0.00     0.043 A 
ATOM     96  F   UNL A   1      41.846  25.784  36.203  1.00  0.00    -0.206 F 
ATOM     97  F   UNL A   1      44.924  23.786  32.184  1.00  0.00    -0.207 F 
ATOM     98  C   UNL A   1      43.556  23.411  34.068  1.00  0.00     0.042 A 
ENDBRANCH  90  91
ENDBRANCH  87  90
ENDBRANCH  86  87
ENDBRANCH  85  86
ENDBRANCH  77  80
ENDBRANCH  75  76
ENDBRANCH  74  75
ENDBRANCH   1  74
TORSDOF 17
ENDMDL
MODEL 2
REMARK VINA RESULT:      -9.0      0.485      2.063
REMARK SMILES O=C(NCCCCCCNC(=O)c1ccc(C[NH2+]Cc2cc(F)ccc2F)nc1)c1ccc(-c2c3nc(c(-c4c(F)c(F)c(F)c(F)c4F)c4ccc([nH]4)c(-c4c(F)c(F)c(F)c(F)c4F)c4nc(c(-c5c(F)c(F)c(F)c(F)c5F)c5ccc2[nH]5)C=C4)C=C3)cc1
REMARK SMILES IDX 7 1 6 2 5 3 4 4 3 5 1 6 2 7 30 9 31 10 92 11 32 12 91 13
REMARK SMILES IDX 33 14 34 15 35 16 85 17 36 18 90 19 84 20 86 21 37 22 89 23
REMARK SMILES IDX 83 24 82 25 38 27 70 28 50 29 69 30 51 31 54 32 68 33 87 34
REMARK SMILES IDX 52 35 53 36 67 38 88 39 55 40 39 41 40 42 48 43 41 44 42 45
REMARK SMILES IDX 46 46 49 47 43 48 44 49 47 50 45 51 71 52 72 53 80 54 73 55
REMARK SMILES IDX 74 56 78 57 81 58 75 59 76 60 79 61 77 62 56 63 57 64 65 65
REMARK SMILES IDX 58 66 59 67 63 68 66 69 60 70 61 71 64 72 62 73 8 74 9 75
REMARK SMILES IDX 10 76 11 77 12 79 13 80 14 81 29 82 15 83 28 84 16 85 17 86
REMARK SMILES IDX 18 87 19 90 20 91 21 92 26 93 22 94 25 95 27 96 23 97 24 98
REMARK H PARENT 3 8 86 26 54 37 10 78 18 88 18 89
REMARK Flexibility Score: inf
ROOT
ATOM      1  C   UNL A   1      37.153  33.039  30.560  1.00  0.00     0.002 C 
ENDROOT
BRANCH   1   2
ATOM      2  C   UNL A   1      35.884  32.488  31.218  1.00  0.00     0.002 C 
BRANCH   2   3
ATOM      3  C   UNL A   1      34.597  32.692  30.420  1.00  0.00     0.021 C 
BRANCH   3   4
ATOM      4  C   UNL A   1      34.765  32.601  28.910  1.00  0.00     0.116 C 
BRANCH   4   5
ATOM      5  N   UNL A   1      34.102  31.437  28.347  1.00  0.00    -0.352 N 
ATOM      6  O   UNL A   1      33.968  29.413  27.353  1.00  0.00    -0.269 OA
ATOM      7  C   UNL A   1      34.640  30.230  27.972  1.00  0.00     0.251 C 
ATOM      8  H   UNL A   1      33.129  31.525  28.217  1.00  0.00     0.163 HD
BRANCH   7   9
ATOM      9  C   UNL A   1      36.049  29.929  28.301  1.00  0.00     0.039 A 
ATOM     10  C   UNL A   1      37.067  30.217  27.389  1.00  0.00     0.014 A 
ATOM     11  C   UNL A   1      36.353  29.356  29.538  1.00  0.00     0.014 A 
ATOM     12  C   UNL A   1      38.368  29.812  27.657  1.00  0.00     0.010 A 
ATOM     13  C   UNL A   1      37.677  29.032  29.844  1.00  0.00     0.010 A 
ATOM     14  C   UNL A   1      38.693  29.238  28.898  1.00  0.00    -0.014 A 
BRANCH  14  15
ATOM     15  C   UNL A   1      40.113  28.948  29.214  1.00  0.00     0.031 A 
ATOM     16  C   UNL A   1      40.942  29.896  30.031  1.00  0.00     0.074 A 
ATOM     17  C   UNL A   1      40.643  27.793  28.765  1.00  0.00     0.049 A 
ATOM     18  N   UNL A   1      42.197  29.789  30.392  1.00  0.00    -0.248 NA
ATOM     19  C   UNL A   1      40.287  31.125  30.500  1.00  0.00     0.031 C 
ATOM     20  C   UNL A   1      39.929  26.802  27.958  1.00  0.00     0.029 A 
ATOM     21  N   UNL A   1      41.891  27.250  28.930  1.00  0.00    -0.354 N 
ATOM     22  C   UNL A   1      42.484  30.937  31.117  1.00  0.00     0.074 A 
ATOM     23  C   UNL A   1      41.283  31.744  31.123  1.00  0.00     0.031 C 
ATOM     24  C   UNL A   1      40.731  25.752  27.739  1.00  0.00     0.029 A 
ATOM     25  C   UNL A   1      42.037  26.026  28.326  1.00  0.00     0.049 A 
ATOM     26  H   UNL A   1      42.612  27.695  29.432  1.00  0.00     0.167 HD
ATOM     27  C   UNL A   1      43.646  31.277  31.727  1.00  0.00     0.037 A 
ATOM     28  C   UNL A   1      43.110  25.218  28.235  1.00  0.00     0.037 A 
ATOM     29  C   UNL A   1      44.834  30.459  31.720  1.00  0.00     0.049 A 
ATOM     30  C   UNL A   1      44.395  25.640  28.886  1.00  0.00     0.074 A 
ATOM     31  C   UNL A   1      46.050  30.704  32.334  1.00  0.00     0.029 A 
ATOM     32  N   UNL A   1      44.956  29.242  31.064  1.00  0.00    -0.354 N 
ATOM     33  N   UNL A   1      44.647  26.716  29.591  1.00  0.00    -0.248 NA
ATOM     34  C   UNL A   1      45.545  24.743  28.725  1.00  0.00     0.031 C 
ATOM     35  C   UNL A   1      46.924  29.665  32.005  1.00  0.00     0.029 A 
ATOM     36  C   UNL A   1      46.236  28.738  31.237  1.00  0.00     0.049 A 
ATOM     37  H   UNL A   1      44.240  28.801  30.552  1.00  0.00     0.167 HD
ATOM     38  C   UNL A   1      45.976  26.618  29.974  1.00  0.00     0.074 A 
ATOM     39  C   UNL A   1      46.473  25.367  29.437  1.00  0.00     0.031 C 
ATOM     40  C   UNL A   1      46.716  27.490  30.700  1.00  0.00     0.037 A 
BRANCH  27  41
ATOM     41  C   UNL A   1      43.706  32.590  32.451  1.00  0.00     0.064 A 
ATOM     42  C   UNL A   1      43.491  32.647  33.839  1.00  0.00     0.173 A 
ATOM     43  C   UNL A   1      43.888  33.801  31.768  1.00  0.00     0.173 A 
ATOM     44  F   UNL A   1      43.304  31.520  34.541  1.00  0.00    -0.203 F 
ATOM     45  C   UNL A   1      43.440  33.868  34.508  1.00  0.00     0.198 A 
ATOM     46  C   UNL A   1      43.865  35.018  32.446  1.00  0.00     0.198 A 
ATOM     47  F   UNL A   1      44.106  33.803  30.445  1.00  0.00    -0.203 F 
ATOM     48  F   UNL A   1      43.197  33.898  35.826  1.00  0.00    -0.200 F 
ATOM     49  C   UNL A   1      43.630  35.051  33.812  1.00  0.00     0.200 A 
ATOM     50  F   UNL A   1      44.071  36.160  31.775  1.00  0.00    -0.200 F 
ATOM     51  F   UNL A   1      43.589  36.224  34.459  1.00  0.00    -0.200 F 
ENDBRANCH  27  41
BRANCH  28  52
ATOM     52  C   UNL A   1      42.996  23.932  27.500  1.00  0.00     0.064 A 
ATOM     53  C   UNL A   1      43.279  23.849  26.128  1.00  0.00     0.173 A 
ATOM     54  C   UNL A   1      42.555  22.771  28.148  1.00  0.00     0.173 A 
ATOM     55  F   UNL A   1      43.695  24.936  25.461  1.00  0.00    -0.203 F 
ATOM     56  C   UNL A   1      43.099  22.660  25.427  1.00  0.00     0.198 A 
ATOM     57  C   UNL A   1      42.407  21.573  27.451  1.00  0.00     0.198 A 
ATOM     58  F   UNL A   1      42.288  22.796  29.461  1.00  0.00    -0.203 F 
ATOM     59  F   UNL A   1      43.332  22.621  24.107  1.00  0.00    -0.200 F 
ATOM     60  C   UNL A   1      42.669  21.522  26.090  1.00  0.00     0.200 A 
ATOM     61  F   UNL A   1      42.013  20.469  28.100  1.00  0.00    -0.200 F 
ATOM     62  F   UNL A   1      42.506  20.374  25.417  1.00  0.00    -0.200 F 
ENDBRANCH  28  52
BRANCH  40  63
ATOM     63  C   UNL A   1      48.142  27.116  30.983  1.00  0.00     0.064 A 
ATOM     64  C   UNL A   1      48.460  26.321  32.095  1.00  0.00     0.173 A 
ATOM     65  C   UNL A   1      49.197  27.595  30.193  1.00  0.00     0.173 A 
ATOM     66  F   UNL A   1      47.487  25.842  32.884  1.00  0.00    -0.203 F 
ATOM     67  C   UNL A   1      49.783  26.032  32.414  1.00  0.00     0.198 A 
ATOM     68  C   UNL A   1      50.518  27.277  30.499  1.00  0.00     0.198 A 
ATOM     69  F   UNL A   1      48.945  28.345  29.111  1.00  0.00    -0.203 F 
ATOM     70  F   UNL A   1      50.064  25.300  33.501  1.00  0.00    -0.200 F 
ATOM     71  C   UNL A   1      50.810  26.506  31.614  1.00  0.00     0.200 A 
ATOM     72  F   UNL A   1      51.509  27.714  29.709  1.00  0.00    -0.200 F 
ATOM     73  F   UNL A   1      52.084  26.217  31.915  1.00  0.00    -0.200 F 
ENDBRANCH  40  63
ENDBRANCH  14  15
ENDBRANCH   7   9
ENDBRANCH   4   5
ENDBRANCH   3   4
ENDBRANCH   2   3
ENDBRANCH   1   2
BRANCH   1  74
ATOM     74  C   UNL A   1      37.753  34.281  31.228  1.00  0.00     0.021 C 
BRANCH  74  75
ATOM     75  C   UNL A   1      38.663  33.990  32.418  1.00  0.00     0.116 C 
BRANCH  75  76
ATOM     76  N   UNL A   1      37.907  33.825  33.648  1.00  0.00    -0.352 N 
ATOM     77  C   UNL A   1      37.716  32.690  34.392  1.00  0.00     0.252 C 
ATOM     78  H   UNL A   1      37.474  34.638  33.993  1.00  0.00     0.163 HD
ATOM     79  O   UNL A   1      36.885  32.664  35.293  1.00  0.00    -0.269 OA
BRANCH  77  80
ATOM     80  C   UNL A   1      38.510  31.494  34.093  1.00  0.00     0.058 A 
ATOM     81  C   UNL A   1      37.999  30.442  33.336  1.00  0.00     0.017 A 
ATOM     82  C   UNL A   1      39.804  31.404  34.576  1.00  0.00     0.125 A 
ATOM     83  C   UNL A   1      38.785  29.312  33.138  1.00  0.00     0.030 A 
ATOM     84  N   UNL A   1      40.581  30.308  34.413  1.00  0.00    -0.255 NA
ATOM     85  C   UNL A   1      40.062  29.271  33.704  1.00  0.00     0.094 A 
BRANCH  85  86
ATOM     86  C   UNL A   1      40.933  28.046  33.506  1.00  0.00     0.318 C 
BRANCH  86  87
ATOM     87  N   UNL A   1      42.350  28.393  33.380  1.00  0.00    -0.337 N 
ATOM     88  H   UNL A   1      42.445  29.404  33.486  1.00  0.00     0.346 HD
ATOM     89  H   UNL A   1      42.659  28.072  32.462  1.00  0.00     0.346 HD
BRANCH  87  90
ATOM     90  C   UNL A   1      43.195  27.742  34.374  1.00  0.00     0.300 C 
BRANCH  90  91
ATOM     91  C   UNL A   1      43.336  26.258  34.147  1.00  0.00     0.045 A 
ATOM     92  C   UNL A   1      44.108  25.764  33.084  1.00  0.00     0.051 A 
ATOM     93  C   UNL A   1      42.752  25.343  35.031  1.00  0.00     0.132 A 
ATOM     94  C   UNL A   1      44.296  24.392  32.945  1.00  0.00     0.123 A 
ATOM     95  C   UNL A   1      42.940  23.970  34.885  1.00  0.00     0.043 A 
ATOM     96  F   UNL A   1      42.024  25.787  36.065  1.00  0.00    -0.206 F 
ATOM     97  F   UNL A   1      45.059  23.933  31.944  1.00  0.00    -0.207 F 
ATOM     98  C   UNL A   1      43.723  23.491  33.837  1.00  0.00     0.042 A 
ENDBRANCH  90  91
ENDBRANCH  87  90
ENDBRANCH  86  87
ENDBRANCH  85  86
ENDBRANCH  77  80
ENDBRANCH  75  76
ENDBRANCH  74  75
ENDBRANCH   1  74
TORSDOF 17
ENDMDL
MODEL 3
REMARK VINA RESULT:      -8.8      1.894      4.301
REMARK SMILES O=C(NCCCCCCNC(=O)c1ccc(C[NH2+]Cc2cc(F)ccc2F)nc1)c1ccc(-c2c3nc(c(-c4c(F)c(F)c(F)c(F)c4F)c4ccc([nH]4)c(-c4c(F)c(F)c(F)c(F)c4F)c4nc(c(-c5c(F)c(F)c(F)c(F)c5F)c5ccc2[nH]5)C=C4)C=C3)cc1
REMARK SMILES IDX 7 1 6 2 5 3 4 4 3 5 1 6 2 7 30 9 31 10 92 11 32 12 91 13
REMARK SMILES IDX 33 14 34 15 35 16 85 17 36 18 90 19 84 20 86 21 37 22 89 23
REMARK SMILES IDX 83 24 82 25 38 27 70 28 50 29 69 30 51 31 54 32 68 33 87 34
REMARK SMILES IDX 52 35 53 36 67 38 88 39 55 40 39 41 40 42 48 43 41 44 42 45
REMARK SMILES IDX 46 46 49 47 43 48 44 49 47 50 45 51 71 52 72 53 80 54 73 55
REMARK SMILES IDX 74 56 78 57 81 58 75 59 76 60 79 61 77 62 56 63 57 64 65 65
REMARK SMILES IDX 58 66 59 67 63 68 66 69 60 70 61 71 64 72 62 73 8 74 9 75
REMARK SMILES IDX 10 76 11 77 12 79 13 80 14 81 29 82 15 83 28 84 16 85 17 86
REMARK SMILES IDX 18 87 19 90 20 91 21 92 26 93 22 94 25 95 27 96 23 97 24 98
REMARK H PARENT 3 8 86 26 54 37 10 78 18 88 18 89
REMARK Flexibility Score: inf
ROOT
ATOM      1  C   UNL A   1      33.372  34.976  28.693  1.00  0.00     0.002 C 
ENDROOT
BRANCH   1   2
ATOM      2  C   UNL A   1      34.754  34.854  28.043  1.00  0.00     0.002 C 
BRANCH   2   3
ATOM      3  C   UNL A   1      35.399  33.472  28.141  1.00  0.00     0.021 C 
BRANCH   3   4
ATOM      4  C   UNL A   1      34.691  32.506  29.080  1.00  0.00     0.116 C 
BRANCH   4   5
ATOM      5  N   UNL A   1      34.054  31.409  28.370  1.00  0.00    -0.352 N 
ATOM      6  O   UNL A   1      33.965  29.493  27.179  1.00  0.00    -0.269 OA
ATOM      7  C   UNL A   1      34.605  30.239  27.910  1.00  0.00     0.251 C 
ATOM      8  H   UNL A   1      33.091  31.521  28.195  1.00  0.00     0.163 HD
BRANCH   7   9
ATOM      9  C   UNL A   1      35.992  29.891  28.287  1.00  0.00     0.039 A 
ATOM     10  C   UNL A   1      36.273  29.364  29.550  1.00  0.00     0.014 A 
ATOM     11  C   UNL A   1      37.020  30.088  27.362  1.00  0.00     0.014 A 
ATOM     12  C   UNL A   1      37.592  29.163  29.935  1.00  0.00     0.010 A 
ATOM     13  C   UNL A   1      38.339  29.798  27.720  1.00  0.00     0.010 A 
ATOM     14  C   UNL A   1      38.638  29.353  29.017  1.00  0.00    -0.014 A 
BRANCH  14  15
ATOM     15  C   UNL A   1      40.023  28.993  29.408  1.00  0.00     0.031 A 
ATOM     16  C   UNL A   1      40.821  29.856  30.343  1.00  0.00     0.074 A 
ATOM     17  C   UNL A   1      40.548  27.853  28.919  1.00  0.00     0.049 A 
ATOM     18  N   UNL A   1      42.044  29.682  30.780  1.00  0.00    -0.248 NA
ATOM     19  C   UNL A   1      40.171  31.073  30.849  1.00  0.00     0.031 C 
ATOM     20  C   UNL A   1      39.864  26.943  27.999  1.00  0.00     0.029 A 
ATOM     21  N   UNL A   1      41.765  27.257  29.131  1.00  0.00    -0.354 N 
ATOM     22  C   UNL A   1      42.313  30.769  31.600  1.00  0.00     0.074 A 
ATOM     23  C   UNL A   1      41.139  31.614  31.579  1.00  0.00     0.031 C 
ATOM     24  C   UNL A   1      40.647  25.882  27.764  1.00  0.00     0.029 A 
ATOM     25  C   UNL A   1      41.916  26.071  28.456  1.00  0.00     0.049 A 
ATOM     26  H   UNL A   1      42.462  27.643  29.710  1.00  0.00     0.167 HD
ATOM     27  C   UNL A   1      43.439  31.027  32.309  1.00  0.00     0.037 A 
ATOM     28  C   UNL A   1      42.968  25.235  28.383  1.00  0.00     0.037 A 
ATOM     29  C   UNL A   1      44.599  30.171  32.327  1.00  0.00     0.049 A 
ATOM     30  C   UNL A   1      44.216  25.569  29.147  1.00  0.00     0.074 A 
ATOM     31  C   UNL A   1      45.776  30.333  33.038  1.00  0.00     0.029 A 
ATOM     32  N   UNL A   1      44.731  28.996  31.600  1.00  0.00    -0.354 N 
ATOM     33  N   UNL A   1      44.450  26.586  29.940  1.00  0.00    -0.248 NA
ATOM     34  C   UNL A   1      45.348  24.644  29.004  1.00  0.00     0.031 C 
ATOM     35  C   UNL A   1      46.640  29.288  32.699  1.00  0.00     0.029 A 
ATOM     36  C   UNL A   1      45.980  28.438  31.825  1.00  0.00     0.049 A 
ATOM     37  H   UNL A   1      44.040  28.616  31.011  1.00  0.00     0.167 HD
ATOM     38  C   UNL A   1      45.746  26.417  30.405  1.00  0.00     0.074 A 
ATOM     39  C   UNL A   1      46.241  25.188  29.819  1.00  0.00     0.031 C 
ATOM     40  C   UNL A   1      46.459  27.213  31.238  1.00  0.00     0.037 A 
BRANCH  27  41
ATOM     41  C   UNL A   1      43.487  32.287  33.124  1.00  0.00     0.064 A 
ATOM     42  C   UNL A   1      42.960  32.312  34.427  1.00  0.00     0.173 A 
ATOM     43  C   UNL A   1      43.972  33.491  32.593  1.00  0.00     0.173 A 
ATOM     44  F   UNL A   1      42.476  31.191  34.982  1.00  0.00    -0.203 F 
ATOM     45  C   UNL A   1      42.903  33.497  35.156  1.00  0.00     0.198 A 
ATOM     46  C   UNL A   1      43.939  34.668  33.336  1.00  0.00     0.198 A 
ATOM     47  F   UNL A   1      44.494  33.521  31.358  1.00  0.00    -0.203 F 
ATOM     48  F   UNL A   1      42.362  33.502  36.382  1.00  0.00    -0.200 F 
ATOM     49  C   UNL A   1      43.395  34.672  34.612  1.00  0.00     0.200 A 
ATOM     50  F   UNL A   1      44.436  35.800  32.817  1.00  0.00    -0.200 F 
ATOM     51  F   UNL A   1      43.347  35.811  35.317  1.00  0.00    -0.200 F 
ENDBRANCH  27  41
BRANCH  28  52
ATOM     52  C   UNL A   1      42.868  24.005  27.556  1.00  0.00     0.064 A 
ATOM     53  C   UNL A   1      42.455  22.785  28.112  1.00  0.00     0.173 A 
ATOM     54  C   UNL A   1      43.229  24.017  26.202  1.00  0.00     0.173 A 
ATOM     55  F   UNL A   1      42.108  22.719  29.406  1.00  0.00    -0.203 F 
ATOM     56  C   UNL A   1      42.434  21.618  27.352  1.00  0.00     0.198 A 
ATOM     57  C   UNL A   1      43.175  22.856  25.434  1.00  0.00     0.198 A 
ATOM     58  F   UNL A   1      43.614  25.163  25.622  1.00  0.00    -0.203 F 
ATOM     59  F   UNL A   1      42.081  20.457  27.921  1.00  0.00    -0.200 F 
ATOM     60  C   UNL A   1      42.788  21.656  26.013  1.00  0.00     0.200 A 
ATOM     61  F   UNL A   1      43.497  22.900  24.135  1.00  0.00    -0.200 F 
ATOM     62  F   UNL A   1      42.757  20.535  25.279  1.00  0.00    -0.200 F 
ENDBRANCH  28  52
BRANCH  40  63
ATOM     63  C   UNL A   1      47.849  26.771  31.590  1.00  0.00     0.064 A 
ATOM     64  C   UNL A   1      48.065  25.900  32.669  1.00  0.00     0.173 A 
ATOM     65  C   UNL A   1      48.971  27.259  30.904  1.00  0.00     0.173 A 
ATOM     66  F   UNL A   1      47.026  25.410  33.361  1.00  0.00    -0.203 F 
ATOM     67  C   UNL A   1      49.354  25.545  33.057  1.00  0.00     0.198 A 
ATOM     68  C   UNL A   1      50.258  26.877  31.277  1.00  0.00     0.198 A 
ATOM     69  F   UNL A   1      48.817  28.082  29.857  1.00  0.00    -0.203 F 
ATOM     70  F   UNL A   1      49.536  24.740  34.113  1.00  0.00    -0.200 F 
ATOM     71  C   UNL A   1      50.448  26.031  32.358  1.00  0.00     0.200 A 
ATOM     72  F   UNL A   1      51.313  27.325  30.583  1.00  0.00    -0.200 F 
ATOM     73  F   UNL A   1      51.688  25.678  32.724  1.00  0.00    -0.200 F 
ENDBRANCH  40  63
ENDBRANCH  14  15
ENDBRANCH   7   9
ENDBRANCH   4   5
ENDBRANCH   3   4
ENDBRANCH   2   3
ENDBRANCH   1   2
BRANCH   1  74
ATOM     74  C   UNL A   1      33.191  36.174  29.630  1.00  0.00     0.021 C 
BRANCH  74  75
ATOM     75  C   UNL A   1      32.576  35.840  30.987  1.00  0.00     0.116 C 
BRANCH  75  76
ATOM     76  N   UNL A   1      33.009  36.766  32.019  1.00  0.00    -0.352 N 
ATOM     77  C   UNL A   1      33.910  36.561  33.031  1.00  0.00     0.252 C 
ATOM     78  H   UNL A   1      32.601  37.661  31.986  1.00  0.00     0.163 HD
ATOM     79  O   UNL A   1      34.018  37.371  33.946  1.00  0.00    -0.269 OA
BRANCH  77  80
ATOM     80  C   UNL A   1      34.741  35.353  33.021  1.00  0.00     0.058 A 
ATOM     81  C   UNL A   1      35.816  35.208  32.146  1.00  0.00     0.017 A 
ATOM     82  C   UNL A   1      34.453  34.327  33.902  1.00  0.00     0.125 A 
ATOM     83  C   UNL A   1      36.528  34.014  32.149  1.00  0.00     0.030 A 
ATOM     84  N   UNL A   1      35.117  33.149  33.911  1.00  0.00    -0.255 NA
ATOM     85  C   UNL A   1      36.142  33.000  33.030  1.00  0.00     0.094 A 
BRANCH  85  86
ATOM     86  C   UNL A   1      36.901  31.687  33.045  1.00  0.00     0.318 C 
BRANCH  86  87
ATOM     87  N   UNL A   1      37.430  31.374  34.373  1.00  0.00    -0.337 N 
ATOM     88  H   UNL A   1      37.316  30.373  34.539  1.00  0.00     0.346 HD
ATOM     89  H   UNL A   1      36.911  31.937  35.047  1.00  0.00     0.346 HD
BRANCH  87  90
ATOM     90  C   UNL A   1      38.842  31.709  34.526  1.00  0.00     0.300 C 
BRANCH  90  91
ATOM     91  C   UNL A   1      39.062  33.062  35.151  1.00  0.00     0.045 A 
ATOM     92  C   UNL A   1      38.930  33.244  36.535  1.00  0.00     0.051 A 
ATOM     93  C   UNL A   1      39.466  34.151  34.369  1.00  0.00     0.132 A 
ATOM     94  C   UNL A   1      39.223  34.481  37.102  1.00  0.00     0.123 A 
ATOM     95  C   UNL A   1      39.755  35.389  34.940  1.00  0.00     0.043 A 
ATOM     96  F   UNL A   1      39.617  34.002  33.046  1.00  0.00    -0.206 F 
ATOM     97  F   UNL A   1      39.122  34.636  38.429  1.00  0.00    -0.207 F 
ATOM     98  C   UNL A   1      39.638  35.554  36.319  1.00  0.00     0.042 A 
ENDBRANCH  90  91
ENDBRANCH  87  90
ENDBRANCH  86  87
ENDBRANCH  85  86
ENDBRANCH  77  80
ENDBRANCH  75  76
ENDBRANCH  74  75
ENDBRANCH   1  74
TORSDOF 17
ENDMDL
