MODEL 1
REMARK VINA RESULT:     -12.1      0.000      0.000
REMARK SMILES O=C(NCCCCCCNC(=O)c1ccc(-c2ccc(F)c(C(F)(F)F)c2)cc1[N+](=O)[O-])c1ccc(-c2c3nc(c(-c4c(F)c(F)c(F)c(F)c4F)c4ccc([nH]4)c(-c4c(F)c(F)c(F)c(F)c4F)c4nc(c(-c5c(F)c(F)c(F)c(F)c5F)c5ccc2[nH]5)C=C4)C=C3)cc1
REMARK SMILES IDX 6 1 5 2 4 3 3 4 1 5 2 6 33 8 34 9 95 10 35 11 94 12 36 13
REMARK SMILES IDX 37 14 38 15 88 16 39 17 93 18 87 19 89 20 40 21 92 22 86 23
REMARK SMILES IDX 85 24 41 26 73 27 53 28 72 29 54 30 57 31 71 32 90 33 55 34
REMARK SMILES IDX 56 35 70 37 91 38 58 39 42 40 43 41 51 42 44 43 45 44 49 45
REMARK SMILES IDX 52 46 46 47 47 48 50 49 48 50 74 51 75 52 83 53 76 54 77 55
REMARK SMILES IDX 81 56 84 57 78 58 79 59 82 60 80 61 59 62 60 63 68 64 61 65
REMARK SMILES IDX 62 66 66 67 69 68 63 69 64 70 67 71 65 72 7 73 8 74 9 75
REMARK SMILES IDX 10 76 11 77 12 79 13 80 14 81 29 82 15 83 28 84 16 85 30 86
REMARK SMILES IDX 31 87 32 88 17 89 18 90 27 91 19 92 22 93 20 94 21 95 23 96
REMARK SMILES IDX 24 97 25 98 26 99
REMARK H PARENT 3 7 89 25 57 36 10 78
REMARK Flexibility Score: inf
ROOT
ATOM      1  C   UNL A   1      33.750  26.256  25.149  1.00  0.00     0.002 C 
ENDROOT
BRANCH   1   2
ATOM      2  C   UNL A   1      33.477  27.478  26.025  1.00  0.00     0.021 C 
BRANCH   2   3
ATOM      3  C   UNL A   1      34.045  28.792  25.510  1.00  0.00     0.116 C 
BRANCH   3   4
ATOM      4  N   UNL A   1      33.302  29.955  25.963  1.00  0.00    -0.352 N 
ATOM      5  O   UNL A   1      32.797  31.690  27.318  1.00  0.00    -0.269 OA
ATOM      6  C   UNL A   1      33.595  30.816  26.992  1.00  0.00     0.251 C 
ATOM      7  H   UNL A   1      32.476  30.152  25.464  1.00  0.00     0.163 HD
BRANCH   6   8
ATOM      8  C   UNL A   1      34.870  30.672  27.730  1.00  0.00     0.039 A 
ATOM      9  C   UNL A   1      35.787  31.724  27.784  1.00  0.00     0.014 A 
ATOM     10  C   UNL A   1      35.145  29.467  28.384  1.00  0.00     0.014 A 
ATOM     11  C   UNL A   1      37.027  31.529  28.380  1.00  0.00     0.010 A 
ATOM     12  C   UNL A   1      36.361  29.300  29.053  1.00  0.00     0.010 A 
ATOM     13  C   UNL A   1      37.321  30.322  29.037  1.00  0.00    -0.014 A 
BRANCH  13  14
ATOM     14  C   UNL A   1      38.606  30.195  29.770  1.00  0.00     0.031 A 
ATOM     15  C   UNL A   1      38.790  30.785  31.138  1.00  0.00     0.074 A 
ATOM     16  C   UNL A   1      39.603  29.499  29.191  1.00  0.00     0.049 A 
ATOM     17  N   UNL A   1      39.837  30.727  31.924  1.00  0.00    -0.248 NA
ATOM     18  C   UNL A   1      37.661  31.543  31.699  1.00  0.00     0.031 C 
ATOM     19  C   UNL A   1      39.542  28.899  27.855  1.00  0.00     0.029 A 
ATOM     20  N   UNL A   1      40.849  29.159  29.650  1.00  0.00    -0.354 N 
ATOM     21  C   UNL A   1      39.500  31.448  33.062  1.00  0.00     0.074 A 
ATOM     22  C   UNL A   1      38.160  31.955  32.857  1.00  0.00     0.031 C 
ATOM     23  C   UNL A   1      40.676  28.226  27.622  1.00  0.00     0.029 A 
ATOM     24  C   UNL A   1      41.567  28.393  28.765  1.00  0.00     0.049 A 
ATOM     25  H   UNL A   1      41.195  29.437  30.528  1.00  0.00     0.167 HD
ATOM     26  C   UNL A   1      40.243  31.657  34.177  1.00  0.00     0.037 A 
ATOM     27  C   UNL A   1      42.811  27.890  28.857  1.00  0.00     0.037 A 
ATOM     28  C   UNL A   1      41.572  31.139  34.379  1.00  0.00     0.049 A 
ATOM     29  C   UNL A   1      43.610  28.147  30.100  1.00  0.00     0.074 A 
ATOM     30  C   UNL A   1      42.393  31.272  35.487  1.00  0.00     0.029 A 
ATOM     31  N   UNL A   1      42.277  30.388  33.450  1.00  0.00    -0.354 N 
ATOM     32  N   UNL A   1      43.266  28.802  31.182  1.00  0.00    -0.248 NA
ATOM     33  C   UNL A   1      44.972  27.597  30.136  1.00  0.00     0.031 C 
ATOM     34  C   UNL A   1      43.607  30.635  35.213  1.00  0.00     0.029 A 
ATOM     35  C   UNL A   1      43.530  30.066  33.953  1.00  0.00     0.049 A 
ATOM     36  H   UNL A   1      41.939  30.121  32.564  1.00  0.00     0.167 HD
ATOM     37  C   UNL A   1      44.362  28.739  32.028  1.00  0.00     0.074 A 
ATOM     38  C   UNL A   1      45.371  27.955  31.347  1.00  0.00     0.031 C 
ATOM     39  C   UNL A   1      44.523  29.290  33.256  1.00  0.00     0.037 A 
BRANCH  26  40
ATOM     40  C   UNL A   1      39.642  32.489  35.272  1.00  0.00     0.064 A 
ATOM     41  C   UNL A   1      38.873  31.913  36.294  1.00  0.00     0.173 A 
ATOM     42  C   UNL A   1      39.902  33.867  35.343  1.00  0.00     0.173 A 
ATOM     43  F   UNL A   1      38.590  30.603  36.268  1.00  0.00    -0.203 F 
ATOM     44  C   UNL A   1      38.375  32.689  37.339  1.00  0.00     0.198 A 
ATOM     45  C   UNL A   1      39.421  34.635  36.401  1.00  0.00     0.198 A 
ATOM     46  F   UNL A   1      40.638  34.466  34.395  1.00  0.00    -0.203 F 
ATOM     47  F   UNL A   1      37.620  32.121  38.290  1.00  0.00    -0.200 F 
ATOM     48  C   UNL A   1      38.656  34.045  37.396  1.00  0.00     0.200 A 
ATOM     49  F   UNL A   1      39.704  35.943  36.461  1.00  0.00    -0.200 F 
ATOM     50  F   UNL A   1      38.187  34.787  38.410  1.00  0.00    -0.200 F 
ENDBRANCH  26  40
BRANCH  27  51
ATOM     51  C   UNL A   1      43.372  27.098  27.732  1.00  0.00     0.064 A 
ATOM     52  C   UNL A   1      44.053  27.722  26.679  1.00  0.00     0.173 A 
ATOM     53  C   UNL A   1      43.245  25.702  27.693  1.00  0.00     0.173 A 
ATOM     54  F   UNL A   1      44.184  29.057  26.663  1.00  0.00    -0.203 F 
ATOM     55  C   UNL A   1      44.570  26.980  25.619  1.00  0.00     0.198 A 
ATOM     56  C   UNL A   1      43.789  24.959  26.649  1.00  0.00     0.198 A 
ATOM     57  F   UNL A   1      42.607  25.057  28.681  1.00  0.00    -0.203 F 
ATOM     58  F   UNL A   1      45.180  27.604  24.602  1.00  0.00    -0.200 F 
ATOM     59  C   UNL A   1      44.444  25.599  25.609  1.00  0.00     0.200 A 
ATOM     60  F   UNL A   1      43.679  23.624  26.652  1.00  0.00    -0.200 F 
ATOM     61  F   UNL A   1      44.949  24.886  24.593  1.00  0.00    -0.200 F 
ENDBRANCH  27  51
BRANCH  39  62
ATOM     62  C   UNL A   1      45.836  29.049  33.938  1.00  0.00     0.064 A 
ATOM     63  C   UNL A   1      46.914  29.933  33.781  1.00  0.00     0.173 A 
ATOM     64  C   UNL A   1      46.016  27.928  34.761  1.00  0.00     0.173 A 
ATOM     65  F   UNL A   1      46.795  31.008  32.989  1.00  0.00    -0.203 F 
ATOM     66  C   UNL A   1      48.135  29.687  34.401  1.00  0.00     0.198 A 
ATOM     67  C   UNL A   1      47.231  27.699  35.401  1.00  0.00     0.198 A 
ATOM     68  F   UNL A   1      45.015  27.056  34.945  1.00  0.00    -0.203 F 
ATOM     69  F   UNL A   1      49.168  30.515  34.194  1.00  0.00    -0.200 F 
ATOM     70  C   UNL A   1      48.292  28.574  35.213  1.00  0.00     0.200 A 
ATOM     71  F   UNL A   1      47.379  26.629  36.193  1.00  0.00    -0.200 F 
ATOM     72  F   UNL A   1      49.470  28.337  35.808  1.00  0.00    -0.200 F 
ENDBRANCH  39  62
ENDBRANCH  13  14
ENDBRANCH   6   8
ENDBRANCH   3   4
ENDBRANCH   2   3
ENDBRANCH   1   2
BRANCH   1  73
ATOM     73  C   UNL A   1      33.629  26.473  23.638  1.00  0.00     0.002 C 
BRANCH  73  74
ATOM     74  C   UNL A   1      32.351  25.942  22.976  1.00  0.00     0.021 C 
BRANCH  74  75
ATOM     75  C   UNL A   1      31.637  24.820  23.725  1.00  0.00     0.116 C 
BRANCH  75  76
ATOM     76  N   UNL A   1      31.523  23.606  22.939  1.00  0.00    -0.352 N 
ATOM     77  C   UNL A   1      32.408  22.571  22.800  1.00  0.00     0.258 C 
ATOM     78  H   UNL A   1      30.685  23.512  22.430  1.00  0.00     0.163 HD
ATOM     79  O   UNL A   1      32.194  21.658  22.011  1.00  0.00    -0.269 OA
BRANCH  77  80
ATOM     80  C   UNL A   1      33.668  22.580  23.558  1.00  0.00     0.117 A 
ATOM     81  C   UNL A   1      34.797  23.097  22.918  1.00  0.00     0.022 A 
ATOM     82  C   UNL A   1      33.790  22.103  24.861  1.00  0.00     0.282 A 
ATOM     83  C   UNL A   1      36.017  23.173  23.600  1.00  0.00     0.010 A 
ATOM     84  C   UNL A   1      35.004  22.190  25.557  1.00  0.00     0.095 A 
ATOM     85  C   UNL A   1      36.141  22.734  24.931  1.00  0.00    -0.012 A 
BRANCH  82  86
ATOM     86  N   UNL A   1      32.662  21.499  25.539  1.00  0.00     0.063 N 
ATOM     87  O   UNL A   1      32.466  20.295  25.324  1.00  0.00    -0.258 OA
ATOM     88  O   UNL A   1      31.968  22.222  26.262  1.00  0.00    -0.258 OA
ENDBRANCH  82  86
BRANCH  85  89
ATOM     89  C   UNL A   1      37.425  22.827  25.647  1.00  0.00    -0.017 A 
ATOM     90  C   UNL A   1      37.803  24.008  26.308  1.00  0.00     0.012 A 
ATOM     91  C   UNL A   1      38.309  21.733  25.690  1.00  0.00     0.025 A 
ATOM     92  C   UNL A   1      39.022  24.093  26.986  1.00  0.00     0.040 A 
ATOM     93  C   UNL A   1      39.535  21.806  26.374  1.00  0.00     0.092 A 
ATOM     94  C   UNL A   1      39.874  22.994  27.012  1.00  0.00     0.135 A 
ATOM     95  F   UNL A   1      41.038  23.095  27.666  1.00  0.00    -0.206 F 
BRANCH  93  96
ATOM     96  C   UNL A   1      40.484  20.648  26.426  1.00  0.00     0.419 C 
ATOM     97  F   UNL A   1      40.784  20.265  27.696  1.00  0.00    -0.166 F 
ATOM     98  F   UNL A   1      40.010  19.542  25.791  1.00  0.00    -0.166 F 
ATOM     99  F   UNL A   1      41.683  20.920  25.834  1.00  0.00    -0.166 F 
ENDBRANCH  93  96
ENDBRANCH  85  89
ENDBRANCH  77  80
ENDBRANCH  75  76
ENDBRANCH  74  75
ENDBRANCH  73  74
ENDBRANCH   1  73
TORSDOF 16
ENDMDL
MODEL 2
REMARK VINA RESULT:     -12.0      0.334      7.275
REMARK SMILES O=C(NCCCCCCNC(=O)c1ccc(-c2ccc(F)c(C(F)(F)F)c2)cc1[N+](=O)[O-])c1ccc(-c2c3nc(c(-c4c(F)c(F)c(F)c(F)c4F)c4ccc([nH]4)c(-c4c(F)c(F)c(F)c(F)c4F)c4nc(c(-c5c(F)c(F)c(F)c(F)c5F)c5ccc2[nH]5)C=C4)C=C3)cc1
REMARK SMILES IDX 6 1 5 2 4 3 3 4 1 5 2 6 33 8 34 9 95 10 35 11 94 12 36 13
REMARK SMILES IDX 37 14 38 15 88 16 39 17 93 18 87 19 89 20 40 21 92 22 86 23
REMARK SMILES IDX 85 24 41 26 73 27 53 28 72 29 54 30 57 31 71 32 90 33 55 34
REMARK SMILES IDX 56 35 70 37 91 38 58 39 42 40 43 41 51 42 44 43 45 44 49 45
REMARK SMILES IDX 52 46 46 47 47 48 50 49 48 50 74 51 75 52 83 53 76 54 77 55
REMARK SMILES IDX 81 56 84 57 78 58 79 59 82 60 80 61 59 62 60 63 68 64 61 65
REMARK SMILES IDX 62 66 66 67 69 68 63 69 64 70 67 71 65 72 7 73 8 74 9 75
REMARK SMILES IDX 10 76 11 77 12 79 13 80 14 81 29 82 15 83 28 84 16 85 30 86
REMARK SMILES IDX 31 87 32 88 17 89 18 90 27 91 19 92 22 93 20 94 21 95 23 96
REMARK SMILES IDX 24 97 25 98 26 99
REMARK H PARENT 3 7 89 25 57 36 10 78
REMARK Flexibility Score: inf
ROOT
ATOM      1  C   UNL A   1      33.813  26.255  24.857  1.00  0.00     0.002 C 
ENDROOT
BRANCH   1   2
ATOM      2  C   UNL A   1      33.601  27.442  25.796  1.00  0.00     0.021 C 
BRANCH   2   3
ATOM      3  C   UNL A   1      34.042  28.793  25.253  1.00  0.00     0.116 C 
BRANCH   3   4
ATOM      4  N   UNL A   1      33.267  29.903  25.778  1.00  0.00    -0.352 N 
ATOM      5  O   UNL A   1      32.707  31.525  27.247  1.00  0.00    -0.269 OA
ATOM      6  C   UNL A   1      33.529  30.694  26.870  1.00  0.00     0.251 C 
ATOM      7  H   UNL A   1      32.443  30.118  25.284  1.00  0.00     0.163 HD
BRANCH   6   8
ATOM      8  C   UNL A   1      34.797  30.526  27.612  1.00  0.00     0.039 A 
ATOM      9  C   UNL A   1      35.083  29.333  28.279  1.00  0.00     0.014 A 
ATOM     10  C   UNL A   1      35.718  31.579  27.633  1.00  0.00     0.014 A 
ATOM     11  C   UNL A   1      36.224  29.237  29.067  1.00  0.00     0.010 A 
ATOM     12  C   UNL A   1      36.905  31.452  28.361  1.00  0.00     0.010 A 
ATOM     13  C   UNL A   1      37.156  30.288  29.102  1.00  0.00    -0.014 A 
BRANCH  13  14
ATOM     14  C   UNL A   1      38.422  30.103  29.855  1.00  0.00     0.031 A 
ATOM     15  C   UNL A   1      39.590  29.372  29.257  1.00  0.00     0.074 A 
ATOM     16  C   UNL A   1      38.517  30.642  31.085  1.00  0.00     0.049 A 
ATOM     17  N   UNL A   1      40.777  29.159  29.770  1.00  0.00    -0.248 NA
ATOM     18  C   UNL A   1      39.406  28.798  27.915  1.00  0.00     0.031 C 
ATOM     19  C   UNL A   1      37.438  31.356  31.773  1.00  0.00     0.029 A 
ATOM     20  N   UNL A   1      39.565  30.696  31.967  1.00  0.00    -0.354 N 
ATOM     21  C   UNL A   1      41.475  28.421  28.824  1.00  0.00     0.074 A 
ATOM     22  C   UNL A   1      40.573  28.199  27.714  1.00  0.00     0.031 C 
ATOM     23  C   UNL A   1      37.893  31.817  32.946  1.00  0.00     0.029 A 
ATOM     24  C   UNL A   1      39.275  31.384  33.119  1.00  0.00     0.049 A 
ATOM     25  H   UNL A   1      40.440  30.282  31.791  1.00  0.00     0.167 HD
ATOM     26  C   UNL A   1      42.754  27.977  28.879  1.00  0.00     0.037 A 
ATOM     27  C   UNL A   1      40.033  31.629  34.203  1.00  0.00     0.037 A 
ATOM     28  C   UNL A   1      43.652  28.211  29.983  1.00  0.00     0.049 A 
ATOM     29  C   UNL A   1      41.443  31.116  34.236  1.00  0.00     0.074 A 
ATOM     30  C   UNL A   1      44.975  27.827  30.118  1.00  0.00     0.029 A 
ATOM     31  N   UNL A   1      43.314  28.891  31.144  1.00  0.00    -0.354 N 
ATOM     32  N   UNL A   1      42.100  30.449  33.320  1.00  0.00    -0.248 NA
ATOM     33  C   UNL A   1      42.216  31.390  35.455  1.00  0.00     0.031 C 
ATOM     34  C   UNL A   1      45.427  28.242  31.375  1.00  0.00     0.029 A 
ATOM     35  C   UNL A   1      44.400  28.922  32.008  1.00  0.00     0.049 A 
ATOM     36  H   UNL A   1      42.434  29.294  31.328  1.00  0.00     0.167 HD
ATOM     37  C   UNL A   1      43.363  30.227  33.845  1.00  0.00     0.074 A 
ATOM     38  C   UNL A   1      43.391  30.859  35.149  1.00  0.00     0.031 C 
ATOM     39  C   UNL A   1      44.405  29.550  33.303  1.00  0.00     0.037 A 
BRANCH  26  40
ATOM     40  C   UNL A   1      43.271  27.183  27.714  1.00  0.00     0.064 A 
ATOM     41  C   UNL A   1      43.984  27.792  26.670  1.00  0.00     0.173 A 
ATOM     42  C   UNL A   1      43.118  25.789  27.680  1.00  0.00     0.173 A 
ATOM     43  F   UNL A   1      44.151  29.122  26.652  1.00  0.00    -0.203 F 
ATOM     44  C   UNL A   1      44.512  27.034  25.627  1.00  0.00     0.198 A 
ATOM     45  C   UNL A   1      43.667  25.032  26.647  1.00  0.00     0.198 A 
ATOM     46  F   UNL A   1      42.451  25.157  28.657  1.00  0.00    -0.203 F 
ATOM     47  F   UNL A   1      45.166  27.639  24.626  1.00  0.00    -0.200 F 
ATOM     48  C   UNL A   1      44.361  25.655  25.621  1.00  0.00     0.200 A 
ATOM     49  F   UNL A   1      43.530  23.699  26.649  1.00  0.00    -0.200 F 
ATOM     50  F   UNL A   1      44.882  24.926  24.624  1.00  0.00    -0.200 F 
ENDBRANCH  26  40
BRANCH  27  51
ATOM     51  C   UNL A   1      39.466  32.393  35.343  1.00  0.00     0.064 A 
ATOM     52  C   UNL A   1      38.710  31.755  36.336  1.00  0.00     0.173 A 
ATOM     53  C   UNL A   1      39.674  33.775  35.467  1.00  0.00     0.173 A 
ATOM     54  F   UNL A   1      38.468  30.439  36.251  1.00  0.00    -0.203 F 
ATOM     55  C   UNL A   1      38.169  32.473  37.400  1.00  0.00     0.198 A 
ATOM     56  C   UNL A   1      39.159  34.487  36.547  1.00  0.00     0.198 A 
ATOM     57  F   UNL A   1      40.396  34.430  34.546  1.00  0.00    -0.203 F 
ATOM     58  F   UNL A   1      37.415  31.848  38.313  1.00  0.00    -0.200 F 
ATOM     59  C   UNL A   1      38.401  33.837  37.508  1.00  0.00     0.200 A 
ATOM     60  F   UNL A   1      39.399  35.800  36.656  1.00  0.00    -0.200 F 
ATOM     61  F   UNL A   1      37.887  34.526  38.536  1.00  0.00    -0.200 F 
ENDBRANCH  27  51
BRANCH  39  62
ATOM     62  C   UNL A   1      45.661  29.475  34.119  1.00  0.00     0.064 A 
ATOM     63  C   UNL A   1      45.898  28.407  34.997  1.00  0.00     0.173 A 
ATOM     64  C   UNL A   1      46.637  30.476  34.017  1.00  0.00     0.173 A 
ATOM     65  F   UNL A   1      44.984  27.437  35.142  1.00  0.00    -0.203 F 
ATOM     66  C   UNL A   1      47.057  28.360  35.766  1.00  0.00     0.198 A 
ATOM     67  C   UNL A   1      47.807  30.411  34.768  1.00  0.00     0.198 A 
ATOM     68  F   UNL A   1      46.458  31.516  33.190  1.00  0.00    -0.203 F 
ATOM     69  F   UNL A   1      47.239  27.359  36.638  1.00  0.00    -0.200 F 
ATOM     70  C   UNL A   1      48.012  29.358  35.649  1.00  0.00     0.200 A 
ATOM     71  F   UNL A   1      48.733  31.372  34.648  1.00  0.00    -0.200 F 
ATOM     72  F   UNL A   1      49.126  29.312  36.392  1.00  0.00    -0.200 F 
ENDBRANCH  39  62
ENDBRANCH  13  14
ENDBRANCH   6   8
ENDBRANCH   3   4
ENDBRANCH   2   3
ENDBRANCH   1   2
BRANCH   1  73
ATOM     73  C   UNL A   1      33.604  26.533  23.366  1.00  0.00     0.002 C 
BRANCH  73  74
ATOM     74  C   UNL A   1      32.356  25.912  22.727  1.00  0.00     0.021 C 
BRANCH  74  75
ATOM     75  C   UNL A   1      31.642  24.855  23.566  1.00  0.00     0.116 C 
BRANCH  75  76
ATOM     76  N   UNL A   1      31.488  23.594  22.865  1.00  0.00    -0.352 N 
ATOM     77  C   UNL A   1      32.342  22.527  22.792  1.00  0.00     0.258 C 
ATOM     78  H   UNL A   1      30.643  23.490  22.370  1.00  0.00     0.163 HD
ATOM     79  O   UNL A   1      32.097  21.569  22.068  1.00  0.00    -0.269 OA
BRANCH  77  80
ATOM     80  C   UNL A   1      33.609  22.552  23.539  1.00  0.00     0.117 A 
ATOM     81  C   UNL A   1      34.746  22.996  22.860  1.00  0.00     0.022 A 
ATOM     82  C   UNL A   1      33.729  22.158  24.870  1.00  0.00     0.282 A 
ATOM     83  C   UNL A   1      35.972  23.083  23.527  1.00  0.00     0.010 A 
ATOM     84  C   UNL A   1      34.951  22.258  25.551  1.00  0.00     0.095 A 
ATOM     85  C   UNL A   1      36.096  22.729  24.884  1.00  0.00    -0.012 A 
BRANCH  82  86
ATOM     86  N   UNL A   1      32.591  21.630  25.594  1.00  0.00     0.063 N 
ATOM     87  O   UNL A   1      32.051  22.393  26.408  1.00  0.00    -0.258 OA
ATOM     88  O   UNL A   1      32.253  20.464  25.367  1.00  0.00    -0.258 OA
ENDBRANCH  82  86
BRANCH  85  89
ATOM     89  C   UNL A   1      37.388  22.835  25.583  1.00  0.00    -0.017 A 
ATOM     90  C   UNL A   1      37.779  24.031  26.209  1.00  0.00     0.012 A 
ATOM     91  C   UNL A   1      38.267  21.738  25.646  1.00  0.00     0.025 A 
ATOM     92  C   UNL A   1      39.005  24.127  26.872  1.00  0.00     0.040 A 
ATOM     93  C   UNL A   1      39.501  21.823  26.314  1.00  0.00     0.092 A 
ATOM     94  C   UNL A   1      39.852  23.025  26.918  1.00  0.00     0.135 A 
ATOM     95  F   UNL A   1      41.023  23.138  27.557  1.00  0.00    -0.206 F 
BRANCH  93  96
ATOM     96  C   UNL A   1      40.445  20.661  26.387  1.00  0.00     0.419 C 
ATOM     97  F   UNL A   1      40.777  20.327  27.662  1.00  0.00    -0.166 F 
ATOM     98  F   UNL A   1      39.948  19.534  25.809  1.00  0.00    -0.166 F 
ATOM     99  F   UNL A   1      41.629  20.902  25.752  1.00  0.00    -0.166 F 
ENDBRANCH  93  96
ENDBRANCH  85  89
ENDBRANCH  77  80
ENDBRANCH  75  76
ENDBRANCH  74  75
ENDBRANCH  73  74
ENDBRANCH   1  73
TORSDOF 16
ENDMDL
MODEL 3
REMARK VINA RESULT:     -11.9      3.978      6.026
REMARK SMILES O=C(NCCCCCCNC(=O)c1ccc(-c2ccc(F)c(C(F)(F)F)c2)cc1[N+](=O)[O-])c1ccc(-c2c3nc(c(-c4c(F)c(F)c(F)c(F)c4F)c4ccc([nH]4)c(-c4c(F)c(F)c(F)c(F)c4F)c4nc(c(-c5c(F)c(F)c(F)c(F)c5F)c5ccc2[nH]5)C=C4)C=C3)cc1
REMARK SMILES IDX 6 1 5 2 4 3 3 4 1 5 2 6 33 8 34 9 95 10 35 11 94 12 36 13
REMARK SMILES IDX 37 14 38 15 88 16 39 17 93 18 87 19 89 20 40 21 92 22 86 23
REMARK SMILES IDX 85 24 41 26 73 27 53 28 72 29 54 30 57 31 71 32 90 33 55 34
REMARK SMILES IDX 56 35 70 37 91 38 58 39 42 40 43 41 51 42 44 43 45 44 49 45
REMARK SMILES IDX 52 46 46 47 47 48 50 49 48 50 74 51 75 52 83 53 76 54 77 55
REMARK SMILES IDX 81 56 84 57 78 58 79 59 82 60 80 61 59 62 60 63 68 64 61 65
REMARK SMILES IDX 62 66 66 67 69 68 63 69 64 70 67 71 65 72 7 73 8 74 9 75
REMARK SMILES IDX 10 76 11 77 12 79 13 80 14 81 29 82 15 83 28 84 16 85 30 86
REMARK SMILES IDX 31 87 32 88 17 89 18 90 27 91 19 92 22 93 20 94 21 95 23 96
REMARK SMILES IDX 24 97 25 98 26 99
REMARK H PARENT 3 7 89 25 57 36 10 78
REMARK Flexibility Score: inf
ROOT
ATOM      1  C   UNL A   1      33.646  26.045  25.588  1.00  0.00     0.002 C 
ENDROOT
BRANCH   1   2
ATOM      2  C   UNL A   1      33.646  27.570  25.690  1.00  0.00     0.021 C 
BRANCH   2   3
ATOM      3  C   UNL A   1      33.699  28.131  27.103  1.00  0.00     0.116 C 
BRANCH   3   4
ATOM      4  N   UNL A   1      33.518  29.572  27.155  1.00  0.00    -0.352 N 
ATOM      5  O   UNL A   1      34.021  31.702  27.713  1.00  0.00    -0.269 OA
ATOM      6  C   UNL A   1      34.376  30.529  27.640  1.00  0.00     0.251 C 
ATOM      7  H   UNL A   1      32.667  29.907  26.792  1.00  0.00     0.163 HD
BRANCH   6   8
ATOM      8  C   UNL A   1      35.726  30.140  28.103  1.00  0.00     0.039 A 
ATOM      9  C   UNL A   1      36.823  30.202  27.240  1.00  0.00     0.014 A 
ATOM     10  C   UNL A   1      35.896  29.715  29.424  1.00  0.00     0.014 A 
ATOM     11  C   UNL A   1      38.058  29.720  27.658  1.00  0.00     0.010 A 
ATOM     12  C   UNL A   1      37.157  29.306  29.868  1.00  0.00     0.010 A 
ATOM     13  C   UNL A   1      38.243  29.285  28.981  1.00  0.00    -0.014 A 
BRANCH  13  14
ATOM     14  C   UNL A   1      39.605  28.896  29.427  1.00  0.00     0.031 A 
ATOM     15  C   UNL A   1      40.374  29.724  30.414  1.00  0.00     0.074 A 
ATOM     16  C   UNL A   1      40.128  27.750  28.950  1.00  0.00     0.049 A 
ATOM     17  N   UNL A   1      41.557  29.500  30.932  1.00  0.00    -0.248 NA
ATOM     18  C   UNL A   1      39.744  30.970  30.879  1.00  0.00     0.031 C 
ATOM     19  C   UNL A   1      39.478  26.875  27.970  1.00  0.00     0.029 A 
ATOM     20  N   UNL A   1      41.308  27.111  29.233  1.00  0.00    -0.354 N 
ATOM     21  C   UNL A   1      41.817  30.575  31.771  1.00  0.00     0.074 A 
ATOM     22  C   UNL A   1      40.680  31.467  31.676  1.00  0.00     0.031 C 
ATOM     23  C   UNL A   1      40.242  25.792  27.770  1.00  0.00     0.029 A 
ATOM     24  C   UNL A   1      41.461  25.923  28.562  1.00  0.00     0.049 A 
ATOM     25  H   UNL A   1      41.979  27.469  29.857  1.00  0.00     0.167 HD
ATOM     26  C   UNL A   1      42.903  30.791  32.552  1.00  0.00     0.037 A 
ATOM     27  C   UNL A   1      42.475  25.040  28.573  1.00  0.00     0.037 A 
ATOM     28  C   UNL A   1      44.026  29.892  32.651  1.00  0.00     0.049 A 
ATOM     29  C   UNL A   1      43.668  25.311  29.442  1.00  0.00     0.074 A 
ATOM     30  C   UNL A   1      45.160  30.009  33.437  1.00  0.00     0.029 A 
ATOM     31  N   UNL A   1      44.158  28.710  31.937  1.00  0.00    -0.354 N 
ATOM     32  N   UNL A   1      43.884  26.316  30.255  1.00  0.00    -0.248 NA
ATOM     33  C   UNL A   1      44.758  24.328  29.394  1.00  0.00     0.031 C 
ATOM     34  C   UNL A   1      45.994  28.918  33.171  1.00  0.00     0.029 A 
ATOM     35  C   UNL A   1      45.362  28.097  32.252  1.00  0.00     0.049 A 
ATOM     36  H   UNL A   1      43.494  28.357  31.301  1.00  0.00     0.167 HD
ATOM     37  C   UNL A   1      45.129  26.085  30.819  1.00  0.00     0.074 A 
ATOM     38  C   UNL A   1      45.606  24.828  30.280  1.00  0.00     0.031 C 
ATOM     39  C   UNL A   1      45.821  26.850  31.698  1.00  0.00     0.037 A 
BRANCH  26  40
ATOM     40  C   UNL A   1      42.943  32.051  33.366  1.00  0.00     0.064 A 
ATOM     41  C   UNL A   1      43.465  33.245  32.846  1.00  0.00     0.173 A 
ATOM     42  C   UNL A   1      42.384  32.085  34.653  1.00  0.00     0.173 A 
ATOM     43  F   UNL A   1      44.017  33.264  31.623  1.00  0.00    -0.203 F 
ATOM     44  C   UNL A   1      43.438  34.423  33.589  1.00  0.00     0.198 A 
ATOM     45  C   UNL A   1      42.338  33.270  35.385  1.00  0.00     0.198 A 
ATOM     46  F   UNL A   1      41.865  30.973  35.194  1.00  0.00    -0.203 F 
ATOM     47  F   UNL A   1      43.967  35.545  33.082  1.00  0.00    -0.200 F 
ATOM     48  C   UNL A   1      42.868  34.436  34.854  1.00  0.00     0.200 A 
ATOM     49  F   UNL A   1      41.776  33.283  36.601  1.00  0.00    -0.200 F 
ATOM     50  F   UNL A   1      42.830  35.574  35.562  1.00  0.00    -0.200 F 
ENDBRANCH  26  40
BRANCH  27  51
ATOM     51  C   UNL A   1      42.402  23.822  27.726  1.00  0.00     0.064 A 
ATOM     52  C   UNL A   1      41.920  22.611  28.243  1.00  0.00     0.173 A 
ATOM     53  C   UNL A   1      42.804  23.845  26.383  1.00  0.00     0.173 A 
ATOM     54  F   UNL A   1      41.541  22.534  29.527  1.00  0.00    -0.203 F 
ATOM     55  C   UNL A   1      41.860  21.466  27.452  1.00  0.00     0.198 A 
ATOM     56  C   UNL A   1      42.715  22.708  25.584  1.00  0.00     0.198 A 
ATOM     57  F   UNL A   1      43.266  24.981  25.840  1.00  0.00    -0.203 F 
ATOM     58  F   UNL A   1      41.435  20.311  27.980  1.00  0.00    -0.200 F 
ATOM     59  C   UNL A   1      42.250  21.518  26.122  1.00  0.00     0.200 A 
ATOM     60  F   UNL A   1      43.077  22.767  24.296  1.00  0.00    -0.200 F 
ATOM     61  F   UNL A   1      42.185  20.418  25.359  1.00  0.00    -0.200 F 
ENDBRANCH  27  51
BRANCH  39  62
ATOM     62  C   UNL A   1      47.160  26.335  32.134  1.00  0.00     0.064 A 
ATOM     63  C   UNL A   1      47.297  25.535  33.278  1.00  0.00     0.173 A 
ATOM     64  C   UNL A   1      48.315  26.638  31.398  1.00  0.00     0.173 A 
ATOM     65  F   UNL A   1      46.225  25.234  34.024  1.00  0.00    -0.203 F 
ATOM     66  C   UNL A   1      48.549  25.080  33.685  1.00  0.00     0.198 A 
ATOM     67  C   UNL A   1      49.560  26.160  31.794  1.00  0.00     0.198 A 
ATOM     68  F   UNL A   1      48.234  27.397  30.295  1.00  0.00    -0.203 F 
ATOM     69  F   UNL A   1      48.664  24.362  34.811  1.00  0.00    -0.200 F 
ATOM     70  C   UNL A   1      49.678  25.389  32.942  1.00  0.00     0.200 A 
ATOM     71  F   UNL A   1      50.649  26.451  31.070  1.00  0.00    -0.200 F 
ATOM     72  F   UNL A   1      50.882  24.953  33.337  1.00  0.00    -0.200 F 
ENDBRANCH  39  62
ENDBRANCH  13  14
ENDBRANCH   6   8
ENDBRANCH   3   4
ENDBRANCH   2   3
ENDBRANCH   1   2
BRANCH   1  73
ATOM     73  C   UNL A   1      34.399  25.452  24.395  1.00  0.00     0.002 C 
BRANCH  73  74
ATOM     74  C   UNL A   1      34.875  24.002  24.546  1.00  0.00     0.021 C 
BRANCH  74  75
ATOM     75  C   UNL A   1      34.363  23.264  25.780  1.00  0.00     0.116 C 
BRANCH  75  76
ATOM     76  N   UNL A   1      33.594  22.079  25.445  1.00  0.00    -0.352 N 
ATOM     77  C   UNL A   1      32.306  21.975  24.991  1.00  0.00     0.258 C 
ATOM     78  H   UNL A   1      34.068  21.224  25.559  1.00  0.00     0.163 HD
ATOM     79  O   UNL A   1      31.772  20.882  24.850  1.00  0.00    -0.269 OA
BRANCH  77  80
ATOM     80  C   UNL A   1      31.522  23.192  24.731  1.00  0.00     0.117 A 
ATOM     81  C   UNL A   1      31.528  23.692  23.426  1.00  0.00     0.022 A 
ATOM     82  C   UNL A   1      30.787  23.862  25.707  1.00  0.00     0.282 A 
ATOM     83  C   UNL A   1      30.768  24.822  23.105  1.00  0.00     0.010 A 
ATOM     84  C   UNL A   1      30.010  24.984  25.389  1.00  0.00     0.095 A 
ATOM     85  C   UNL A   1      29.987  25.480  24.073  1.00  0.00    -0.012 A 
BRANCH  82  86
ATOM     86  N   UNL A   1      30.804  23.417  27.084  1.00  0.00     0.063 N 
ATOM     87  O   UNL A   1      29.743  22.960  27.532  1.00  0.00    -0.258 OA
ATOM     88  O   UNL A   1      31.858  23.540  27.718  1.00  0.00    -0.258 OA
ENDBRANCH  82  86
BRANCH  85  89
ATOM     89  C   UNL A   1      29.181  26.662  23.725  1.00  0.00    -0.017 A 
ATOM     90  C   UNL A   1      27.799  26.699  23.978  1.00  0.00     0.012 A 
ATOM     91  C   UNL A   1      29.773  27.792  23.129  1.00  0.00     0.025 A 
ATOM     92  C   UNL A   1      27.038  27.822  23.647  1.00  0.00     0.040 A 
ATOM     93  C   UNL A   1      29.017  28.929  22.796  1.00  0.00     0.092 A 
ATOM     94  C   UNL A   1      27.652  28.923  23.060  1.00  0.00     0.135 A 
ATOM     95  F   UNL A   1      26.904  29.990  22.750  1.00  0.00    -0.206 F 
BRANCH  93  96
ATOM     96  C   UNL A   1      29.637  30.136  22.161  1.00  0.00     0.419 C 
ATOM     97  F   UNL A   1      29.506  31.259  22.917  1.00  0.00    -0.166 F 
ATOM     98  F   UNL A   1      30.968  29.986  21.921  1.00  0.00    -0.166 F 
ATOM     99  F   UNL A   1      29.082  30.442  20.953  1.00  0.00    -0.166 F 
ENDBRANCH  93  96
ENDBRANCH  85  89
ENDBRANCH  77  80
ENDBRANCH  75  76
ENDBRANCH  74  75
ENDBRANCH  73  74
ENDBRANCH   1  73
TORSDOF 16
ENDMDL
