MODEL 1
REMARK VINA RESULT:     -11.8      0.000      0.000
REMARK SMILES COc1cccc([C@@H]2CN(C(=O)c3cnn(C)c3)C[C@H]2C(=O)NCCCCCCNC(=O)c2ccc(-c3c4nc(c(-c5c(F)c(F)c(F)c(F)c5F)c5ccc([nH]5)c(-c5c(F)c(F)c(F)c(F)c5F)c5nc(c(-c6c(F)c(F)c(F)c(F)c6F)c6ccc3[nH]6)C=C5)C=C4)cc2)c1OC
REMARK SMILES IDX 26 1 25 2 24 3 23 4 21 5 22 6 20 8 8 9 9 10 10 11 19 12 7 13
REMARK SMILES IDX 3 14 4 15 96 16 5 17 6 18 2 19 1 20 97 21 98 22 11 23 12 24
REMARK SMILES IDX 13 25 14 26 18 27 15 28 16 29 17 30 27 31 28 32 29 33 30 34
REMARK SMILES IDX 31 35 32 37 33 38 34 39 95 40 35 41 94 42 36 43 37 44 38 45
REMARK SMILES IDX 88 46 39 47 93 48 87 49 89 50 40 51 92 52 86 53 85 54 41 56
REMARK SMILES IDX 73 57 53 58 72 59 54 60 57 61 71 62 90 63 55 64 56 65 70 67
REMARK SMILES IDX 91 68 58 69 42 70 43 71 51 72 44 73 45 74 49 75 52 76 46 77
REMARK SMILES IDX 47 78 50 79 48 80 74 81 75 82 83 83 76 84 77 85 81 86 84 87
REMARK SMILES IDX 78 88 79 89 82 90 80 91 59 92 60 93 68 94 61 95 62 96 66 97
REMARK SMILES IDX 69 98 63 99 64 100 67 101 65 102
REMARK H PARENT 23 7 30 36 89 55 57 66
REMARK Flexibility Score: inf
ROOT
ATOM      1  C   UNL A   1      40.085  22.253  27.175  1.00  0.00     0.002 C 
ENDROOT
BRANCH   1   2
ATOM      2  C   UNL A   1      39.031  21.921  26.112  1.00  0.00     0.021 C 
BRANCH   2   3
ATOM      3  C   UNL A   1      38.061  23.049  25.767  1.00  0.00     0.116 C 
BRANCH   3   4
ATOM      4  N   UNL A   1      37.624  23.000  24.384  1.00  0.00    -0.356 N 
ATOM      5  C   UNL A   1      36.390  23.077  23.820  1.00  0.00     0.225 C 
ATOM      6  O   UNL A   1      36.345  23.080  22.586  1.00  0.00    -0.275 OA
ATOM      7  H   UNL A   1      38.356  22.892  23.735  1.00  0.00     0.163 HD
BRANCH   5   8
ATOM      8  C   UNL A   1      35.102  23.134  24.624  1.00  0.00     0.107 C 
ATOM      9  C   UNL A   1      33.957  23.866  23.898  1.00  0.00     0.057 C 
ATOM     10  C   UNL A   1      32.692  23.096  24.292  1.00  0.00     0.129 C 
ATOM     11  N   UNL A   1      33.160  21.747  24.572  1.00  0.00    -0.337 N 
ATOM     12  C   UNL A   1      34.549  21.765  25.004  1.00  0.00     0.134 C 
BRANCH   9  13
ATOM     13  C   UNL A   1      33.894  25.366  24.134  1.00  0.00     0.004 A 
ATOM     14  C   UNL A   1      33.631  27.681  23.405  1.00  0.00     0.161 A 
ATOM     15  C   UNL A   1      33.794  28.110  24.728  1.00  0.00     0.050 A 
ATOM     16  C   UNL A   1      33.693  26.308  23.098  1.00  0.00     0.164 A 
ATOM     17  C   UNL A   1      33.978  27.187  25.751  1.00  0.00     0.004 A 
ATOM     18  C   UNL A   1      34.020  25.828  25.458  1.00  0.00     0.008 A 
BRANCH  14  19
ATOM     19  O   UNL A   1      33.514  28.606  22.399  1.00  0.00    -0.493 OA
ATOM     20  C   UNL A   1      32.233  29.237  22.369  1.00  0.00     0.278 C 
ENDBRANCH  14  19
BRANCH  16  21
ATOM     21  O   UNL A   1      33.619  25.777  21.834  1.00  0.00    -0.493 OA
ATOM     22  C   UNL A   1      32.329  25.664  21.245  1.00  0.00     0.278 C 
ENDBRANCH  16  21
ENDBRANCH   9  13
BRANCH  11  23
ATOM     23  C   UNL A   1      32.404  20.597  24.748  1.00  0.00     0.257 C 
ATOM     24  O   UNL A   1      31.402  20.600  25.462  1.00  0.00    -0.269 OA
BRANCH  23  25
ATOM     25  C   UNL A   1      32.805  19.381  24.064  1.00  0.00     0.077 A 
ATOM     26  C   UNL A   1      32.277  18.891  22.846  1.00  0.00     0.149 A 
ATOM     27  C   UNL A   1      33.671  18.381  24.468  1.00  0.00     0.122 A 
ATOM     28  N   UNL A   1      32.812  17.723  22.480  1.00  0.00    -0.181 NA
ATOM     29  N   UNL A   1      33.653  17.433  23.485  1.00  0.00    -0.275 N 
ATOM     30  C   UNL A   1      34.402  16.201  23.450  1.00  0.00     0.173 C 
ENDBRANCH  23  25
ENDBRANCH  11  23
ENDBRANCH   5   8
ENDBRANCH   3   4
ENDBRANCH   2   3
ENDBRANCH   1   2
BRANCH   1  31
ATOM     31  C   UNL A   1      41.178  21.204  27.399  1.00  0.00     0.002 C 
BRANCH  31  32
ATOM     32  C   UNL A   1      41.310  20.114  26.331  1.00  0.00     0.021 C 
BRANCH  32  33
ATOM     33  C   UNL A   1      42.416  19.084  26.551  1.00  0.00     0.116 C 
BRANCH  33  34
ATOM     34  N   UNL A   1      43.182  18.802  25.352  1.00  0.00    -0.352 N 
ATOM     35  C   UNL A   1      43.980  19.643  24.615  1.00  0.00     0.251 C 
ATOM     36  H   UNL A   1      43.123  17.877  25.020  1.00  0.00     0.163 HD
ATOM     37  O   UNL A   1      44.485  19.248  23.568  1.00  0.00    -0.269 OA
BRANCH  35  38
ATOM     38  C   UNL A   1      44.213  21.039  25.053  1.00  0.00     0.039 A 
ATOM     39  C   UNL A   1      44.799  21.250  26.306  1.00  0.00     0.014 A 
ATOM     40  C   UNL A   1      43.820  22.131  24.273  1.00  0.00     0.014 A 
ATOM     41  C   UNL A   1      45.044  22.551  26.755  1.00  0.00     0.010 A 
ATOM     42  C   UNL A   1      44.086  23.430  24.711  1.00  0.00     0.010 A 
ATOM     43  C   UNL A   1      44.705  23.649  25.951  1.00  0.00    -0.014 A 
BRANCH  43  44
ATOM     44  C   UNL A   1      44.998  25.031  26.398  1.00  0.00     0.031 A 
ATOM     45  C   UNL A   1      43.922  25.878  27.008  1.00  0.00     0.074 A 
ATOM     46  C   UNL A   1      46.229  25.540  26.212  1.00  0.00     0.049 A 
ATOM     47  N   UNL A   1      43.974  27.129  27.393  1.00  0.00    -0.248 NA
ATOM     48  C   UNL A   1      42.610  25.242  27.198  1.00  0.00     0.031 C 
ATOM     49  C   UNL A   1      47.356  24.830  25.607  1.00  0.00     0.029 A 
ATOM     50  N   UNL A   1      46.734  26.782  26.507  1.00  0.00    -0.354 N 
ATOM     51  C   UNL A   1      42.700  27.438  27.843  1.00  0.00     0.074 A 
ATOM     52  C   UNL A   1      41.893  26.245  27.689  1.00  0.00     0.031 C 
ATOM     53  C   UNL A   1      48.422  25.647  25.578  1.00  0.00     0.029 A 
ATOM     54  C   UNL A   1      48.049  26.937  26.149  1.00  0.00     0.049 A 
ATOM     55  H   UNL A   1      46.202  27.493  26.933  1.00  0.00     0.167 HD
ATOM     56  C   UNL A   1      42.244  28.612  28.339  1.00  0.00     0.037 A 
ATOM     57  C   UNL A   1      48.861  28.004  26.268  1.00  0.00     0.037 A 
ATOM     58  C   UNL A   1      43.043  29.791  28.533  1.00  0.00     0.049 A 
ATOM     59  C   UNL A   1      48.346  29.274  26.878  1.00  0.00     0.074 A 
ATOM     60  C   UNL A   1      42.668  31.013  29.068  1.00  0.00     0.029 A 
ATOM     61  N   UNL A   1      44.385  29.893  28.207  1.00  0.00    -0.354 N 
ATOM     62  N   UNL A   1      47.144  29.547  27.317  1.00  0.00    -0.248 NA
ATOM     63  C   UNL A   1      49.304  30.382  27.010  1.00  0.00     0.031 C 
ATOM     64  C   UNL A   1      43.786  31.857  29.060  1.00  0.00     0.029 A 
ATOM     65  C   UNL A   1      44.855  31.156  28.526  1.00  0.00     0.049 A 
ATOM     66  H   UNL A   1      44.925  29.173  27.807  1.00  0.00     0.167 HD
ATOM     67  C   UNL A   1      47.198  30.853  27.780  1.00  0.00     0.074 A 
ATOM     68  C   UNL A   1      48.554  31.319  27.577  1.00  0.00     0.031 C 
ATOM     69  C   UNL A   1      46.207  31.599  28.324  1.00  0.00     0.037 A 
BRANCH  56  70
ATOM     70  C   UNL A   1      40.795  28.680  28.701  1.00  0.00     0.064 A 
ATOM     71  C   UNL A   1      40.356  28.399  30.000  1.00  0.00     0.173 A 
ATOM     72  C   UNL A   1      39.844  29.059  27.743  1.00  0.00     0.173 A 
ATOM     73  F   UNL A   1      41.234  28.019  30.941  1.00  0.00    -0.203 F 
ATOM     74  C   UNL A   1      39.007  28.488  30.330  1.00  0.00     0.198 A 
ATOM     75  C   UNL A   1      38.496  29.155  28.080  1.00  0.00     0.198 A 
ATOM     76  F   UNL A   1      40.221  29.332  26.486  1.00  0.00    -0.203 F 
ATOM     77  F   UNL A   1      38.602  28.196  31.574  1.00  0.00    -0.200 F 
ATOM     78  C   UNL A   1      38.079  28.867  29.371  1.00  0.00     0.200 A 
ATOM     79  F   UNL A   1      37.601  29.520  27.151  1.00  0.00    -0.200 F 
ATOM     80  F   UNL A   1      36.781  28.951  29.690  1.00  0.00    -0.200 F 
ENDBRANCH  56  70
BRANCH  57  81
ATOM     81  C   UNL A   1      50.264  27.905  25.805  1.00  0.00     0.064 A 
ATOM     82  C   UNL A   1      51.307  27.722  26.721  1.00  0.00     0.173 A 
ATOM     83  C   UNL A   1      50.581  27.975  24.443  1.00  0.00     0.173 A 
ATOM     84  F   UNL A   1      51.042  27.668  28.034  1.00  0.00    -0.203 F 
ATOM     85  C   UNL A   1      52.626  27.614  26.289  1.00  0.00     0.198 A 
ATOM     86  C   UNL A   1      51.900  27.859  24.011  1.00  0.00     0.198 A 
ATOM     87  F   UNL A   1      49.609  28.153  23.537  1.00  0.00    -0.203 F 
ATOM     88  F   UNL A   1      53.612  27.456  27.182  1.00  0.00    -0.200 F 
ATOM     89  C   UNL A   1      52.921  27.680  24.934  1.00  0.00     0.200 A 
ATOM     90  F   UNL A   1      52.183  27.923  22.703  1.00  0.00    -0.200 F 
ATOM     91  F   UNL A   1      54.190  27.576  24.518  1.00  0.00    -0.200 F 
ENDBRANCH  57  81
BRANCH  69  92
ATOM     92  C   UNL A   1      46.558  32.990  28.744  1.00  0.00     0.064 A 
ATOM     93  C   UNL A   1      47.040  33.253  30.033  1.00  0.00     0.173 A 
ATOM     94  C   UNL A   1      46.442  34.058  27.846  1.00  0.00     0.173 A 
ATOM     95  F   UNL A   1      47.154  32.259  30.927  1.00  0.00    -0.203 F 
ATOM     96  C   UNL A   1      47.393  34.546  30.410  1.00  0.00     0.198 A 
ATOM     97  C   UNL A   1      46.800  35.349  28.224  1.00  0.00     0.198 A 
ATOM     98  F   UNL A   1      45.978  33.849  26.604  1.00  0.00    -0.203 F 
ATOM     99  F   UNL A   1      47.837  34.783  31.652  1.00  0.00    -0.200 F 
ATOM    100  C   UNL A   1      47.274  35.591  29.505  1.00  0.00     0.200 A 
ATOM    101  F   UNL A   1      46.682  36.358  27.351  1.00  0.00    -0.200 F 
ATOM    102  F   UNL A   1      47.610  36.836  29.872  1.00  0.00    -0.200 F 
ENDBRANCH  69  92
ENDBRANCH  43  44
ENDBRANCH  35  38
ENDBRANCH  33  34
ENDBRANCH  32  33
ENDBRANCH  31  32
ENDBRANCH   1  31
TORSDOF 18
ENDMDL
MODEL 2
REMARK VINA RESULT:     -11.1      0.754      6.998
REMARK SMILES COc1cccc([C@@H]2CN(C(=O)c3cnn(C)c3)C[C@H]2C(=O)NCCCCCCNC(=O)c2ccc(-c3c4nc(c(-c5c(F)c(F)c(F)c(F)c5F)c5ccc([nH]5)c(-c5c(F)c(F)c(F)c(F)c5F)c5nc(c(-c6c(F)c(F)c(F)c(F)c6F)c6ccc3[nH]6)C=C5)C=C4)cc2)c1OC
REMARK SMILES IDX 26 1 25 2 24 3 23 4 21 5 22 6 20 8 8 9 9 10 10 11 19 12 7 13
REMARK SMILES IDX 3 14 4 15 96 16 5 17 6 18 2 19 1 20 97 21 98 22 11 23 12 24
REMARK SMILES IDX 13 25 14 26 18 27 15 28 16 29 17 30 27 31 28 32 29 33 30 34
REMARK SMILES IDX 31 35 32 37 33 38 34 39 95 40 35 41 94 42 36 43 37 44 38 45
REMARK SMILES IDX 88 46 39 47 93 48 87 49 89 50 40 51 92 52 86 53 85 54 41 56
REMARK SMILES IDX 73 57 53 58 72 59 54 60 57 61 71 62 90 63 55 64 56 65 70 67
REMARK SMILES IDX 91 68 58 69 42 70 43 71 51 72 44 73 45 74 49 75 52 76 46 77
REMARK SMILES IDX 47 78 50 79 48 80 74 81 75 82 83 83 76 84 77 85 81 86 84 87
REMARK SMILES IDX 78 88 79 89 82 90 80 91 59 92 60 93 68 94 61 95 62 96 66 97
REMARK SMILES IDX 69 98 63 99 64 100 67 101 65 102
REMARK H PARENT 23 7 30 36 89 55 57 66
REMARK Flexibility Score: inf
ROOT
ATOM      1  C   UNL A   1      40.782  21.738  27.418  1.00  0.00     0.002 C 
ENDROOT
BRANCH   1   2
ATOM      2  C   UNL A   1      40.161  22.288  26.129  1.00  0.00     0.021 C 
BRANCH   2   3
ATOM      3  C   UNL A   1      38.658  22.554  26.180  1.00  0.00     0.116 C 
BRANCH   3   4
ATOM      4  N   UNL A   1      38.093  22.796  24.865  1.00  0.00    -0.356 N 
ATOM      5  C   UNL A   1      36.835  23.116  24.464  1.00  0.00     0.225 C 
ATOM      6  O   UNL A   1      36.677  23.336  23.259  1.00  0.00    -0.275 OA
ATOM      7  H   UNL A   1      38.740  22.714  24.129  1.00  0.00     0.163 HD
BRANCH   5   8
ATOM      8  C   UNL A   1      35.646  23.188  25.408  1.00  0.00     0.107 C 
ATOM      9  C   UNL A   1      34.338  23.617  24.716  1.00  0.00     0.057 C 
ATOM     10  C   UNL A   1      33.243  22.803  25.416  1.00  0.00     0.129 C 
ATOM     11  N   UNL A   1      33.924  21.604  25.882  1.00  0.00    -0.337 N 
ATOM     12  C   UNL A   1      35.335  21.872  26.112  1.00  0.00     0.134 C 
BRANCH   9  13
ATOM     13  C   UNL A   1      34.091  25.115  24.669  1.00  0.00     0.004 A 
ATOM     14  C   UNL A   1      33.630  27.216  23.513  1.00  0.00     0.161 A 
ATOM     15  C   UNL A   1      33.642  27.888  24.741  1.00  0.00     0.050 A 
ATOM     16  C   UNL A   1      33.867  25.829  23.467  1.00  0.00     0.164 A 
ATOM     17  C   UNL A   1      33.848  27.189  25.925  1.00  0.00     0.004 A 
ATOM     18  C   UNL A   1      34.063  25.815  25.890  1.00  0.00     0.008 A 
BRANCH  14  19
ATOM     19  O   UNL A   1      33.489  27.928  22.349  1.00  0.00    -0.493 OA
ATOM     20  C   UNL A   1      32.452  28.908  22.418  1.00  0.00     0.278 C 
ENDBRANCH  14  19
BRANCH  16  21
ATOM     21  O   UNL A   1      33.950  25.078  22.320  1.00  0.00    -0.493 OA
ATOM     22  C   UNL A   1      32.782  24.984  21.513  1.00  0.00     0.278 C 
ENDBRANCH  16  21
ENDBRANCH   9  13
BRANCH  11  23
ATOM     23  C   UNL A   1      33.360  20.436  26.372  1.00  0.00     0.257 C 
ATOM     24  O   UNL A   1      32.911  20.381  27.517  1.00  0.00    -0.269 OA
BRANCH  23  25
ATOM     25  C   UNL A   1      33.294  19.270  25.510  1.00  0.00     0.077 A 
ATOM     26  C   UNL A   1      32.548  18.092  25.749  1.00  0.00     0.149 A 
ATOM     27  C   UNL A   1      34.001  18.979  24.358  1.00  0.00     0.122 A 
ATOM     28  N   UNL A   1      32.715  17.169  24.797  1.00  0.00    -0.181 NA
ATOM     29  N   UNL A   1      33.607  17.732  23.966  1.00  0.00    -0.275 N 
ATOM     30  C   UNL A   1      34.061  16.997  22.810  1.00  0.00     0.173 C 
ENDBRANCH  23  25
ENDBRANCH  11  23
ENDBRANCH   5   8
ENDBRANCH   3   4
ENDBRANCH   2   3
ENDBRANCH   1   2
BRANCH   1  31
ATOM     31  C   UNL A   1      41.184  20.260  27.402  1.00  0.00     0.002 C 
BRANCH  31  32
ATOM     32  C   UNL A   1      41.826  19.739  26.112  1.00  0.00     0.021 C 
BRANCH  32  33
ATOM     33  C   UNL A   1      43.076  18.878  26.280  1.00  0.00     0.116 C 
BRANCH  33  34
ATOM     34  N   UNL A   1      43.771  18.628  25.032  1.00  0.00    -0.352 N 
ATOM     35  C   UNL A   1      44.511  19.494  24.264  1.00  0.00     0.251 C 
ATOM     36  H   UNL A   1      43.704  17.709  24.687  1.00  0.00     0.163 HD
ATOM     37  O   UNL A   1      44.956  19.126  23.181  1.00  0.00    -0.269 OA
BRANCH  35  38
ATOM     38  C   UNL A   1      44.751  20.885  24.713  1.00  0.00     0.039 A 
ATOM     39  C   UNL A   1      44.245  21.930  23.932  1.00  0.00     0.014 A 
ATOM     40  C   UNL A   1      45.501  21.171  25.859  1.00  0.00     0.014 A 
ATOM     41  C   UNL A   1      44.441  23.257  24.324  1.00  0.00     0.010 A 
ATOM     42  C   UNL A   1      45.677  22.496  26.264  1.00  0.00     0.010 A 
ATOM     43  C   UNL A   1      45.143  23.547  25.503  1.00  0.00    -0.014 A 
BRANCH  43  44
ATOM     44  C   UNL A   1      45.320  24.949  25.951  1.00  0.00     0.031 A 
ATOM     45  C   UNL A   1      46.662  25.612  25.861  1.00  0.00     0.074 A 
ATOM     46  C   UNL A   1      44.278  25.611  26.482  1.00  0.00     0.049 A 
ATOM     47  N   UNL A   1      47.023  26.804  26.267  1.00  0.00    -0.248 NA
ATOM     48  C   UNL A   1      47.745  24.830  25.247  1.00  0.00     0.031 C 
ATOM     49  C   UNL A   1      42.928  25.070  26.650  1.00  0.00     0.029 A 
ATOM     50  N   UNL A   1      44.195  26.884  26.989  1.00  0.00    -0.354 N 
ATOM     51  C   UNL A   1      48.376  26.904  25.986  1.00  0.00     0.074 A 
ATOM     52  C   UNL A   1      48.776  25.656  25.370  1.00  0.00     0.031 C 
ATOM     53  C   UNL A   1      42.150  26.007  27.218  1.00  0.00     0.029 A 
ATOM     54  C   UNL A   1      42.949  27.204  27.464  1.00  0.00     0.049 A 
ATOM     55  H   UNL A   1      44.958  27.506  27.011  1.00  0.00     0.167 HD
ATOM     56  C   UNL A   1      49.211  27.944  26.220  1.00  0.00     0.037 A 
ATOM     57  C   UNL A   1      42.502  28.338  28.036  1.00  0.00     0.037 A 
ATOM     58  C   UNL A   1      48.818  29.202  26.795  1.00  0.00     0.049 A 
ATOM     59  C   UNL A   1      43.434  29.497  28.229  1.00  0.00     0.074 A 
ATOM     60  C   UNL A   1      49.594  30.325  27.031  1.00  0.00     0.029 A 
ATOM     61  N   UNL A   1      47.534  29.507  27.216  1.00  0.00    -0.354 N 
ATOM     62  N   UNL A   1      44.708  29.586  27.942  1.00  0.00    -0.248 NA
ATOM     63  C   UNL A   1      42.863  30.715  28.825  1.00  0.00     0.031 C 
ATOM     64  C   UNL A   1      48.777  31.310  27.601  1.00  0.00     0.029 A 
ATOM     65  C   UNL A   1      47.494  30.800  27.712  1.00  0.00     0.049 A 
ATOM     66  H   UNL A   1      46.764  28.896  27.168  1.00  0.00     0.167 HD
ATOM     67  C   UNL A   1      45.092  30.865  28.315  1.00  0.00     0.074 A 
ATOM     68  C   UNL A   1      43.915  31.523  28.845  1.00  0.00     0.031 C 
ATOM     69  C   UNL A   1      46.315  31.440  28.228  1.00  0.00     0.037 A 
BRANCH  56  70
ATOM     70  C   UNL A   1      50.649  27.756  25.860  1.00  0.00     0.064 A 
ATOM     71  C   UNL A   1      51.104  27.961  24.552  1.00  0.00     0.173 A 
ATOM     72  C   UNL A   1      51.583  27.397  26.842  1.00  0.00     0.173 A 
ATOM     73  F   UNL A   1      50.239  28.293  23.582  1.00  0.00    -0.203 F 
ATOM     74  C   UNL A   1      52.450  27.805  24.234  1.00  0.00     0.198 A 
ATOM     75  C   UNL A   1      52.929  27.249  26.522  1.00  0.00     0.198 A 
ATOM     76  F   UNL A   1      51.188  27.186  28.106  1.00  0.00    -0.203 F 
ATOM     77  F   UNL A   1      52.865  27.986  22.973  1.00  0.00    -0.200 F 
ATOM     78  C   UNL A   1      53.361  27.452  25.219  1.00  0.00     0.200 A 
ATOM     79  F   UNL A   1      53.809  26.906  27.473  1.00  0.00    -0.200 F 
ATOM     80  F   UNL A   1      54.656  27.300  24.911  1.00  0.00    -0.200 F 
ENDBRANCH  56  70
BRANCH  57  81
ATOM     81  C   UNL A   1      41.087  28.430  28.458  1.00  0.00     0.064 A 
ATOM     82  C   UNL A   1      40.691  28.008  29.733  1.00  0.00     0.173 A 
ATOM     83  C   UNL A   1      40.111  28.954  27.600  1.00  0.00     0.173 A 
ATOM     84  F   UNL A   1      41.595  27.485  30.573  1.00  0.00    -0.203 F 
ATOM     85  C   UNL A   1      39.364  28.107  30.138  1.00  0.00     0.198 A 
ATOM     86  C   UNL A   1      38.784  29.059  28.010  1.00  0.00     0.198 A 
ATOM     87  F   UNL A   1      40.450  29.365  26.370  1.00  0.00    -0.203 F 
ATOM     88  F   UNL A   1      39.003  27.683  31.357  1.00  0.00    -0.200 F 
ATOM     89  C   UNL A   1      38.411  28.634  29.278  1.00  0.00     0.200 A 
ATOM     90  F   UNL A   1      37.866  29.569  27.178  1.00  0.00    -0.200 F 
ATOM     91  F   UNL A   1      37.133  28.729  29.668  1.00  0.00    -0.200 F 
ENDBRANCH  57  81
BRANCH  69  92
ATOM     92  C   UNL A   1      46.437  32.850  28.706  1.00  0.00     0.064 A 
ATOM     93  C   UNL A   1      46.773  33.133  30.037  1.00  0.00     0.173 A 
ATOM     94  C   UNL A   1      46.251  33.922  27.825  1.00  0.00     0.173 A 
ATOM     95  F   UNL A   1      46.947  32.134  30.916  1.00  0.00    -0.203 F 
ATOM     96  C   UNL A   1      46.914  34.448  30.471  1.00  0.00     0.198 A 
ATOM     97  C   UNL A   1      46.398  35.236  28.260  1.00  0.00     0.198 A 
ATOM     98  F   UNL A   1      45.923  33.694  26.544  1.00  0.00    -0.203 F 
ATOM     99  F   UNL A   1      47.218  34.701  31.752  1.00  0.00    -0.200 F 
ATOM    100  C   UNL A   1      46.728  35.497  29.583  1.00  0.00     0.200 A 
ATOM    101  F   UNL A   1      46.216  36.249  27.403  1.00  0.00    -0.200 F 
ATOM    102  F   UNL A   1      46.861  36.763  30.003  1.00  0.00    -0.200 F 
ENDBRANCH  69  92
ENDBRANCH  43  44
ENDBRANCH  35  38
ENDBRANCH  33  34
ENDBRANCH  32  33
ENDBRANCH  31  32
ENDBRANCH   1  31
TORSDOF 18
ENDMDL
MODEL 3
REMARK VINA RESULT:     -11.0      0.693      2.047
REMARK SMILES COc1cccc([C@@H]2CN(C(=O)c3cnn(C)c3)C[C@H]2C(=O)NCCCCCCNC(=O)c2ccc(-c3c4nc(c(-c5c(F)c(F)c(F)c(F)c5F)c5ccc([nH]5)c(-c5c(F)c(F)c(F)c(F)c5F)c5nc(c(-c6c(F)c(F)c(F)c(F)c6F)c6ccc3[nH]6)C=C5)C=C4)cc2)c1OC
REMARK SMILES IDX 26 1 25 2 24 3 23 4 21 5 22 6 20 8 8 9 9 10 10 11 19 12 7 13
REMARK SMILES IDX 3 14 4 15 96 16 5 17 6 18 2 19 1 20 97 21 98 22 11 23 12 24
REMARK SMILES IDX 13 25 14 26 18 27 15 28 16 29 17 30 27 31 28 32 29 33 30 34
REMARK SMILES IDX 31 35 32 37 33 38 34 39 95 40 35 41 94 42 36 43 37 44 38 45
REMARK SMILES IDX 88 46 39 47 93 48 87 49 89 50 40 51 92 52 86 53 85 54 41 56
REMARK SMILES IDX 73 57 53 58 72 59 54 60 57 61 71 62 90 63 55 64 56 65 70 67
REMARK SMILES IDX 91 68 58 69 42 70 43 71 51 72 44 73 45 74 49 75 52 76 46 77
REMARK SMILES IDX 47 78 50 79 48 80 74 81 75 82 83 83 76 84 77 85 81 86 84 87
REMARK SMILES IDX 78 88 79 89 82 90 80 91 59 92 60 93 68 94 61 95 62 96 66 97
REMARK SMILES IDX 69 98 63 99 64 100 67 101 65 102
REMARK H PARENT 23 7 30 36 89 55 57 66
REMARK Flexibility Score: inf
ROOT
ATOM      1  C   UNL A   1      40.576  22.673  27.563  1.00  0.00     0.002 C 
ENDROOT
BRANCH   1   2
ATOM      2  C   UNL A   1      40.039  23.796  26.670  1.00  0.00     0.021 C 
BRANCH   2   3
ATOM      3  C   UNL A   1      38.521  23.844  26.507  1.00  0.00     0.116 C 
BRANCH   3   4
ATOM      4  N   UNL A   1      38.107  23.700  25.123  1.00  0.00    -0.356 N 
ATOM      5  C   UNL A   1      36.879  23.618  24.548  1.00  0.00     0.225 C 
ATOM      6  O   UNL A   1      36.847  23.575  23.314  1.00  0.00    -0.275 OA
ATOM      7  H   UNL A   1      38.853  23.654  24.484  1.00  0.00     0.163 HD
BRANCH   5   8
ATOM      8  C   UNL A   1      35.583  23.557  25.341  1.00  0.00     0.107 C 
ATOM      9  C   UNL A   1      34.346  23.985  24.529  1.00  0.00     0.057 C 
ATOM     10  C   UNL A   1      33.222  23.067  25.021  1.00  0.00     0.129 C 
ATOM     11  N   UNL A   1      33.905  21.863  25.470  1.00  0.00    -0.337 N 
ATOM     12  C   UNL A   1      35.263  22.172  25.893  1.00  0.00     0.134 C 
BRANCH   9  13
ATOM     13  C   UNL A   1      34.026  25.470  24.572  1.00  0.00     0.004 A 
ATOM     14  C   UNL A   1      33.438  27.606  23.547  1.00  0.00     0.161 A 
ATOM     15  C   UNL A   1      33.444  28.209  24.811  1.00  0.00     0.050 A 
ATOM     16  C   UNL A   1      33.741  26.238  23.418  1.00  0.00     0.164 A 
ATOM     17  C   UNL A   1      33.710  27.456  25.949  1.00  0.00     0.004 A 
ATOM     18  C   UNL A   1      33.991  26.098  25.831  1.00  0.00     0.008 A 
BRANCH  14  19
ATOM     19  O   UNL A   1      33.236  28.375  22.428  1.00  0.00    -0.493 OA
ATOM     20  C   UNL A   1      31.931  28.952  22.376  1.00  0.00     0.278 C 
ENDBRANCH  14  19
BRANCH  16  21
ATOM     21  O   UNL A   1      33.835  25.557  22.229  1.00  0.00    -0.493 OA
ATOM     22  C   UNL A   1      32.620  25.208  21.576  1.00  0.00     0.278 C 
ENDBRANCH  16  21
ENDBRANCH   9  13
BRANCH  11  23
ATOM     23  C   UNL A   1      33.351  20.634  25.792  1.00  0.00     0.257 C 
ATOM     24  O   UNL A   1      32.905  20.415  26.918  1.00  0.00    -0.269 OA
BRANCH  23  25
ATOM     25  C   UNL A   1      33.292  19.600  24.774  1.00  0.00     0.077 A 
ATOM     26  C   UNL A   1      32.322  19.487  23.750  1.00  0.00     0.149 A 
ATOM     27  C   UNL A   1      34.056  18.457  24.626  1.00  0.00     0.122 A 
ATOM     28  N   UNL A   1      32.499  18.408  22.983  1.00  0.00    -0.181 NA
ATOM     29  N   UNL A   1      33.557  17.796  23.540  1.00  0.00    -0.275 N 
ATOM     30  C   UNL A   1      34.030  16.551  22.985  1.00  0.00     0.173 C 
ENDBRANCH  23  25
ENDBRANCH  11  23
ENDBRANCH   5   8
ENDBRANCH   3   4
ENDBRANCH   2   3
ENDBRANCH   1   2
BRANCH   1  31
ATOM     31  C   UNL A   1      40.422  21.246  27.027  1.00  0.00     0.002 C 
BRANCH  31  32
ATOM     32  C   UNL A   1      41.410  20.814  25.939  1.00  0.00     0.021 C 
BRANCH  32  33
ATOM     33  C   UNL A   1      42.293  19.611  26.267  1.00  0.00     0.116 C 
BRANCH  33  34
ATOM     34  N   UNL A   1      43.144  19.208  25.165  1.00  0.00    -0.352 N 
ATOM     35  C   UNL A   1      44.131  19.919  24.527  1.00  0.00     0.251 C 
ATOM     36  H   UNL A   1      42.995  18.295  24.827  1.00  0.00     0.163 HD
ATOM     37  O   UNL A   1      44.692  19.443  23.545  1.00  0.00    -0.269 OA
BRANCH  35  38
ATOM     38  C   UNL A   1      44.504  21.275  24.991  1.00  0.00     0.039 A 
ATOM     39  C   UNL A   1      44.106  22.372  24.220  1.00  0.00     0.014 A 
ATOM     40  C   UNL A   1      45.276  21.474  26.141  1.00  0.00     0.014 A 
ATOM     41  C   UNL A   1      44.429  23.670  24.626  1.00  0.00     0.010 A 
ATOM     42  C   UNL A   1      45.579  22.771  26.560  1.00  0.00     0.010 A 
ATOM     43  C   UNL A   1      45.153  23.877  25.809  1.00  0.00    -0.014 A 
BRANCH  43  44
ATOM     44  C   UNL A   1      45.466  25.250  26.273  1.00  0.00     0.031 A 
ATOM     45  C   UNL A   1      44.409  26.093  26.922  1.00  0.00     0.074 A 
ATOM     46  C   UNL A   1      46.695  25.755  26.068  1.00  0.00     0.049 A 
ATOM     47  N   UNL A   1      44.478  27.336  27.327  1.00  0.00    -0.248 NA
ATOM     48  C   UNL A   1      43.098  25.461  27.132  1.00  0.00     0.031 C 
ATOM     49  C   UNL A   1      47.803  25.048  25.424  1.00  0.00     0.029 A 
ATOM     50  N   UNL A   1      47.214  26.988  26.371  1.00  0.00    -0.354 N 
ATOM     51  C   UNL A   1      43.216  27.646  27.811  1.00  0.00     0.074 A 
ATOM     52  C   UNL A   1      42.399  26.460  27.655  1.00  0.00     0.031 C 
ATOM     53  C   UNL A   1      48.874  25.859  25.384  1.00  0.00     0.029 A 
ATOM     54  C   UNL A   1      48.522  27.142  25.986  1.00  0.00     0.049 A 
ATOM     55  H   UNL A   1      46.697  27.695  26.822  1.00  0.00     0.167 HD
ATOM     56  C   UNL A   1      42.779  28.814  28.338  1.00  0.00     0.037 A 
ATOM     57  C   UNL A   1      49.344  28.201  26.105  1.00  0.00     0.037 A 
ATOM     58  C   UNL A   1      43.590  29.984  28.534  1.00  0.00     0.049 A 
ATOM     59  C   UNL A   1      48.851  29.464  26.748  1.00  0.00     0.074 A 
ATOM     60  C   UNL A   1      43.235  31.198  29.098  1.00  0.00     0.029 A 
ATOM     61  N   UNL A   1      44.925  30.083  28.178  1.00  0.00    -0.354 N 
ATOM     62  N   UNL A   1      47.660  29.737  27.219  1.00  0.00    -0.248 NA
ATOM     63  C   UNL A   1      49.818  30.563  26.877  1.00  0.00     0.031 C 
ATOM     64  C   UNL A   1      44.358  32.036  29.078  1.00  0.00     0.029 A 
ATOM     65  C   UNL A   1      45.410  31.338  28.509  1.00  0.00     0.049 A 
ATOM     66  H   UNL A   1      45.452  29.368  27.754  1.00  0.00     0.167 HD
ATOM     67  C   UNL A   1      47.733  31.034  27.703  1.00  0.00     0.074 A 
ATOM     68  C   UNL A   1      49.088  31.495  27.477  1.00  0.00     0.031 C 
ATOM     69  C   UNL A   1      46.760  31.777  28.282  1.00  0.00     0.037 A 
BRANCH  56  70
ATOM     70  C   UNL A   1      41.340  28.884  28.734  1.00  0.00     0.064 A 
ATOM     71  C   UNL A   1      40.335  29.119  27.788  1.00  0.00     0.173 A 
ATOM     72  C   UNL A   1      40.964  28.683  30.070  1.00  0.00     0.173 A 
ATOM     73  F   UNL A   1      40.656  29.329  26.502  1.00  0.00    -0.203 F 
ATOM     74  C   UNL A   1      38.996  29.159  28.167  1.00  0.00     0.198 A 
ATOM     75  C   UNL A   1      39.623  28.715  30.443  1.00  0.00     0.198 A 
ATOM     76  F   UNL A   1      41.894  28.460  31.009  1.00  0.00    -0.203 F 
ATOM     77  F   UNL A   1      38.050  29.405  27.251  1.00  0.00    -0.200 F 
ATOM     78  C   UNL A   1      38.642  28.955  29.492  1.00  0.00     0.200 A 
ATOM     79  F   UNL A   1      39.281  28.520  31.724  1.00  0.00    -0.200 F 
ATOM     80  F   UNL A   1      37.352  28.996  29.855  1.00  0.00    -0.200 F 
ENDBRANCH  56  70
BRANCH  57  81
ATOM     81  C   UNL A   1      50.734  28.102  25.608  1.00  0.00     0.064 A 
ATOM     82  C   UNL A   1      51.012  28.191  24.239  1.00  0.00     0.173 A 
ATOM     83  C   UNL A   1      51.806  27.931  26.493  1.00  0.00     0.173 A 
ATOM     84  F   UNL A   1      50.008  28.337  23.361  1.00  0.00    -0.203 F 
ATOM     85  C   UNL A   1      52.319  28.112  23.768  1.00  0.00     0.198 A 
ATOM     86  C   UNL A   1      53.115  27.860  26.021  1.00  0.00     0.198 A 
ATOM     87  F   UNL A   1      51.580  27.837  27.810  1.00  0.00    -0.203 F 
ATOM     88  F   UNL A   1      52.563  28.185  22.453  1.00  0.00    -0.200 F 
ATOM     89  C   UNL A   1      53.370  27.949  24.660  1.00  0.00     0.200 A 
ATOM     90  F   UNL A   1      54.128  27.702  26.884  1.00  0.00    -0.200 F 
ATOM     91  F   UNL A   1      54.629  27.873  24.207  1.00  0.00    -0.200 F 
ENDBRANCH  57  81
BRANCH  69  92
ATOM     92  C   UNL A   1      47.129  33.158  28.718  1.00  0.00     0.064 A 
ATOM     93  C   UNL A   1      46.957  34.253  27.862  1.00  0.00     0.173 A 
ATOM     94  C   UNL A   1      47.626  33.391  30.007  1.00  0.00     0.173 A 
ATOM     95  F   UNL A   1      46.496  34.070  26.615  1.00  0.00    -0.203 F 
ATOM     96  C   UNL A   1      47.275  35.542  28.282  1.00  0.00     0.198 A 
ATOM     97  C   UNL A   1      47.938  34.681  30.426  1.00  0.00     0.198 A 
ATOM     98  F   UNL A   1      47.811  32.368  30.855  1.00  0.00    -0.203 F 
ATOM     99  F   UNL A   1      47.120  36.576  27.444  1.00  0.00    -0.200 F 
ATOM    100  C   UNL A   1      47.763  35.754  29.564  1.00  0.00     0.200 A 
ATOM    101  F   UNL A   1      48.412  34.886  31.662  1.00  0.00    -0.200 F 
ATOM    102  F   UNL A   1      48.072  36.995  29.965  1.00  0.00    -0.200 F 
ENDBRANCH  69  92
ENDBRANCH  43  44
ENDBRANCH  35  38
ENDBRANCH  33  34
ENDBRANCH  32  33
ENDBRANCH  31  32
ENDBRANCH   1  31
TORSDOF 18
ENDMDL
