MODEL 1
REMARK VINA RESULT:     -13.5      0.000      0.000
REMARK SMILES Cc1cccc(OCC(=O)Nc2cc(C(=O)NCCCCCCNC(=O)c3ccc(-c4c5nc(c(-c6c(F)c(F)c(F)c(F)c6F)c6ccc([nH]6)c(-c6c(F)c(F)c(F)c(F)c6F)c6nc(c(-c7c(F)c(F)c(F)c(F)c7F)c7ccc4[nH]7)C=C6)C=C5)cc3)c(Cl)cc2Cl)c1
REMARK SMILES IDX 19 1 18 2 17 3 15 4 16 5 14 7 12 8 13 9 93 10 92 11 94 12
REMARK SMILES IDX 90 13 91 14 11 15 9 16 10 17 8 19 7 20 6 21 1 22 2 23 3 24
REMARK SMILES IDX 95 25 4 26 5 27 20 28 21 29 22 30 23 31 24 32 25 33 26 35
REMARK SMILES IDX 27 36 28 37 89 38 29 39 88 40 30 41 31 42 32 43 82 44 33 45
REMARK SMILES IDX 87 46 81 47 83 48 34 49 86 50 80 51 79 52 35 54 67 55 47 56
REMARK SMILES IDX 66 57 48 58 51 59 65 60 84 61 49 62 50 63 64 65 85 66 52 67
REMARK SMILES IDX 36 68 37 69 45 70 38 71 39 72 43 73 46 74 40 75 41 76 44 77
REMARK SMILES IDX 42 78 68 79 69 80 77 81 70 82 71 83 75 84 78 85 72 86 73 87
REMARK SMILES IDX 76 88 74 89 53 90 54 91 62 92 55 93 56 94 60 95 63 96 57 97
REMARK SMILES IDX 58 98 61 99 59 100
REMARK H PARENT 17 6 11 18 24 34 83 53 51 64
REMARK Flexibility Score: inf
ROOT
ATOM      1  C   UNL A   1      32.101  28.022  25.986  1.00  0.00     0.021 C 
ENDROOT
BRANCH   1   2
ATOM      2  C   UNL A   1      30.857  27.266  25.506  1.00  0.00     0.116 C 
BRANCH   2   3
ATOM      3  N   UNL A   1      30.492  26.091  26.258  1.00  0.00    -0.352 N 
ATOM      4  C   UNL A   1      31.109  24.858  26.320  1.00  0.00     0.252 C 
ATOM      5  O   UNL A   1      30.736  24.073  27.190  1.00  0.00    -0.269 OA
ATOM      6  H   UNL A   1      29.680  26.182  26.809  1.00  0.00     0.163 HD
BRANCH   4   7
ATOM      7  C   UNL A   1      32.201  24.439  25.383  1.00  0.00     0.060 A 
ATOM      8  C   UNL A   1      34.511  23.720  24.966  1.00  0.00     0.061 A 
ATOM      9  C   UNL A   1      33.500  24.122  25.852  1.00  0.00     0.043 A 
ATOM     10  C   UNL A   1      34.176  23.562  23.603  1.00  0.00     0.066 A 
ATOM     11  C   UNL A   1      32.891  23.817  23.135  1.00  0.00     0.044 A 
ATOM     12  Cl  UNL A   1      35.356  23.028  22.446  1.00  0.00    -0.082 Cl
ATOM     13  C   UNL A   1      31.909  24.273  24.015  1.00  0.00     0.055 A 
ATOM     14  Cl  UNL A   1      30.380  24.659  23.302  1.00  0.00    -0.083 Cl
BRANCH   8  15
ATOM     15  N   UNL A   1      35.866  23.504  25.299  1.00  0.00    -0.322 N 
ATOM     16  C   UNL A   1      36.675  22.443  25.559  1.00  0.00     0.262 C 
ATOM     17  O   UNL A   1      37.833  22.698  25.916  1.00  0.00    -0.271 OA
ATOM     18  H   UNL A   1      36.360  24.353  25.360  1.00  0.00     0.170 HD
BRANCH  16  19
ATOM     19  C   UNL A   1      36.250  20.993  25.352  1.00  0.00     0.329 C 
BRANCH  19  20
ATOM     20  O   UNL A   1      34.932  20.631  25.723  1.00  0.00    -0.484 OA
BRANCH  20  21
ATOM     21  C   UNL A   1      34.265  19.774  24.893  1.00  0.00     0.120 A 
ATOM     22  C   UNL A   1      34.212  16.336  23.278  1.00  0.00     0.044 C 
ATOM     23  C   UNL A   1      33.812  17.713  23.715  1.00  0.00    -0.047 A 
ATOM     24  C   UNL A   1      32.635  18.268  23.196  1.00  0.00     0.003 A 
ATOM     25  C   UNL A   1      34.629  18.473  24.572  1.00  0.00     0.049 A 
ATOM     26  C   UNL A   1      32.303  19.584  23.469  1.00  0.00     0.004 A 
ATOM     27  C   UNL A   1      33.132  20.321  24.299  1.00  0.00     0.046 A 
ENDBRANCH  20  21
ENDBRANCH  19  20
ENDBRANCH  16  19
ENDBRANCH   8  15
ENDBRANCH   4   7
ENDBRANCH   2   3
ENDBRANCH   1   2
BRANCH   1  28
ATOM     28  C   UNL A   1      32.389  29.474  25.549  1.00  0.00     0.002 C 
BRANCH  28  29
ATOM     29  C   UNL A   1      31.770  30.693  26.249  1.00  0.00     0.002 C 
BRANCH  29  30
ATOM     30  C   UNL A   1      32.633  31.559  27.174  1.00  0.00     0.021 C 
BRANCH  30  31
ATOM     31  C   UNL A   1      33.891  30.918  27.774  1.00  0.00     0.116 C 
BRANCH  31  32
ATOM     32  N   UNL A   1      34.565  31.728  28.798  1.00  0.00    -0.352 N 
ATOM     33  C   UNL A   1      35.751  31.492  29.485  1.00  0.00     0.251 C 
ATOM     34  H   UNL A   1      34.106  32.566  29.035  1.00  0.00     0.163 HD
ATOM     35  O   UNL A   1      36.200  32.302  30.258  1.00  0.00    -0.269 OA
BRANCH  33  36
ATOM     36  C   UNL A   1      36.530  30.267  29.162  1.00  0.00     0.039 A 
ATOM     37  C   UNL A   1      36.731  29.315  30.170  1.00  0.00     0.014 A 
ATOM     38  C   UNL A   1      37.205  30.161  27.954  1.00  0.00     0.014 A 
ATOM     39  C   UNL A   1      37.817  28.445  30.079  1.00  0.00     0.010 A 
ATOM     40  C   UNL A   1      38.322  29.354  27.899  1.00  0.00     0.010 A 
ATOM     41  C   UNL A   1      38.688  28.575  29.000  1.00  0.00    -0.014 A 
BRANCH  41  42
ATOM     42  C   UNL A   1      40.081  28.128  29.024  1.00  0.00     0.031 A 
ATOM     43  C   UNL A   1      40.485  26.801  28.523  1.00  0.00     0.074 A 
ATOM     44  C   UNL A   1      41.032  29.024  29.377  1.00  0.00     0.049 A 
ATOM     45  N   UNL A   1      41.603  26.225  28.817  1.00  0.00    -0.248 NA
ATOM     46  C   UNL A   1      39.629  25.991  27.671  1.00  0.00     0.031 C 
ATOM     47  C   UNL A   1      42.474  28.931  29.157  1.00  0.00     0.029 A 
ATOM     48  N   UNL A   1      40.881  30.142  30.215  1.00  0.00    -0.354 N 
ATOM     49  C   UNL A   1      41.742  25.120  28.006  1.00  0.00     0.074 A 
ATOM     50  C   UNL A   1      40.451  24.978  27.371  1.00  0.00     0.031 C 
ATOM     51  C   UNL A   1      43.099  29.722  30.045  1.00  0.00     0.029 A 
ATOM     52  C   UNL A   1      42.082  30.221  30.953  1.00  0.00     0.049 A 
ATOM     53  H   UNL A   1      40.102  30.741  30.275  1.00  0.00     0.167 HD
ATOM     54  C   UNL A   1      42.975  24.543  27.879  1.00  0.00     0.037 A 
ATOM     55  C   UNL A   1      42.103  30.059  32.307  1.00  0.00     0.037 A 
ATOM     56  C   UNL A   1      43.945  25.168  28.783  1.00  0.00     0.049 A 
ATOM     57  C   UNL A   1      43.022  28.963  32.787  1.00  0.00     0.074 A 
ATOM     58  C   UNL A   1      44.948  26.106  28.589  1.00  0.00     0.029 A 
ATOM     59  N   UNL A   1      43.785  25.045  30.160  1.00  0.00    -0.354 N 
ATOM     60  N   UNL A   1      43.418  27.966  32.047  1.00  0.00    -0.248 NA
ATOM     61  C   UNL A   1      43.533  28.888  34.151  1.00  0.00     0.031 C 
ATOM     62  C   UNL A   1      45.379  26.560  29.859  1.00  0.00     0.029 A 
ATOM     63  C   UNL A   1      44.645  25.896  30.825  1.00  0.00     0.049 A 
ATOM     64  H   UNL A   1      43.146  24.438  30.598  1.00  0.00     0.167 HD
ATOM     65  C   UNL A   1      44.185  27.116  32.802  1.00  0.00     0.074 A 
ATOM     66  C   UNL A   1      44.251  27.754  34.103  1.00  0.00     0.031 C 
ATOM     67  C   UNL A   1      44.678  25.950  32.280  1.00  0.00     0.037 A 
BRANCH  54  68
ATOM     68  C   UNL A   1      43.397  23.610  26.752  1.00  0.00     0.064 A 
ATOM     69  C   UNL A   1      43.004  22.249  26.753  1.00  0.00     0.173 A 
ATOM     70  C   UNL A   1      44.236  23.960  25.678  1.00  0.00     0.173 A 
ATOM     71  F   UNL A   1      42.105  21.777  27.625  1.00  0.00    -0.203 F 
ATOM     72  C   UNL A   1      43.516  21.309  25.851  1.00  0.00     0.198 A 
ATOM     73  C   UNL A   1      44.786  23.014  24.803  1.00  0.00     0.198 A 
ATOM     74  F   UNL A   1      44.502  25.234  25.383  1.00  0.00    -0.203 F 
ATOM     75  F   UNL A   1      43.116  20.032  25.922  1.00  0.00    -0.200 F 
ATOM     76  C   UNL A   1      44.439  21.685  24.900  1.00  0.00     0.200 A 
ATOM     77  F   UNL A   1      45.652  23.412  23.860  1.00  0.00    -0.200 F 
ATOM     78  F   UNL A   1      44.963  20.781  24.062  1.00  0.00    -0.200 F 
ENDBRANCH  54  68
BRANCH  55  79
ATOM     79  C   UNL A   1      40.822  30.423  32.967  1.00  0.00     0.064 A 
ATOM     80  C   UNL A   1      40.488  31.785  33.090  1.00  0.00     0.173 A 
ATOM     81  C   UNL A   1      39.795  29.485  33.132  1.00  0.00     0.173 A 
ATOM     82  F   UNL A   1      41.436  32.723  32.931  1.00  0.00    -0.203 F 
ATOM     83  C   UNL A   1      39.168  32.195  33.254  1.00  0.00     0.198 A 
ATOM     84  C   UNL A   1      38.474  29.901  33.313  1.00  0.00     0.198 A 
ATOM     85  F   UNL A   1      40.043  28.174  33.001  1.00  0.00    -0.203 F 
ATOM     86  F   UNL A   1      38.868  33.501  33.249  1.00  0.00    -0.200 F 
ATOM     87  C   UNL A   1      38.158  31.251  33.340  1.00  0.00     0.200 A 
ATOM     88  F   UNL A   1      37.490  28.990  33.356  1.00  0.00    -0.200 F 
ATOM     89  F   UNL A   1      36.877  31.642  33.400  1.00  0.00    -0.200 F 
ENDBRANCH  55  79
BRANCH  67  90
ATOM     90  C   UNL A   1      45.321  24.806  33.041  1.00  0.00     0.064 A 
ATOM     91  C   UNL A   1      46.607  24.843  33.607  1.00  0.00     0.173 A 
ATOM     92  C   UNL A   1      44.571  23.638  33.343  1.00  0.00     0.173 A 
ATOM     93  F   UNL A   1      47.378  25.934  33.526  1.00  0.00    -0.203 F 
ATOM     94  C   UNL A   1      47.129  23.774  34.345  1.00  0.00     0.198 A 
ATOM     95  C   UNL A   1      45.072  22.602  34.132  1.00  0.00     0.198 A 
ATOM     96  F   UNL A   1      43.313  23.476  32.909  1.00  0.00    -0.203 F 
ATOM     97  F   UNL A   1      48.380  23.849  34.821  1.00  0.00    -0.200 F 
ATOM     98  C   UNL A   1      46.360  22.660  34.618  1.00  0.00     0.200 A 
ATOM     99  F   UNL A   1      44.289  21.556  34.434  1.00  0.00    -0.200 F 
ATOM    100  F   UNL A   1      46.848  21.663  35.367  1.00  0.00    -0.200 F 
ENDBRANCH  67  90
ENDBRANCH  41  42
ENDBRANCH  33  36
ENDBRANCH  31  32
ENDBRANCH  30  31
ENDBRANCH  29  30
ENDBRANCH  28  29
ENDBRANCH   1  28
TORSDOF 17
ENDMDL
MODEL 2
REMARK VINA RESULT:     -13.4      3.136      5.211
REMARK SMILES Cc1cccc(OCC(=O)Nc2cc(C(=O)NCCCCCCNC(=O)c3ccc(-c4c5nc(c(-c6c(F)c(F)c(F)c(F)c6F)c6ccc([nH]6)c(-c6c(F)c(F)c(F)c(F)c6F)c6nc(c(-c7c(F)c(F)c(F)c(F)c7F)c7ccc4[nH]7)C=C6)C=C5)cc3)c(Cl)cc2Cl)c1
REMARK SMILES IDX 19 1 18 2 17 3 15 4 16 5 14 7 12 8 13 9 93 10 92 11 94 12
REMARK SMILES IDX 90 13 91 14 11 15 9 16 10 17 8 19 7 20 6 21 1 22 2 23 3 24
REMARK SMILES IDX 95 25 4 26 5 27 20 28 21 29 22 30 23 31 24 32 25 33 26 35
REMARK SMILES IDX 27 36 28 37 89 38 29 39 88 40 30 41 31 42 32 43 82 44 33 45
REMARK SMILES IDX 87 46 81 47 83 48 34 49 86 50 80 51 79 52 35 54 67 55 47 56
REMARK SMILES IDX 66 57 48 58 51 59 65 60 84 61 49 62 50 63 64 65 85 66 52 67
REMARK SMILES IDX 36 68 37 69 45 70 38 71 39 72 43 73 46 74 40 75 41 76 44 77
REMARK SMILES IDX 42 78 68 79 69 80 77 81 70 82 71 83 75 84 78 85 72 86 73 87
REMARK SMILES IDX 76 88 74 89 53 90 54 91 62 92 55 93 56 94 60 95 63 96 57 97
REMARK SMILES IDX 58 98 61 99 59 100
REMARK H PARENT 17 6 11 18 24 34 83 53 51 64
REMARK Flexibility Score: inf
ROOT
ATOM      1  C   UNL A   1      35.158  29.375  27.581  1.00  0.00     0.021 C 
ENDROOT
BRANCH   1   2
ATOM      2  C   UNL A   1      34.079  28.667  26.756  1.00  0.00     0.116 C 
BRANCH   2   3
ATOM      3  N   UNL A   1      33.125  29.516  26.086  1.00  0.00    -0.352 N 
ATOM      4  C   UNL A   1      31.993  29.176  25.372  1.00  0.00     0.252 C 
ATOM      5  O   UNL A   1      31.217  30.079  25.065  1.00  0.00    -0.269 OA
ATOM      6  H   UNL A   1      33.308  30.482  26.147  1.00  0.00     0.163 HD
BRANCH   4   7
ATOM      7  C   UNL A   1      31.675  27.772  24.957  1.00  0.00     0.060 A 
ATOM      8  C   UNL A   1      30.622  25.596  25.385  1.00  0.00     0.061 A 
ATOM      9  C   UNL A   1      30.923  26.905  25.789  1.00  0.00     0.043 A 
ATOM     10  C   UNL A   1      31.021  25.190  24.092  1.00  0.00     0.066 A 
ATOM     11  C   UNL A   1      31.714  26.047  23.242  1.00  0.00     0.044 A 
ATOM     12  Cl  UNL A   1      30.653  23.602  23.497  1.00  0.00    -0.082 Cl
ATOM     13  C   UNL A   1      32.059  27.327  23.677  1.00  0.00     0.055 A 
ATOM     14  Cl  UNL A   1      33.012  28.264  22.577  1.00  0.00    -0.083 Cl
BRANCH   8  15
ATOM     15  N   UNL A   1      29.995  24.609  26.177  1.00  0.00    -0.322 N 
ATOM     16  C   UNL A   1      30.365  23.504  26.876  1.00  0.00     0.262 C 
ATOM     17  O   UNL A   1      29.455  22.832  27.380  1.00  0.00    -0.271 OA
ATOM     18  H   UNL A   1      29.025  24.764  26.241  1.00  0.00     0.170 HD
BRANCH  16  19
ATOM     19  C   UNL A   1      31.819  23.118  27.128  1.00  0.00     0.329 C 
BRANCH  19  20
ATOM     20  O   UNL A   1      32.460  22.292  26.172  1.00  0.00    -0.484 OA
BRANCH  20  21
ATOM     21  C   UNL A   1      33.679  22.704  25.713  1.00  0.00     0.120 A 
ATOM     22  C   UNL A   1      37.026  21.656  24.251  1.00  0.00     0.044 C 
ATOM     23  C   UNL A   1      35.881  22.493  24.739  1.00  0.00    -0.047 A 
ATOM     24  C   UNL A   1      36.043  23.883  24.805  1.00  0.00     0.003 A 
ATOM     25  C   UNL A   1      34.688  21.903  25.194  1.00  0.00     0.049 A 
ATOM     26  C   UNL A   1      35.063  24.675  25.376  1.00  0.00     0.004 A 
ATOM     27  C   UNL A   1      33.904  24.071  25.836  1.00  0.00     0.046 A 
ENDBRANCH  20  21
ENDBRANCH  19  20
ENDBRANCH  16  19
ENDBRANCH   8  15
ENDBRANCH   4   7
ENDBRANCH   2   3
ENDBRANCH   1   2
BRANCH   1  28
ATOM     28  C   UNL A   1      35.269  30.914  27.626  1.00  0.00     0.002 C 
BRANCH  28  29
ATOM     29  C   UNL A   1      34.521  31.774  28.655  1.00  0.00     0.002 C 
BRANCH  29  30
ATOM     30  C   UNL A   1      34.152  33.222  28.313  1.00  0.00     0.021 C 
BRANCH  30  31
ATOM     31  C   UNL A   1      34.579  34.314  29.302  1.00  0.00     0.116 C 
BRANCH  31  32
ATOM     32  N   UNL A   1      33.524  34.758  30.222  1.00  0.00    -0.352 N 
ATOM     33  C   UNL A   1      33.472  34.709  31.611  1.00  0.00     0.251 C 
ATOM     34  H   UNL A   1      32.731  35.149  29.789  1.00  0.00     0.163 HD
ATOM     35  O   UNL A   1      32.544  35.181  32.221  1.00  0.00    -0.269 OA
BRANCH  33  36
ATOM     36  C   UNL A   1      34.644  34.168  32.349  1.00  0.00     0.039 A 
ATOM     37  C   UNL A   1      35.776  34.979  32.500  1.00  0.00     0.014 A 
ATOM     38  C   UNL A   1      34.690  32.828  32.709  1.00  0.00     0.014 A 
ATOM     39  C   UNL A   1      37.017  34.383  32.722  1.00  0.00     0.010 A 
ATOM     40  C   UNL A   1      35.926  32.232  32.853  1.00  0.00     0.010 A 
ATOM     41  C   UNL A   1      37.094  32.993  32.754  1.00  0.00    -0.014 A 
BRANCH  41  42
ATOM     42  C   UNL A   1      38.315  32.241  32.464  1.00  0.00     0.031 A 
ATOM     43  C   UNL A   1      38.299  31.001  31.666  1.00  0.00     0.074 A 
ATOM     44  C   UNL A   1      39.501  32.791  32.814  1.00  0.00     0.049 A 
ATOM     45  N   UNL A   1      39.254  30.131  31.659  1.00  0.00    -0.248 NA
ATOM     46  C   UNL A   1      37.170  30.620  30.832  1.00  0.00     0.031 C 
ATOM     47  C   UNL A   1      40.834  32.418  32.346  1.00  0.00     0.029 A 
ATOM     48  N   UNL A   1      39.743  33.700  33.859  1.00  0.00    -0.354 N 
ATOM     49  C   UNL A   1      39.006  29.231  30.646  1.00  0.00     0.074 A 
ATOM     50  C   UNL A   1      37.660  29.536  30.217  1.00  0.00     0.031 C 
ATOM     51  C   UNL A   1      41.740  32.826  33.249  1.00  0.00     0.029 A 
ATOM     52  C   UNL A   1      40.999  33.334  34.389  1.00  0.00     0.049 A 
ATOM     53  H   UNL A   1      39.160  34.435  34.156  1.00  0.00     0.167 HD
ATOM     54  C   UNL A   1      40.024  28.427  30.212  1.00  0.00     0.037 A 
ATOM     55  C   UNL A   1      41.130  32.877  35.667  1.00  0.00     0.037 A 
ATOM     56  C   UNL A   1      41.219  28.595  31.043  1.00  0.00     0.049 A 
ATOM     57  C   UNL A   1      41.780  31.520  35.777  1.00  0.00     0.074 A 
ATOM     58  C   UNL A   1      42.403  29.293  30.863  1.00  0.00     0.029 A 
ATOM     59  N   UNL A   1      41.190  28.211  32.380  1.00  0.00    -0.354 N 
ATOM     60  N   UNL A   1      41.815  30.647  34.811  1.00  0.00    -0.248 NA
ATOM     61  C   UNL A   1      42.405  31.029  37.001  1.00  0.00     0.031 C 
ATOM     62  C   UNL A   1      43.080  29.343  32.106  1.00  0.00     0.029 A 
ATOM     63  C   UNL A   1      42.312  28.671  33.040  1.00  0.00     0.049 A 
ATOM     64  H   UNL A   1      40.469  27.687  32.797  1.00  0.00     0.167 HD
ATOM     65  C   UNL A   1      42.415  29.496  35.257  1.00  0.00     0.074 A 
ATOM     66  C   UNL A   1      42.793  29.798  36.625  1.00  0.00     0.031 C 
ATOM     67  C   UNL A   1      42.524  28.393  34.454  1.00  0.00     0.037 A 
BRANCH  54  68
ATOM     68  C   UNL A   1      40.056  27.694  28.877  1.00  0.00     0.064 A 
ATOM     69  C   UNL A   1      39.529  26.385  28.756  1.00  0.00     0.173 A 
ATOM     70  C   UNL A   1      40.645  28.182  27.696  1.00  0.00     0.173 A 
ATOM     71  F   UNL A   1      38.820  25.818  29.741  1.00  0.00    -0.203 F 
ATOM     72  C   UNL A   1      39.702  25.598  27.612  1.00  0.00     0.198 A 
ATOM     73  C   UNL A   1      40.860  27.382  26.567  1.00  0.00     0.198 A 
ATOM     74  F   UNL A   1      40.969  29.469  27.555  1.00  0.00    -0.203 F 
ATOM     75  F   UNL A   1      39.194  24.358  27.574  1.00  0.00    -0.200 F 
ATOM     76  C   UNL A   1      40.404  26.083  26.531  1.00  0.00     0.200 A 
ATOM     77  F   UNL A   1      41.511  27.891  25.511  1.00  0.00    -0.200 F 
ATOM     78  F   UNL A   1      40.608  25.319  25.450  1.00  0.00    -0.200 F 
ENDBRANCH  54  68
BRANCH  55  79
ATOM     79  C   UNL A   1      40.072  33.372  36.586  1.00  0.00     0.064 A 
ATOM     80  C   UNL A   1      38.971  32.539  36.860  1.00  0.00     0.173 A 
ATOM     81  C   UNL A   1      40.305  34.447  37.453  1.00  0.00     0.173 A 
ATOM     82  F   UNL A   1      38.712  31.489  36.064  1.00  0.00    -0.203 F 
ATOM     83  C   UNL A   1      38.207  32.705  38.012  1.00  0.00     0.198 A 
ATOM     84  C   UNL A   1      39.525  34.619  38.599  1.00  0.00     0.198 A 
ATOM     85  F   UNL A   1      41.352  35.261  37.262  1.00  0.00    -0.203 F 
ATOM     86  F   UNL A   1      37.240  31.824  38.304  1.00  0.00    -0.200 F 
ATOM     87  C   UNL A   1      38.501  33.731  38.894  1.00  0.00     0.200 A 
ATOM     88  F   UNL A   1      39.834  35.587  39.474  1.00  0.00    -0.200 F 
ATOM     89  F   UNL A   1      37.833  33.835  40.051  1.00  0.00    -0.200 F 
ENDBRANCH  55  79
BRANCH  67  90
ATOM     90  C   UNL A   1      42.927  26.992  34.873  1.00  0.00     0.064 A 
ATOM     91  C   UNL A   1      42.026  25.942  35.126  1.00  0.00     0.173 A 
ATOM     92  C   UNL A   1      44.297  26.621  34.904  1.00  0.00     0.173 A 
ATOM     93  F   UNL A   1      40.704  26.105  34.996  1.00  0.00    -0.203 F 
ATOM     94  C   UNL A   1      42.457  24.652  35.458  1.00  0.00     0.198 A 
ATOM     95  C   UNL A   1      44.721  25.319  35.174  1.00  0.00     0.198 A 
ATOM     96  F   UNL A   1      45.272  27.502  34.643  1.00  0.00    -0.203 F 
ATOM     97  F   UNL A   1      41.551  23.703  35.734  1.00  0.00    -0.200 F 
ATOM     98  C   UNL A   1      43.802  24.337  35.470  1.00  0.00     0.200 A 
ATOM     99  F   UNL A   1      46.027  25.020  35.123  1.00  0.00    -0.200 F 
ATOM    100  F   UNL A   1      44.206  23.089  35.740  1.00  0.00    -0.200 F 
ENDBRANCH  67  90
ENDBRANCH  41  42
ENDBRANCH  33  36
ENDBRANCH  31  32
ENDBRANCH  30  31
ENDBRANCH  29  30
ENDBRANCH  28  29
ENDBRANCH   1  28
TORSDOF 17
ENDMDL
MODEL 3
REMARK VINA RESULT:     -12.9      3.576     10.009
REMARK SMILES Cc1cccc(OCC(=O)Nc2cc(C(=O)NCCCCCCNC(=O)c3ccc(-c4c5nc(c(-c6c(F)c(F)c(F)c(F)c6F)c6ccc([nH]6)c(-c6c(F)c(F)c(F)c(F)c6F)c6nc(c(-c7c(F)c(F)c(F)c(F)c7F)c7ccc4[nH]7)C=C6)C=C5)cc3)c(Cl)cc2Cl)c1
REMARK SMILES IDX 19 1 18 2 17 3 15 4 16 5 14 7 12 8 13 9 93 10 92 11 94 12
REMARK SMILES IDX 90 13 91 14 11 15 9 16 10 17 8 19 7 20 6 21 1 22 2 23 3 24
REMARK SMILES IDX 95 25 4 26 5 27 20 28 21 29 22 30 23 31 24 32 25 33 26 35
REMARK SMILES IDX 27 36 28 37 89 38 29 39 88 40 30 41 31 42 32 43 82 44 33 45
REMARK SMILES IDX 87 46 81 47 83 48 34 49 86 50 80 51 79 52 35 54 67 55 47 56
REMARK SMILES IDX 66 57 48 58 51 59 65 60 84 61 49 62 50 63 64 65 85 66 52 67
REMARK SMILES IDX 36 68 37 69 45 70 38 71 39 72 43 73 46 74 40 75 41 76 44 77
REMARK SMILES IDX 42 78 68 79 69 80 77 81 70 82 71 83 75 84 78 85 72 86 73 87
REMARK SMILES IDX 76 88 74 89 53 90 54 91 62 92 55 93 56 94 60 95 63 96 57 97
REMARK SMILES IDX 58 98 61 99 59 100
REMARK H PARENT 17 6 11 18 24 34 83 53 51 64
REMARK Flexibility Score: inf
ROOT
ATOM      1  C   UNL A   1      36.470  21.710  24.235  1.00  0.00     0.021 C 
ENDROOT
BRANCH   1   2
ATOM      2  C   UNL A   1      35.466  20.967  25.121  1.00  0.00     0.116 C 
BRANCH   2   3
ATOM      3  N   UNL A   1      35.030  21.654  26.311  1.00  0.00    -0.352 N 
ATOM      4  C   UNL A   1      34.101  22.665  26.454  1.00  0.00     0.252 C 
ATOM      5  O   UNL A   1      33.739  22.955  27.593  1.00  0.00    -0.269 OA
ATOM      6  H   UNL A   1      35.459  21.358  27.147  1.00  0.00     0.163 HD
BRANCH   4   7
ATOM      7  C   UNL A   1      33.522  23.417  25.294  1.00  0.00     0.060 A 
ATOM      8  C   UNL A   1      33.482  25.374  23.812  1.00  0.00     0.061 A 
ATOM      9  C   UNL A   1      34.025  24.684  24.906  1.00  0.00     0.043 A 
ATOM     10  C   UNL A   1      32.472  24.736  23.058  1.00  0.00     0.066 A 
ATOM     11  C   UNL A   1      32.004  23.470  23.394  1.00  0.00     0.044 A 
ATOM     12  Cl  UNL A   1      31.775  25.501  21.664  1.00  0.00    -0.082 Cl
ATOM     13  C   UNL A   1      32.510  22.818  24.519  1.00  0.00     0.055 A 
ATOM     14  Cl  UNL A   1      31.777  21.297  24.901  1.00  0.00    -0.083 Cl
BRANCH   8  15
ATOM     15  N   UNL A   1      33.815  26.687  23.414  1.00  0.00    -0.322 N 
ATOM     16  C   UNL A   1      33.821  27.929  23.969  1.00  0.00     0.262 C 
ATOM     17  O   UNL A   1      34.110  28.872  23.220  1.00  0.00    -0.271 OA
ATOM     18  H   UNL A   1      34.129  26.711  22.481  1.00  0.00     0.170 HD
BRANCH  16  19
ATOM     19  C   UNL A   1      33.576  28.187  25.451  1.00  0.00     0.329 C 
BRANCH  19  20
ATOM     20  O   UNL A   1      32.280  28.598  25.846  1.00  0.00    -0.484 OA
BRANCH  20  21
ATOM     21  C   UNL A   1      31.241  28.250  25.029  1.00  0.00     0.120 A 
ATOM     22  C   UNL A   1      28.946  29.325  22.199  1.00  0.00     0.044 C 
ATOM     23  C   UNL A   1      29.628  28.497  23.246  1.00  0.00    -0.047 A 
ATOM     24  C   UNL A   1      29.149  27.206  23.501  1.00  0.00     0.003 A 
ATOM     25  C   UNL A   1      30.684  29.019  24.015  1.00  0.00     0.049 A 
ATOM     26  C   UNL A   1      29.663  26.463  24.549  1.00  0.00     0.004 A 
ATOM     27  C   UNL A   1      30.689  27.004  25.307  1.00  0.00     0.046 A 
ENDBRANCH  20  21
ENDBRANCH  19  20
ENDBRANCH  16  19
ENDBRANCH   8  15
ENDBRANCH   4   7
ENDBRANCH   2   3
ENDBRANCH   1   2
BRANCH   1  28
ATOM     28  C   UNL A   1      37.156  23.013  24.699  1.00  0.00     0.002 C 
BRANCH  28  29
ATOM     29  C   UNL A   1      38.157  23.059  25.862  1.00  0.00     0.002 C 
BRANCH  29  30
ATOM     30  C   UNL A   1      39.073  21.859  26.125  1.00  0.00     0.021 C 
BRANCH  30  31
ATOM     31  C   UNL A   1      40.159  22.017  27.198  1.00  0.00     0.116 C 
BRANCH  31  32
ATOM     32  N   UNL A   1      41.465  22.456  26.690  1.00  0.00    -0.352 N 
ATOM     33  C   UNL A   1      41.954  23.741  26.473  1.00  0.00     0.251 C 
ATOM     34  H   UNL A   1      42.091  21.729  26.468  1.00  0.00     0.163 HD
ATOM     35  O   UNL A   1      43.088  23.927  26.106  1.00  0.00    -0.269 OA
BRANCH  33  36
ATOM     36  C   UNL A   1      41.088  24.899  26.817  1.00  0.00     0.039 A 
ATOM     37  C   UNL A   1      41.166  26.054  26.028  1.00  0.00     0.014 A 
ATOM     38  C   UNL A   1      40.365  24.909  28.002  1.00  0.00     0.014 A 
ATOM     39  C   UNL A   1      40.780  27.279  26.571  1.00  0.00     0.010 A 
ATOM     40  C   UNL A   1      40.054  26.129  28.567  1.00  0.00     0.010 A 
ATOM     41  C   UNL A   1      40.358  27.318  27.897  1.00  0.00    -0.014 A 
BRANCH  41  42
ATOM     42  C   UNL A   1      40.419  28.517  28.733  1.00  0.00     0.031 A 
ATOM     43  C   UNL A   1      39.337  29.519  28.743  1.00  0.00     0.074 A 
ATOM     44  C   UNL A   1      41.429  28.620  29.627  1.00  0.00     0.049 A 
ATOM     45  N   UNL A   1      39.471  30.727  29.178  1.00  0.00    -0.248 NA
ATOM     46  C   UNL A   1      38.009  29.244  28.216  1.00  0.00     0.031 C 
ATOM     47  C   UNL A   1      41.520  29.521  30.775  1.00  0.00     0.029 A 
ATOM     48  N   UNL A   1      42.706  28.040  29.541  1.00  0.00    -0.354 N 
ATOM     49  C   UNL A   1      38.221  31.300  29.247  1.00  0.00     0.074 A 
ATOM     50  C   UNL A   1      37.360  30.362  28.562  1.00  0.00     0.031 C 
ATOM     51  C   UNL A   1      42.813  29.675  31.103  1.00  0.00     0.029 A 
ATOM     52  C   UNL A   1      43.590  29.000  30.080  1.00  0.00     0.049 A 
ATOM     53  H   UNL A   1      42.934  27.153  29.182  1.00  0.00     0.167 HD
ATOM     54  C   UNL A   1      38.053  32.436  29.989  1.00  0.00     0.037 A 
ATOM     55  C   UNL A   1      44.553  29.593  29.318  1.00  0.00     0.037 A 
ATOM     56  C   UNL A   1      39.336  32.929  30.496  1.00  0.00     0.049 A 
ATOM     57  C   UNL A   1      44.483  31.100  29.293  1.00  0.00     0.074 A 
ATOM     58  C   UNL A   1      39.957  32.847  31.733  1.00  0.00     0.029 A 
ATOM     59  N   UNL A   1      40.300  33.389  29.604  1.00  0.00    -0.354 N 
ATOM     60  N   UNL A   1      43.408  31.786  29.559  1.00  0.00    -0.248 NA
ATOM     61  C   UNL A   1      45.613  31.947  28.925  1.00  0.00     0.031 C 
ATOM     62  C   UNL A   1      41.307  33.244  31.577  1.00  0.00     0.029 A 
ATOM     63  C   UNL A   1      41.507  33.574  30.248  1.00  0.00     0.049 A 
ATOM     64  H   UNL A   1      40.143  33.558  28.647  1.00  0.00     0.167 HD
ATOM     65  C   UNL A   1      43.663  33.122  29.379  1.00  0.00     0.074 A 
ATOM     66  C   UNL A   1      45.065  33.171  29.012  1.00  0.00     0.031 C 
ATOM     67  C   UNL A   1      42.679  34.061  29.533  1.00  0.00     0.037 A 
BRANCH  54  68
ATOM     68  C   UNL A   1      36.718  32.960  30.505  1.00  0.00     0.064 A 
ATOM     69  C   UNL A   1      35.886  33.757  29.681  1.00  0.00     0.173 A 
ATOM     70  C   UNL A   1      36.223  32.778  31.809  1.00  0.00     0.173 A 
ATOM     71  F   UNL A   1      36.138  33.923  28.377  1.00  0.00    -0.203 F 
ATOM     72  C   UNL A   1      34.749  34.418  30.161  1.00  0.00     0.198 A 
ATOM     73  C   UNL A   1      35.113  33.474  32.304  1.00  0.00     0.198 A 
ATOM     74  F   UNL A   1      36.744  31.869  32.635  1.00  0.00    -0.203 F 
ATOM     75  F   UNL A   1      34.018  35.173  29.330  1.00  0.00    -0.200 F 
ATOM     76  C   UNL A   1      34.385  34.308  31.485  1.00  0.00     0.200 A 
ATOM     77  F   UNL A   1      34.755  33.319  33.588  1.00  0.00    -0.200 F 
ATOM     78  F   UNL A   1      33.322  34.971  31.959  1.00  0.00    -0.200 F 
ENDBRANCH  54  68
BRANCH  55  79
ATOM     79  C   UNL A   1      45.000  28.759  28.172  1.00  0.00     0.064 A 
ATOM     80  C   UNL A   1      45.896  27.701  28.416  1.00  0.00     0.173 A 
ATOM     81  C   UNL A   1      44.299  28.751  26.960  1.00  0.00     0.173 A 
ATOM     82  F   UNL A   1      46.584  27.659  29.568  1.00  0.00    -0.203 F 
ATOM     83  C   UNL A   1      45.999  26.624  27.540  1.00  0.00     0.198 A 
ATOM     84  C   UNL A   1      44.419  27.676  26.076  1.00  0.00     0.198 A 
ATOM     85  F   UNL A   1      43.413  29.716  26.679  1.00  0.00    -0.203 F 
ATOM     86  F   UNL A   1      46.772  25.576  27.858  1.00  0.00    -0.200 F 
ATOM     87  C   UNL A   1      45.241  26.601  26.381  1.00  0.00     0.200 A 
ATOM     88  F   UNL A   1      43.656  27.633  24.974  1.00  0.00    -0.200 F 
ATOM     89  F   UNL A   1      45.263  25.523  25.585  1.00  0.00    -0.200 F 
ENDBRANCH  55  79
BRANCH  67  90
ATOM     90  C   UNL A   1      42.738  35.523  29.134  1.00  0.00     0.064 A 
ATOM     91  C   UNL A   1      42.086  36.075  28.017  1.00  0.00     0.173 A 
ATOM     92  C   UNL A   1      43.375  36.470  29.979  1.00  0.00     0.173 A 
ATOM     93  F   UNL A   1      41.328  35.327  27.207  1.00  0.00    -0.203 F 
ATOM     94  C   UNL A   1      42.131  37.443  27.726  1.00  0.00     0.198 A 
ATOM     95  C   UNL A   1      43.365  37.841  29.719  1.00  0.00     0.198 A 
ATOM     96  F   UNL A   1      44.003  36.101  31.104  1.00  0.00    -0.203 F 
ATOM     97  F   UNL A   1      41.529  37.905  26.622  1.00  0.00    -0.200 F 
ATOM     98  C   UNL A   1      42.759  38.328  28.582  1.00  0.00     0.200 A 
ATOM     99  F   UNL A   1      43.929  38.689  30.592  1.00  0.00    -0.200 F 
ATOM    100  F   UNL A   1      42.757  39.642  28.324  1.00  0.00    -0.200 F 
ENDBRANCH  67  90
ENDBRANCH  41  42
ENDBRANCH  33  36
ENDBRANCH  31  32
ENDBRANCH  30  31
ENDBRANCH  29  30
ENDBRANCH  28  29
ENDBRANCH   1  28
TORSDOF 17
ENDMDL
