MODEL 1
REMARK VINA RESULT:     -12.9      0.000      0.000
REMARK SMILES NS(=O)(=O)c1ccc(-n2nc(C(=O)NCCCC(=O)NCCCCCCNC(=O)c3ccc(-c4c5nc(c(-c6c(F)c(F)c(F)c(F)c6F)c6ccc([nH]6)c(-c6c(F)c(F)c(F)c(F)c6F)c6nc(c(-c7c(F)c(F)c(F)c(F)c7F)c7ccc4[nH]7)C=C6)C=C5)cc3)cc2-c2ccccc2)cc1
REMARK SMILES IDX 21 1 20 2 18 3 19 4 17 6 16 7 15 8 14 9 12 10 13 11 11 13
REMARK SMILES IDX 9 14 10 15 94 16 93 17 8 18 5 19 6 20 102 21 7 22 101 23
REMARK SMILES IDX 2 24 3 25 4 26 1 27 95 30 96 31 100 32 97 33 99 34 98 35
REMARK SMILES IDX 22 36 23 37 24 38 25 39 26 40 27 41 28 42 29 44 30 45 31 46
REMARK SMILES IDX 92 47 32 48 91 49 33 50 34 51 35 52 85 53 36 54 90 55 84 56
REMARK SMILES IDX 86 57 37 58 89 59 83 60 82 61 38 63 70 64 50 65 69 66 51 67
REMARK SMILES IDX 54 68 68 69 87 70 52 71 53 72 67 74 88 75 55 76 39 77 40 78
REMARK SMILES IDX 48 79 41 80 42 81 46 82 49 83 43 84 44 85 47 86 45 87 71 88
REMARK SMILES IDX 72 89 80 90 73 91 74 92 78 93 81 94 75 95 76 96 79 97 77 98
REMARK SMILES IDX 56 99 57 100 65 101 58 102 59 103 63 104 66 105 60 106
REMARK SMILES IDX 61 107 64 108 62 109
REMARK H PARENT 20 5 14 12 1 28 1 29 27 43 86 62 54 73
REMARK Flexibility Score: inf
ROOT
ATOM      1  C   UNL A   1      37.077  23.537  25.674  1.00  0.00     0.116 C 
ENDROOT
BRANCH   1   2
ATOM      2  N   UNL A   1      36.176  22.835  26.564  1.00  0.00    -0.356 N 
ATOM      3  C   UNL A   1      35.157  21.982  26.282  1.00  0.00     0.220 C 
ATOM      4  O   UNL A   1      34.441  21.599  27.207  1.00  0.00    -0.275 OA
ATOM      5  H   UNL A   1      36.325  23.004  27.523  1.00  0.00     0.163 HD
BRANCH   3   6
ATOM      6  C   UNL A   1      34.929  21.491  24.865  1.00  0.00     0.102 C 
BRANCH   6   7
ATOM      7  C   UNL A   1      33.671  20.643  24.673  1.00  0.00     0.031 C 
BRANCH   7   8
ATOM      8  C   UNL A   1      32.348  21.404  24.598  1.00  0.00     0.116 C 
BRANCH   8   9
ATOM      9  N   UNL A   1      31.662  21.559  25.876  1.00  0.00    -0.351 N 
ATOM     10  C   UNL A   1      31.132  22.685  26.482  1.00  0.00     0.271 C 
ATOM     11  O   UNL A   1      30.528  22.532  27.543  1.00  0.00    -0.267 OA
ATOM     12  H   UNL A   1      31.557  20.727  26.390  1.00  0.00     0.163 HD
BRANCH  10  13
ATOM     13  C   UNL A   1      31.318  24.000  25.854  1.00  0.00     0.151 A 
ATOM     14  N   UNL A   1      30.874  25.778  24.745  1.00  0.00    -0.232 N 
ATOM     15  N   UNL A   1      30.395  24.544  25.026  1.00  0.00    -0.162 NA
ATOM     16  C   UNL A   1      31.930  26.087  25.583  1.00  0.00     0.075 A 
ATOM     17  C   UNL A   1      32.394  24.892  26.060  1.00  0.00     0.065 A 
BRANCH  14  18
ATOM     18  C   UNL A   1      30.241  26.697  23.856  1.00  0.00     0.065 A 
ATOM     19  C   UNL A   1      29.077  28.927  22.661  1.00  0.00     0.082 A 
ATOM     20  C   UNL A   1      30.450  28.727  22.530  1.00  0.00     0.024 A 
ATOM     21  C   UNL A   1      28.273  27.982  23.316  1.00  0.00     0.024 A 
ATOM     22  C   UNL A   1      31.032  27.609  23.125  1.00  0.00     0.030 A 
ATOM     23  C   UNL A   1      28.852  26.845  23.894  1.00  0.00     0.030 A 
BRANCH  19  24
ATOM     24  S   UNL A   1      28.358  30.450  22.098  1.00  0.00     0.238 S 
ATOM     25  O   UNL A   1      27.361  30.853  23.073  1.00  0.00    -0.207 OA
ATOM     26  O   UNL A   1      28.056  30.306  20.699  1.00  0.00    -0.207 OA
BRANCH  24  27
ATOM     27  N   UNL A   1      29.609  31.560  22.272  1.00  0.00    -0.225 NA
ATOM     28  H   UNL A   1      29.671  31.852  23.247  1.00  0.00     0.137 HD
ATOM     29  H   UNL A   1      29.427  32.372  21.684  1.00  0.00     0.137 HD
ENDBRANCH  24  27
ENDBRANCH  19  24
ENDBRANCH  14  18
BRANCH  16  30
ATOM     30  C   UNL A   1      32.335  27.428  25.930  1.00  0.00     0.000 A 
ATOM     31  C   UNL A   1      33.602  27.909  25.550  1.00  0.00     0.010 A 
ATOM     32  C   UNL A   1      31.487  28.204  26.696  1.00  0.00     0.010 A 
ATOM     33  C   UNL A   1      34.084  29.097  26.070  1.00  0.00     0.001 A 
ATOM     34  C   UNL A   1      31.968  29.397  27.183  1.00  0.00     0.001 A 
ATOM     35  C   UNL A   1      33.272  29.820  26.920  1.00  0.00     0.000 A 
ENDBRANCH  16  30
ENDBRANCH  10  13
ENDBRANCH   8   9
ENDBRANCH   7   8
ENDBRANCH   6   7
ENDBRANCH   3   6
ENDBRANCH   1   2
BRANCH   1  36
ATOM     36  C   UNL A   1      38.530  23.323  26.104  1.00  0.00     0.021 C 
BRANCH  36  37
ATOM     37  C   UNL A   1      38.991  21.865  26.008  1.00  0.00     0.002 C 
BRANCH  37  38
ATOM     38  C   UNL A   1      40.365  21.568  26.631  1.00  0.00     0.002 C 
BRANCH  38  39
ATOM     39  C   UNL A   1      41.062  20.280  26.166  1.00  0.00     0.021 C 
BRANCH  39  40
ATOM     40  C   UNL A   1      42.398  20.039  26.846  1.00  0.00     0.116 C 
BRANCH  40  41
ATOM     41  N   UNL A   1      43.512  19.967  25.894  1.00  0.00    -0.352 N 
ATOM     42  C   UNL A   1      44.092  20.987  25.162  1.00  0.00     0.251 C 
ATOM     43  H   UNL A   1      43.899  19.072  25.758  1.00  0.00     0.163 HD
ATOM     44  O   UNL A   1      44.770  20.756  24.169  1.00  0.00    -0.269 OA
BRANCH  42  45
ATOM     45  C   UNL A   1      43.895  22.369  25.623  1.00  0.00     0.039 A 
ATOM     46  C   UNL A   1      43.054  23.277  24.974  1.00  0.00     0.014 A 
ATOM     47  C   UNL A   1      44.577  22.735  26.776  1.00  0.00     0.014 A 
ATOM     48  C   UNL A   1      42.882  24.540  25.537  1.00  0.00     0.010 A 
ATOM     49  C   UNL A   1      44.198  23.848  27.459  1.00  0.00     0.010 A 
ATOM     50  C   UNL A   1      43.466  24.811  26.786  1.00  0.00    -0.014 A 
BRANCH  50  51
ATOM     51  C   UNL A   1      43.317  26.082  27.480  1.00  0.00     0.031 A 
ATOM     52  C   UNL A   1      44.383  27.062  27.170  1.00  0.00     0.074 A 
ATOM     53  C   UNL A   1      42.187  26.359  28.175  1.00  0.00     0.049 A 
ATOM     54  N   UNL A   1      45.236  27.582  27.986  1.00  0.00    -0.248 NA
ATOM     55  C   UNL A   1      44.646  27.372  25.755  1.00  0.00     0.031 C 
ATOM     56  C   UNL A   1      41.001  25.512  28.348  1.00  0.00     0.029 A 
ATOM     57  N   UNL A   1      41.830  27.492  28.841  1.00  0.00    -0.354 N 
ATOM     58  C   UNL A   1      46.063  28.401  27.221  1.00  0.00     0.074 A 
ATOM     59  C   UNL A   1      45.769  28.086  25.849  1.00  0.00     0.031 C 
ATOM     60  C   UNL A   1      40.012  26.213  28.941  1.00  0.00     0.029 A 
ATOM     61  C   UNL A   1      40.505  27.528  29.302  1.00  0.00     0.049 A 
ATOM     62  H   UNL A   1      42.459  28.234  28.990  1.00  0.00     0.167 HD
ATOM     63  C   UNL A   1      46.779  29.408  27.796  1.00  0.00     0.037 A 
ATOM     64  C   UNL A   1      39.878  28.600  29.875  1.00  0.00     0.037 A 
ATOM     65  C   UNL A   1      46.834  29.222  29.225  1.00  0.00     0.049 A 
ATOM     66  C   UNL A   1      40.994  29.474  30.348  1.00  0.00     0.074 A 
ATOM     67  C   UNL A   1      47.460  28.314  30.054  1.00  0.00     0.029 A 
ATOM     68  N   UNL A   1      45.853  29.824  29.976  1.00  0.00    -0.354 N 
ATOM     69  N   UNL A   1      41.744  29.148  31.364  1.00  0.00    -0.248 NA
ATOM     70  C   UNL A   1      41.576  30.465  29.445  1.00  0.00     0.031 C 
ATOM     71  C   UNL A   1      46.553  28.106  31.132  1.00  0.00     0.029 A 
ATOM     72  C   UNL A   1      45.449  28.941  30.943  1.00  0.00     0.049 A 
ATOM     73  H   UNL A   1      45.499  30.733  29.842  1.00  0.00     0.167 HD
ATOM     74  C   UNL A   1      43.022  29.566  31.018  1.00  0.00     0.074 A 
ATOM     75  C   UNL A   1      42.839  30.473  29.889  1.00  0.00     0.031 C 
ATOM     76  C   UNL A   1      44.114  28.899  31.493  1.00  0.00     0.037 A 
BRANCH  63  77
ATOM     77  C   UNL A   1      47.148  30.720  27.142  1.00  0.00     0.064 A 
ATOM     78  C   UNL A   1      48.502  31.131  27.142  1.00  0.00     0.173 A 
ATOM     79  C   UNL A   1      46.231  31.711  26.742  1.00  0.00     0.173 A 
ATOM     80  F   UNL A   1      49.480  30.275  27.475  1.00  0.00    -0.203 F 
ATOM     81  C   UNL A   1      48.883  32.449  26.873  1.00  0.00     0.198 A 
ATOM     82  C   UNL A   1      46.623  33.003  26.404  1.00  0.00     0.198 A 
ATOM     83  F   UNL A   1      44.909  31.525  26.749  1.00  0.00    -0.203 F 
ATOM     84  F   UNL A   1      50.165  32.812  27.009  1.00  0.00    -0.200 F 
ATOM     85  C   UNL A   1      47.939  33.389  26.518  1.00  0.00     0.200 A 
ATOM     86  F   UNL A   1      45.689  33.895  26.040  1.00  0.00    -0.200 F 
ATOM     87  F   UNL A   1      48.276  34.671  26.322  1.00  0.00    -0.200 F 
ENDBRANCH  63  77
BRANCH  64  88
ATOM     88  C   UNL A   1      38.436  29.054  29.868  1.00  0.00     0.064 A 
ATOM     89  C   UNL A   1      37.787  29.309  31.098  1.00  0.00     0.173 A 
ATOM     90  C   UNL A   1      37.775  29.586  28.736  1.00  0.00     0.173 A 
ATOM     91  F   UNL A   1      38.295  28.835  32.244  1.00  0.00    -0.203 F 
ATOM     92  C   UNL A   1      36.684  30.174  31.202  1.00  0.00     0.198 A 
ATOM     93  C   UNL A   1      36.689  30.469  28.843  1.00  0.00     0.198 A 
ATOM     94  F   UNL A   1      38.251  29.407  27.501  1.00  0.00    -0.203 F 
ATOM     95  F   UNL A   1      36.203  30.494  32.412  1.00  0.00    -0.200 F 
ATOM     96  C   UNL A   1      36.168  30.792  30.079  1.00  0.00     0.200 A 
ATOM     97  F   UNL A   1      36.233  31.091  27.746  1.00  0.00    -0.200 F 
ATOM     98  F   UNL A   1      35.225  31.737  30.192  1.00  0.00    -0.200 F 
ENDBRANCH  64  88
BRANCH  76  99
ATOM     99  C   UNL A   1      43.851  27.849  32.536  1.00  0.00     0.064 A 
ATOM    100  C   UNL A   1      43.866  26.468  32.266  1.00  0.00     0.173 A 
ATOM    101  C   UNL A   1      43.728  28.240  33.872  1.00  0.00     0.173 A 
ATOM    102  F   UNL A   1      44.085  26.013  31.031  1.00  0.00    -0.203 F 
ATOM    103  C   UNL A   1      43.720  25.525  33.279  1.00  0.00     0.198 A 
ATOM    104  C   UNL A   1      43.624  27.296  34.889  1.00  0.00     0.198 A 
ATOM    105  F   UNL A   1      43.770  29.541  34.194  1.00  0.00    -0.203 F 
ATOM    106  F   UNL A   1      43.727  24.216  32.986  1.00  0.00    -0.200 F 
ATOM    107  C   UNL A   1      43.609  25.940  34.593  1.00  0.00     0.200 A 
ATOM    108  F   UNL A   1      43.572  27.699  36.166  1.00  0.00    -0.200 F 
ATOM    109  F   UNL A   1      43.521  25.036  35.578  1.00  0.00    -0.200 F 
ENDBRANCH  76  99
ENDBRANCH  50  51
ENDBRANCH  42  45
ENDBRANCH  40  41
ENDBRANCH  39  40
ENDBRANCH  38  39
ENDBRANCH  37  38
ENDBRANCH  36  37
ENDBRANCH   1  36
TORSDOF 21
ENDMDL
MODEL 2
REMARK VINA RESULT:     -12.6      2.114      2.777
REMARK SMILES NS(=O)(=O)c1ccc(-n2nc(C(=O)NCCCC(=O)NCCCCCCNC(=O)c3ccc(-c4c5nc(c(-c6c(F)c(F)c(F)c(F)c6F)c6ccc([nH]6)c(-c6c(F)c(F)c(F)c(F)c6F)c6nc(c(-c7c(F)c(F)c(F)c(F)c7F)c7ccc4[nH]7)C=C6)C=C5)cc3)cc2-c2ccccc2)cc1
REMARK SMILES IDX 21 1 20 2 18 3 19 4 17 6 16 7 15 8 14 9 12 10 13 11 11 13
REMARK SMILES IDX 9 14 10 15 94 16 93 17 8 18 5 19 6 20 102 21 7 22 101 23
REMARK SMILES IDX 2 24 3 25 4 26 1 27 95 30 96 31 100 32 97 33 99 34 98 35
REMARK SMILES IDX 22 36 23 37 24 38 25 39 26 40 27 41 28 42 29 44 30 45 31 46
REMARK SMILES IDX 92 47 32 48 91 49 33 50 34 51 35 52 85 53 36 54 90 55 84 56
REMARK SMILES IDX 86 57 37 58 89 59 83 60 82 61 38 63 70 64 50 65 69 66 51 67
REMARK SMILES IDX 54 68 68 69 87 70 52 71 53 72 67 74 88 75 55 76 39 77 40 78
REMARK SMILES IDX 48 79 41 80 42 81 46 82 49 83 43 84 44 85 47 86 45 87 71 88
REMARK SMILES IDX 72 89 80 90 73 91 74 92 78 93 81 94 75 95 76 96 79 97 77 98
REMARK SMILES IDX 56 99 57 100 65 101 58 102 59 103 63 104 66 105 60 106
REMARK SMILES IDX 61 107 64 108 62 109
REMARK H PARENT 20 5 14 12 1 28 1 29 27 43 86 62 54 73
REMARK Flexibility Score: inf
ROOT
ATOM      1  C   UNL A   1      36.800  23.938  25.693  1.00  0.00     0.116 C 
ENDROOT
BRANCH   1   2
ATOM      2  N   UNL A   1      36.093  22.966  26.500  1.00  0.00    -0.356 N 
ATOM      3  C   UNL A   1      35.101  22.102  26.158  1.00  0.00     0.220 C 
ATOM      4  O   UNL A   1      34.561  21.449  27.051  1.00  0.00    -0.275 OA
ATOM      5  H   UNL A   1      36.374  22.925  27.443  1.00  0.00     0.163 HD
BRANCH   3   6
ATOM      6  C   UNL A   1      34.693  21.927  24.708  1.00  0.00     0.102 C 
BRANCH   6   7
ATOM      7  C   UNL A   1      33.583  20.902  24.471  1.00  0.00     0.031 C 
BRANCH   7   8
ATOM      8  C   UNL A   1      32.151  21.432  24.528  1.00  0.00     0.116 C 
BRANCH   8   9
ATOM      9  N   UNL A   1      31.618  21.604  25.874  1.00  0.00    -0.351 N 
ATOM     10  C   UNL A   1      31.215  22.748  26.543  1.00  0.00     0.271 C 
ATOM     11  O   UNL A   1      30.725  22.611  27.663  1.00  0.00    -0.267 OA
ATOM     12  H   UNL A   1      31.529  20.772  26.391  1.00  0.00     0.163 HD
BRANCH  10  13
ATOM     13  C   UNL A   1      31.397  24.059  25.907  1.00  0.00     0.151 A 
ATOM     14  N   UNL A   1      30.948  25.825  24.780  1.00  0.00    -0.232 N 
ATOM     15  N   UNL A   1      30.477  24.589  25.066  1.00  0.00    -0.162 NA
ATOM     16  C   UNL A   1      31.993  26.150  25.626  1.00  0.00     0.075 A 
ATOM     17  C   UNL A   1      32.463  24.962  26.116  1.00  0.00     0.065 A 
BRANCH  14  18
ATOM     18  C   UNL A   1      30.316  26.732  23.877  1.00  0.00     0.065 A 
ATOM     19  C   UNL A   1      29.127  28.936  22.661  1.00  0.00     0.082 A 
ATOM     20  C   UNL A   1      30.509  28.775  22.568  1.00  0.00     0.024 A 
ATOM     21  C   UNL A   1      28.331  27.967  23.288  1.00  0.00     0.024 A 
ATOM     22  C   UNL A   1      31.103  27.669  23.174  1.00  0.00     0.030 A 
ATOM     23  C   UNL A   1      28.924  26.842  23.876  1.00  0.00     0.030 A 
BRANCH  19  24
ATOM     24  S   UNL A   1      28.384  30.443  22.085  1.00  0.00     0.238 S 
ATOM     25  O   UNL A   1      27.376  30.835  23.054  1.00  0.00    -0.207 OA
ATOM     26  O   UNL A   1      28.090  30.285  20.686  1.00  0.00    -0.207 OA
BRANCH  24  27
ATOM     27  N   UNL A   1      29.614  31.576  22.257  1.00  0.00    -0.225 NA
ATOM     28  H   UNL A   1      30.100  31.688  21.367  1.00  0.00     0.137 HD
ATOM     29  H   UNL A   1      30.273  31.257  22.967  1.00  0.00     0.137 HD
ENDBRANCH  24  27
ENDBRANCH  19  24
ENDBRANCH  14  18
BRANCH  16  30
ATOM     30  C   UNL A   1      32.383  27.496  25.967  1.00  0.00     0.000 A 
ATOM     31  C   UNL A   1      33.649  27.986  25.594  1.00  0.00     0.010 A 
ATOM     32  C   UNL A   1      31.522  28.270  26.720  1.00  0.00     0.010 A 
ATOM     33  C   UNL A   1      34.116  29.182  26.110  1.00  0.00     0.001 A 
ATOM     34  C   UNL A   1      31.987  29.471  27.203  1.00  0.00     0.001 A 
ATOM     35  C   UNL A   1      33.290  29.904  26.948  1.00  0.00     0.000 A 
ENDBRANCH  16  30
ENDBRANCH  10  13
ENDBRANCH   8   9
ENDBRANCH   7   8
ENDBRANCH   6   7
ENDBRANCH   3   6
ENDBRANCH   1   2
BRANCH   1  36
ATOM     36  C   UNL A   1      38.128  24.318  26.352  1.00  0.00     0.021 C 
BRANCH  36  37
ATOM     37  C   UNL A   1      39.054  23.124  26.601  1.00  0.00     0.002 C 
BRANCH  37  38
ATOM     38  C   UNL A   1      40.063  23.302  27.748  1.00  0.00     0.002 C 
BRANCH  38  39
ATOM     39  C   UNL A   1      41.163  22.235  27.861  1.00  0.00     0.021 C 
BRANCH  39  40
ATOM     40  C   UNL A   1      42.550  22.820  28.066  1.00  0.00     0.116 C 
BRANCH  40  41
ATOM     41  N   UNL A   1      43.308  22.926  26.814  1.00  0.00    -0.352 N 
ATOM     42  C   UNL A   1      43.348  23.974  25.912  1.00  0.00     0.251 C 
ATOM     43  H   UNL A   1      43.864  22.146  26.585  1.00  0.00     0.163 HD
ATOM     44  O   UNL A   1      43.737  23.814  24.763  1.00  0.00    -0.269 OA
BRANCH  42  45
ATOM     45  C   UNL A   1      42.930  25.305  26.378  1.00  0.00     0.039 A 
ATOM     46  C   UNL A   1      41.742  25.918  25.970  1.00  0.00     0.014 A 
ATOM     47  C   UNL A   1      43.775  25.931  27.284  1.00  0.00     0.014 A 
ATOM     48  C   UNL A   1      41.406  27.149  26.530  1.00  0.00     0.010 A 
ATOM     49  C   UNL A   1      43.317  26.978  28.021  1.00  0.00     0.010 A 
ATOM     50  C   UNL A   1      42.210  27.668  27.558  1.00  0.00    -0.014 A 
BRANCH  50  51
ATOM     51  C   UNL A   1      41.928  28.925  28.237  1.00  0.00     0.031 A 
ATOM     52  C   UNL A   1      42.959  29.967  28.020  1.00  0.00     0.074 A 
ATOM     53  C   UNL A   1      40.728  29.133  28.830  1.00  0.00     0.049 A 
ATOM     54  N   UNL A   1      43.706  30.531  28.907  1.00  0.00    -0.248 NA
ATOM     55  C   UNL A   1      43.326  30.298  26.634  1.00  0.00     0.031 C 
ATOM     56  C   UNL A   1      39.582  28.218  28.899  1.00  0.00     0.029 A 
ATOM     57  N   UNL A   1      40.249  30.240  29.462  1.00  0.00    -0.354 N 
ATOM     58  C   UNL A   1      44.547  31.400  28.217  1.00  0.00     0.074 A 
ATOM     59  C   UNL A   1      44.393  31.075  26.825  1.00  0.00     0.031 C 
ATOM     60  C   UNL A   1      38.506  28.858  29.403  1.00  0.00     0.029 A 
ATOM     61  C   UNL A   1      38.889  30.198  29.805  1.00  0.00     0.049 A 
ATOM     62  H   UNL A   1      40.818  31.017  29.665  1.00  0.00     0.167 HD
ATOM     63  C   UNL A   1      45.151  32.444  28.853  1.00  0.00     0.037 A 
ATOM     64  C   UNL A   1      38.154  31.229  30.322  1.00  0.00     0.037 A 
ATOM     65  C   UNL A   1      45.092  32.255  30.281  1.00  0.00     0.049 A 
ATOM     66  C   UNL A   1      39.172  32.164  30.890  1.00  0.00     0.074 A 
ATOM     67  C   UNL A   1      45.695  31.380  31.162  1.00  0.00     0.029 A 
ATOM     68  N   UNL A   1      44.016  32.795  30.943  1.00  0.00    -0.354 N 
ATOM     69  N   UNL A   1      39.848  31.877  31.968  1.00  0.00    -0.248 NA
ATOM     70  C   UNL A   1      39.772  33.191  30.041  1.00  0.00     0.031 C 
ATOM     71  C   UNL A   1      44.711  31.115  32.156  1.00  0.00     0.029 A 
ATOM     72  C   UNL A   1      43.581  31.885  31.872  1.00  0.00     0.049 A 
ATOM     73  H   UNL A   1      43.624  33.683  30.779  1.00  0.00     0.167 HD
ATOM     74  C   UNL A   1      41.125  32.369  31.735  1.00  0.00     0.074 A 
ATOM     75  C   UNL A   1      40.989  33.270  30.594  1.00  0.00     0.031 C 
ATOM     76  C   UNL A   1      42.208  31.764  32.303  1.00  0.00     0.037 A 
BRANCH  63  77
ATOM     77  C   UNL A   1      45.500  33.778  28.233  1.00  0.00     0.064 A 
ATOM     78  C   UNL A   1      46.815  34.279  28.374  1.00  0.00     0.173 A 
ATOM     79  C   UNL A   1      44.566  34.706  27.731  1.00  0.00     0.173 A 
ATOM     80  F   UNL A   1      47.807  33.491  28.815  1.00  0.00    -0.203 F 
ATOM     81  C   UNL A   1      47.134  35.620  28.139  1.00  0.00     0.198 A 
ATOM     82  C   UNL A   1      44.904  36.021  27.429  1.00  0.00     0.198 A 
ATOM     83  F   UNL A   1      43.266  34.431  27.600  1.00  0.00    -0.203 F 
ATOM     84  F   UNL A   1      48.367  36.068  28.408  1.00  0.00    -0.200 F 
ATOM     85  C   UNL A   1      46.172  36.494  27.680  1.00  0.00     0.200 A 
ATOM     86  F   UNL A   1      43.957  36.849  26.962  1.00  0.00    -0.200 F 
ATOM     87  F   UNL A   1      46.441  37.796  27.512  1.00  0.00    -0.200 F 
ENDBRANCH  63  77
BRANCH  64  88
ATOM     88  C   UNL A   1      36.694  31.600  30.189  1.00  0.00     0.064 A 
ATOM     89  C   UNL A   1      35.989  32.047  31.329  1.00  0.00     0.173 A 
ATOM     90  C   UNL A   1      36.052  31.875  28.959  1.00  0.00     0.173 A 
ATOM     91  F   UNL A   1      36.475  31.823  32.559  1.00  0.00    -0.203 F 
ATOM     92  C   UNL A   1      34.845  32.858  31.237  1.00  0.00     0.198 A 
ATOM     93  C   UNL A   1      34.924  32.706  28.867  1.00  0.00     0.198 A 
ATOM     94  F   UNL A   1      36.581  31.493  27.793  1.00  0.00    -0.203 F 
ATOM     95  F   UNL A   1      34.306  33.375  32.351  1.00  0.00    -0.200 F 
ATOM     96  C   UNL A   1      34.344  33.228  30.004  1.00  0.00     0.200 A 
ATOM     97  F   UNL A   1      34.482  33.088  27.660  1.00  0.00    -0.200 F 
ATOM     98  F   UNL A   1      33.355  34.128  29.910  1.00  0.00    -0.200 F 
ENDBRANCH  64  88
BRANCH  76  99
ATOM     99  C   UNL A   1      41.916  30.695  33.319  1.00  0.00     0.064 A 
ATOM    100  C   UNL A   1      41.780  29.333  32.994  1.00  0.00     0.173 A 
ATOM    101  C   UNL A   1      41.923  31.033  34.675  1.00  0.00     0.173 A 
ATOM    102  F   UNL A   1      41.871  28.918  31.729  1.00  0.00    -0.203 F 
ATOM    103  C   UNL A   1      41.612  28.362  33.976  1.00  0.00     0.198 A 
ATOM    104  C   UNL A   1      41.797  30.056  35.658  1.00  0.00     0.198 A 
ATOM    105  F   UNL A   1      42.111  32.308  35.046  1.00  0.00    -0.203 F 
ATOM    106  F   UNL A   1      41.474  27.073  33.631  1.00  0.00    -0.200 F 
ATOM    107  C   UNL A   1      41.632  28.723  35.310  1.00  0.00     0.200 A 
ATOM    108  F   UNL A   1      41.871  30.402  36.951  1.00  0.00    -0.200 F 
ATOM    109  F   UNL A   1      41.523  27.787  36.261  1.00  0.00    -0.200 F 
ENDBRANCH  76  99
ENDBRANCH  50  51
ENDBRANCH  42  45
ENDBRANCH  40  41
ENDBRANCH  39  40
ENDBRANCH  38  39
ENDBRANCH  37  38
ENDBRANCH  36  37
ENDBRANCH   1  36
TORSDOF 21
ENDMDL
MODEL 3
REMARK VINA RESULT:     -12.5      1.585      2.201
REMARK SMILES NS(=O)(=O)c1ccc(-n2nc(C(=O)NCCCC(=O)NCCCCCCNC(=O)c3ccc(-c4c5nc(c(-c6c(F)c(F)c(F)c(F)c6F)c6ccc([nH]6)c(-c6c(F)c(F)c(F)c(F)c6F)c6nc(c(-c7c(F)c(F)c(F)c(F)c7F)c7ccc4[nH]7)C=C6)C=C5)cc3)cc2-c2ccccc2)cc1
REMARK SMILES IDX 21 1 20 2 18 3 19 4 17 6 16 7 15 8 14 9 12 10 13 11 11 13
REMARK SMILES IDX 9 14 10 15 94 16 93 17 8 18 5 19 6 20 102 21 7 22 101 23
REMARK SMILES IDX 2 24 3 25 4 26 1 27 95 30 96 31 100 32 97 33 99 34 98 35
REMARK SMILES IDX 22 36 23 37 24 38 25 39 26 40 27 41 28 42 29 44 30 45 31 46
REMARK SMILES IDX 92 47 32 48 91 49 33 50 34 51 35 52 85 53 36 54 90 55 84 56
REMARK SMILES IDX 86 57 37 58 89 59 83 60 82 61 38 63 70 64 50 65 69 66 51 67
REMARK SMILES IDX 54 68 68 69 87 70 52 71 53 72 67 74 88 75 55 76 39 77 40 78
REMARK SMILES IDX 48 79 41 80 42 81 46 82 49 83 43 84 44 85 47 86 45 87 71 88
REMARK SMILES IDX 72 89 80 90 73 91 74 92 78 93 81 94 75 95 76 96 79 97 77 98
REMARK SMILES IDX 56 99 57 100 65 101 58 102 59 103 63 104 66 105 60 106
REMARK SMILES IDX 61 107 64 108 62 109
REMARK H PARENT 20 5 14 12 1 28 1 29 27 43 86 62 54 73
REMARK Flexibility Score: inf
ROOT
ATOM      1  C   UNL A   1      38.399  23.255  26.079  1.00  0.00     0.116 C 
ENDROOT
BRANCH   1   2
ATOM      2  N   UNL A   1      37.327  22.289  26.185  1.00  0.00    -0.356 N 
ATOM      3  C   UNL A   1      36.070  22.317  25.669  1.00  0.00     0.220 C 
ATOM      4  O   UNL A   1      35.282  21.430  25.997  1.00  0.00    -0.275 OA
ATOM      5  H   UNL A   1      37.541  21.486  26.714  1.00  0.00     0.163 HD
BRANCH   3   6
ATOM      6  C   UNL A   1      35.661  23.399  24.689  1.00  0.00     0.102 C 
BRANCH   6   7
ATOM      7  C   UNL A   1      35.466  22.923  23.249  1.00  0.00     0.031 C 
BRANCH   7   8
ATOM      8  C   UNL A   1      34.020  22.730  22.792  1.00  0.00     0.116 C 
BRANCH   8   9
ATOM      9  N   UNL A   1      33.106  22.280  23.835  1.00  0.00    -0.351 N 
ATOM     10  C   UNL A   1      32.149  22.975  24.554  1.00  0.00     0.271 C 
ATOM     11  O   UNL A   1      31.448  22.336  25.338  1.00  0.00    -0.267 OA
ATOM     12  H   UNL A   1      33.182  21.326  24.065  1.00  0.00     0.163 HD
BRANCH  10  13
ATOM     13  C   UNL A   1      32.017  24.426  24.368  1.00  0.00     0.151 A 
ATOM     14  N   UNL A   1      31.174  26.309  23.795  1.00  0.00    -0.232 N 
ATOM     15  N   UNL A   1      31.014  24.974  23.643  1.00  0.00    -0.162 NA
ATOM     16  C   UNL A   1      32.089  26.574  24.797  1.00  0.00     0.075 A 
ATOM     17  C   UNL A   1      32.825  25.430  24.946  1.00  0.00     0.065 A 
BRANCH  14  18
ATOM     18  C   UNL A   1      30.358  27.289  23.154  1.00  0.00     0.065 A 
ATOM     19  C   UNL A   1      28.956  29.590  22.452  1.00  0.00     0.082 A 
ATOM     20  C   UNL A   1      30.266  29.432  22.003  1.00  0.00     0.024 A 
ATOM     21  C   UNL A   1      28.318  28.575  23.181  1.00  0.00     0.024 A 
ATOM     22  C   UNL A   1      30.966  28.278  22.351  1.00  0.00     0.030 A 
ATOM     23  C   UNL A   1      29.013  27.404  23.511  1.00  0.00     0.030 A 
BRANCH  19  24
ATOM     24  S   UNL A   1      28.129  31.142  22.202  1.00  0.00     0.238 S 
ATOM     25  O   UNL A   1      27.287  31.384  23.359  1.00  0.00    -0.207 OA
ATOM     26  O   UNL A   1      27.616  31.158  20.857  1.00  0.00    -0.207 OA
BRANCH  24  27
ATOM     27  N   UNL A   1      29.369  32.269  22.322  1.00  0.00    -0.225 NA
ATOM     28  H   UNL A   1      30.199  31.914  21.849  1.00  0.00     0.137 HD
ATOM     29  H   UNL A   1      29.581  32.436  23.305  1.00  0.00     0.137 HD
ENDBRANCH  24  27
ENDBRANCH  19  24
ENDBRANCH  14  18
BRANCH  16  30
ATOM     30  C   UNL A   1      32.130  27.793  25.567  1.00  0.00     0.000 A 
ATOM     31  C   UNL A   1      32.942  28.867  25.157  1.00  0.00     0.010 A 
ATOM     32  C   UNL A   1      31.413  27.862  26.746  1.00  0.00     0.010 A 
ATOM     33  C   UNL A   1      33.163  29.940  26.002  1.00  0.00     0.001 A 
ATOM     34  C   UNL A   1      31.619  28.949  27.565  1.00  0.00     0.001 A 
ATOM     35  C   UNL A   1      32.524  29.956  27.226  1.00  0.00     0.000 A 
ENDBRANCH  16  30
ENDBRANCH  10  13
ENDBRANCH   8   9
ENDBRANCH   7   8
ENDBRANCH   6   7
ENDBRANCH   3   6
ENDBRANCH   1   2
BRANCH   1  36
ATOM     36  C   UNL A   1      39.736  22.618  26.467  1.00  0.00     0.021 C 
BRANCH  36  37
ATOM     37  C   UNL A   1      39.708  21.087  26.473  1.00  0.00     0.002 C 
BRANCH  37  38
ATOM     38  C   UNL A   1      40.993  20.408  26.976  1.00  0.00     0.002 C 
BRANCH  38  39
ATOM     39  C   UNL A   1      41.665  19.417  26.012  1.00  0.00     0.021 C 
BRANCH  39  40
ATOM     40  C   UNL A   1      43.112  19.123  26.364  1.00  0.00     0.116 C 
BRANCH  40  41
ATOM     41  N   UNL A   1      43.985  19.095  25.185  1.00  0.00    -0.352 N 
ATOM     42  C   UNL A   1      44.426  20.152  24.409  1.00  0.00     0.251 C 
ATOM     43  H   UNL A   1      44.300  18.204  24.910  1.00  0.00     0.163 HD
ATOM     44  O   UNL A   1      44.859  19.978  23.278  1.00  0.00    -0.269 OA
BRANCH  42  45
ATOM     45  C   UNL A   1      44.386  21.502  24.990  1.00  0.00     0.039 A 
ATOM     46  C   UNL A   1      43.390  22.434  24.685  1.00  0.00     0.014 A 
ATOM     47  C   UNL A   1      45.389  21.810  25.899  1.00  0.00     0.014 A 
ATOM     48  C   UNL A   1      43.404  23.659  25.349  1.00  0.00     0.010 A 
ATOM     49  C   UNL A   1      45.242  22.876  26.731  1.00  0.00     0.010 A 
ATOM     50  C   UNL A   1      44.342  23.865  26.373  1.00  0.00    -0.014 A 
BRANCH  50  51
ATOM     51  C   UNL A   1      44.418  25.091  27.154  1.00  0.00     0.031 A 
ATOM     52  C   UNL A   1      45.671  25.856  26.949  1.00  0.00     0.074 A 
ATOM     53  C   UNL A   1      43.337  25.544  27.833  1.00  0.00     0.049 A 
ATOM     54  N   UNL A   1      46.573  26.138  27.826  1.00  0.00    -0.248 NA
ATOM     55  C   UNL A   1      46.052  26.199  25.570  1.00  0.00     0.031 C 
ATOM     56  C   UNL A   1      41.999  24.943  27.908  1.00  0.00     0.029 A 
ATOM     57  N   UNL A   1      43.183  26.678  28.570  1.00  0.00    -0.354 N 
ATOM     58  C   UNL A   1      47.579  26.823  27.148  1.00  0.00     0.074 A 
ATOM     59  C   UNL A   1      47.289  26.665  25.749  1.00  0.00     0.031 C 
ATOM     60  C   UNL A   1      41.144  25.788  28.521  1.00  0.00     0.029 A 
ATOM     61  C   UNL A   1      41.872  26.950  28.992  1.00  0.00     0.049 A 
ATOM     62  H   UNL A   1      43.939  27.268  28.792  1.00  0.00     0.167 HD
ATOM     63  C   UNL A   1      48.455  27.625  27.817  1.00  0.00     0.037 A 
ATOM     64  C   UNL A   1      41.446  28.086  29.624  1.00  0.00     0.037 A 
ATOM     65  C   UNL A   1      48.409  27.338  29.230  1.00  0.00     0.049 A 
ATOM     66  C   UNL A   1      42.691  28.684  30.194  1.00  0.00     0.074 A 
ATOM     67  C   UNL A   1      48.805  26.270  30.008  1.00  0.00     0.029 A 
ATOM     68  N   UNL A   1      47.535  28.074  29.993  1.00  0.00    -0.354 N 
ATOM     69  N   UNL A   1      43.316  28.148  31.205  1.00  0.00    -0.248 NA
ATOM     70  C   UNL A   1      43.498  29.596  29.384  1.00  0.00     0.031 C 
ATOM     71  C   UNL A   1      47.828  26.178  31.040  1.00  0.00     0.029 A 
ATOM     72  C   UNL A   1      46.921  27.228  30.880  1.00  0.00     0.049 A 
ATOM     73  H   UNL A   1      47.375  29.042  29.916  1.00  0.00     0.167 HD
ATOM     74  C   UNL A   1      44.666  28.321  30.929  1.00  0.00     0.074 A 
ATOM     75  C   UNL A   1      44.716  29.320  29.865  1.00  0.00     0.031 C 
ATOM     76  C   UNL A   1      45.581  27.419  31.385  1.00  0.00     0.037 A 
BRANCH  63  77
ATOM     77  C   UNL A   1      49.106  28.877  27.273  1.00  0.00     0.064 A 
ATOM     78  C   UNL A   1      50.475  28.841  26.922  1.00  0.00     0.173 A 
ATOM     79  C   UNL A   1      48.540  30.166  27.312  1.00  0.00     0.173 A 
ATOM     80  F   UNL A   1      51.129  27.674  26.820  1.00  0.00    -0.203 F 
ATOM     81  C   UNL A   1      51.231  30.004  26.738  1.00  0.00     0.198 A 
ATOM     82  C   UNL A   1      49.278  31.317  27.057  1.00  0.00     0.198 A 
ATOM     83  F   UNL A   1      47.281  30.396  27.692  1.00  0.00    -0.203 F 
ATOM     84  F   UNL A   1      52.551  29.914  26.530  1.00  0.00    -0.200 F 
ATOM     85  C   UNL A   1      50.632  31.243  26.821  1.00  0.00     0.200 A 
ATOM     86  F   UNL A   1      48.670  32.511  27.120  1.00  0.00    -0.200 F 
ATOM     87  F   UNL A   1      51.351  32.369  26.714  1.00  0.00    -0.200 F 
ENDBRANCH  63  77
BRANCH  64  88
ATOM     88  C   UNL A   1      40.124  28.820  29.607  1.00  0.00     0.064 A 
ATOM     89  C   UNL A   1      39.589  29.248  28.371  1.00  0.00     0.173 A 
ATOM     90  C   UNL A   1      39.198  28.815  30.676  1.00  0.00     0.173 A 
ATOM     91  F   UNL A   1      40.370  29.327  27.284  1.00  0.00    -0.203 F 
ATOM     92  C   UNL A   1      38.214  29.470  28.182  1.00  0.00     0.198 A 
ATOM     93  C   UNL A   1      37.821  29.012  30.482  1.00  0.00     0.198 A 
ATOM     94  F   UNL A   1      39.558  28.459  31.912  1.00  0.00    -0.203 F 
ATOM     95  F   UNL A   1      37.746  29.730  26.953  1.00  0.00    -0.200 F 
ATOM     96  C   UNL A   1      37.325  29.301  29.227  1.00  0.00     0.200 A 
ATOM     97  F   UNL A   1      36.974  28.800  31.499  1.00  0.00    -0.200 F 
ATOM     98  F   UNL A   1      36.004  29.353  29.015  1.00  0.00    -0.200 F 
ENDBRANCH  64  88
BRANCH  76  99
ATOM     99  C   UNL A   1      45.069  26.377  32.340  1.00  0.00     0.064 A 
ATOM    100  C   UNL A   1      44.654  25.095  31.937  1.00  0.00     0.173 A 
ATOM    101  C   UNL A   1      45.140  26.625  33.713  1.00  0.00     0.173 A 
ATOM    102  F   UNL A   1      44.661  24.744  30.649  1.00  0.00    -0.203 F 
ATOM    103  C   UNL A   1      44.284  24.123  32.862  1.00  0.00     0.198 A 
ATOM    104  C   UNL A   1      44.810  25.640  34.639  1.00  0.00     0.198 A 
ATOM    105  F   UNL A   1      45.589  27.810  34.156  1.00  0.00    -0.203 F 
ATOM    106  F   UNL A   1      43.881  22.914  32.443  1.00  0.00    -0.200 F 
ATOM    107  C   UNL A   1      44.373  24.394  34.214  1.00  0.00     0.200 A 
ATOM    108  F   UNL A   1      44.949  25.887  35.949  1.00  0.00    -0.200 F 
ATOM    109  F   UNL A   1      44.068  23.446  35.111  1.00  0.00    -0.200 F 
ENDBRANCH  76  99
ENDBRANCH  50  51
ENDBRANCH  42  45
ENDBRANCH  40  41
ENDBRANCH  39  40
ENDBRANCH  38  39
ENDBRANCH  37  38
ENDBRANCH  36  37
ENDBRANCH   1  36
TORSDOF 21
ENDMDL
