MODEL 1
REMARK VINA RESULT:     -12.0      0.000      0.000
REMARK SMILES C/C(=N\Nc1nc(-c2ccc(Cl)cc2)cs1)c1nnn(-c2ccc(C(=O)NCCCCCCNC(=O)c3ccc(-c4c5nc(c(-c6c(F)c(F)c(F)c(F)c6F)c6ccc([nH]6)c(-c6c(F)c(F)c(F)c(F)c6F)c6nc(c(-c7c(F)c(F)c(F)c(F)c7F)c7ccc4[nH]7)C=C6)C=C5)cc3)cc2)c1C
REMARK SMILES IDX 29 1 28 2 27 3 25 4 26 5 24 7 21 8 22 9 101 10 23 11 100 12
REMARK SMILES IDX 20 13 17 14 18 15 102 16 19 17 103 18 2 19 1 20 3 21 4 22
REMARK SMILES IDX 5 24 6 25 16 26 7 27 15 28 8 29 9 30 14 31 10 32 13 33 11 34
REMARK SMILES IDX 12 35 30 36 31 37 32 38 33 39 34 40 35 41 36 43 37 44 38 45
REMARK SMILES IDX 99 46 39 47 98 48 40 49 41 50 42 51 92 52 43 53 97 54 91 55
REMARK SMILES IDX 93 56 44 57 96 58 90 59 89 60 45 62 77 63 57 64 76 65 58 66
REMARK SMILES IDX 61 67 75 68 94 69 59 70 60 71 74 73 95 74 62 75 46 76 47 77
REMARK SMILES IDX 55 78 48 79 49 80 53 81 56 82 50 83 51 84 54 85 52 86 78 87
REMARK SMILES IDX 79 88 87 89 80 90 81 91 85 92 88 93 82 94 83 95 86 96 84 97
REMARK SMILES IDX 63 98 64 99 72 100 65 101 66 102 70 103 73 104 67 105 68 106
REMARK SMILES IDX 71 107 69 108
REMARK H PARENT 27 6 4 23 34 42 93 61 61 72
REMARK Flexibility Score: inf
ROOT
ATOM      1  C   UNL A   1      38.188  21.594  25.854  1.00  0.00     0.021 C 
ENDROOT
BRANCH   1   2
ATOM      2  C   UNL A   1      37.250  22.054  24.734  1.00  0.00     0.116 C 
BRANCH   2   3
ATOM      3  N   UNL A   1      36.048  21.240  24.715  1.00  0.00    -0.352 N 
ATOM      4  C   UNL A   1      34.711  21.538  24.814  1.00  0.00     0.251 C 
ATOM      5  O   UNL A   1      33.911  20.607  24.736  1.00  0.00    -0.269 OA
ATOM      6  H   UNL A   1      36.228  20.278  24.609  1.00  0.00     0.163 HD
BRANCH   4   7
ATOM      7  C   UNL A   1      34.193  22.930  24.921  1.00  0.00     0.039 A 
ATOM      8  C   UNL A   1      33.270  25.491  25.525  1.00  0.00     0.067 A 
ATOM      9  C   UNL A   1      34.626  25.212  25.680  1.00  0.00     0.029 A 
ATOM     10  C   UNL A   1      32.405  24.557  24.948  1.00  0.00     0.029 A 
ATOM     11  C   UNL A   1      35.075  23.916  25.402  1.00  0.00     0.016 A 
ATOM     12  C   UNL A   1      32.886  23.298  24.598  1.00  0.00     0.016 A 
BRANCH   8  13
ATOM     13  N   UNL A   1      32.725  26.655  26.091  1.00  0.00    -0.217 N 
ATOM     14  C   UNL A   1      32.187  28.717  26.530  1.00  0.00     0.132 A 
ATOM     15  N   UNL A   1      31.454  27.888  27.338  1.00  0.00    -0.128 NA
ATOM     16  C   UNL A   1      33.009  27.953  25.716  1.00  0.00     0.071 A 
ATOM     17  N   UNL A   1      31.722  26.633  26.991  1.00  0.00    -0.061 NA
ATOM     18  C   UNL A   1      33.881  28.325  24.570  1.00  0.00     0.069 C 
BRANCH  14  19
ATOM     19  C   UNL A   1      32.005  30.160  26.445  1.00  0.00     0.087 C 
ATOM     20  C   UNL A   1      31.118  30.622  25.315  1.00  0.00     0.071 C 
ATOM     21  N   UNL A   1      32.677  30.876  27.303  1.00  0.00    -0.176 NA
BRANCH  21  22
ATOM     22  N   UNL A   1      32.750  32.250  27.271  1.00  0.00    -0.252 N 
ATOM     23  H   UNL A   1      32.063  32.681  26.711  1.00  0.00     0.193 HD
BRANCH  22  24
ATOM     24  C   UNL A   1      33.603  33.114  27.878  1.00  0.00     0.203 A 
ATOM     25  N   UNL A   1      34.867  32.893  28.153  1.00  0.00    -0.219 NA
ATOM     26  S   UNL A   1      33.025  34.638  28.461  1.00  0.00    -0.103 S 
ATOM     27  C   UNL A   1      35.320  33.778  29.108  1.00  0.00     0.084 A 
ATOM     28  C   UNL A   1      34.450  34.804  29.408  1.00  0.00     0.097 A 
BRANCH  27  29
ATOM     29  C   UNL A   1      36.593  33.539  29.763  1.00  0.00     0.001 A 
ATOM     30  C   UNL A   1      37.731  33.301  28.982  1.00  0.00     0.012 A 
ATOM     31  C   UNL A   1      36.683  33.436  31.158  1.00  0.00     0.012 A 
ATOM     32  C   UNL A   1      38.954  32.998  29.587  1.00  0.00     0.021 A 
ATOM     33  C   UNL A   1      37.905  33.121  31.763  1.00  0.00     0.021 A 
ATOM     34  C   UNL A   1      39.036  32.911  30.974  1.00  0.00     0.041 A 
ATOM     35  Cl  UNL A   1      40.538  32.530  31.721  1.00  0.00    -0.084 Cl
ENDBRANCH  27  29
ENDBRANCH  22  24
ENDBRANCH  21  22
ENDBRANCH  14  19
ENDBRANCH   8  13
ENDBRANCH   4   7
ENDBRANCH   2   3
ENDBRANCH   1   2
BRANCH   1  36
ATOM     36  C   UNL A   1      39.193  20.521  25.410  1.00  0.00     0.002 C 
BRANCH  36  37
ATOM     37  C   UNL A   1      40.572  20.575  26.091  1.00  0.00     0.002 C 
BRANCH  37  38
ATOM     38  C   UNL A   1      41.467  19.336  25.933  1.00  0.00     0.021 C 
BRANCH  38  39
ATOM     39  C   UNL A   1      42.842  19.489  26.560  1.00  0.00     0.116 C 
BRANCH  39  40
ATOM     40  N   UNL A   1      43.916  19.533  25.561  1.00  0.00    -0.352 N 
ATOM     41  C   UNL A   1      44.388  20.605  24.820  1.00  0.00     0.251 C 
ATOM     42  H   UNL A   1      44.368  18.674  25.392  1.00  0.00     0.163 HD
ATOM     43  O   UNL A   1      45.001  20.432  23.779  1.00  0.00    -0.269 OA
BRANCH  41  44
ATOM     44  C   UNL A   1      44.149  21.969  25.324  1.00  0.00     0.039 A 
ATOM     45  C   UNL A   1      43.217  22.841  24.753  1.00  0.00     0.014 A 
ATOM     46  C   UNL A   1      44.890  22.362  26.429  1.00  0.00     0.014 A 
ATOM     47  C   UNL A   1      43.029  24.090  25.345  1.00  0.00     0.010 A 
ATOM     48  C   UNL A   1      44.484  23.426  27.170  1.00  0.00     0.010 A 
ATOM     49  C   UNL A   1      43.676  24.365  26.560  1.00  0.00    -0.014 A 
BRANCH  49  50
ATOM     50  C   UNL A   1      43.493  25.603  27.296  1.00  0.00     0.031 A 
ATOM     51  C   UNL A   1      44.434  26.667  26.891  1.00  0.00     0.074 A 
ATOM     52  C   UNL A   1      42.407  25.833  28.070  1.00  0.00     0.049 A 
ATOM     53  N   UNL A   1      45.420  27.138  27.574  1.00  0.00    -0.248 NA
ATOM     54  C   UNL A   1      44.391  27.139  25.496  1.00  0.00     0.031 C 
ATOM     55  C   UNL A   1      41.227  24.980  28.278  1.00  0.00     0.029 A 
ATOM     56  N   UNL A   1      42.082  26.950  28.774  1.00  0.00    -0.354 N 
ATOM     57  C   UNL A   1      45.984  28.130  26.782  1.00  0.00     0.074 A 
ATOM     58  C   UNL A   1      45.469  27.924  25.455  1.00  0.00     0.031 C 
ATOM     59  C   UNL A   1      40.241  25.694  28.865  1.00  0.00     0.029 A 
ATOM     60  C   UNL A   1      40.765  26.998  29.225  1.00  0.00     0.049 A 
ATOM     61  H   UNL A   1      42.729  27.671  28.951  1.00  0.00     0.167 HD
ATOM     62  C   UNL A   1      46.589  29.204  27.359  1.00  0.00     0.037 A 
ATOM     63  C   UNL A   1      40.159  28.053  29.826  1.00  0.00     0.037 A 
ATOM     64  C   UNL A   1      46.867  28.943  28.754  1.00  0.00     0.049 A 
ATOM     65  C   UNL A   1      41.239  28.941  30.332  1.00  0.00     0.074 A 
ATOM     66  C   UNL A   1      47.606  27.993  29.434  1.00  0.00     0.029 A 
ATOM     67  N   UNL A   1      46.013  29.482  29.685  1.00  0.00    -0.354 N 
ATOM     68  N   UNL A   1      42.050  28.609  31.299  1.00  0.00    -0.248 NA
ATOM     69  C   UNL A   1      41.724  29.980  29.437  1.00  0.00     0.031 C 
ATOM     70  C   UNL A   1      46.827  27.674  30.587  1.00  0.00     0.029 A 
ATOM     71  C   UNL A   1      45.704  28.502  30.594  1.00  0.00     0.049 A 
ATOM     72  H   UNL A   1      45.680  30.408  29.698  1.00  0.00     0.167 HD
ATOM     73  C   UNL A   1      43.294  29.058  30.881  1.00  0.00     0.074 A 
ATOM     74  C   UNL A   1      43.018  29.959  29.764  1.00  0.00     0.031 C 
ATOM     75  C   UNL A   1      44.436  28.422  31.280  1.00  0.00     0.037 A 
BRANCH  62  76
ATOM     76  C   UNL A   1      46.542  30.609  26.804  1.00  0.00     0.064 A 
ATOM     77  C   UNL A   1      47.729  31.370  26.806  1.00  0.00     0.173 A 
ATOM     78  C   UNL A   1      45.357  31.339  26.561  1.00  0.00     0.173 A 
ATOM     79  F   UNL A   1      48.915  30.787  27.028  1.00  0.00    -0.203 F 
ATOM     80  C   UNL A   1      47.714  32.762  26.682  1.00  0.00     0.198 A 
ATOM     81  C   UNL A   1      45.353  32.721  26.383  1.00  0.00     0.198 A 
ATOM     82  F   UNL A   1      44.144  30.780  26.596  1.00  0.00    -0.203 F 
ATOM     83  F   UNL A   1      48.851  33.453  26.833  1.00  0.00    -0.200 F 
ATOM     84  C   UNL A   1      46.525  33.437  26.482  1.00  0.00     0.200 A 
ATOM     85  F   UNL A   1      44.186  33.356  26.203  1.00  0.00    -0.200 F 
ATOM     86  F   UNL A   1      46.499  34.775  26.432  1.00  0.00    -0.200 F 
ENDBRANCH  62  76
BRANCH  63  87
ATOM     87  C   UNL A   1      38.751  28.511  29.718  1.00  0.00     0.064 A 
ATOM     88  C   UNL A   1      37.990  28.798  30.864  1.00  0.00     0.173 A 
ATOM     89  C   UNL A   1      38.224  28.962  28.493  1.00  0.00     0.173 A 
ATOM     90  F   UNL A   1      38.440  28.445  32.078  1.00  0.00    -0.203 F 
ATOM     91  C   UNL A   1      36.793  29.522  30.793  1.00  0.00     0.198 A 
ATOM     92  C   UNL A   1      37.028  29.681  28.421  1.00  0.00     0.198 A 
ATOM     93  F   UNL A   1      38.910  28.805  27.351  1.00  0.00    -0.203 F 
ATOM     94  F   UNL A   1      36.131  29.835  31.916  1.00  0.00    -0.200 F 
ATOM     95  C   UNL A   1      36.320  29.973  29.573  1.00  0.00     0.200 A 
ATOM     96  F   UNL A   1      36.604  30.147  27.238  1.00  0.00    -0.200 F 
ATOM     97  F   UNL A   1      35.212  30.725  29.509  1.00  0.00    -0.200 F 
ENDBRANCH  63  87
BRANCH  75  98
ATOM     98  C   UNL A   1      44.320  27.404  32.383  1.00  0.00     0.064 A 
ATOM     99  C   UNL A   1      44.162  26.021  32.177  1.00  0.00     0.173 A 
ATOM    100  C   UNL A   1      44.506  27.836  33.703  1.00  0.00     0.173 A 
ATOM    101  F   UNL A   1      44.077  25.513  30.942  1.00  0.00    -0.203 F 
ATOM    102  C   UNL A   1      44.145  25.125  33.246  1.00  0.00     0.198 A 
ATOM    103  C   UNL A   1      44.526  26.936  34.764  1.00  0.00     0.198 A 
ATOM    104  F   UNL A   1      44.717  29.137  33.958  1.00  0.00    -0.203 F 
ATOM    105  F   UNL A   1      43.976  23.813  33.021  1.00  0.00    -0.200 F 
ATOM    106  C   UNL A   1      44.333  25.583  34.537  1.00  0.00     0.200 A 
ATOM    107  F   UNL A   1      44.758  27.380  36.007  1.00  0.00    -0.200 F 
ATOM    108  F   UNL A   1      44.354  24.719  35.562  1.00  0.00    -0.200 F 
ENDBRANCH  75  98
ENDBRANCH  49  50
ENDBRANCH  41  44
ENDBRANCH  39  40
ENDBRANCH  38  39
ENDBRANCH  37  38
ENDBRANCH  36  37
ENDBRANCH   1  36
TORSDOF 18
ENDMDL
MODEL 2
REMARK VINA RESULT:     -11.9      3.993     10.095
REMARK SMILES C/C(=N\Nc1nc(-c2ccc(Cl)cc2)cs1)c1nnn(-c2ccc(C(=O)NCCCCCCNC(=O)c3ccc(-c4c5nc(c(-c6c(F)c(F)c(F)c(F)c6F)c6ccc([nH]6)c(-c6c(F)c(F)c(F)c(F)c6F)c6nc(c(-c7c(F)c(F)c(F)c(F)c7F)c7ccc4[nH]7)C=C6)C=C5)cc3)cc2)c1C
REMARK SMILES IDX 29 1 28 2 27 3 25 4 26 5 24 7 21 8 22 9 101 10 23 11 100 12
REMARK SMILES IDX 20 13 17 14 18 15 102 16 19 17 103 18 2 19 1 20 3 21 4 22
REMARK SMILES IDX 5 24 6 25 16 26 7 27 15 28 8 29 9 30 14 31 10 32 13 33 11 34
REMARK SMILES IDX 12 35 30 36 31 37 32 38 33 39 34 40 35 41 36 43 37 44 38 45
REMARK SMILES IDX 99 46 39 47 98 48 40 49 41 50 42 51 92 52 43 53 97 54 91 55
REMARK SMILES IDX 93 56 44 57 96 58 90 59 89 60 45 62 77 63 57 64 76 65 58 66
REMARK SMILES IDX 61 67 75 68 94 69 59 70 60 71 74 73 95 74 62 75 46 76 47 77
REMARK SMILES IDX 55 78 48 79 49 80 53 81 56 82 50 83 51 84 54 85 52 86 78 87
REMARK SMILES IDX 79 88 87 89 80 90 81 91 85 92 88 93 82 94 83 95 86 96 84 97
REMARK SMILES IDX 63 98 64 99 72 100 65 101 66 102 70 103 73 104 67 105 68 106
REMARK SMILES IDX 71 107 69 108
REMARK H PARENT 27 6 4 23 34 42 93 61 61 72
REMARK Flexibility Score: inf
ROOT
ATOM      1  C   UNL A   1      34.642  34.952  34.049  1.00  0.00     0.021 C 
ENDROOT
BRANCH   1   2
ATOM      2  C   UNL A   1      35.186  35.681  32.817  1.00  0.00     0.116 C 
BRANCH   2   3
ATOM      3  N   UNL A   1      34.096  36.238  32.036  1.00  0.00    -0.352 N 
ATOM      4  C   UNL A   1      33.526  35.887  30.837  1.00  0.00     0.251 C 
ATOM      5  O   UNL A   1      32.575  36.559  30.438  1.00  0.00    -0.269 OA
ATOM      6  H   UNL A   1      33.681  37.029  32.450  1.00  0.00     0.163 HD
BRANCH   4   7
ATOM      7  C   UNL A   1      33.947  34.692  30.054  1.00  0.00     0.039 A 
ATOM      8  C   UNL A   1      34.339  32.406  28.506  1.00  0.00     0.067 A 
ATOM      9  C   UNL A   1      33.977  33.593  27.872  1.00  0.00     0.029 A 
ATOM     10  C   UNL A   1      34.637  32.383  29.871  1.00  0.00     0.029 A 
ATOM     11  C   UNL A   1      33.755  34.728  28.661  1.00  0.00     0.016 A 
ATOM     12  C   UNL A   1      34.492  33.542  30.629  1.00  0.00     0.016 A 
BRANCH   8  13
ATOM     13  N   UNL A   1      34.255  31.188  27.813  1.00  0.00    -0.217 N 
ATOM     14  C   UNL A   1      33.596  29.522  26.579  1.00  0.00     0.132 A 
ATOM     15  N   UNL A   1      34.898  29.310  26.948  1.00  0.00    -0.128 NA
ATOM     16  C   UNL A   1      33.157  30.721  27.117  1.00  0.00     0.071 A 
ATOM     17  N   UNL A   1      35.316  30.380  27.618  1.00  0.00    -0.061 NA
ATOM     18  C   UNL A   1      31.903  31.493  26.910  1.00  0.00     0.069 C 
BRANCH  14  19
ATOM     19  C   UNL A   1      32.857  28.685  25.643  1.00  0.00     0.087 C 
ATOM     20  C   UNL A   1      32.700  29.267  24.260  1.00  0.00     0.071 C 
ATOM     21  N   UNL A   1      32.364  27.578  26.126  1.00  0.00    -0.176 NA
BRANCH  21  22
ATOM     22  N   UNL A   1      31.513  26.747  25.434  1.00  0.00    -0.252 N 
ATOM     23  H   UNL A   1      30.557  26.914  25.601  1.00  0.00     0.193 HD
BRANCH  22  24
ATOM     24  C   UNL A   1      31.763  25.738  24.561  1.00  0.00     0.203 A 
ATOM     25  N   UNL A   1      31.879  24.465  24.858  1.00  0.00    -0.219 NA
ATOM     26  S   UNL A   1      32.062  26.088  22.893  1.00  0.00    -0.103 S 
ATOM     27  C   UNL A   1      32.521  23.785  23.845  1.00  0.00     0.084 A 
ATOM     28  C   UNL A   1      32.710  24.509  22.688  1.00  0.00     0.097 A 
BRANCH  27  29
ATOM     29  C   UNL A   1      33.005  22.437  24.079  1.00  0.00     0.001 A 
ATOM     30  C   UNL A   1      32.326  21.355  23.501  1.00  0.00     0.012 A 
ATOM     31  C   UNL A   1      34.069  22.189  24.957  1.00  0.00     0.012 A 
ATOM     32  C   UNL A   1      32.728  20.043  23.768  1.00  0.00     0.021 A 
ATOM     33  C   UNL A   1      34.464  20.875  25.233  1.00  0.00     0.021 A 
ATOM     34  C   UNL A   1      33.795  19.810  24.631  1.00  0.00     0.041 A 
ATOM     35  Cl  UNL A   1      34.286  18.196  24.967  1.00  0.00    -0.084 Cl
ENDBRANCH  27  29
ENDBRANCH  22  24
ENDBRANCH  21  22
ENDBRANCH  14  19
ENDBRANCH   8  13
ENDBRANCH   4   7
ENDBRANCH   2   3
ENDBRANCH   1   2
BRANCH   1  36
ATOM     36  C   UNL A   1      35.390  33.650  34.371  1.00  0.00     0.002 C 
BRANCH  36  37
ATOM     37  C   UNL A   1      36.923  33.763  34.443  1.00  0.00     0.002 C 
BRANCH  37  38
ATOM     38  C   UNL A   1      37.729  32.632  33.784  1.00  0.00     0.021 C 
BRANCH  38  39
ATOM     39  C   UNL A   1      38.728  33.115  32.746  1.00  0.00     0.116 C 
BRANCH  39  40
ATOM     40  N   UNL A   1      38.105  33.384  31.445  1.00  0.00    -0.352 N 
ATOM     41  C   UNL A   1      38.508  32.994  30.177  1.00  0.00     0.251 C 
ATOM     42  H   UNL A   1      37.281  33.922  31.477  1.00  0.00     0.163 HD
ATOM     43  O   UNL A   1      38.130  33.591  29.183  1.00  0.00    -0.269 OA
BRANCH  41  44
ATOM     44  C   UNL A   1      39.395  31.824  30.049  1.00  0.00     0.039 A 
ATOM     45  C   UNL A   1      40.789  31.911  30.126  1.00  0.00     0.014 A 
ATOM     46  C   UNL A   1      38.780  30.595  29.863  1.00  0.00     0.014 A 
ATOM     47  C   UNL A   1      41.531  30.733  30.050  1.00  0.00     0.010 A 
ATOM     48  C   UNL A   1      39.472  29.450  30.103  1.00  0.00     0.010 A 
ATOM     49  C   UNL A   1      40.850  29.505  30.038  1.00  0.00    -0.014 A 
BRANCH  49  50
ATOM     50  C   UNL A   1      41.526  28.220  30.033  1.00  0.00     0.031 A 
ATOM     51  C   UNL A   1      42.133  27.876  31.335  1.00  0.00     0.074 A 
ATOM     52  C   UNL A   1      41.378  27.327  29.027  1.00  0.00     0.049 A 
ATOM     53  N   UNL A   1      43.390  27.831  31.622  1.00  0.00    -0.248 NA
ATOM     54  C   UNL A   1      41.246  27.743  32.503  1.00  0.00     0.031 C 
ATOM     55  C   UNL A   1      40.520  27.415  27.836  1.00  0.00     0.029 A 
ATOM     56  N   UNL A   1      41.906  26.080  28.910  1.00  0.00    -0.354 N 
ATOM     57  C   UNL A   1      43.455  27.438  32.952  1.00  0.00     0.074 A 
ATOM     58  C   UNL A   1      42.135  27.628  33.491  1.00  0.00     0.031 C 
ATOM     59  C   UNL A   1      40.423  26.201  27.249  1.00  0.00     0.029 A 
ATOM     60  C   UNL A   1      41.334  25.290  27.915  1.00  0.00     0.049 A 
ATOM     61  H   UNL A   1      42.638  25.759  29.486  1.00  0.00     0.167 HD
ATOM     62  C   UNL A   1      44.518  26.716  33.401  1.00  0.00     0.037 A 
ATOM     63  C   UNL A   1      41.586  23.976  27.688  1.00  0.00     0.037 A 
ATOM     64  C   UNL A   1      45.615  26.789  32.462  1.00  0.00     0.049 A 
ATOM     65  C   UNL A   1      42.879  23.663  28.349  1.00  0.00     0.074 A 
ATOM     66  C   UNL A   1      46.368  27.818  31.928  1.00  0.00     0.029 A 
ATOM     67  N   UNL A   1      45.806  25.719  31.622  1.00  0.00    -0.354 N 
ATOM     68  N   UNL A   1      44.025  24.148  27.957  1.00  0.00    -0.248 NA
ATOM     69  C   UNL A   1      42.831  23.213  29.732  1.00  0.00     0.031 C 
ATOM     70  C   UNL A   1      46.564  27.462  30.560  1.00  0.00     0.029 A 
ATOM     71  C   UNL A   1      45.998  26.204  30.354  1.00  0.00     0.049 A 
ATOM     72  H   UNL A   1      45.805  24.770  31.884  1.00  0.00     0.167 HD
ATOM     73  C   UNL A   1      44.687  24.476  29.131  1.00  0.00     0.074 A 
ATOM     74  C   UNL A   1      43.934  23.808  30.192  1.00  0.00     0.031 C 
ATOM     75  C   UNL A   1      45.592  25.499  29.161  1.00  0.00     0.037 A 
BRANCH  62  76
ATOM     76  C   UNL A   1      44.429  25.624  34.442  1.00  0.00     0.064 A 
ATOM     77  C   UNL A   1      45.088  25.815  35.673  1.00  0.00     0.173 A 
ATOM     78  C   UNL A   1      44.001  24.302  34.185  1.00  0.00     0.173 A 
ATOM     79  F   UNL A   1      45.542  27.027  36.024  1.00  0.00    -0.203 F 
ATOM     80  C   UNL A   1      45.388  24.749  36.524  1.00  0.00     0.198 A 
ATOM     81  C   UNL A   1      44.254  23.250  35.063  1.00  0.00     0.198 A 
ATOM     82  F   UNL A   1      43.425  23.939  33.035  1.00  0.00    -0.203 F 
ATOM     83  F   UNL A   1      46.140  24.960  37.612  1.00  0.00    -0.200 F 
ATOM     84  C   UNL A   1      44.980  23.466  36.213  1.00  0.00     0.200 A 
ATOM     85  F   UNL A   1      43.861  22.012  34.734  1.00  0.00    -0.200 F 
ATOM     86  F   UNL A   1      45.325  22.432  36.991  1.00  0.00    -0.200 F 
ENDBRANCH  62  76
BRANCH  63  87
ATOM     87  C   UNL A   1      40.659  22.911  27.228  1.00  0.00     0.064 A 
ATOM     88  C   UNL A   1      39.333  23.206  26.871  1.00  0.00     0.173 A 
ATOM     89  C   UNL A   1      41.140  21.644  26.844  1.00  0.00     0.173 A 
ATOM     90  F   UNL A   1      38.808  24.407  27.158  1.00  0.00    -0.203 F 
ATOM     91  C   UNL A   1      38.545  22.303  26.145  1.00  0.00     0.198 A 
ATOM     92  C   UNL A   1      40.354  20.742  26.122  1.00  0.00     0.198 A 
ATOM     93  F   UNL A   1      42.415  21.296  27.070  1.00  0.00    -0.203 F 
ATOM     94  F   UNL A   1      37.308  22.648  25.764  1.00  0.00    -0.200 F 
ATOM     95  C   UNL A   1      39.062  21.077  25.760  1.00  0.00     0.200 A 
ATOM     96  F   UNL A   1      40.881  19.577  25.721  1.00  0.00    -0.200 F 
ATOM     97  F   UNL A   1      38.336  20.240  25.006  1.00  0.00    -0.200 F 
ENDBRANCH  63  87
BRANCH  75  98
ATOM     98  C   UNL A   1      46.042  26.072  27.843  1.00  0.00     0.064 A 
ATOM     99  C   UNL A   1      45.484  27.215  27.240  1.00  0.00     0.173 A 
ATOM    100  C   UNL A   1      47.171  25.513  27.230  1.00  0.00     0.173 A 
ATOM    101  F   UNL A   1      44.467  27.869  27.812  1.00  0.00    -0.203 F 
ATOM    102  C   UNL A   1      46.005  27.740  26.058  1.00  0.00     0.198 A 
ATOM    103  C   UNL A   1      47.712  26.061  26.071  1.00  0.00     0.198 A 
ATOM    104  F   UNL A   1      47.781  24.455  27.787  1.00  0.00    -0.203 F 
ATOM    105  F   UNL A   1      45.443  28.821  25.496  1.00  0.00    -0.200 F 
ATOM    106  C   UNL A   1      47.122  27.165  25.478  1.00  0.00     0.200 A 
ATOM    107  F   UNL A   1      48.823  25.530  25.542  1.00  0.00    -0.200 F 
ATOM    108  F   UNL A   1      47.647  27.691  24.362  1.00  0.00    -0.200 F 
ENDBRANCH  75  98
ENDBRANCH  49  50
ENDBRANCH  41  44
ENDBRANCH  39  40
ENDBRANCH  38  39
ENDBRANCH  37  38
ENDBRANCH  36  37
ENDBRANCH   1  36
TORSDOF 18
ENDMDL
MODEL 3
REMARK VINA RESULT:     -11.8      2.844      5.107
REMARK SMILES C/C(=N\Nc1nc(-c2ccc(Cl)cc2)cs1)c1nnn(-c2ccc(C(=O)NCCCCCCNC(=O)c3ccc(-c4c5nc(c(-c6c(F)c(F)c(F)c(F)c6F)c6ccc([nH]6)c(-c6c(F)c(F)c(F)c(F)c6F)c6nc(c(-c7c(F)c(F)c(F)c(F)c7F)c7ccc4[nH]7)C=C6)C=C5)cc3)cc2)c1C
REMARK SMILES IDX 29 1 28 2 27 3 25 4 26 5 24 7 21 8 22 9 101 10 23 11 100 12
REMARK SMILES IDX 20 13 17 14 18 15 102 16 19 17 103 18 2 19 1 20 3 21 4 22
REMARK SMILES IDX 5 24 6 25 16 26 7 27 15 28 8 29 9 30 14 31 10 32 13 33 11 34
REMARK SMILES IDX 12 35 30 36 31 37 32 38 33 39 34 40 35 41 36 43 37 44 38 45
REMARK SMILES IDX 99 46 39 47 98 48 40 49 41 50 42 51 92 52 43 53 97 54 91 55
REMARK SMILES IDX 93 56 44 57 96 58 90 59 89 60 45 62 77 63 57 64 76 65 58 66
REMARK SMILES IDX 61 67 75 68 94 69 59 70 60 71 74 73 95 74 62 75 46 76 47 77
REMARK SMILES IDX 55 78 48 79 49 80 53 81 56 82 50 83 51 84 54 85 52 86 78 87
REMARK SMILES IDX 79 88 87 89 80 90 81 91 85 92 88 93 82 94 83 95 86 96 84 97
REMARK SMILES IDX 63 98 64 99 72 100 65 101 66 102 70 103 73 104 67 105 68 106
REMARK SMILES IDX 71 107 69 108
REMARK H PARENT 27 6 4 23 34 42 93 61 61 72
REMARK Flexibility Score: inf
ROOT
ATOM      1  C   UNL A   1      36.638  21.988  24.192  1.00  0.00     0.021 C 
ENDROOT
BRANCH   1   2
ATOM      2  C   UNL A   1      36.698  20.879  25.246  1.00  0.00     0.116 C 
BRANCH   2   3
ATOM      3  N   UNL A   1      35.764  19.816  24.916  1.00  0.00    -0.352 N 
ATOM      4  C   UNL A   1      34.396  19.718  24.973  1.00  0.00     0.251 C 
ATOM      5  O   UNL A   1      33.883  18.667  24.592  1.00  0.00    -0.269 OA
ATOM      6  H   UNL A   1      36.202  19.000  24.583  1.00  0.00     0.163 HD
BRANCH   4   7
ATOM      7  C   UNL A   1      33.515  20.845  25.390  1.00  0.00     0.039 A 
ATOM      8  C   UNL A   1      32.105  23.187  25.936  1.00  0.00     0.067 A 
ATOM      9  C   UNL A   1      31.999  22.619  24.668  1.00  0.00     0.029 A 
ATOM     10  C   UNL A   1      32.791  22.531  26.962  1.00  0.00     0.029 A 
ATOM     11  C   UNL A   1      32.732  21.459  24.395  1.00  0.00     0.016 A 
ATOM     12  C   UNL A   1      33.447  21.333  26.696  1.00  0.00     0.016 A 
BRANCH   8  13
ATOM     13  N   UNL A   1      31.659  24.501  26.154  1.00  0.00    -0.217 N 
ATOM     14  C   UNL A   1      31.522  26.666  26.315  1.00  0.00     0.132 A 
ATOM     15  N   UNL A   1      30.281  26.128  26.529  1.00  0.00    -0.128 NA
ATOM     16  C   UNL A   1      32.427  25.645  26.068  1.00  0.00     0.071 A 
ATOM     17  N   UNL A   1      30.361  24.815  26.332  1.00  0.00    -0.061 NA
ATOM     18  C   UNL A   1      33.848  25.674  25.630  1.00  0.00     0.069 C 
BRANCH  14  19
ATOM     19  C   UNL A   1      31.796  28.093  26.213  1.00  0.00     0.087 C 
ATOM     20  C   UNL A   1      31.414  28.720  24.894  1.00  0.00     0.071 C 
ATOM     21  N   UNL A   1      32.396  28.638  27.234  1.00  0.00    -0.176 NA
BRANCH  21  22
ATOM     22  N   UNL A   1      32.871  29.930  27.250  1.00  0.00    -0.252 N 
ATOM     23  H   UNL A   1      32.208  30.610  26.993  1.00  0.00     0.193 HD
BRANCH  22  24
ATOM     24  C   UNL A   1      34.095  30.428  27.562  1.00  0.00     0.203 A 
ATOM     25  N   UNL A   1      35.214  29.747  27.639  1.00  0.00    -0.219 NA
ATOM     26  S   UNL A   1      34.267  32.093  28.002  1.00  0.00    -0.103 S 
ATOM     27  C   UNL A   1      36.161  30.447  28.356  1.00  0.00     0.084 A 
ATOM     28  C   UNL A   1      35.823  31.751  28.648  1.00  0.00     0.097 A 
BRANCH  27  29
ATOM     29  C   UNL A   1      37.366  29.772  28.805  1.00  0.00     0.001 A 
ATOM     30  C   UNL A   1      37.477  29.387  30.147  1.00  0.00     0.012 A 
ATOM     31  C   UNL A   1      38.461  29.596  27.947  1.00  0.00     0.012 A 
ATOM     32  C   UNL A   1      38.653  28.801  30.621  1.00  0.00     0.021 A 
ATOM     33  C   UNL A   1      39.643  29.020  28.425  1.00  0.00     0.021 A 
ATOM     34  C   UNL A   1      39.730  28.618  29.758  1.00  0.00     0.041 A 
ATOM     35  Cl  UNL A   1      41.183  27.905  30.341  1.00  0.00    -0.084 Cl
ENDBRANCH  27  29
ENDBRANCH  22  24
ENDBRANCH  21  22
ENDBRANCH  14  19
ENDBRANCH   8  13
ENDBRANCH   4   7
ENDBRANCH   2   3
ENDBRANCH   1   2
BRANCH   1  36
ATOM     36  C   UNL A   1      36.683  23.402  24.788  1.00  0.00     0.002 C 
BRANCH  36  37
ATOM     37  C   UNL A   1      37.347  23.523  26.171  1.00  0.00     0.002 C 
BRANCH  37  38
ATOM     38  C   UNL A   1      38.699  24.251  26.225  1.00  0.00     0.021 C 
BRANCH  38  39
ATOM     39  C   UNL A   1      39.665  23.677  27.247  1.00  0.00     0.116 C 
BRANCH  39  40
ATOM     40  N   UNL A   1      40.375  22.493  26.751  1.00  0.00    -0.352 N 
ATOM     41  C   UNL A   1      41.587  22.406  26.084  1.00  0.00     0.251 C 
ATOM     42  H   UNL A   1      39.923  21.633  26.914  1.00  0.00     0.163 HD
ATOM     43  O   UNL A   1      41.867  21.432  25.406  1.00  0.00    -0.269 OA
BRANCH  41  44
ATOM     44  C   UNL A   1      42.548  23.515  26.224  1.00  0.00     0.039 A 
ATOM     45  C   UNL A   1      42.643  24.563  25.302  1.00  0.00     0.014 A 
ATOM     46  C   UNL A   1      43.365  23.493  27.344  1.00  0.00     0.014 A 
ATOM     47  C   UNL A   1      43.548  25.592  25.561  1.00  0.00     0.010 A 
ATOM     48  C   UNL A   1      43.999  24.627  27.740  1.00  0.00     0.010 A 
ATOM     49  C   UNL A   1      44.221  25.606  26.792  1.00  0.00    -0.014 A 
BRANCH  49  50
ATOM     50  C   UNL A   1      45.127  26.668  27.192  1.00  0.00     0.031 A 
ATOM     51  C   UNL A   1      46.540  26.378  26.873  1.00  0.00     0.074 A 
ATOM     52  C   UNL A   1      44.690  27.893  27.565  1.00  0.00     0.049 A 
ATOM     53  N   UNL A   1      47.488  26.109  27.705  1.00  0.00    -0.248 NA
ATOM     54  C   UNL A   1      46.909  26.186  25.461  1.00  0.00     0.031 C 
ATOM     55  C   UNL A   1      43.314  28.411  27.590  1.00  0.00     0.029 A 
ATOM     56  N   UNL A   1      45.416  28.987  27.917  1.00  0.00    -0.354 N 
ATOM     57  C   UNL A   1      48.627  25.938  26.929  1.00  0.00     0.074 A 
ATOM     58  C   UNL A   1      48.170  25.766  25.577  1.00  0.00     0.031 C 
ATOM     59  C   UNL A   1      43.332  29.757  27.722  1.00  0.00     0.029 A 
ATOM     60  C   UNL A   1      44.699  30.180  27.957  1.00  0.00     0.049 A 
ATOM     61  H   UNL A   1      46.377  28.939  28.128  1.00  0.00     0.167 HD
ATOM     62  C   UNL A   1      49.852  26.251  27.435  1.00  0.00     0.037 A 
ATOM     63  C   UNL A   1      45.215  31.422  28.144  1.00  0.00     0.037 A 
ATOM     64  C   UNL A   1      49.791  26.376  28.875  1.00  0.00     0.049 A 
ATOM     65  C   UNL A   1      46.558  31.244  28.755  1.00  0.00     0.074 A 
ATOM     66  C   UNL A   1      49.432  25.530  29.907  1.00  0.00     0.029 A 
ATOM     67  N   UNL A   1      49.739  27.644  29.402  1.00  0.00    -0.354 N 
ATOM     68  N   UNL A   1      46.746  30.775  29.957  1.00  0.00    -0.248 NA
ATOM     69  C   UNL A   1      47.691  31.124  27.851  1.00  0.00     0.031 C 
ATOM     70  C   UNL A   1      48.719  26.353  30.830  1.00  0.00     0.029 A 
ATOM     71  C   UNL A   1      48.754  27.665  30.356  1.00  0.00     0.049 A 
ATOM     72  H   UNL A   1      50.307  28.404  29.140  1.00  0.00     0.167 HD
ATOM     73  C   UNL A   1      47.829  29.916  29.833  1.00  0.00     0.074 A 
ATOM     74  C   UNL A   1      48.415  30.230  28.531  1.00  0.00     0.031 C 
ATOM     75  C   UNL A   1      47.959  28.833  30.655  1.00  0.00     0.037 A 
BRANCH  62  76
ATOM     76  C   UNL A   1      50.980  26.853  26.628  1.00  0.00     0.064 A 
ATOM     77  C   UNL A   1      50.722  28.023  25.886  1.00  0.00     0.173 A 
ATOM     78  C   UNL A   1      52.183  26.186  26.306  1.00  0.00     0.173 A 
ATOM     79  F   UNL A   1      49.609  28.739  26.102  1.00  0.00    -0.203 F 
ATOM     80  C   UNL A   1      51.549  28.429  24.836  1.00  0.00     0.198 A 
ATOM     81  C   UNL A   1      53.033  26.625  25.294  1.00  0.00     0.198 A 
ATOM     82  F   UNL A   1      52.539  25.025  26.866  1.00  0.00    -0.203 F 
ATOM     83  F   UNL A   1      51.187  29.466  24.069  1.00  0.00    -0.200 F 
ATOM     84  C   UNL A   1      52.699  27.723  24.534  1.00  0.00     0.200 A 
ATOM     85  F   UNL A   1      54.135  25.917  25.010  1.00  0.00    -0.200 F 
ATOM     86  F   UNL A   1      53.456  28.068  23.486  1.00  0.00    -0.200 F 
ENDBRANCH  62  76
BRANCH  63  87
ATOM     87  C   UNL A   1      44.783  32.714  27.554  1.00  0.00     0.064 A 
ATOM     88  C   UNL A   1      44.663  32.874  26.163  1.00  0.00     0.173 A 
ATOM     89  C   UNL A   1      44.195  33.717  28.348  1.00  0.00     0.173 A 
ATOM     90  F   UNL A   1      45.155  31.942  25.332  1.00  0.00    -0.203 F 
ATOM     91  C   UNL A   1      43.967  33.952  25.601  1.00  0.00     0.198 A 
ATOM     92  C   UNL A   1      43.504  34.794  27.788  1.00  0.00     0.198 A 
ATOM     93  F   UNL A   1      44.189  33.618  29.686  1.00  0.00    -0.203 F 
ATOM     94  F   UNL A   1      43.815  34.032  24.272  1.00  0.00    -0.200 F 
ATOM     95  C   UNL A   1      43.377  34.904  26.415  1.00  0.00     0.200 A 
ATOM     96  F   UNL A   1      42.903  35.686  28.589  1.00  0.00    -0.200 F 
ATOM     97  F   UNL A   1      42.652  35.898  25.884  1.00  0.00    -0.200 F 
ENDBRANCH  63  87
BRANCH  75  98
ATOM     98  C   UNL A   1      47.053  28.753  31.855  1.00  0.00     0.064 A 
ATOM     99  C   UNL A   1      45.802  28.110  31.866  1.00  0.00     0.173 A 
ATOM    100  C   UNL A   1      47.533  29.239  33.078  1.00  0.00     0.173 A 
ATOM    101  F   UNL A   1      45.314  27.530  30.763  1.00  0.00    -0.203 F 
ATOM    102  C   UNL A   1      45.051  28.002  33.037  1.00  0.00     0.198 A 
ATOM    103  C   UNL A   1      46.799  29.097  34.252  1.00  0.00     0.198 A 
ATOM    104  F   UNL A   1      48.744  29.814  33.142  1.00  0.00    -0.203 F 
ATOM    105  F   UNL A   1      43.854  27.397  33.015  1.00  0.00    -0.200 F 
ATOM    106  C   UNL A   1      45.554  28.491  34.229  1.00  0.00     0.200 A 
ATOM    107  F   UNL A   1      47.313  29.528  35.413  1.00  0.00    -0.200 F 
ATOM    108  F   UNL A   1      44.851  28.355  35.363  1.00  0.00    -0.200 F 
ENDBRANCH  75  98
ENDBRANCH  49  50
ENDBRANCH  41  44
ENDBRANCH  39  40
ENDBRANCH  38  39
ENDBRANCH  37  38
ENDBRANCH  36  37
ENDBRANCH   1  36
TORSDOF 18
ENDMDL
