MODEL 1
REMARK VINA RESULT:     -14.1      0.000      0.000
REMARK SMILES O=C(NCCCCCCNC(=O)[C@H](c1c[nH]c2ccc(Br)cc12)[N@H+]1CCC[C@H](c2nc3ccccc3s2)C1)c1ccc(-c2c3nc(c(-c4c(F)c(F)c(F)c(F)c4F)c4ccc([nH]4)c(-c4c(F)c(F)c(F)c(F)c4F)c4nc(c(-c5c(F)c(F)c(F)c(F)c5F)c5ccc2[nH]5)C=C4)C=C3)cc1
REMARK SMILES IDX 6 1 5 2 4 3 3 4 1 5 2 6 39 8 40 9 101 10 41 11 100 12 42 13
REMARK SMILES IDX 43 14 44 15 94 16 45 17 99 18 93 19 95 20 46 21 98 22 92 23
REMARK SMILES IDX 91 24 47 26 79 27 59 28 78 29 60 30 63 31 77 32 96 33 61 34
REMARK SMILES IDX 62 35 76 37 97 38 64 39 48 40 49 41 57 42 50 43 51 44 55 45
REMARK SMILES IDX 58 46 52 47 53 48 56 49 54 50 80 51 81 52 89 53 82 54 83 55
REMARK SMILES IDX 87 56 90 57 84 58 85 59 88 60 86 61 65 62 66 63 74 64 67 65
REMARK SMILES IDX 68 66 72 67 75 68 69 69 70 70 73 71 71 72 7 73 8 74 9 75
REMARK SMILES IDX 10 76 11 77 12 79 13 80 24 81 25 82 38 83 26 85 28 86 27 87
REMARK SMILES IDX 29 88 30 89 37 90 31 91 36 92 32 93 35 94 33 95 34 96 14 97
REMARK SMILES IDX 15 98 23 99 16 100 17 101 22 102 18 104 20 105 19 106 21 107
REMARK H PARENT 3 7 95 25 63 36 10 78 24 84 16 103
REMARK Flexibility Score: inf
ROOT
ATOM      1  C   UNL A   1      31.387  30.837  26.130  1.00  0.00     0.002 C 
ENDROOT
BRANCH   1   2
ATOM      2  C   UNL A   1      31.326  32.320  26.501  1.00  0.00     0.021 C 
BRANCH   2   3
ATOM      3  C   UNL A   1      32.561  32.818  27.244  1.00  0.00     0.116 C 
BRANCH   3   4
ATOM      4  N   UNL A   1      32.413  34.211  27.638  1.00  0.00    -0.352 N 
ATOM      5  O   UNL A   1      32.605  35.967  29.044  1.00  0.00    -0.269 OA
ATOM      6  C   UNL A   1      33.033  34.878  28.656  1.00  0.00     0.251 C 
ATOM      7  H   UNL A   1      31.783  34.742  27.099  1.00  0.00     0.163 HD
BRANCH   6   8
ATOM      8  C   UNL A   1      34.222  34.286  29.292  1.00  0.00     0.039 A 
ATOM      9  C   UNL A   1      34.081  33.462  30.415  1.00  0.00     0.014 A 
ATOM     10  C   UNL A   1      35.482  34.538  28.748  1.00  0.00     0.014 A 
ATOM     11  C   UNL A   1      35.211  32.968  31.055  1.00  0.00     0.010 A 
ATOM     12  C   UNL A   1      36.610  33.983  29.349  1.00  0.00     0.010 A 
ATOM     13  C   UNL A   1      36.482  33.207  30.514  1.00  0.00    -0.014 A 
BRANCH  13  14
ATOM     14  C   UNL A   1      37.681  32.590  31.129  1.00  0.00     0.031 A 
ATOM     15  C   UNL A   1      38.398  31.467  30.443  1.00  0.00     0.074 A 
ATOM     16  C   UNL A   1      38.083  33.020  32.339  1.00  0.00     0.049 A 
ATOM     17  N   UNL A   1      39.383  30.726  30.880  1.00  0.00    -0.248 NA
ATOM     18  C   UNL A   1      37.937  31.124  29.090  1.00  0.00     0.031 C 
ATOM     19  C   UNL A   1      37.456  34.105  33.095  1.00  0.00     0.029 A 
ATOM     20  N   UNL A   1      39.095  32.585  33.154  1.00  0.00    -0.354 N 
ATOM     21  C   UNL A   1      39.644  29.810  29.870  1.00  0.00     0.074 A 
ATOM     22  C   UNL A   1      38.698  30.075  28.807  1.00  0.00     0.031 C 
ATOM     23  C   UNL A   1      38.096  34.251  34.264  1.00  0.00     0.029 A 
ATOM     24  C   UNL A   1      39.131  33.228  34.365  1.00  0.00     0.049 A 
ATOM     25  H   UNL A   1      39.732  31.880  32.896  1.00  0.00     0.167 HD
ATOM     26  C   UNL A   1      40.590  28.841  29.840  1.00  0.00     0.037 A 
ATOM     27  C   UNL A   1      39.885  32.994  35.455  1.00  0.00     0.037 A 
ATOM     28  C   UNL A   1      41.523  28.593  30.909  1.00  0.00     0.049 A 
ATOM     29  C   UNL A   1      40.897  31.887  35.417  1.00  0.00     0.074 A 
ATOM     30  C   UNL A   1      42.548  27.665  30.964  1.00  0.00     0.029 A 
ATOM     31  N   UNL A   1      41.534  29.272  32.122  1.00  0.00    -0.354 N 
ATOM     32  N   UNL A   1      41.164  31.048  34.445  1.00  0.00    -0.248 NA
ATOM     33  C   UNL A   1      41.711  31.691  36.623  1.00  0.00     0.031 C 
ATOM     34  C   UNL A   1      43.138  27.739  32.230  1.00  0.00     0.029 A 
ATOM     35  C   UNL A   1      42.528  28.761  32.942  1.00  0.00     0.049 A 
ATOM     36  H   UNL A   1      40.927  30.007  32.363  1.00  0.00     0.167 HD
ATOM     37  C   UNL A   1      42.196  30.245  34.907  1.00  0.00     0.074 A 
ATOM     38  C   UNL A   1      42.507  30.696  36.249  1.00  0.00     0.031 C 
ATOM     39  C   UNL A   1      42.833  29.230  34.271  1.00  0.00     0.037 A 
BRANCH  26  40
ATOM     40  C   UNL A   1      40.631  27.951  28.630  1.00  0.00     0.064 A 
ATOM     41  C   UNL A   1      41.410  28.260  27.505  1.00  0.00     0.173 A 
ATOM     42  C   UNL A   1      39.882  26.763  28.600  1.00  0.00     0.173 A 
ATOM     43  F   UNL A   1      42.138  29.386  27.476  1.00  0.00    -0.203 F 
ATOM     44  C   UNL A   1      41.404  27.438  26.380  1.00  0.00     0.198 A 
ATOM     45  C   UNL A   1      39.905  25.926  27.486  1.00  0.00     0.198 A 
ATOM     46  F   UNL A   1      39.127  26.412  29.650  1.00  0.00    -0.203 F 
ATOM     47  F   UNL A   1      42.106  27.789  25.293  1.00  0.00    -0.200 F 
ATOM     48  C   UNL A   1      40.656  26.270  26.373  1.00  0.00     0.200 A 
ATOM     49  F   UNL A   1      39.194  24.791  27.489  1.00  0.00    -0.200 F 
ATOM     50  F   UNL A   1      40.649  25.483  25.288  1.00  0.00    -0.200 F 
ENDBRANCH  26  40
BRANCH  27  51
ATOM     51  C   UNL A   1      39.685  33.832  36.664  1.00  0.00     0.064 A 
ATOM     52  C   UNL A   1      40.277  35.097  36.770  1.00  0.00     0.173 A 
ATOM     53  C   UNL A   1      38.846  33.412  37.707  1.00  0.00     0.173 A 
ATOM     54  F   UNL A   1      41.097  35.536  35.804  1.00  0.00    -0.203 F 
ATOM     55  C   UNL A   1      40.039  35.909  37.877  1.00  0.00     0.198 A 
ATOM     56  C   UNL A   1      38.586  34.235  38.799  1.00  0.00     0.198 A 
ATOM     57  F   UNL A   1      38.246  32.213  37.645  1.00  0.00    -0.203 F 
ATOM     58  F   UNL A   1      40.635  37.106  37.966  1.00  0.00    -0.200 F 
ATOM     59  C   UNL A   1      39.185  35.483  38.884  1.00  0.00     0.200 A 
ATOM     60  F   UNL A   1      37.745  33.828  39.759  1.00  0.00    -0.200 F 
ATOM     61  F   UNL A   1      38.941  36.274  39.937  1.00  0.00    -0.200 F 
ENDBRANCH  27  51
BRANCH  39  62
ATOM     62  C   UNL A   1      43.969  28.566  34.991  1.00  0.00     0.064 A 
ATOM     63  C   UNL A   1      45.279  29.062  34.926  1.00  0.00     0.173 A 
ATOM     64  C   UNL A   1      43.724  27.460  35.820  1.00  0.00     0.173 A 
ATOM     65  F   UNL A   1      45.567  30.105  34.134  1.00  0.00    -0.203 F 
ATOM     66  C   UNL A   1      46.303  28.470  35.660  1.00  0.00     0.198 A 
ATOM     67  C   UNL A   1      44.744  26.890  36.575  1.00  0.00     0.198 A 
ATOM     68  F   UNL A   1      42.488  26.950  35.919  1.00  0.00    -0.203 F 
ATOM     69  F   UNL A   1      47.555  28.941  35.560  1.00  0.00    -0.200 F 
ATOM     70  C   UNL A   1      46.034  27.393  36.492  1.00  0.00     0.200 A 
ATOM     71  F   UNL A   1      44.478  25.859  37.388  1.00  0.00    -0.200 F 
ATOM     72  F   UNL A   1      47.017  26.838  37.213  1.00  0.00    -0.200 F 
ENDBRANCH  39  62
ENDBRANCH  13  14
ENDBRANCH   6   8
ENDBRANCH   3   4
ENDBRANCH   2   3
ENDBRANCH   1   2
BRANCH   1  73
ATOM     73  C   UNL A   1      32.502  30.061  26.831  1.00  0.00     0.002 C 
BRANCH  73  74
ATOM     74  C   UNL A   1      32.103  28.650  27.276  1.00  0.00     0.021 C 
BRANCH  74  75
ATOM     75  C   UNL A   1      32.834  27.540  26.514  1.00  0.00     0.116 C 
BRANCH  75  76
ATOM     76  N   UNL A   1      33.158  28.000  25.181  1.00  0.00    -0.351 N 
ATOM     77  C   UNL A   1      33.537  27.237  24.101  1.00  0.00     0.283 C 
ATOM     78  H   UNL A   1      33.098  28.970  25.029  1.00  0.00     0.163 HD
ATOM     79  O   UNL A   1      34.308  27.796  23.314  1.00  0.00    -0.268 OA
BRANCH  77  80
ATOM     80  C   UNL A   1      32.909  25.818  23.874  1.00  0.00     0.307 C 
BRANCH  80  81
ATOM     81  N   UNL A   1      33.574  24.719  24.647  1.00  0.00    -0.320 N 
ATOM     82  C   UNL A   1      34.976  24.992  24.991  1.00  0.00     0.263 C 
ATOM     83  C   UNL A   1      32.818  24.177  25.787  1.00  0.00     0.274 C 
ATOM     84  H   UNL A   1      33.577  23.960  23.966  1.00  0.00     0.349 HD
ATOM     85  C   UNL A   1      35.683  23.800  25.651  1.00  0.00     0.062 C 
ATOM     86  C   UNL A   1      33.458  22.924  26.427  1.00  0.00     0.104 C 
ATOM     87  C   UNL A   1      34.890  23.267  26.842  1.00  0.00     0.022 C 
BRANCH  86  88
ATOM     88  C   UNL A   1      33.400  21.726  25.493  1.00  0.00     0.103 A 
ATOM     89  N   UNL A   1      34.249  20.722  25.514  1.00  0.00    -0.241 NA
ATOM     90  S   UNL A   1      32.159  21.593  24.305  1.00  0.00    -0.118 S 
ATOM     91  C   UNL A   1      33.842  19.719  24.663  1.00  0.00     0.082 A 
ATOM     92  C   UNL A   1      32.701  20.003  23.914  1.00  0.00     0.055 A 
ATOM     93  C   UNL A   1      34.467  18.466  24.514  1.00  0.00     0.030 A 
ATOM     94  C   UNL A   1      32.157  19.069  23.018  1.00  0.00     0.021 A 
ATOM     95  C   UNL A   1      33.927  17.524  23.635  1.00  0.00     0.002 A 
ATOM     96  C   UNL A   1      32.785  17.825  22.897  1.00  0.00     0.002 A 
ENDBRANCH  86  88
ENDBRANCH  80  81
BRANCH  80  97
ATOM     97  C   UNL A   1      31.392  25.808  24.062  1.00  0.00     0.044 A 
ATOM     98  C   UNL A   1      30.659  24.933  24.851  1.00  0.00     0.094 A 
ATOM     99  C   UNL A   1      30.440  26.769  23.555  1.00  0.00     0.010 A 
ATOM    100  N   UNL A   1      29.340  25.281  24.796  1.00  0.00    -0.361 N 
ATOM    101  C   UNL A   1      29.187  26.439  24.077  1.00  0.00     0.046 A 
ATOM    102  C   UNL A   1      30.540  27.935  22.761  1.00  0.00     0.026 A 
ATOM    103  H   UNL A   1      28.606  24.774  25.212  1.00  0.00     0.166 HD
ATOM    104  C   UNL A   1      28.039  27.210  23.866  1.00  0.00     0.028 A 
ATOM    105  C   UNL A   1      29.401  28.727  22.564  1.00  0.00     0.018 A 
ATOM    106  C   UNL A   1      28.170  28.375  23.108  1.00  0.00     0.018 A 
ATOM    107  Br  UNL A   1      29.546  30.332  21.570  1.00  0.00    -0.051 Br
ENDBRANCH  80  97
ENDBRANCH  77  80
ENDBRANCH  75  76
ENDBRANCH  74  75
ENDBRANCH  73  74
ENDBRANCH   1  73
TORSDOF 16
ENDMDL
MODEL 2
REMARK VINA RESULT:     -13.6      1.812      4.682
REMARK SMILES O=C(NCCCCCCNC(=O)[C@H](c1c[nH]c2ccc(Br)cc12)[N@H+]1CCC[C@H](c2nc3ccccc3s2)C1)c1ccc(-c2c3nc(c(-c4c(F)c(F)c(F)c(F)c4F)c4ccc([nH]4)c(-c4c(F)c(F)c(F)c(F)c4F)c4nc(c(-c5c(F)c(F)c(F)c(F)c5F)c5ccc2[nH]5)C=C4)C=C3)cc1
REMARK SMILES IDX 6 1 5 2 4 3 3 4 1 5 2 6 39 8 40 9 101 10 41 11 100 12 42 13
REMARK SMILES IDX 43 14 44 15 94 16 45 17 99 18 93 19 95 20 46 21 98 22 92 23
REMARK SMILES IDX 91 24 47 26 79 27 59 28 78 29 60 30 63 31 77 32 96 33 61 34
REMARK SMILES IDX 62 35 76 37 97 38 64 39 48 40 49 41 57 42 50 43 51 44 55 45
REMARK SMILES IDX 58 46 52 47 53 48 56 49 54 50 80 51 81 52 89 53 82 54 83 55
REMARK SMILES IDX 87 56 90 57 84 58 85 59 88 60 86 61 65 62 66 63 74 64 67 65
REMARK SMILES IDX 68 66 72 67 75 68 69 69 70 70 73 71 71 72 7 73 8 74 9 75
REMARK SMILES IDX 10 76 11 77 12 79 13 80 24 81 25 82 38 83 26 85 28 86 27 87
REMARK SMILES IDX 29 88 30 89 37 90 31 91 36 92 32 93 35 94 33 95 34 96 14 97
REMARK SMILES IDX 15 98 23 99 16 100 17 101 22 102 18 104 20 105 19 106 21 107
REMARK H PARENT 3 7 95 25 63 36 10 78 24 84 16 103
REMARK Flexibility Score: inf
ROOT
ATOM      1  C   UNL A   1      32.764  30.449  27.275  1.00  0.00     0.002 C 
ENDROOT
BRANCH   1   2
ATOM      2  C   UNL A   1      32.108  31.830  27.312  1.00  0.00     0.021 C 
BRANCH   2   3
ATOM      3  C   UNL A   1      33.056  32.969  26.952  1.00  0.00     0.116 C 
BRANCH   3   4
ATOM      4  N   UNL A   1      32.689  34.198  27.639  1.00  0.00    -0.352 N 
ATOM      5  O   UNL A   1      32.522  35.566  29.428  1.00  0.00    -0.269 OA
ATOM      6  C   UNL A   1      33.124  34.659  28.849  1.00  0.00     0.251 C 
ATOM      7  H   UNL A   1      32.042  34.772  27.169  1.00  0.00     0.163 HD
BRANCH   6   8
ATOM      8  C   UNL A   1      34.323  34.063  29.463  1.00  0.00     0.039 A 
ATOM      9  C   UNL A   1      34.191  33.077  30.447  1.00  0.00     0.014 A 
ATOM     10  C   UNL A   1      35.584  34.476  29.035  1.00  0.00     0.014 A 
ATOM     11  C   UNL A   1      35.323  32.573  31.076  1.00  0.00     0.010 A 
ATOM     12  C   UNL A   1      36.721  33.918  29.616  1.00  0.00     0.010 A 
ATOM     13  C   UNL A   1      36.597  32.973  30.650  1.00  0.00    -0.014 A 
BRANCH  13  14
ATOM     14  C   UNL A   1      37.809  32.357  31.240  1.00  0.00     0.031 A 
ATOM     15  C   UNL A   1      38.546  31.275  30.511  1.00  0.00     0.074 A 
ATOM     16  C   UNL A   1      38.203  32.748  32.466  1.00  0.00     0.049 A 
ATOM     17  N   UNL A   1      39.546  30.538  30.919  1.00  0.00    -0.248 NA
ATOM     18  C   UNL A   1      38.090  30.975  29.146  1.00  0.00     0.031 C 
ATOM     19  C   UNL A   1      37.557  33.791  33.263  1.00  0.00     0.029 A 
ATOM     20  N   UNL A   1      39.224  32.302  33.263  1.00  0.00    -0.354 N 
ATOM     21  C   UNL A   1      39.823  29.666  29.875  1.00  0.00     0.074 A 
ATOM     22  C   UNL A   1      38.871  29.953  28.823  1.00  0.00     0.031 C 
ATOM     23  C   UNL A   1      38.195  33.904  34.436  1.00  0.00     0.029 A 
ATOM     24  C   UNL A   1      39.250  32.899  34.497  1.00  0.00     0.049 A 
ATOM     25  H   UNL A   1      39.875  31.619  32.978  1.00  0.00     0.167 HD
ATOM     26  C   UNL A   1      40.787  28.717  29.807  1.00  0.00     0.037 A 
ATOM     27  C   UNL A   1      40.009  32.638  35.577  1.00  0.00     0.037 A 
ATOM     28  C   UNL A   1      41.727  28.446  30.866  1.00  0.00     0.049 A 
ATOM     29  C   UNL A   1      41.043  31.553  35.497  1.00  0.00     0.074 A 
ATOM     30  C   UNL A   1      42.769  27.537  30.884  1.00  0.00     0.029 A 
ATOM     31  N   UNL A   1      41.726  29.079  32.103  1.00  0.00    -0.354 N 
ATOM     32  N   UNL A   1      41.325  30.757  34.493  1.00  0.00    -0.248 NA
ATOM     33  C   UNL A   1      41.862  31.326  36.693  1.00  0.00     0.031 C 
ATOM     34  C   UNL A   1      43.359  27.574  32.151  1.00  0.00     0.029 A 
ATOM     35  C   UNL A   1      42.730  28.556  32.902  1.00  0.00     0.049 A 
ATOM     36  H   UNL A   1      41.105  29.792  32.372  1.00  0.00     0.167 HD
ATOM     37  C   UNL A   1      42.373  29.957  34.923  1.00  0.00     0.074 A 
ATOM     38  C   UNL A   1      42.677  30.363  36.281  1.00  0.00     0.031 C 
ATOM     39  C   UNL A   1      43.028  28.980  34.249  1.00  0.00     0.037 A 
BRANCH  26  40
ATOM     40  C   UNL A   1      40.844  27.875  28.564  1.00  0.00     0.064 A 
ATOM     41  C   UNL A   1      41.603  28.250  27.445  1.00  0.00     0.173 A 
ATOM     42  C   UNL A   1      40.131  26.667  28.494  1.00  0.00     0.173 A 
ATOM     43  F   UNL A   1      42.297  29.398  27.453  1.00  0.00    -0.203 F 
ATOM     44  C   UNL A   1      41.611  27.471  26.290  1.00  0.00     0.198 A 
ATOM     45  C   UNL A   1      40.170  25.874  27.350  1.00  0.00     0.198 A 
ATOM     46  F   UNL A   1      39.397  26.254  29.537  1.00  0.00    -0.203 F 
ATOM     47  F   UNL A   1      42.293  27.885  25.211  1.00  0.00    -0.200 F 
ATOM     48  C   UNL A   1      40.899  26.283  26.244  1.00  0.00     0.200 A 
ATOM     49  F   UNL A   1      39.493  24.718  27.315  1.00  0.00    -0.200 F 
ATOM     50  F   UNL A   1      40.906  25.537  25.131  1.00  0.00    -0.200 F 
ENDBRANCH  26  40
BRANCH  27  51
ATOM     51  C   UNL A   1      39.794  33.425  36.817  1.00  0.00     0.064 A 
ATOM     52  C   UNL A   1      38.898  32.990  37.801  1.00  0.00     0.173 A 
ATOM     53  C   UNL A   1      40.528  34.594  37.070  1.00  0.00     0.173 A 
ATOM     54  F   UNL A   1      38.166  31.886  37.599  1.00  0.00    -0.203 F 
ATOM     55  C   UNL A   1      38.743  33.696  38.993  1.00  0.00     0.198 A 
ATOM     56  C   UNL A   1      40.393  35.284  38.272  1.00  0.00     0.198 A 
ATOM     57  F   UNL A   1      41.408  35.044  36.162  1.00  0.00    -0.203 F 
ATOM     58  F   UNL A   1      37.863  33.272  39.910  1.00  0.00    -0.200 F 
ATOM     59  C   UNL A   1      39.498  34.836  39.231  1.00  0.00     0.200 A 
ATOM     60  F   UNL A   1      41.141  36.371  38.507  1.00  0.00    -0.200 F 
ATOM     61  F   UNL A   1      39.363  35.501  40.386  1.00  0.00    -0.200 F 
ENDBRANCH  27  51
BRANCH  39  62
ATOM     62  C   UNL A   1      44.178  28.310  34.942  1.00  0.00     0.064 A 
ATOM     63  C   UNL A   1      44.019  27.112  35.653  1.00  0.00     0.173 A 
ATOM     64  C   UNL A   1      45.472  28.841  34.826  1.00  0.00     0.173 A 
ATOM     65  F   UNL A   1      42.800  26.575  35.807  1.00  0.00    -0.203 F 
ATOM     66  C   UNL A   1      45.115  26.474  36.227  1.00  0.00     0.198 A 
ATOM     67  C   UNL A   1      46.568  28.184  35.376  1.00  0.00     0.198 A 
ATOM     68  F   UNL A   1      45.676  29.984  34.154  1.00  0.00    -0.203 F 
ATOM     69  F   UNL A   1      44.937  25.345  36.929  1.00  0.00    -0.200 F 
ATOM     70  C   UNL A   1      46.389  27.003  36.079  1.00  0.00     0.200 A 
ATOM     71  F   UNL A   1      47.799  28.690  35.219  1.00  0.00    -0.200 F 
ATOM     72  F   UNL A   1      47.444  26.375  36.615  1.00  0.00    -0.200 F 
ENDBRANCH  39  62
ENDBRANCH  13  14
ENDBRANCH   6   8
ENDBRANCH   3   4
ENDBRANCH   2   3
ENDBRANCH   1   2
BRANCH   1  73
ATOM     73  C   UNL A   1      31.773  29.285  27.256  1.00  0.00     0.002 C 
BRANCH  73  74
ATOM     74  C   UNL A   1      32.373  27.955  26.785  1.00  0.00     0.021 C 
BRANCH  74  75
ATOM     75  C   UNL A   1      31.344  27.012  26.153  1.00  0.00     0.116 C 
BRANCH  75  76
ATOM     76  N   UNL A   1      31.251  25.800  26.938  1.00  0.00    -0.351 N 
ATOM     77  C   UNL A   1      31.109  24.513  26.476  1.00  0.00     0.283 C 
ATOM     78  H   UNL A   1      31.297  25.910  27.915  1.00  0.00     0.163 HD
ATOM     79  O   UNL A   1      30.473  23.760  27.220  1.00  0.00    -0.268 OA
BRANCH  77  80
ATOM     80  C   UNL A   1      31.828  24.060  25.157  1.00  0.00     0.307 C 
BRANCH  80  81
ATOM     81  N   UNL A   1      32.056  25.165  24.170  1.00  0.00    -0.320 N 
ATOM     82  C   UNL A   1      33.425  25.701  24.176  1.00  0.00     0.263 C 
ATOM     83  C   UNL A   1      31.558  24.930  22.805  1.00  0.00     0.274 C 
ATOM     84  H   UNL A   1      31.449  25.898  24.536  1.00  0.00     0.349 HD
ATOM     85  C   UNL A   1      33.602  26.925  23.268  1.00  0.00     0.062 C 
ATOM     86  C   UNL A   1      31.645  26.168  21.883  1.00  0.00     0.104 C 
ATOM     87  C   UNL A   1      33.096  26.652  21.854  1.00  0.00     0.022 C 
BRANCH  86  88
ATOM     88  C   UNL A   1      30.682  27.261  22.321  1.00  0.00     0.103 A 
ATOM     89  N   UNL A   1      30.806  28.533  22.009  1.00  0.00    -0.241 NA
ATOM     90  S   UNL A   1      29.300  26.887  23.280  1.00  0.00    -0.118 S 
ATOM     91  C   UNL A   1      29.698  29.245  22.411  1.00  0.00     0.082 A 
ATOM     92  C   UNL A   1      28.746  28.513  23.118  1.00  0.00     0.055 A 
ATOM     93  C   UNL A   1      29.462  30.609  22.152  1.00  0.00     0.030 A 
ATOM     94  C   UNL A   1      27.556  29.100  23.576  1.00  0.00     0.021 A 
ATOM     95  C   UNL A   1      28.275  31.201  22.590  1.00  0.00     0.002 A 
ATOM     96  C   UNL A   1      27.335  30.452  23.294  1.00  0.00     0.002 A 
ENDBRANCH  86  88
ENDBRANCH  80  81
BRANCH  80  97
ATOM     97  C   UNL A   1      33.104  23.264  25.426  1.00  0.00     0.044 A 
ATOM     98  C   UNL A   1      34.150  23.629  26.262  1.00  0.00     0.094 A 
ATOM     99  C   UNL A   1      33.422  21.935  24.959  1.00  0.00     0.010 A 
ATOM    100  N   UNL A   1      35.082  22.632  26.273  1.00  0.00    -0.361 N 
ATOM    101  C   UNL A   1      34.630  21.557  25.551  1.00  0.00     0.046 A 
ATOM    102  C   UNL A   1      32.757  20.986  24.149  1.00  0.00     0.026 A 
ATOM    103  H   UNL A   1      35.951  22.678  26.732  1.00  0.00     0.166 HD
ATOM    104  C   UNL A   1      35.201  20.288  25.392  1.00  0.00     0.028 A 
ATOM    105  C   UNL A   1      33.307  19.705  24.004  1.00  0.00     0.018 A 
ATOM    106  C   UNL A   1      34.508  19.358  24.616  1.00  0.00     0.018 A 
ATOM    107  Br  UNL A   1      32.381  18.405  22.986  1.00  0.00    -0.051 Br
ENDBRANCH  80  97
ENDBRANCH  77  80
ENDBRANCH  75  76
ENDBRANCH  74  75
ENDBRANCH  73  74
ENDBRANCH   1  73
TORSDOF 16
ENDMDL
MODEL 3
REMARK VINA RESULT:     -13.2      1.076      6.996
REMARK SMILES O=C(NCCCCCCNC(=O)[C@H](c1c[nH]c2ccc(Br)cc12)[N@H+]1CCC[C@H](c2nc3ccccc3s2)C1)c1ccc(-c2c3nc(c(-c4c(F)c(F)c(F)c(F)c4F)c4ccc([nH]4)c(-c4c(F)c(F)c(F)c(F)c4F)c4nc(c(-c5c(F)c(F)c(F)c(F)c5F)c5ccc2[nH]5)C=C4)C=C3)cc1
REMARK SMILES IDX 6 1 5 2 4 3 3 4 1 5 2 6 39 8 40 9 101 10 41 11 100 12 42 13
REMARK SMILES IDX 43 14 44 15 94 16 45 17 99 18 93 19 95 20 46 21 98 22 92 23
REMARK SMILES IDX 91 24 47 26 79 27 59 28 78 29 60 30 63 31 77 32 96 33 61 34
REMARK SMILES IDX 62 35 76 37 97 38 64 39 48 40 49 41 57 42 50 43 51 44 55 45
REMARK SMILES IDX 58 46 52 47 53 48 56 49 54 50 80 51 81 52 89 53 82 54 83 55
REMARK SMILES IDX 87 56 90 57 84 58 85 59 88 60 86 61 65 62 66 63 74 64 67 65
REMARK SMILES IDX 68 66 72 67 75 68 69 69 70 70 73 71 71 72 7 73 8 74 9 75
REMARK SMILES IDX 10 76 11 77 12 79 13 80 24 81 25 82 38 83 26 85 28 86 27 87
REMARK SMILES IDX 29 88 30 89 37 90 31 91 36 92 32 93 35 94 33 95 34 96 14 97
REMARK SMILES IDX 15 98 23 99 16 100 17 101 22 102 18 104 20 105 19 106 21 107
REMARK H PARENT 3 7 95 25 63 36 10 78 24 84 16 103
REMARK Flexibility Score: inf
ROOT
ATOM      1  C   UNL A   1      33.995  31.479  27.754  1.00  0.00     0.002 C 
ENDROOT
BRANCH   1   2
ATOM      2  C   UNL A   1      32.896  32.542  27.804  1.00  0.00     0.021 C 
BRANCH   2   3
ATOM      3  C   UNL A   1      33.339  33.908  27.294  1.00  0.00     0.116 C 
BRANCH   3   4
ATOM      4  N   UNL A   1      32.890  34.973  28.177  1.00  0.00    -0.352 N 
ATOM      5  O   UNL A   1      32.494  35.933  30.183  1.00  0.00    -0.269 OA
ATOM      6  C   UNL A   1      33.164  35.153  29.503  1.00  0.00     0.251 C 
ATOM      7  H   UNL A   1      32.311  35.654  27.764  1.00  0.00     0.163 HD
BRANCH   6   8
ATOM      8  C   UNL A   1      34.271  34.403  30.122  1.00  0.00     0.039 A 
ATOM      9  C   UNL A   1      34.022  33.539  31.194  1.00  0.00     0.014 A 
ATOM     10  C   UNL A   1      35.561  34.548  29.610  1.00  0.00     0.014 A 
ATOM     11  C   UNL A   1      35.081  32.894  31.821  1.00  0.00     0.010 A 
ATOM     12  C   UNL A   1      36.612  33.844  30.194  1.00  0.00     0.010 A 
ATOM     13  C   UNL A   1      36.380  33.024  31.312  1.00  0.00    -0.014 A 
BRANCH  13  14
ATOM     14  C   UNL A   1      37.495  32.250  31.907  1.00  0.00     0.031 A 
ATOM     15  C   UNL A   1      38.067  32.637  33.237  1.00  0.00     0.074 A 
ATOM     16  C   UNL A   1      38.020  31.228  31.208  1.00  0.00     0.049 A 
ATOM     17  N   UNL A   1      39.116  32.159  33.855  1.00  0.00    -0.248 NA
ATOM     18  C   UNL A   1      37.375  33.713  33.962  1.00  0.00     0.031 C 
ATOM     19  C   UNL A   1      37.540  30.768  29.904  1.00  0.00     0.029 A 
ATOM     20  N   UNL A   1      39.082  30.407  31.482  1.00  0.00    -0.354 N 
ATOM     21  C   UNL A   1      39.229  32.892  35.029  1.00  0.00     0.074 A 
ATOM     22  C   UNL A   1      38.154  33.862  35.025  1.00  0.00     0.031 C 
ATOM     23  C   UNL A   1      38.305  29.749  29.490  1.00  0.00     0.029 A 
ATOM     24  C   UNL A   1      39.366  29.529  30.467  1.00  0.00     0.049 A 
ATOM     25  H   UNL A   1      39.592  30.444  32.324  1.00  0.00     0.167 HD
ATOM     26  C   UNL A   1      40.148  32.761  36.016  1.00  0.00     0.037 A 
ATOM     27  C   UNL A   1      40.392  28.671  30.316  1.00  0.00     0.037 A 
ATOM     28  C   UNL A   1      41.211  31.789  36.001  1.00  0.00     0.049 A 
ATOM     29  C   UNL A   1      41.424  28.571  31.401  1.00  0.00     0.074 A 
ATOM     30  C   UNL A   1      42.170  31.543  36.968  1.00  0.00     0.029 A 
ATOM     31  N   UNL A   1      41.463  30.909  34.956  1.00  0.00    -0.354 N 
ATOM     32  N   UNL A   1      41.504  29.241  32.525  1.00  0.00    -0.248 NA
ATOM     33  C   UNL A   1      42.506  27.601  31.199  1.00  0.00     0.031 C 
ATOM     34  C   UNL A   1      43.038  30.559  36.483  1.00  0.00     0.029 A 
ATOM     35  C   UNL A   1      42.582  30.142  35.242  1.00  0.00     0.049 A 
ATOM     36  H   UNL A   1      40.927  30.840  34.134  1.00  0.00     0.167 HD
ATOM     37  C   UNL A   1      42.625  28.754  33.181  1.00  0.00     0.074 A 
ATOM     38  C   UNL A   1      43.196  27.732  32.327  1.00  0.00     0.031 C 
ATOM     39  C   UNL A   1      43.130  29.118  34.385  1.00  0.00     0.037 A 
BRANCH  26  40
ATOM     40  C   UNL A   1      40.067  33.720  37.169  1.00  0.00     0.064 A 
ATOM     41  C   UNL A   1      40.777  34.930  37.183  1.00  0.00     0.173 A 
ATOM     42  C   UNL A   1      39.257  33.425  38.279  1.00  0.00     0.173 A 
ATOM     43  F   UNL A   1      41.572  35.258  36.154  1.00  0.00    -0.203 F 
ATOM     44  C   UNL A   1      40.715  35.786  38.280  1.00  0.00     0.198 A 
ATOM     45  C   UNL A   1      39.171  34.300  39.359  1.00  0.00     0.198 A 
ATOM     46  F   UNL A   1      38.549  32.288  38.316  1.00  0.00    -0.203 F 
ATOM     47  F   UNL A   1      41.455  36.905  38.297  1.00  0.00    -0.200 F 
ATOM     48  C   UNL A   1      39.909  35.474  39.365  1.00  0.00     0.200 A 
ATOM     49  F   UNL A   1      38.380  34.003  40.398  1.00  0.00    -0.200 F 
ATOM     50  F   UNL A   1      39.854  36.297  40.420  1.00  0.00    -0.200 F 
ENDBRANCH  26  40
BRANCH  27  51
ATOM     51  C   UNL A   1      40.475  27.856  29.078  1.00  0.00     0.064 A 
ATOM     52  C   UNL A   1      39.755  26.662  28.951  1.00  0.00     0.173 A 
ATOM     53  C   UNL A   1      41.226  28.289  27.974  1.00  0.00     0.173 A 
ATOM     54  F   UNL A   1      39.034  26.202  29.983  1.00  0.00    -0.203 F 
ATOM     55  C   UNL A   1      39.784  25.929  27.766  1.00  0.00     0.198 A 
ATOM     56  C   UNL A   1      41.232  27.572  26.781  1.00  0.00     0.198 A 
ATOM     57  F   UNL A   1      41.923  29.434  28.044  1.00  0.00    -0.203 F 
ATOM     58  F   UNL A   1      39.104  24.779  27.676  1.00  0.00    -0.200 F 
ATOM     59  C   UNL A   1      40.513  26.391  26.679  1.00  0.00     0.200 A 
ATOM     60  F   UNL A   1      41.920  28.033  25.728  1.00  0.00    -0.200 F 
ATOM     61  F   UNL A   1      40.523  25.697  25.533  1.00  0.00    -0.200 F 
ENDBRANCH  27  51
BRANCH  39  62
ATOM     62  C   UNL A   1      44.332  28.374  34.887  1.00  0.00     0.064 A 
ATOM     63  C   UNL A   1      45.637  28.824  34.643  1.00  0.00     0.173 A 
ATOM     64  C   UNL A   1      44.167  27.233  35.688  1.00  0.00     0.173 A 
ATOM     65  F   UNL A   1      45.848  29.898  33.869  1.00  0.00    -0.203 F 
ATOM     66  C   UNL A   1      46.734  28.154  35.179  1.00  0.00     0.198 A 
ATOM     67  C   UNL A   1      45.264  26.584  36.246  1.00  0.00     0.198 A 
ATOM     68  F   UNL A   1      42.939  26.764  35.952  1.00  0.00    -0.203 F 
ATOM     69  F   UNL A   1      47.975  28.583  34.910  1.00  0.00    -0.200 F 
ATOM     70  C   UNL A   1      46.547  27.043  35.989  1.00  0.00     0.200 A 
ATOM     71  F   UNL A   1      45.079  25.520  37.039  1.00  0.00    -0.200 F 
ATOM     72  F   UNL A   1      47.603  26.413  36.521  1.00  0.00    -0.200 F 
ENDBRANCH  39  62
ENDBRANCH  13  14
ENDBRANCH   6   8
ENDBRANCH   3   4
ENDBRANCH   2   3
ENDBRANCH   1   2
BRANCH   1  73
ATOM     73  C   UNL A   1      33.517  30.104  27.287  1.00  0.00     0.002 C 
BRANCH  73  74
ATOM     74  C   UNL A   1      32.142  30.112  26.609  1.00  0.00     0.021 C 
BRANCH  74  75
ATOM     75  C   UNL A   1      31.915  28.917  25.677  1.00  0.00     0.116 C 
BRANCH  75  76
ATOM     76  N   UNL A   1      32.152  29.318  24.308  1.00  0.00    -0.351 N 
ATOM     77  C   UNL A   1      32.489  28.512  23.246  1.00  0.00     0.283 C 
ATOM     78  H   UNL A   1      32.059  30.278  24.114  1.00  0.00     0.163 HD
ATOM     79  O   UNL A   1      33.201  29.048  22.391  1.00  0.00    -0.268 OA
BRANCH  77  80
ATOM     80  C   UNL A   1      31.885  27.069  23.123  1.00  0.00     0.307 C 
BRANCH  80  81
ATOM     81  N   UNL A   1      32.553  26.045  23.990  1.00  0.00    -0.320 N 
ATOM     82  C   UNL A   1      33.988  26.283  24.201  1.00  0.00     0.263 C 
ATOM     83  C   UNL A   1      31.858  25.699  25.240  1.00  0.00     0.274 C 
ATOM     84  H   UNL A   1      32.472  25.205  23.417  1.00  0.00     0.349 HD
ATOM     85  C   UNL A   1      34.685  25.150  24.966  1.00  0.00     0.062 C 
ATOM     86  C   UNL A   1      32.485  24.506  25.997  1.00  0.00     0.104 C 
ATOM     87  C   UNL A   1      33.958  24.821  26.267  1.00  0.00     0.022 C 
BRANCH  86  88
ATOM     88  C   UNL A   1      32.304  23.202  25.236  1.00  0.00     0.103 A 
ATOM     89  N   UNL A   1      32.020  23.119  23.955  1.00  0.00    -0.241 NA
ATOM     90  S   UNL A   1      32.482  21.684  26.032  1.00  0.00    -0.118 S 
ATOM     91  C   UNL A   1      32.081  21.813  23.523  1.00  0.00     0.082 A 
ATOM     92  C   UNL A   1      32.336  20.871  24.517  1.00  0.00     0.055 A 
ATOM     93  C   UNL A   1      31.924  21.382  22.191  1.00  0.00     0.030 A 
ATOM     94  C   UNL A   1      32.445  19.503  24.225  1.00  0.00     0.021 A 
ATOM     95  C   UNL A   1      32.044  20.024  21.886  1.00  0.00     0.002 A 
ATOM     96  C   UNL A   1      32.302  19.097  22.893  1.00  0.00     0.002 A 
ENDBRANCH  86  88
ENDBRANCH  80  81
BRANCH  80  97
ATOM     97  C   UNL A   1      30.366  27.052  23.290  1.00  0.00     0.044 A 
ATOM     98  C   UNL A   1      29.601  26.027  23.830  1.00  0.00     0.094 A 
ATOM     99  C   UNL A   1      29.443  28.132  23.027  1.00  0.00     0.010 A 
ATOM    100  N   UNL A   1      28.292  26.410  23.851  1.00  0.00    -0.361 N 
ATOM    101  C   UNL A   1      28.175  27.714  23.441  1.00  0.00     0.046 A 
ATOM    102  C   UNL A   1      29.580  29.455  22.549  1.00  0.00     0.026 A 
ATOM    103  H   UNL A   1      27.541  25.835  24.122  1.00  0.00     0.166 HD
ATOM    104  C   UNL A   1      27.047  28.542  23.417  1.00  0.00     0.028 A 
ATOM    105  C   UNL A   1      28.462  30.300  22.544  1.00  0.00     0.018 A 
ATOM    106  C   UNL A   1      27.215  29.854  22.973  1.00  0.00     0.018 A 
ATOM    107  Br  UNL A   1      28.657  32.097  21.981  1.00  0.00    -0.051 Br
ENDBRANCH  80  97
ENDBRANCH  77  80
ENDBRANCH  75  76
ENDBRANCH  74  75
ENDBRANCH  73  74
ENDBRANCH   1  73
TORSDOF 16
ENDMDL
