MODEL 1
REMARK VINA RESULT:     -11.6      0.000      0.000
REMARK SMILES CC(C)(C)[NH2+]Cc1ccn(CC(C)(C)C(=O)NCCCCCCNC(=O)c2ccc(-c3c4nc(c(-c5c(F)c(F)c(F)c(F)c5F)c5ccc([nH]5)c(-c5c(F)c(F)c(F)c(F)c5F)c5nc(c(-c6c(F)c(F)c(F)c(F)c6F)c6ccc3[nH]6)C=C5)C=C4)cc2)c1
REMARK SMILES IDX 19 1 18 2 17 3 15 4 16 5 12 7 13 8 14 9 11 10 10 11 7 12
REMARK SMILES IDX 8 13 90 14 9 15 6 16 5 17 2 20 1 21 3 22 4 23 20 24 21 25
REMARK SMILES IDX 22 26 23 27 24 28 25 29 26 31 27 32 28 33 89 34 29 35 88 36
REMARK SMILES IDX 30 37 31 38 32 39 82 40 33 41 87 42 81 43 83 44 34 45 86 46
REMARK SMILES IDX 80 47 79 48 35 50 67 51 47 52 66 53 48 54 51 55 65 56 84 57
REMARK SMILES IDX 49 58 50 59 64 61 85 62 52 63 36 64 37 65 45 66 38 67 39 68
REMARK SMILES IDX 43 69 46 70 40 71 41 72 44 73 42 74 68 75 69 76 77 77 70 78
REMARK SMILES IDX 71 79 75 80 78 81 72 82 73 83 76 84 74 85 53 86 54 87 62 88
REMARK SMILES IDX 55 89 56 90 60 91 63 92 57 93 58 94 61 95 59 96
REMARK H PARENT 17 6 5 18 5 19 24 30 83 49 51 60
REMARK Flexibility Score: inf
ROOT
ATOM      1  C   UNL A   1      31.468  28.948  23.828  1.00  0.00     0.021 C 
ENDROOT
BRANCH   1   2
ATOM      2  C   UNL A   1      30.601  27.689  23.918  1.00  0.00     0.116 C 
BRANCH   2   3
ATOM      3  N   UNL A   1      30.840  26.825  22.781  1.00  0.00    -0.356 N 
ATOM      4  C   UNL A   1      31.553  25.670  22.700  1.00  0.00     0.227 C 
ATOM      5  O   UNL A   1      32.175  25.506  21.650  1.00  0.00    -0.274 OA
ATOM      6  H   UNL A   1      30.423  27.119  21.939  1.00  0.00     0.163 HD
BRANCH   4   7
ATOM      7  C   UNL A   1      31.709  24.692  23.873  1.00  0.00     0.061 C 
ATOM      8  C   UNL A   1      30.665  24.883  24.982  1.00  0.00     0.023 C 
ATOM      9  C   UNL A   1      33.128  24.913  24.435  1.00  0.00     0.023 C 
BRANCH   7  10
ATOM     10  C   UNL A   1      31.657  23.215  23.342  1.00  0.00     0.137 C 
BRANCH  10  11
ATOM     11  N   UNL A   1      32.206  22.149  24.172  1.00  0.00    -0.353 N 
ATOM     12  C   UNL A   1      33.348  20.285  24.614  1.00  0.00     0.024 A 
ATOM     13  C   UNL A   1      32.406  20.515  25.656  1.00  0.00     0.029 A 
ATOM     14  C   UNL A   1      33.339  21.440  23.853  1.00  0.00     0.095 A 
ATOM     15  C   UNL A   1      31.782  21.719  25.399  1.00  0.00     0.086 A 
BRANCH  12  16
ATOM     16  C   UNL A   1      34.197  19.073  24.410  1.00  0.00     0.299 C 
BRANCH  16  17
ATOM     17  N   UNL A   1      33.823  18.000  25.338  1.00  0.00    -0.338 N 
ATOM     18  H   UNL A   1      34.405  18.112  26.168  1.00  0.00     0.347 HD
ATOM     19  H   UNL A   1      32.817  18.127  25.453  1.00  0.00     0.347 HD
BRANCH  17  20
ATOM     20  C   UNL A   1      33.946  16.591  24.913  1.00  0.00     0.088 C 
ATOM     21  C   UNL A   1      32.763  15.703  25.329  1.00  0.00     0.078 C 
ATOM     22  C   UNL A   1      35.257  15.951  25.374  1.00  0.00     0.078 C 
ATOM     23  C   UNL A   1      34.019  16.615  23.373  1.00  0.00     0.078 C 
ENDBRANCH  17  20
ENDBRANCH  16  17
ENDBRANCH  12  16
ENDBRANCH  10  11
ENDBRANCH   7  10
ENDBRANCH   4   7
ENDBRANCH   2   3
ENDBRANCH   1   2
BRANCH   1  24
ATOM     24  C   UNL A   1      32.662  28.970  24.788  1.00  0.00     0.002 C 
BRANCH  24  25
ATOM     25  C   UNL A   1      32.487  28.135  26.062  1.00  0.00     0.002 C 
BRANCH  25  26
ATOM     26  C   UNL A   1      33.352  28.572  27.255  1.00  0.00     0.021 C 
BRANCH  26  27
ATOM     27  C   UNL A   1      34.827  28.768  26.905  1.00  0.00     0.116 C 
BRANCH  27  28
ATOM     28  N   UNL A   1      35.238  30.131  27.186  1.00  0.00    -0.352 N 
ATOM     29  C   UNL A   1      36.293  30.603  27.918  1.00  0.00     0.251 C 
ATOM     30  H   UNL A   1      34.666  30.826  26.786  1.00  0.00     0.163 HD
ATOM     31  O   UNL A   1      36.258  31.753  28.337  1.00  0.00    -0.269 OA
BRANCH  29  32
ATOM     32  C   UNL A   1      37.471  29.762  28.218  1.00  0.00     0.039 A 
ATOM     33  C   UNL A   1      38.481  29.703  27.249  1.00  0.00     0.014 A 
ATOM     34  C   UNL A   1      37.542  28.952  29.358  1.00  0.00     0.014 A 
ATOM     35  C   UNL A   1      39.580  28.873  27.441  1.00  0.00     0.010 A 
ATOM     36  C   UNL A   1      38.649  28.130  29.563  1.00  0.00     0.010 A 
ATOM     37  C   UNL A   1      39.675  28.106  28.610  1.00  0.00    -0.014 A 
BRANCH  37  38
ATOM     38  C   UNL A   1      40.975  27.465  28.910  1.00  0.00     0.031 A 
ATOM     39  C   UNL A   1      41.021  26.023  28.340  1.00  0.00     0.074 A 
ATOM     40  C   UNL A   1      41.873  28.191  29.647  1.00  0.00     0.049 A 
ATOM     41  N   UNL A   1      41.735  25.001  28.699  1.00  0.00    -0.248 NA
ATOM     42  C   UNL A   1      40.096  25.650  27.229  1.00  0.00     0.031 C 
ATOM     43  C   UNL A   1      41.684  29.603  30.048  1.00  0.00     0.029 A 
ATOM     44  N   UNL A   1      43.105  27.917  30.216  1.00  0.00    -0.354 N 
ATOM     45  C   UNL A   1      41.506  23.960  27.764  1.00  0.00     0.074 A 
ATOM     46  C   UNL A   1      40.410  24.382  26.951  1.00  0.00     0.031 C 
ATOM     47  C   UNL A   1      42.689  30.022  30.850  1.00  0.00     0.029 A 
ATOM     48  C   UNL A   1      43.640  28.946  31.047  1.00  0.00     0.049 A 
ATOM     49  H   UNL A   1      43.580  27.069  30.057  1.00  0.00     0.167 HD
ATOM     50  C   UNL A   1      42.331  22.876  27.642  1.00  0.00     0.037 A 
ATOM     51  C   UNL A   1      44.741  28.914  31.867  1.00  0.00     0.037 A 
ATOM     52  C   UNL A   1      43.336  22.933  28.643  1.00  0.00     0.049 A 
ATOM     53  C   UNL A   1      45.405  27.648  31.543  1.00  0.00     0.074 A 
ATOM     54  C   UNL A   1      43.286  22.729  29.996  1.00  0.00     0.029 A 
ATOM     55  N   UNL A   1      44.493  23.596  28.321  1.00  0.00    -0.354 N 
ATOM     56  N   UNL A   1      46.083  27.437  30.457  1.00  0.00    -0.248 NA
ATOM     57  C   UNL A   1      45.245  26.509  32.457  1.00  0.00     0.031 C 
ATOM     58  C   UNL A   1      44.165  23.707  30.494  1.00  0.00     0.029 A 
ATOM     59  C   UNL A   1      44.890  24.279  29.440  1.00  0.00     0.049 A 
ATOM     60  H   UNL A   1      44.952  23.582  27.450  1.00  0.00     0.167 HD
ATOM     61  C   UNL A   1      46.117  26.066  30.410  1.00  0.00     0.074 A 
ATOM     62  C   UNL A   1      45.919  25.596  31.763  1.00  0.00     0.031 C 
ATOM     63  C   UNL A   1      45.725  25.441  29.272  1.00  0.00     0.037 A 
BRANCH  50  64
ATOM     64  C   UNL A   1      42.520  21.835  26.569  1.00  0.00     0.064 A 
ATOM     65  C   UNL A   1      42.035  20.523  26.822  1.00  0.00     0.173 A 
ATOM     66  C   UNL A   1      43.456  21.954  25.537  1.00  0.00     0.173 A 
ATOM     67  F   UNL A   1      41.085  20.306  27.747  1.00  0.00    -0.203 F 
ATOM     68  C   UNL A   1      42.581  19.399  26.208  1.00  0.00     0.198 A 
ATOM     69  C   UNL A   1      43.963  20.824  24.883  1.00  0.00     0.198 A 
ATOM     70  F   UNL A   1      43.977  23.142  25.207  1.00  0.00    -0.203 F 
ATOM     71  F   UNL A   1      42.205  18.173  26.601  1.00  0.00    -0.200 F 
ATOM     72  C   UNL A   1      43.564  19.549  25.253  1.00  0.00     0.200 A 
ATOM     73  F   UNL A   1      44.907  20.973  23.944  1.00  0.00    -0.200 F 
ATOM     74  F   UNL A   1      44.150  18.471  24.714  1.00  0.00    -0.200 F 
ENDBRANCH  50  64
BRANCH  51  75
ATOM     75  C   UNL A   1      45.398  29.726  32.972  1.00  0.00     0.064 A 
ATOM     76  C   UNL A   1      46.665  30.316  32.928  1.00  0.00     0.173 A 
ATOM     77  C   UNL A   1      44.669  30.025  34.166  1.00  0.00     0.173 A 
ATOM     78  F   UNL A   1      47.524  30.031  31.944  1.00  0.00    -0.203 F 
ATOM     79  C   UNL A   1      47.104  31.221  33.920  1.00  0.00     0.198 A 
ATOM     80  C   UNL A   1      45.075  30.963  35.114  1.00  0.00     0.198 A 
ATOM     81  F   UNL A   1      43.514  29.415  34.463  1.00  0.00    -0.203 F 
ATOM     82  F   UNL A   1      48.327  31.765  33.828  1.00  0.00    -0.200 F 
ATOM     83  C   UNL A   1      46.291  31.580  34.982  1.00  0.00     0.200 A 
ATOM     84  F   UNL A   1      44.262  31.268  36.137  1.00  0.00    -0.200 F 
ATOM     85  F   UNL A   1      46.681  32.498  35.877  1.00  0.00    -0.200 F 
ENDBRANCH  51  75
BRANCH  63  86
ATOM     86  C   UNL A   1      45.874  26.287  28.018  1.00  0.00     0.064 A 
ATOM     87  C   UNL A   1      47.153  26.703  27.611  1.00  0.00     0.173 A 
ATOM     88  C   UNL A   1      44.799  26.809  27.280  1.00  0.00     0.173 A 
ATOM     89  F   UNL A   1      48.240  26.232  28.242  1.00  0.00    -0.203 F 
ATOM     90  C   UNL A   1      47.336  27.602  26.557  1.00  0.00     0.198 A 
ATOM     91  C   UNL A   1      44.977  27.704  26.222  1.00  0.00     0.198 A 
ATOM     92  F   UNL A   1      43.546  26.457  27.561  1.00  0.00    -0.203 F 
ATOM     93  F   UNL A   1      48.576  27.976  26.207  1.00  0.00    -0.200 F 
ATOM     94  C   UNL A   1      46.248  28.107  25.865  1.00  0.00     0.200 A 
ATOM     95  F   UNL A   1      43.914  28.169  25.547  1.00  0.00    -0.200 F 
ATOM     96  F   UNL A   1      46.426  28.961  24.847  1.00  0.00    -0.200 F 
ENDBRANCH  63  86
ENDBRANCH  37  38
ENDBRANCH  29  32
ENDBRANCH  27  28
ENDBRANCH  26  27
ENDBRANCH  25  26
ENDBRANCH  24  25
ENDBRANCH   1  24
TORSDOF 18
ENDMDL
MODEL 2
REMARK VINA RESULT:     -11.5      1.777      4.180
REMARK SMILES CC(C)(C)[NH2+]Cc1ccn(CC(C)(C)C(=O)NCCCCCCNC(=O)c2ccc(-c3c4nc(c(-c5c(F)c(F)c(F)c(F)c5F)c5ccc([nH]5)c(-c5c(F)c(F)c(F)c(F)c5F)c5nc(c(-c6c(F)c(F)c(F)c(F)c6F)c6ccc3[nH]6)C=C5)C=C4)cc2)c1
REMARK SMILES IDX 19 1 18 2 17 3 15 4 16 5 12 7 13 8 14 9 11 10 10 11 7 12
REMARK SMILES IDX 8 13 90 14 9 15 6 16 5 17 2 20 1 21 3 22 4 23 20 24 21 25
REMARK SMILES IDX 22 26 23 27 24 28 25 29 26 31 27 32 28 33 89 34 29 35 88 36
REMARK SMILES IDX 30 37 31 38 32 39 82 40 33 41 87 42 81 43 83 44 34 45 86 46
REMARK SMILES IDX 80 47 79 48 35 50 67 51 47 52 66 53 48 54 51 55 65 56 84 57
REMARK SMILES IDX 49 58 50 59 64 61 85 62 52 63 36 64 37 65 45 66 38 67 39 68
REMARK SMILES IDX 43 69 46 70 40 71 41 72 44 73 42 74 68 75 69 76 77 77 70 78
REMARK SMILES IDX 71 79 75 80 78 81 72 82 73 83 76 84 74 85 53 86 54 87 62 88
REMARK SMILES IDX 55 89 56 90 60 91 63 92 57 93 58 94 61 95 59 96
REMARK H PARENT 17 6 5 18 5 19 24 30 83 49 51 60
REMARK Flexibility Score: inf
ROOT
ATOM      1  C   UNL A   1      32.464  25.735  26.500  1.00  0.00     0.021 C 
ENDROOT
BRANCH   1   2
ATOM      2  C   UNL A   1      31.679  24.422  26.447  1.00  0.00     0.116 C 
BRANCH   2   3
ATOM      3  N   UNL A   1      32.570  23.307  26.200  1.00  0.00    -0.356 N 
ATOM      4  C   UNL A   1      32.650  22.478  25.125  1.00  0.00     0.227 C 
ATOM      5  O   UNL A   1      32.918  21.304  25.383  1.00  0.00    -0.274 OA
ATOM      6  H   UNL A   1      33.216  23.122  26.920  1.00  0.00     0.163 HD
BRANCH   4   7
ATOM      7  C   UNL A   1      32.290  22.911  23.697  1.00  0.00     0.061 C 
ATOM      8  C   UNL A   1      30.892  23.534  23.573  1.00  0.00     0.023 C 
ATOM      9  C   UNL A   1      32.388  21.646  22.823  1.00  0.00     0.023 C 
BRANCH   7  10
ATOM     10  C   UNL A   1      33.369  23.917  23.161  1.00  0.00     0.137 C 
BRANCH  10  11
ATOM     11  N   UNL A   1      32.928  25.170  22.559  1.00  0.00    -0.353 N 
ATOM     12  C   UNL A   1      32.142  27.256  22.524  1.00  0.00     0.024 A 
ATOM     13  C   UNL A   1      31.907  26.647  21.260  1.00  0.00     0.029 A 
ATOM     14  C   UNL A   1      32.975  26.384  23.201  1.00  0.00     0.095 A 
ATOM     15  C   UNL A   1      32.484  25.394  21.285  1.00  0.00     0.086 A 
BRANCH  12  16
ATOM     16  C   UNL A   1      31.634  28.577  23.004  1.00  0.00     0.299 C 
BRANCH  16  17
ATOM     17  N   UNL A   1      30.677  29.154  22.054  1.00  0.00    -0.338 N 
ATOM     18  H   UNL A   1      31.164  29.903  21.563  1.00  0.00     0.347 HD
ATOM     19  H   UNL A   1      30.378  28.351  21.501  1.00  0.00     0.347 HD
BRANCH  17  20
ATOM     20  C   UNL A   1      29.407  29.722  22.550  1.00  0.00     0.088 C 
ATOM     21  C   UNL A   1      29.566  30.670  23.748  1.00  0.00     0.078 C 
ATOM     22  C   UNL A   1      28.372  28.644  22.881  1.00  0.00     0.078 C 
ATOM     23  C   UNL A   1      28.808  30.519  21.374  1.00  0.00     0.078 C 
ENDBRANCH  17  20
ENDBRANCH  16  17
ENDBRANCH  12  16
ENDBRANCH  10  11
ENDBRANCH   7  10
ENDBRANCH   4   7
ENDBRANCH   2   3
ENDBRANCH   1   2
BRANCH   1  24
ATOM     24  C   UNL A   1      31.595  26.994  26.591  1.00  0.00     0.002 C 
BRANCH  24  25
ATOM     25  C   UNL A   1      32.334  28.264  27.028  1.00  0.00     0.002 C 
BRANCH  25  26
ATOM     26  C   UNL A   1      33.542  28.650  26.160  1.00  0.00     0.021 C 
BRANCH  26  27
ATOM     27  C   UNL A   1      34.862  28.693  26.929  1.00  0.00     0.116 C 
BRANCH  27  28
ATOM     28  N   UNL A   1      35.269  30.066  27.165  1.00  0.00    -0.352 N 
ATOM     29  C   UNL A   1      36.342  30.565  27.851  1.00  0.00     0.251 C 
ATOM     30  H   UNL A   1      34.676  30.746  26.769  1.00  0.00     0.163 HD
ATOM     31  O   UNL A   1      36.309  31.724  28.245  1.00  0.00    -0.269 OA
BRANCH  29  32
ATOM     32  C   UNL A   1      37.538  29.743  28.130  1.00  0.00     0.039 A 
ATOM     33  C   UNL A   1      38.538  29.709  27.149  1.00  0.00     0.014 A 
ATOM     34  C   UNL A   1      37.637  28.925  29.262  1.00  0.00     0.014 A 
ATOM     35  C   UNL A   1      39.653  28.898  27.320  1.00  0.00     0.010 A 
ATOM     36  C   UNL A   1      38.761  28.121  29.447  1.00  0.00     0.010 A 
ATOM     37  C   UNL A   1      39.776  28.124  28.482  1.00  0.00    -0.014 A 
BRANCH  37  38
ATOM     38  C   UNL A   1      41.091  27.503  28.761  1.00  0.00     0.031 A 
ATOM     39  C   UNL A   1      41.131  26.043  28.239  1.00  0.00     0.074 A 
ATOM     40  C   UNL A   1      42.005  28.261  29.443  1.00  0.00     0.049 A 
ATOM     41  N   UNL A   1      41.865  25.039  28.610  1.00  0.00    -0.248 NA
ATOM     42  C   UNL A   1      40.174  25.625  27.173  1.00  0.00     0.031 C 
ATOM     43  C   UNL A   1      41.817  29.685  29.802  1.00  0.00     0.029 A 
ATOM     44  N   UNL A   1      43.258  28.016  29.981  1.00  0.00    -0.354 N 
ATOM     45  C   UNL A   1      41.616  23.965  27.719  1.00  0.00     0.074 A 
ATOM     46  C   UNL A   1      40.490  24.351  26.928  1.00  0.00     0.031 C 
ATOM     47  C   UNL A   1      42.844  30.139  30.556  1.00  0.00     0.029 A 
ATOM     48  C   UNL A   1      43.810  29.078  30.759  1.00  0.00     0.049 A 
ATOM     49  H   UNL A   1      43.735  27.168  29.835  1.00  0.00     0.167 HD
ATOM     50  C   UNL A   1      42.446  22.884  27.607  1.00  0.00     0.037 A 
ATOM     51  C   UNL A   1      44.937  29.083  31.543  1.00  0.00     0.037 A 
ATOM     52  C   UNL A   1      43.483  22.983  28.573  1.00  0.00     0.049 A 
ATOM     53  C   UNL A   1      45.602  27.811  31.241  1.00  0.00     0.074 A 
ATOM     54  C   UNL A   1      43.478  22.826  29.933  1.00  0.00     0.029 A 
ATOM     55  N   UNL A   1      44.623  23.644  28.191  1.00  0.00    -0.354 N 
ATOM     56  N   UNL A   1      46.246  27.569  30.141  1.00  0.00    -0.248 NA
ATOM     57  C   UNL A   1      45.481  26.704  32.197  1.00  0.00     0.031 C 
ATOM     58  C   UNL A   1      44.364  23.827  30.368  1.00  0.00     0.029 A 
ATOM     59  C   UNL A   1      45.049  24.368  29.272  1.00  0.00     0.049 A 
ATOM     60  H   UNL A   1      45.053  23.604  27.306  1.00  0.00     0.167 HD
ATOM     61  C   UNL A   1      46.291  26.198  30.140  1.00  0.00     0.074 A 
ATOM     62  C   UNL A   1      46.141  25.773  31.514  1.00  0.00     0.031 C 
ATOM     63  C   UNL A   1      45.868  25.530  29.037  1.00  0.00     0.037 A 
BRANCH  50  64
ATOM     64  C   UNL A   1      42.610  21.809  26.564  1.00  0.00     0.064 A 
ATOM     65  C   UNL A   1      42.147  20.501  26.879  1.00  0.00     0.173 A 
ATOM     66  C   UNL A   1      43.510  21.900  25.498  1.00  0.00     0.173 A 
ATOM     67  F   UNL A   1      41.231  20.309  27.842  1.00  0.00    -0.203 F 
ATOM     68  C   UNL A   1      42.683  19.362  26.285  1.00  0.00     0.198 A 
ATOM     69  C   UNL A   1      44.006  20.753  24.866  1.00  0.00     0.198 A 
ATOM     70  F   UNL A   1      44.007  23.080  25.110  1.00  0.00    -0.203 F 
ATOM     71  F   UNL A   1      42.333  18.147  26.733  1.00  0.00    -0.200 F 
ATOM     72  C   UNL A   1      43.633  19.488  25.293  1.00  0.00     0.200 A 
ATOM     73  F   UNL A   1      44.916  20.878  23.891  1.00  0.00    -0.200 F 
ATOM     74  F   UNL A   1      44.211  18.397  24.772  1.00  0.00    -0.200 F 
ENDBRANCH  50  64
BRANCH  51  75
ATOM     75  C   UNL A   1      45.622  29.937  32.597  1.00  0.00     0.064 A 
ATOM     76  C   UNL A   1      46.628  30.883  32.376  1.00  0.00     0.173 A 
ATOM     77  C   UNL A   1      45.182  29.879  33.957  1.00  0.00     0.173 A 
ATOM     78  F   UNL A   1      47.240  30.972  31.190  1.00  0.00    -0.203 F 
ATOM     79  C   UNL A   1      47.056  31.772  33.386  1.00  0.00     0.198 A 
ATOM     80  C   UNL A   1      45.559  30.794  34.940  1.00  0.00     0.198 A 
ATOM     81  F   UNL A   1      44.353  28.922  34.394  1.00  0.00    -0.203 F 
ATOM     82  F   UNL A   1      48.020  32.666  33.121  1.00  0.00    -0.200 F 
ATOM     83  C   UNL A   1      46.488  31.758  34.649  1.00  0.00     0.200 A 
ATOM     84  F   UNL A   1      44.995  30.733  36.156  1.00  0.00    -0.200 F 
ATOM     85  F   UNL A   1      46.841  32.654  35.581  1.00  0.00    -0.200 F 
ENDBRANCH  51  75
BRANCH  63  86
ATOM     86  C   UNL A   1      45.969  26.334  27.750  1.00  0.00     0.064 A 
ATOM     87  C   UNL A   1      44.804  26.622  27.020  1.00  0.00     0.173 A 
ATOM     88  C   UNL A   1      47.178  26.716  27.147  1.00  0.00     0.173 A 
ATOM     89  F   UNL A   1      43.602  26.317  27.533  1.00  0.00    -0.203 F 
ATOM     90  C   UNL A   1      44.853  27.225  25.760  1.00  0.00     0.198 A 
ATOM     91  C   UNL A   1      47.232  27.323  25.889  1.00  0.00     0.198 A 
ATOM     92  F   UNL A   1      48.340  26.517  27.765  1.00  0.00    -0.203 F 
ATOM     93  F   UNL A   1      43.715  27.476  25.096  1.00  0.00    -0.200 F 
ATOM     94  C   UNL A   1      46.067  27.570  25.192  1.00  0.00     0.200 A 
ATOM     95  F   UNL A   1      48.416  27.672  25.361  1.00  0.00    -0.200 F 
ATOM     96  F   UNL A   1      46.113  28.159  23.988  1.00  0.00    -0.200 F 
ENDBRANCH  63  86
ENDBRANCH  37  38
ENDBRANCH  29  32
ENDBRANCH  27  28
ENDBRANCH  26  27
ENDBRANCH  25  26
ENDBRANCH  24  25
ENDBRANCH   1  24
TORSDOF 18
ENDMDL
MODEL 3
REMARK VINA RESULT:     -11.3      3.320      8.831
REMARK SMILES CC(C)(C)[NH2+]Cc1ccn(CC(C)(C)C(=O)NCCCCCCNC(=O)c2ccc(-c3c4nc(c(-c5c(F)c(F)c(F)c(F)c5F)c5ccc([nH]5)c(-c5c(F)c(F)c(F)c(F)c5F)c5nc(c(-c6c(F)c(F)c(F)c(F)c6F)c6ccc3[nH]6)C=C5)C=C4)cc2)c1
REMARK SMILES IDX 19 1 18 2 17 3 15 4 16 5 12 7 13 8 14 9 11 10 10 11 7 12
REMARK SMILES IDX 8 13 90 14 9 15 6 16 5 17 2 20 1 21 3 22 4 23 20 24 21 25
REMARK SMILES IDX 22 26 23 27 24 28 25 29 26 31 27 32 28 33 89 34 29 35 88 36
REMARK SMILES IDX 30 37 31 38 32 39 82 40 33 41 87 42 81 43 83 44 34 45 86 46
REMARK SMILES IDX 80 47 79 48 35 50 67 51 47 52 66 53 48 54 51 55 65 56 84 57
REMARK SMILES IDX 49 58 50 59 64 61 85 62 52 63 36 64 37 65 45 66 38 67 39 68
REMARK SMILES IDX 43 69 46 70 40 71 41 72 44 73 42 74 68 75 69 76 77 77 70 78
REMARK SMILES IDX 71 79 75 80 78 81 72 82 73 83 76 84 74 85 53 86 54 87 62 88
REMARK SMILES IDX 55 89 56 90 60 91 63 92 57 93 58 94 61 95 59 96
REMARK H PARENT 17 6 5 18 5 19 24 30 83 49 51 60
REMARK Flexibility Score: inf
ROOT
ATOM      1  C   UNL A   1      33.823  20.920  25.729  1.00  0.00     0.021 C 
ENDROOT
BRANCH   1   2
ATOM      2  C   UNL A   1      33.695  22.445  25.678  1.00  0.00     0.116 C 
BRANCH   2   3
ATOM      3  N   UNL A   1      32.354  22.855  26.042  1.00  0.00    -0.356 N 
ATOM      4  C   UNL A   1      31.879  24.087  26.367  1.00  0.00     0.227 C 
ATOM      5  O   UNL A   1      31.015  24.105  27.244  1.00  0.00    -0.274 OA
ATOM      6  H   UNL A   1      31.686  22.132  26.056  1.00  0.00     0.163 HD
BRANCH   4   7
ATOM      7  C   UNL A   1      32.462  25.391  25.804  1.00  0.00     0.061 C 
ATOM      8  C   UNL A   1      33.996  25.445  25.831  1.00  0.00     0.023 C 
ATOM      9  C   UNL A   1      31.874  26.532  26.658  1.00  0.00     0.023 C 
BRANCH   7  10
ATOM     10  C   UNL A   1      31.948  25.611  24.337  1.00  0.00     0.137 C 
BRANCH  10  11
ATOM     11  N   UNL A   1      31.925  26.965  23.795  1.00  0.00    -0.353 N 
ATOM     12  C   UNL A   1      31.043  28.751  22.792  1.00  0.00     0.024 A 
ATOM     13  C   UNL A   1      32.461  28.809  22.688  1.00  0.00     0.029 A 
ATOM     14  C   UNL A   1      30.784  27.721  23.679  1.00  0.00     0.095 A 
ATOM     15  C   UNL A   1      32.977  27.741  23.394  1.00  0.00     0.086 A 
BRANCH  12  16
ATOM     16  C   UNL A   1      30.047  29.639  22.120  1.00  0.00     0.299 C 
BRANCH  16  17
ATOM     17  N   UNL A   1      29.820  30.863  22.896  1.00  0.00    -0.338 N 
ATOM     18  H   UNL A   1      29.749  30.583  23.874  1.00  0.00     0.347 HD
ATOM     19  H   UNL A   1      30.607  31.458  22.637  1.00  0.00     0.347 HD
BRANCH  17  20
ATOM     20  C   UNL A   1      28.643  31.705  22.604  1.00  0.00     0.088 C 
ATOM     21  C   UNL A   1      28.095  31.548  21.177  1.00  0.00     0.078 C 
ATOM     22  C   UNL A   1      28.892  33.187  22.899  1.00  0.00     0.078 C 
ATOM     23  C   UNL A   1      27.547  31.268  23.597  1.00  0.00     0.078 C 
ENDBRANCH  17  20
ENDBRANCH  16  17
ENDBRANCH  12  16
ENDBRANCH  10  11
ENDBRANCH   7  10
ENDBRANCH   4   7
ENDBRANCH   2   3
ENDBRANCH   1   2
BRANCH   1  24
ATOM     24  C   UNL A   1      34.944  20.345  24.858  1.00  0.00     0.002 C 
BRANCH  24  25
ATOM     25  C   UNL A   1      36.329  20.965  25.087  1.00  0.00     0.002 C 
BRANCH  25  26
ATOM     26  C   UNL A   1      37.500  19.972  25.077  1.00  0.00     0.021 C 
BRANCH  26  27
ATOM     27  C   UNL A   1      38.819  20.572  25.563  1.00  0.00     0.116 C 
BRANCH  27  28
ATOM     28  N   UNL A   1      39.784  19.524  25.838  1.00  0.00    -0.352 N 
ATOM     29  C   UNL A   1      41.132  19.597  26.055  1.00  0.00     0.251 C 
ATOM     30  H   UNL A   1      39.407  18.614  25.873  1.00  0.00     0.163 HD
ATOM     31  O   UNL A   1      41.815  18.592  25.903  1.00  0.00    -0.269 OA
BRANCH  29  32
ATOM     32  C   UNL A   1      41.787  20.858  26.465  1.00  0.00     0.039 A 
ATOM     33  C   UNL A   1      42.250  21.701  25.446  1.00  0.00     0.014 A 
ATOM     34  C   UNL A   1      42.056  21.161  27.805  1.00  0.00     0.014 A 
ATOM     35  C   UNL A   1      42.937  22.866  25.767  1.00  0.00     0.010 A 
ATOM     36  C   UNL A   1      42.731  22.336  28.133  1.00  0.00     0.010 A 
ATOM     37  C   UNL A   1      43.155  23.195  27.112  1.00  0.00    -0.014 A 
BRANCH  37  38
ATOM     38  C   UNL A   1      43.629  24.564  27.418  1.00  0.00     0.031 A 
ATOM     39  C   UNL A   1      42.432  25.528  27.618  1.00  0.00     0.074 A 
ATOM     40  C   UNL A   1      44.984  24.765  27.431  1.00  0.00     0.049 A 
ATOM     41  N   UNL A   1      42.361  26.818  27.488  1.00  0.00    -0.248 NA
ATOM     42  C   UNL A   1      41.095  24.965  27.971  1.00  0.00     0.031 C 
ATOM     43  C   UNL A   1      45.995  23.694  27.289  1.00  0.00     0.029 A 
ATOM     44  N   UNL A   1      45.796  25.880  27.555  1.00  0.00    -0.354 N 
ATOM     45  C   UNL A   1      41.078  27.230  27.926  1.00  0.00     0.074 A 
ATOM     46  C   UNL A   1      40.311  26.039  28.106  1.00  0.00     0.031 C 
ATOM     47  C   UNL A   1      47.246  24.204  27.243  1.00  0.00     0.029 A 
ATOM     48  C   UNL A   1      47.191  25.648  27.360  1.00  0.00     0.049 A 
ATOM     49  H   UNL A   1      45.435  26.772  27.763  1.00  0.00     0.167 HD
ATOM     50  C   UNL A   1      40.781  28.528  28.240  1.00  0.00     0.037 A 
ATOM     51  C   UNL A   1      48.215  26.557  27.258  1.00  0.00     0.037 A 
ATOM     52  C   UNL A   1      41.903  29.351  27.955  1.00  0.00     0.049 A 
ATOM     53  C   UNL A   1      47.606  27.841  27.615  1.00  0.00     0.074 A 
ATOM     54  C   UNL A   1      42.445  29.772  26.770  1.00  0.00     0.029 A 
ATOM     55  N   UNL A   1      42.814  29.527  28.965  1.00  0.00    -0.354 N 
ATOM     56  N   UNL A   1      47.288  28.186  28.826  1.00  0.00    -0.248 NA
ATOM     57  C   UNL A   1      47.257  28.783  26.544  1.00  0.00     0.031 C 
ATOM     58  C   UNL A   1      43.827  29.723  27.022  1.00  0.00     0.029 A 
ATOM     59  C   UNL A   1      44.056  29.527  28.390  1.00  0.00     0.049 A 
ATOM     60  H   UNL A   1      42.611  29.634  29.923  1.00  0.00     0.167 HD
ATOM     61  C   UNL A   1      46.401  29.207  28.602  1.00  0.00     0.074 A 
ATOM     62  C   UNL A   1      46.688  29.731  27.285  1.00  0.00     0.031 C 
ATOM     63  C   UNL A   1      45.187  29.164  29.207  1.00  0.00     0.037 A 
BRANCH  50  64
ATOM     64  C   UNL A   1      39.661  29.176  29.012  1.00  0.00     0.064 A 
ATOM     65  C   UNL A   1      39.568  28.903  30.405  1.00  0.00     0.173 A 
ATOM     66  C   UNL A   1      38.508  29.693  28.410  1.00  0.00     0.173 A 
ATOM     67  F   UNL A   1      40.635  28.466  31.093  1.00  0.00    -0.203 F 
ATOM     68  C   UNL A   1      38.361  28.977  31.096  1.00  0.00     0.198 A 
ATOM     69  C   UNL A   1      37.310  29.817  29.124  1.00  0.00     0.198 A 
ATOM     70  F   UNL A   1      38.483  29.991  27.106  1.00  0.00    -0.203 F 
ATOM     71  F   UNL A   1      38.291  28.551  32.366  1.00  0.00    -0.200 F 
ATOM     72  C   UNL A   1      37.225  29.412  30.447  1.00  0.00     0.200 A 
ATOM     73  F   UNL A   1      36.211  30.255  28.496  1.00  0.00    -0.200 F 
ATOM     74  F   UNL A   1      36.045  29.410  31.082  1.00  0.00    -0.200 F 
ENDBRANCH  50  64
BRANCH  51  75
ATOM     75  C   UNL A   1      49.681  26.624  26.858  1.00  0.00     0.064 A 
ATOM     76  C   UNL A   1      50.781  26.525  27.715  1.00  0.00     0.173 A 
ATOM     77  C   UNL A   1      50.038  26.710  25.475  1.00  0.00     0.173 A 
ATOM     78  F   UNL A   1      50.626  26.569  29.042  1.00  0.00    -0.203 F 
ATOM     79  C   UNL A   1      52.100  26.392  27.228  1.00  0.00     0.198 A 
ATOM     80  C   UNL A   1      51.332  26.519  24.990  1.00  0.00     0.198 A 
ATOM     81  F   UNL A   1      49.135  26.982  24.524  1.00  0.00    -0.203 F 
ATOM     82  F   UNL A   1      53.121  26.294  28.092  1.00  0.00    -0.200 F 
ATOM     83  C   UNL A   1      52.367  26.340  25.870  1.00  0.00     0.200 A 
ATOM     84  F   UNL A   1      51.547  26.492  23.666  1.00  0.00    -0.200 F 
ATOM     85  F   UNL A   1      53.610  26.135  25.413  1.00  0.00    -0.200 F 
ENDBRANCH  51  75
BRANCH  63  86
ATOM     86  C   UNL A   1      45.165  28.354  30.493  1.00  0.00     0.064 A 
ATOM     87  C   UNL A   1      45.901  28.799  31.604  1.00  0.00     0.173 A 
ATOM     88  C   UNL A   1      44.555  27.097  30.629  1.00  0.00     0.173 A 
ATOM     89  F   UNL A   1      46.495  30.003  31.573  1.00  0.00    -0.203 F 
ATOM     90  C   UNL A   1      46.038  28.023  32.758  1.00  0.00     0.198 A 
ATOM     91  C   UNL A   1      44.685  26.318  31.782  1.00  0.00     0.198 A 
ATOM     92  F   UNL A   1      43.810  26.592  29.649  1.00  0.00    -0.203 F 
ATOM     93  F   UNL A   1      46.756  28.485  33.792  1.00  0.00    -0.200 F 
ATOM     94  C   UNL A   1      45.435  26.780  32.845  1.00  0.00     0.200 A 
ATOM     95  F   UNL A   1      44.077  25.124  31.860  1.00  0.00    -0.200 F 
ATOM     96  F   UNL A   1      45.557  26.040  33.957  1.00  0.00    -0.200 F 
ENDBRANCH  63  86
ENDBRANCH  37  38
ENDBRANCH  29  32
ENDBRANCH  27  28
ENDBRANCH  26  27
ENDBRANCH  25  26
ENDBRANCH  24  25
ENDBRANCH   1  24
TORSDOF 18
ENDMDL
