MODEL 1
REMARK VINA RESULT:     -11.8      0.000      0.000
REMARK SMILES CCN(CC)c1ccc(NC(=O)c2ccc(OC)cc2)cc1C(=O)NCCCCCCNC(=O)c1ccc(-c2c3nc(c(-c4c(F)c(F)c(F)c(F)c4F)c4ccc([nH]4)c(-c4c(F)c(F)c(F)c(F)c4F)c4nc(c(-c5c(F)c(F)c(F)c(F)c5F)c5ccc2[nH]5)C=C4)C=C3)cc1
REMARK SMILES IDX 28 1 27 2 26 3 25 4 23 5 24 6 22 8 6 9 7 10 8 11 21 12 9 13
REMARK SMILES IDX 3 14 2 15 1 16 4 17 5 18 10 19 11 20 12 22 13 23 14 24 20 25
REMARK SMILES IDX 15 26 19 27 16 28 17 29 18 30 29 31 30 32 31 33 32 34 33 35
REMARK SMILES IDX 34 37 35 38 36 39 97 40 37 41 96 42 38 43 39 44 40 45 90 46
REMARK SMILES IDX 41 47 95 48 89 49 91 50 42 51 94 52 88 53 87 54 43 56 75 57
REMARK SMILES IDX 55 58 74 59 56 60 59 61 73 62 92 63 57 64 58 65 72 67 93 68
REMARK SMILES IDX 60 69 44 70 45 71 53 72 46 73 47 74 51 75 54 76 48 77 49 78
REMARK SMILES IDX 52 79 50 80 76 81 77 82 85 83 78 84 79 85 83 86 86 87 80 88
REMARK SMILES IDX 81 89 84 90 82 91 61 92 62 93 70 94 63 95 64 96 68 97 71 98
REMARK SMILES IDX 65 99 66 100 69 101 67 102
REMARK H PARENT 25 7 10 21 32 36 91 55 59 66
REMARK Flexibility Score: inf
ROOT
ATOM      1  C   UNL A   1      32.204  30.131  26.264  1.00  0.00     0.002 C 
ENDROOT
BRANCH   1   2
ATOM      2  C   UNL A   1      31.782  29.004  27.216  1.00  0.00     0.021 C 
BRANCH   2   3
ATOM      3  C   UNL A   1      32.388  27.632  26.959  1.00  0.00     0.116 C 
BRANCH   3   4
ATOM      4  N   UNL A   1      31.514  26.495  26.840  1.00  0.00    -0.352 N 
ATOM      5  C   UNL A   1      31.702  25.352  26.072  1.00  0.00     0.253 C 
ATOM      6  O   UNL A   1      30.874  24.447  26.203  1.00  0.00    -0.269 OA
ATOM      7  H   UNL A   1      30.682  26.530  27.367  1.00  0.00     0.163 HD
BRANCH   5   8
ATOM      8  C   UNL A   1      32.786  25.197  25.029  1.00  0.00     0.065 A 
ATOM      9  C   UNL A   1      32.776  25.683  23.702  1.00  0.00     0.050 A 
ATOM     10  C   UNL A   1      33.700  25.096  22.831  1.00  0.00     0.029 A 
ATOM     11  C   UNL A   1      34.670  24.200  23.245  1.00  0.00     0.028 A 
ATOM     12  C   UNL A   1      33.922  24.448  25.472  1.00  0.00     0.042 A 
ATOM     13  C   UNL A   1      34.923  24.036  24.585  1.00  0.00     0.042 A 
BRANCH   9  14
ATOM     14  N   UNL A   1      31.969  26.691  23.181  1.00  0.00    -0.371 N 
BRANCH  14  15
ATOM     15  C   UNL A   1      30.547  26.432  22.876  1.00  0.00     0.113 C 
ATOM     16  C   UNL A   1      29.533  27.189  23.723  1.00  0.00     0.027 C 
ENDBRANCH  14  15
BRANCH  14  17
ATOM     17  C   UNL A   1      32.402  28.098  23.340  1.00  0.00     0.113 C 
ATOM     18  C   UNL A   1      33.891  28.334  23.520  1.00  0.00     0.027 C 
ENDBRANCH  14  17
ENDBRANCH   9  14
BRANCH  13  19
ATOM     19  N   UNL A   1      36.139  23.501  25.062  1.00  0.00    -0.322 N 
ATOM     20  C   UNL A   1      36.449  22.245  25.575  1.00  0.00     0.255 C 
ATOM     21  H   UNL A   1      36.900  24.125  25.024  1.00  0.00     0.170 HD
ATOM     22  O   UNL A   1      37.575  22.026  26.023  1.00  0.00    -0.269 OA
BRANCH  20  23
ATOM     23  C   UNL A   1      35.460  21.135  25.612  1.00  0.00     0.040 A 
ATOM     24  C   UNL A   1      34.309  21.300  26.387  1.00  0.00     0.017 A 
ATOM     25  C   UNL A   1      35.601  19.989  24.815  1.00  0.00     0.017 A 
ATOM     26  C   UNL A   1      33.254  20.389  26.267  1.00  0.00     0.047 A 
ATOM     27  C   UNL A   1      34.527  19.094  24.678  1.00  0.00     0.047 A 
ATOM     28  C   UNL A   1      33.337  19.314  25.375  1.00  0.00     0.118 A 
BRANCH  28  29
ATOM     29  O   UNL A   1      32.203  18.556  25.280  1.00  0.00    -0.497 OA
ATOM     30  C   UNL A   1      32.380  17.181  24.952  1.00  0.00     0.278 C 
ENDBRANCH  28  29
ENDBRANCH  20  23
ENDBRANCH  13  19
ENDBRANCH   5   8
ENDBRANCH   3   4
ENDBRANCH   2   3
ENDBRANCH   1   2
BRANCH   1  31
ATOM     31  C   UNL A   1      31.154  31.147  25.795  1.00  0.00     0.002 C 
BRANCH  31  32
ATOM     32  C   UNL A   1      31.123  32.537  26.433  1.00  0.00     0.021 C 
BRANCH  32  33
ATOM     33  C   UNL A   1      32.399  33.041  27.099  1.00  0.00     0.116 C 
BRANCH  33  34
ATOM     34  N   UNL A   1      32.254  34.352  27.697  1.00  0.00    -0.352 N 
ATOM     35  C   UNL A   1      33.002  34.995  28.651  1.00  0.00     0.251 C 
ATOM     36  H   UNL A   1      31.488  34.871  27.360  1.00  0.00     0.163 HD
ATOM     37  O   UNL A   1      32.624  36.089  29.060  1.00  0.00    -0.269 OA
BRANCH  35  38
ATOM     38  C   UNL A   1      34.231  34.392  29.229  1.00  0.00     0.039 A 
ATOM     39  C   UNL A   1      34.080  33.530  30.321  1.00  0.00     0.014 A 
ATOM     40  C   UNL A   1      35.516  34.688  28.768  1.00  0.00     0.014 A 
ATOM     41  C   UNL A   1      35.198  32.935  30.911  1.00  0.00     0.010 A 
ATOM     42  C   UNL A   1      36.630  34.035  29.311  1.00  0.00     0.010 A 
ATOM     43  C   UNL A   1      36.483  33.152  30.391  1.00  0.00    -0.014 A 
BRANCH  43  44
ATOM     44  C   UNL A   1      37.659  32.446  30.970  1.00  0.00     0.031 A 
ATOM     45  C   UNL A   1      38.177  32.799  32.340  1.00  0.00     0.074 A 
ATOM     46  C   UNL A   1      38.266  31.478  30.254  1.00  0.00     0.049 A 
ATOM     47  N   UNL A   1      39.173  32.271  33.009  1.00  0.00    -0.248 NA
ATOM     48  C   UNL A   1      37.501  33.898  33.047  1.00  0.00     0.031 C 
ATOM     49  C   UNL A   1      37.893  31.073  28.897  1.00  0.00     0.029 A 
ATOM     50  N   UNL A   1      39.320  30.654  30.565  1.00  0.00    -0.354 N 
ATOM     51  C   UNL A   1      39.235  32.963  34.212  1.00  0.00     0.074 A 
ATOM     52  C   UNL A   1      38.221  33.994  34.156  1.00  0.00     0.031 C 
ATOM     53  C   UNL A   1      38.677  30.056  28.508  1.00  0.00     0.029 A 
ATOM     54  C   UNL A   1      39.634  29.761  29.569  1.00  0.00     0.049 A 
ATOM     55  H   UNL A   1      39.804  30.698  31.420  1.00  0.00     0.167 HD
ATOM     56  C   UNL A   1      40.040  32.740  35.279  1.00  0.00     0.037 A 
ATOM     57  C   UNL A   1      40.586  28.809  29.516  1.00  0.00     0.037 A 
ATOM     58  C   UNL A   1      41.046  31.709  35.339  1.00  0.00     0.049 A 
ATOM     59  C   UNL A   1      41.482  28.604  30.710  1.00  0.00     0.074 A 
ATOM     60  C   UNL A   1      41.898  31.394  36.384  1.00  0.00     0.029 A 
ATOM     61  N   UNL A   1      41.333  30.824  34.311  1.00  0.00    -0.354 N 
ATOM     62  N   UNL A   1      41.484  29.225  31.864  1.00  0.00    -0.248 NA
ATOM     63  C   UNL A   1      42.502  27.552  30.595  1.00  0.00     0.031 C 
ATOM     64  C   UNL A   1      42.730  30.347  35.973  1.00  0.00     0.029 A 
ATOM     65  C   UNL A   1      42.359  29.973  34.692  1.00  0.00     0.049 A 
ATOM     66  H   UNL A   1      40.876  30.804  33.439  1.00  0.00     0.167 HD
ATOM     67  C   UNL A   1      42.477  28.619  32.621  1.00  0.00     0.074 A 
ATOM     68  C   UNL A   1      43.036  27.562  31.807  1.00  0.00     0.031 C 
ATOM     69  C   UNL A   1      42.898  28.916  33.875  1.00  0.00     0.037 A 
BRANCH  56  70
ATOM     70  C   UNL A   1      39.854  33.610  36.490  1.00  0.00     0.064 A 
ATOM     71  C   UNL A   1      40.519  34.840  36.612  1.00  0.00     0.173 A 
ATOM     72  C   UNL A   1      38.950  33.251  37.502  1.00  0.00     0.173 A 
ATOM     73  F   UNL A   1      41.401  35.225  35.678  1.00  0.00    -0.203 F 
ATOM     74  C   UNL A   1      40.297  35.670  37.707  1.00  0.00     0.198 A 
ATOM     75  C   UNL A   1      38.709  34.098  38.581  1.00  0.00     0.198 A 
ATOM     76  F   UNL A   1      38.283  32.089  37.433  1.00  0.00    -0.203 F 
ATOM     77  F   UNL A   1      40.970  36.824  37.818  1.00  0.00    -0.200 F 
ATOM     78  C   UNL A   1      39.385  35.304  38.684  1.00  0.00     0.200 A 
ATOM     79  F   UNL A   1      37.816  33.750  39.517  1.00  0.00    -0.200 F 
ATOM     80  F   UNL A   1      39.160  36.113  39.730  1.00  0.00    -0.200 F 
ENDBRANCH  56  70
BRANCH  57  81
ATOM     81  C   UNL A   1      40.745  27.963  28.301  1.00  0.00     0.064 A 
ATOM     82  C   UNL A   1      40.131  26.705  28.209  1.00  0.00     0.173 A 
ATOM     83  C   UNL A   1      41.561  28.367  27.235  1.00  0.00     0.173 A 
ATOM     84  F   UNL A   1      39.357  26.263  29.211  1.00  0.00    -0.203 F 
ATOM     85  C   UNL A   1      40.364  25.867  27.120  1.00  0.00     0.198 A 
ATOM     86  C   UNL A   1      41.762  27.544  26.128  1.00  0.00     0.198 A 
ATOM     87  F   UNL A   1      42.167  29.563  27.267  1.00  0.00    -0.203 F 
ATOM     88  F   UNL A   1      39.827  24.639  27.096  1.00  0.00    -0.200 F 
ATOM     89  C   UNL A   1      41.177  26.288  26.080  1.00  0.00     0.200 A 
ATOM     90  F   UNL A   1      42.536  27.962  25.117  1.00  0.00    -0.200 F 
ATOM     91  F   UNL A   1      41.410  25.478  25.037  1.00  0.00    -0.200 F 
ENDBRANCH  57  81
BRANCH  69  92
ATOM     92  C   UNL A   1      43.986  28.057  34.454  1.00  0.00     0.064 A 
ATOM     93  C   UNL A   1      45.344  28.351  34.256  1.00  0.00     0.173 A 
ATOM     94  C   UNL A   1      43.666  26.922  35.216  1.00  0.00     0.173 A 
ATOM     95  F   UNL A   1      45.704  29.416  33.523  1.00  0.00    -0.203 F 
ATOM     96  C   UNL A   1      46.339  27.518  34.760  1.00  0.00     0.198 A 
ATOM     97  C   UNL A   1      44.664  26.112  35.751  1.00  0.00     0.198 A 
ATOM     98  F   UNL A   1      42.384  26.599  35.444  1.00  0.00    -0.203 F 
ATOM     99  F   UNL A   1      47.626  27.780  34.497  1.00  0.00    -0.200 F 
ATOM    100  C   UNL A   1      45.998  26.402  35.511  1.00  0.00     0.200 A 
ATOM    101  F   UNL A   1      44.334  25.044  36.490  1.00  0.00    -0.200 F 
ATOM    102  F   UNL A   1      46.957  25.600  35.993  1.00  0.00    -0.200 F 
ENDBRANCH  69  92
ENDBRANCH  43  44
ENDBRANCH  35  38
ENDBRANCH  33  34
ENDBRANCH  32  33
ENDBRANCH  31  32
ENDBRANCH   1  31
TORSDOF 19
ENDMDL
MODEL 2
REMARK VINA RESULT:     -11.4      1.080      7.110
REMARK SMILES CCN(CC)c1ccc(NC(=O)c2ccc(OC)cc2)cc1C(=O)NCCCCCCNC(=O)c1ccc(-c2c3nc(c(-c4c(F)c(F)c(F)c(F)c4F)c4ccc([nH]4)c(-c4c(F)c(F)c(F)c(F)c4F)c4nc(c(-c5c(F)c(F)c(F)c(F)c5F)c5ccc2[nH]5)C=C4)C=C3)cc1
REMARK SMILES IDX 28 1 27 2 26 3 25 4 23 5 24 6 22 8 6 9 7 10 8 11 21 12 9 13
REMARK SMILES IDX 3 14 2 15 1 16 4 17 5 18 10 19 11 20 12 22 13 23 14 24 20 25
REMARK SMILES IDX 15 26 19 27 16 28 17 29 18 30 29 31 30 32 31 33 32 34 33 35
REMARK SMILES IDX 34 37 35 38 36 39 97 40 37 41 96 42 38 43 39 44 40 45 90 46
REMARK SMILES IDX 41 47 95 48 89 49 91 50 42 51 94 52 88 53 87 54 43 56 75 57
REMARK SMILES IDX 55 58 74 59 56 60 59 61 73 62 92 63 57 64 58 65 72 67 93 68
REMARK SMILES IDX 60 69 44 70 45 71 53 72 46 73 47 74 51 75 54 76 48 77 49 78
REMARK SMILES IDX 52 79 50 80 76 81 77 82 85 83 78 84 79 85 83 86 86 87 80 88
REMARK SMILES IDX 81 89 84 90 82 91 61 92 62 93 70 94 63 95 64 96 68 97 71 98
REMARK SMILES IDX 65 99 66 100 69 101 67 102
REMARK H PARENT 25 7 10 21 32 36 91 55 59 66
REMARK Flexibility Score: inf
ROOT
ATOM      1  C   UNL A   1      32.157  29.667  27.205  1.00  0.00     0.002 C 
ENDROOT
BRANCH   1   2
ATOM      2  C   UNL A   1      32.404  28.202  26.822  1.00  0.00     0.021 C 
BRANCH   2   3
ATOM      3  C   UNL A   1      33.577  27.928  25.893  1.00  0.00     0.116 C 
BRANCH   3   4
ATOM      4  N   UNL A   1      33.321  27.362  24.595  1.00  0.00    -0.352 N 
ATOM      5  C   UNL A   1      33.179  26.020  24.264  1.00  0.00     0.253 C 
ATOM      6  O   UNL A   1      32.852  25.761  23.103  1.00  0.00    -0.269 OA
ATOM      7  H   UNL A   1      33.235  28.003  23.852  1.00  0.00     0.163 HD
BRANCH   5   8
ATOM      8  C   UNL A   1      33.495  24.875  25.199  1.00  0.00     0.065 A 
ATOM      9  C   UNL A   1      32.597  24.180  26.041  1.00  0.00     0.050 A 
ATOM     10  C   UNL A   1      33.180  23.436  27.073  1.00  0.00     0.029 A 
ATOM     11  C   UNL A   1      34.545  23.256  27.199  1.00  0.00     0.028 A 
ATOM     12  C   UNL A   1      34.876  24.499  25.218  1.00  0.00     0.042 A 
ATOM     13  C   UNL A   1      35.381  23.600  26.165  1.00  0.00     0.042 A 
BRANCH   9  14
ATOM     14  N   UNL A   1      31.209  24.139  25.938  1.00  0.00    -0.371 N 
BRANCH  14  15
ATOM     15  C   UNL A   1      30.483  22.858  26.070  1.00  0.00     0.113 C 
ATOM     16  C   UNL A   1      29.529  22.751  27.251  1.00  0.00     0.027 C 
ENDBRANCH  14  15
BRANCH  14  17
ATOM     17  C   UNL A   1      30.447  25.394  26.128  1.00  0.00     0.113 C 
ATOM     18  C   UNL A   1      29.695  25.922  24.920  1.00  0.00     0.027 C 
ENDBRANCH  14  17
ENDBRANCH   9  14
BRANCH  13  19
ATOM     19  N   UNL A   1      36.681  23.066  26.037  1.00  0.00    -0.322 N 
ATOM     20  C   UNL A   1      37.120  21.817  25.604  1.00  0.00     0.255 C 
ATOM     21  H   UNL A   1      37.402  23.683  26.297  1.00  0.00     0.170 HD
ATOM     22  O   UNL A   1      38.316  21.534  25.662  1.00  0.00    -0.269 OA
BRANCH  20  23
ATOM     23  C   UNL A   1      36.189  20.788  25.069  1.00  0.00     0.040 A 
ATOM     24  C   UNL A   1      36.668  19.486  24.902  1.00  0.00     0.017 A 
ATOM     25  C   UNL A   1      34.834  21.064  24.834  1.00  0.00     0.017 A 
ATOM     26  C   UNL A   1      35.773  18.446  24.627  1.00  0.00     0.047 A 
ATOM     27  C   UNL A   1      33.937  20.012  24.586  1.00  0.00     0.047 A 
ATOM     28  C   UNL A   1      34.400  18.695  24.519  1.00  0.00     0.118 A 
BRANCH  28  29
ATOM     29  O   UNL A   1      33.624  17.583  24.346  1.00  0.00    -0.497 OA
ATOM     30  C   UNL A   1      32.901  17.493  23.123  1.00  0.00     0.278 C 
ENDBRANCH  28  29
ENDBRANCH  20  23
ENDBRANCH  13  19
ENDBRANCH   5   8
ENDBRANCH   3   4
ENDBRANCH   2   3
ENDBRANCH   1   2
BRANCH   1  31
ATOM     31  C   UNL A   1      31.439  30.590  26.210  1.00  0.00     0.002 C 
BRANCH  31  32
ATOM     32  C   UNL A   1      31.386  32.093  26.492  1.00  0.00     0.021 C 
BRANCH  32  33
ATOM     33  C   UNL A   1      32.673  32.778  26.935  1.00  0.00     0.116 C 
BRANCH  33  34
ATOM     34  N   UNL A   1      32.450  34.057  27.578  1.00  0.00    -0.352 N 
ATOM     35  C   UNL A   1      33.092  34.661  28.629  1.00  0.00     0.251 C 
ATOM     36  H   UNL A   1      31.713  34.583  27.193  1.00  0.00     0.163 HD
ATOM     37  O   UNL A   1      32.659  35.730  29.050  1.00  0.00    -0.269 OA
BRANCH  35  38
ATOM     38  C   UNL A   1      34.269  34.045  29.295  1.00  0.00     0.039 A 
ATOM     39  C   UNL A   1      34.028  33.062  30.261  1.00  0.00     0.014 A 
ATOM     40  C   UNL A   1      35.584  34.439  29.038  1.00  0.00     0.014 A 
ATOM     41  C   UNL A   1      35.092  32.447  30.925  1.00  0.00     0.010 A 
ATOM     42  C   UNL A   1      36.654  33.772  29.649  1.00  0.00     0.010 A 
ATOM     43  C   UNL A   1      36.420  32.770  30.602  1.00  0.00    -0.014 A 
BRANCH  43  44
ATOM     44  C   UNL A   1      37.549  32.049  31.251  1.00  0.00     0.031 A 
ATOM     45  C   UNL A   1      38.307  30.974  30.516  1.00  0.00     0.074 A 
ATOM     46  C   UNL A   1      37.893  32.365  32.516  1.00  0.00     0.049 A 
ATOM     47  N   UNL A   1      39.330  30.262  30.920  1.00  0.00    -0.248 NA
ATOM     48  C   UNL A   1      37.848  30.643  29.159  1.00  0.00     0.031 C 
ATOM     49  C   UNL A   1      37.210  33.353  33.354  1.00  0.00     0.029 A 
ATOM     50  N   UNL A   1      38.905  31.897  33.319  1.00  0.00    -0.354 N 
ATOM     51  C   UNL A   1      39.642  29.410  29.867  1.00  0.00     0.074 A 
ATOM     52  C   UNL A   1      38.658  29.646  28.831  1.00  0.00     0.031 C 
ATOM     53  C   UNL A   1      37.843  33.444  34.535  1.00  0.00     0.029 A 
ATOM     54  C   UNL A   1      38.951  32.496  34.554  1.00  0.00     0.049 A 
ATOM     55  H   UNL A   1      39.537  31.198  33.035  1.00  0.00     0.167 HD
ATOM     56  C   UNL A   1      40.672  28.537  29.758  1.00  0.00     0.037 A 
ATOM     57  C   UNL A   1      39.793  32.304  35.588  1.00  0.00     0.037 A 
ATOM     58  C   UNL A   1      41.656  28.305  30.785  1.00  0.00     0.049 A 
ATOM     59  C   UNL A   1      40.912  31.305  35.445  1.00  0.00     0.074 A 
ATOM     60  C   UNL A   1      42.747  27.453  30.760  1.00  0.00     0.029 A 
ATOM     61  N   UNL A   1      41.670  28.932  32.022  1.00  0.00    -0.354 N 
ATOM     62  N   UNL A   1      41.229  30.556  34.417  1.00  0.00    -0.248 NA
ATOM     63  C   UNL A   1      41.798  31.137  36.605  1.00  0.00     0.031 C 
ATOM     64  C   UNL A   1      43.396  27.532  31.996  1.00  0.00     0.029 A 
ATOM     65  C   UNL A   1      42.742  28.474  32.773  1.00  0.00     0.049 A 
ATOM     66  H   UNL A   1      41.014  29.603  32.322  1.00  0.00     0.167 HD
ATOM     67  C   UNL A   1      42.368  29.856  34.794  1.00  0.00     0.074 A 
ATOM     68  C   UNL A   1      42.702  30.292  36.132  1.00  0.00     0.031 C 
ATOM     69  C   UNL A   1      43.069  28.927  34.100  1.00  0.00     0.037 A 
BRANCH  56  70
ATOM     70  C   UNL A   1      40.811  27.775  28.469  1.00  0.00     0.064 A 
ATOM     71  C   UNL A   1      41.626  28.248  27.429  1.00  0.00     0.173 A 
ATOM     72  C   UNL A   1      40.190  26.528  28.301  1.00  0.00     0.173 A 
ATOM     73  F   UNL A   1      42.234  29.439  27.536  1.00  0.00    -0.203 F 
ATOM     74  C   UNL A   1      41.800  27.509  26.262  1.00  0.00     0.198 A 
ATOM     75  C   UNL A   1      40.391  25.779  27.144  1.00  0.00     0.198 A 
ATOM     76  F   UNL A   1      39.406  26.025  29.266  1.00  0.00    -0.203 F 
ATOM     77  F   UNL A   1      42.555  27.998  25.268  1.00  0.00    -0.200 F 
ATOM     78  C   UNL A   1      41.192  26.271  26.124  1.00  0.00     0.200 A 
ATOM     79  F   UNL A   1      39.815  24.576  27.019  1.00  0.00    -0.200 F 
ATOM     80  F   UNL A   1      41.375  25.553  25.007  1.00  0.00    -0.200 F 
ENDBRANCH  56  70
BRANCH  57  81
ATOM     81  C   UNL A   1      39.629  33.074  36.852  1.00  0.00     0.064 A 
ATOM     82  C   UNL A   1      38.694  32.681  37.823  1.00  0.00     0.173 A 
ATOM     83  C   UNL A   1      40.356  34.248  37.089  1.00  0.00     0.173 A 
ATOM     84  F   UNL A   1      37.958  31.576  37.636  1.00  0.00    -0.203 F 
ATOM     85  C   UNL A   1      38.464  33.457  38.957  1.00  0.00     0.198 A 
ATOM     86  C   UNL A   1      40.152  35.004  38.243  1.00  0.00     0.198 A 
ATOM     87  F   UNL A   1      41.268  34.666  36.198  1.00  0.00    -0.203 F 
ATOM     88  F   UNL A   1      37.510  33.099  39.828  1.00  0.00    -0.200 F 
ATOM     89  C   UNL A   1      39.194  34.617  39.167  1.00  0.00     0.200 A 
ATOM     90  F   UNL A   1      40.873  36.114  38.450  1.00  0.00    -0.200 F 
ATOM     91  F   UNL A   1      38.964  35.369  40.252  1.00  0.00    -0.200 F 
ENDBRANCH  57  81
BRANCH  69  92
ATOM     92  C   UNL A   1      44.291  28.356  34.763  1.00  0.00     0.064 A 
ATOM     93  C   UNL A   1      45.552  28.958  34.632  1.00  0.00     0.173 A 
ATOM     94  C   UNL A   1      44.199  27.190  35.539  1.00  0.00     0.173 A 
ATOM     95  F   UNL A   1      45.697  30.067  33.890  1.00  0.00    -0.203 F 
ATOM     96  C   UNL A   1      46.681  28.390  35.216  1.00  0.00     0.198 A 
ATOM     97  C   UNL A   1      45.324  26.646  36.153  1.00  0.00     0.198 A 
ATOM     98  F   UNL A   1      43.017  26.578  35.705  1.00  0.00    -0.203 F 
ATOM     99  F   UNL A   1      47.886  28.943  35.017  1.00  0.00    -0.200 F 
ATOM    100  C   UNL A   1      46.566  27.237  35.979  1.00  0.00     0.200 A 
ATOM    101  F   UNL A   1      45.208  25.542  36.903  1.00  0.00    -0.200 F 
ATOM    102  F   UNL A   1      47.655  26.691  36.537  1.00  0.00    -0.200 F 
ENDBRANCH  69  92
ENDBRANCH  43  44
ENDBRANCH  35  38
ENDBRANCH  33  34
ENDBRANCH  32  33
ENDBRANCH  31  32
ENDBRANCH   1  31
TORSDOF 19
ENDMDL
MODEL 3
REMARK VINA RESULT:     -11.3      1.157      7.122
REMARK SMILES CCN(CC)c1ccc(NC(=O)c2ccc(OC)cc2)cc1C(=O)NCCCCCCNC(=O)c1ccc(-c2c3nc(c(-c4c(F)c(F)c(F)c(F)c4F)c4ccc([nH]4)c(-c4c(F)c(F)c(F)c(F)c4F)c4nc(c(-c5c(F)c(F)c(F)c(F)c5F)c5ccc2[nH]5)C=C4)C=C3)cc1
REMARK SMILES IDX 28 1 27 2 26 3 25 4 23 5 24 6 22 8 6 9 7 10 8 11 21 12 9 13
REMARK SMILES IDX 3 14 2 15 1 16 4 17 5 18 10 19 11 20 12 22 13 23 14 24 20 25
REMARK SMILES IDX 15 26 19 27 16 28 17 29 18 30 29 31 30 32 31 33 32 34 33 35
REMARK SMILES IDX 34 37 35 38 36 39 97 40 37 41 96 42 38 43 39 44 40 45 90 46
REMARK SMILES IDX 41 47 95 48 89 49 91 50 42 51 94 52 88 53 87 54 43 56 75 57
REMARK SMILES IDX 55 58 74 59 56 60 59 61 73 62 92 63 57 64 58 65 72 67 93 68
REMARK SMILES IDX 60 69 44 70 45 71 53 72 46 73 47 74 51 75 54 76 48 77 49 78
REMARK SMILES IDX 52 79 50 80 76 81 77 82 85 83 78 84 79 85 83 86 86 87 80 88
REMARK SMILES IDX 81 89 84 90 82 91 61 92 62 93 70 94 63 95 64 96 68 97 71 98
REMARK SMILES IDX 65 99 66 100 69 101 67 102
REMARK H PARENT 25 7 10 21 32 36 91 55 59 66
REMARK Flexibility Score: inf
ROOT
ATOM      1  C   UNL A   1      32.160  29.704  25.829  1.00  0.00     0.002 C 
ENDROOT
BRANCH   1   2
ATOM      2  C   UNL A   1      31.412  28.365  25.803  1.00  0.00     0.021 C 
BRANCH   2   3
ATOM      3  C   UNL A   1      32.166  27.152  26.331  1.00  0.00     0.116 C 
BRANCH   3   4
ATOM      4  N   UNL A   1      31.417  26.034  26.840  1.00  0.00    -0.352 N 
ATOM      5  C   UNL A   1      31.470  24.711  26.420  1.00  0.00     0.253 C 
ATOM      6  O   UNL A   1      30.819  23.889  27.071  1.00  0.00    -0.269 OA
ATOM      7  H   UNL A   1      30.792  26.229  27.576  1.00  0.00     0.163 HD
BRANCH   5   8
ATOM      8  C   UNL A   1      32.184  24.242  25.171  1.00  0.00     0.065 A 
ATOM      9  C   UNL A   1      31.819  24.491  23.829  1.00  0.00     0.050 A 
ATOM     10  C   UNL A   1      32.400  23.651  22.874  1.00  0.00     0.029 A 
ATOM     11  C   UNL A   1      33.382  22.724  23.176  1.00  0.00     0.028 A 
ATOM     12  C   UNL A   1      33.344  23.443  25.426  1.00  0.00     0.042 A 
ATOM     13  C   UNL A   1      34.007  22.762  24.398  1.00  0.00     0.042 A 
BRANCH   9  14
ATOM     14  N   UNL A   1      30.968  25.489  23.360  1.00  0.00    -0.371 N 
BRANCH  14  15
ATOM     15  C   UNL A   1      29.585  25.598  23.869  1.00  0.00     0.113 C 
ATOM     16  C   UNL A   1      28.916  26.954  23.697  1.00  0.00     0.027 C 
ENDBRANCH  14  15
BRANCH  14  17
ATOM     17  C   UNL A   1      31.563  26.674  22.700  1.00  0.00     0.113 C 
ATOM     18  C   UNL A   1      33.071  26.819  22.795  1.00  0.00     0.027 C 
ENDBRANCH  14  17
ENDBRANCH   9  14
BRANCH  13  19
ATOM     19  N   UNL A   1      35.267  22.167  24.619  1.00  0.00    -0.322 N 
ATOM     20  C   UNL A   1      35.624  20.849  24.890  1.00  0.00     0.255 C 
ATOM     21  H   UNL A   1      36.026  22.793  24.572  1.00  0.00     0.170 HD
ATOM     22  O   UNL A   1      36.797  20.570  25.141  1.00  0.00    -0.269 OA
BRANCH  20  23
ATOM     23  C   UNL A   1      34.632  19.741  24.893  1.00  0.00     0.040 A 
ATOM     24  C   UNL A   1      35.039  18.488  24.423  1.00  0.00     0.017 A 
ATOM     25  C   UNL A   1      33.353  19.892  25.448  1.00  0.00     0.017 A 
ATOM     26  C   UNL A   1      34.219  17.372  24.625  1.00  0.00     0.047 A 
ATOM     27  C   UNL A   1      32.548  18.763  25.672  1.00  0.00     0.047 A 
ATOM     28  C   UNL A   1      32.997  17.495  25.294  1.00  0.00     0.118 A 
BRANCH  28  29
ATOM     29  O   UNL A   1      32.339  16.316  25.513  1.00  0.00    -0.497 OA
ATOM     30  C   UNL A   1      33.081  15.120  25.294  1.00  0.00     0.278 C 
ENDBRANCH  28  29
ENDBRANCH  20  23
ENDBRANCH  13  19
ENDBRANCH   5   8
ENDBRANCH   3   4
ENDBRANCH   2   3
ENDBRANCH   1   2
BRANCH   1  31
ATOM     31  C   UNL A   1      31.363  31.009  25.704  1.00  0.00     0.002 C 
BRANCH  31  32
ATOM     32  C   UNL A   1      31.404  32.022  26.850  1.00  0.00     0.021 C 
BRANCH  32  33
ATOM     33  C   UNL A   1      32.673  32.849  27.020  1.00  0.00     0.116 C 
BRANCH  33  34
ATOM     34  N   UNL A   1      32.430  34.165  27.576  1.00  0.00    -0.352 N 
ATOM     35  C   UNL A   1      33.042  34.836  28.603  1.00  0.00     0.251 C 
ATOM     36  H   UNL A   1      31.702  34.663  27.139  1.00  0.00     0.163 HD
ATOM     37  O   UNL A   1      32.595  35.927  28.946  1.00  0.00    -0.269 OA
BRANCH  35  38
ATOM     38  C   UNL A   1      34.202  34.268  29.338  1.00  0.00     0.039 A 
ATOM     39  C   UNL A   1      33.944  33.579  30.529  1.00  0.00     0.014 A 
ATOM     40  C   UNL A   1      35.525  34.437  28.923  1.00  0.00     0.014 A 
ATOM     41  C   UNL A   1      34.992  33.025  31.266  1.00  0.00     0.010 A 
ATOM     42  C   UNL A   1      36.570  33.818  29.621  1.00  0.00     0.010 A 
ATOM     43  C   UNL A   1      36.315  33.107  30.803  1.00  0.00    -0.014 A 
BRANCH  43  44
ATOM     44  C   UNL A   1      37.416  32.439  31.550  1.00  0.00     0.031 A 
ATOM     45  C   UNL A   1      38.162  31.275  30.953  1.00  0.00     0.074 A 
ATOM     46  C   UNL A   1      37.746  32.886  32.779  1.00  0.00     0.049 A 
ATOM     47  N   UNL A   1      39.163  30.590  31.452  1.00  0.00    -0.248 NA
ATOM     48  C   UNL A   1      37.720  30.805  29.631  1.00  0.00     0.031 C 
ATOM     49  C   UNL A   1      37.071  33.974  33.490  1.00  0.00     0.029 A 
ATOM     50  N   UNL A   1      38.732  32.488  33.648  1.00  0.00    -0.354 N 
ATOM     51  C   UNL A   1      39.473  29.622  30.505  1.00  0.00     0.074 A 
ATOM     52  C   UNL A   1      38.514  29.763  29.431  1.00  0.00     0.031 C 
ATOM     53  C   UNL A   1      37.684  34.181  34.666  1.00  0.00     0.029 A 
ATOM     54  C   UNL A   1      38.770  33.218  34.811  1.00  0.00     0.049 A 
ATOM     55  H   UNL A   1      39.354  31.749  33.455  1.00  0.00     0.167 HD
ATOM     56  C   UNL A   1      40.485  28.721  30.513  1.00  0.00     0.037 A 
ATOM     57  C   UNL A   1      39.590  33.124  35.876  1.00  0.00     0.037 A 
ATOM     58  C   UNL A   1      41.446  28.585  31.579  1.00  0.00     0.049 A 
ATOM     59  C   UNL A   1      40.688  32.094  35.865  1.00  0.00     0.074 A 
ATOM     60  C   UNL A   1      42.518  27.712  31.668  1.00  0.00     0.029 A 
ATOM     61  N   UNL A   1      41.453  29.343  32.739  1.00  0.00    -0.354 N 
ATOM     62  N   UNL A   1      41.007  31.229  34.933  1.00  0.00    -0.248 NA
ATOM     63  C   UNL A   1      41.551  32.036  37.054  1.00  0.00     0.031 C 
ATOM     64  C   UNL A   1      43.147  27.914  32.901  1.00  0.00     0.029 A 
ATOM     65  C   UNL A   1      42.501  28.949  33.556  1.00  0.00     0.049 A 
ATOM     66  H   UNL A   1      40.807  30.056  32.951  1.00  0.00     0.167 HD
ATOM     67  C   UNL A   1      42.123  30.552  35.407  1.00  0.00     0.074 A 
ATOM     68  C   UNL A   1      42.444  31.126  36.695  1.00  0.00     0.031 C 
ATOM     69  C   UNL A   1      42.816  29.538  34.832  1.00  0.00     0.037 A 
BRANCH  56  70
ATOM     70  C   UNL A   1      40.630  27.820  29.319  1.00  0.00     0.064 A 
ATOM     71  C   UNL A   1      41.597  28.068  28.332  1.00  0.00     0.173 A 
ATOM     72  C   UNL A   1      39.852  26.659  29.196  1.00  0.00     0.173 A 
ATOM     73  F   UNL A   1      42.360  29.169  28.397  1.00  0.00    -0.203 F 
ATOM     74  C   UNL A   1      41.768  27.197  27.260  1.00  0.00     0.198 A 
ATOM     75  C   UNL A   1      40.047  25.774  28.137  1.00  0.00     0.198 A 
ATOM     76  F   UNL A   1      38.918  26.369  30.114  1.00  0.00    -0.203 F 
ATOM     77  F   UNL A   1      42.675  27.474  26.312  1.00  0.00    -0.200 F 
ATOM     78  C   UNL A   1      41.002  26.046  27.169  1.00  0.00     0.200 A 
ATOM     79  F   UNL A   1      39.315  24.654  28.059  1.00  0.00    -0.200 F 
ATOM     80  F   UNL A   1      41.180  25.198  26.145  1.00  0.00    -0.200 F 
ENDBRANCH  56  70
BRANCH  57  81
ATOM     81  C   UNL A   1      39.421  34.032  37.045  1.00  0.00     0.064 A 
ATOM     82  C   UNL A   1      40.019  35.301  37.069  1.00  0.00     0.173 A 
ATOM     83  C   UNL A   1      38.711  33.627  38.184  1.00  0.00     0.173 A 
ATOM     84  F   UNL A   1      40.726  35.727  36.012  1.00  0.00    -0.203 F 
ATOM     85  C   UNL A   1      39.951  36.109  38.202  1.00  0.00     0.198 A 
ATOM     86  C   UNL A   1      38.611  34.452  39.303  1.00  0.00     0.198 A 
ATOM     87  F   UNL A   1      38.113  32.427  38.213  1.00  0.00    -0.203 F 
ATOM     88  F   UNL A   1      40.598  37.282  38.225  1.00  0.00    -0.200 F 
ATOM     89  C   UNL A   1      39.245  35.684  39.317  1.00  0.00     0.200 A 
ATOM     90  F   UNL A   1      37.913  34.045  40.372  1.00  0.00    -0.200 F 
ATOM     91  F   UNL A   1      39.189  36.457  40.412  1.00  0.00    -0.200 F 
ENDBRANCH  57  81
BRANCH  69  92
ATOM     92  C   UNL A   1      44.012  29.019  35.577  1.00  0.00     0.064 A 
ATOM     93  C   UNL A   1      45.298  29.543  35.369  1.00  0.00     0.173 A 
ATOM     94  C   UNL A   1      43.872  27.982  36.513  1.00  0.00     0.173 A 
ATOM     95  F   UNL A   1      45.488  30.527  34.476  1.00  0.00    -0.203 F 
ATOM     96  C   UNL A   1      46.402  29.020  36.035  1.00  0.00     0.198 A 
ATOM     97  C   UNL A   1      44.974  27.486  37.205  1.00  0.00     0.198 A 
ATOM     98  F   UNL A   1      42.666  27.450  36.759  1.00  0.00    -0.203 F 
ATOM     99  F   UNL A   1      47.628  29.488  35.766  1.00  0.00    -0.200 F 
ATOM    100  C   UNL A   1      46.239  27.995  36.955  1.00  0.00     0.200 A 
ATOM    101  F   UNL A   1      44.812  26.507  38.106  1.00  0.00    -0.200 F 
ATOM    102  F   UNL A   1      47.304  27.490  37.593  1.00  0.00    -0.200 F 
ENDBRANCH  69  92
ENDBRANCH  43  44
ENDBRANCH  35  38
ENDBRANCH  33  34
ENDBRANCH  32  33
ENDBRANCH  31  32
ENDBRANCH   1  31
TORSDOF 19
ENDMDL
