MODEL 1
REMARK VINA RESULT:     -11.4      0.000      0.000
REMARK SMILES CC[C@H]1CN(C(=O)N(CC(=O)NCCCCCCNC(=O)c2ccc(-c3c4nc(c(-c5c(F)c(F)c(F)c(F)c5F)c5ccc([nH]5)c(-c5c(F)c(F)c(F)c(F)c5F)c5nc(c(-c6c(F)c(F)c(F)c(F)c6F)c6ccc3[nH]6)C=C5)C=C4)cc2)C(C)(C)C)CC[N@@H+]1C
REMARK SMILES IDX 14 1 13 2 12 3 10 4 11 5 9 7 8 8 6 9 7 10 5 11 3 12 4 13
REMARK SMILES IDX 91 14 90 15 92 16 89 18 2 19 1 20 85 21 86 22 87 23 88 24
REMARK SMILES IDX 15 25 16 26 17 27 18 28 19 29 20 30 21 32 22 33 23 34 84 35
REMARK SMILES IDX 24 36 83 37 25 38 26 39 27 40 77 41 28 42 82 43 76 44 78 45
REMARK SMILES IDX 29 46 81 47 75 48 74 49 30 51 62 52 42 53 61 54 43 55 46 56
REMARK SMILES IDX 60 57 79 58 44 59 45 60 59 62 80 63 47 64 31 65 32 66 40 67
REMARK SMILES IDX 33 68 34 69 38 70 41 71 35 72 36 73 39 74 37 75 63 76 64 77
REMARK SMILES IDX 72 78 65 79 66 80 70 81 73 82 67 83 68 84 71 85 69 86 48 87
REMARK SMILES IDX 49 88 57 89 50 90 51 91 55 92 58 93 52 94 53 95 56 96 54 97
REMARK H PARENT 12 6 91 17 19 31 78 50 46 61
REMARK Flexibility Score: inf
ROOT
ATOM      1  C   UNL A   1      33.698  29.630  26.821  1.00  0.00     0.021 C 
ENDROOT
BRANCH   1   2
ATOM      2  C   UNL A   1      33.966  28.368  26.017  1.00  0.00     0.116 C 
BRANCH   2   3
ATOM      3  N   UNL A   1      34.416  28.671  24.677  1.00  0.00    -0.355 N 
ATOM      4  C   UNL A   1      33.779  28.437  23.497  1.00  0.00     0.239 C 
ATOM      5  O   UNL A   1      34.278  28.891  22.465  1.00  0.00    -0.273 OA
ATOM      6  H   UNL A   1      35.298  29.103  24.609  1.00  0.00     0.163 HD
BRANCH   4   7
ATOM      7  C   UNL A   1      32.402  27.768  23.492  1.00  0.00     0.221 C 
BRANCH   7   8
ATOM      8  N   UNL A   1      32.308  26.294  23.534  1.00  0.00    -0.311 N 
BRANCH   8   9
ATOM      9  C   UNL A   1      33.248  25.455  22.932  1.00  0.00     0.321 C 
ATOM     10  O   UNL A   1      33.564  25.603  21.749  1.00  0.00    -0.248 OA
BRANCH   9  11
ATOM     11  N   UNL A   1      33.855  24.435  23.658  1.00  0.00    -0.313 N 
ATOM     12  C   UNL A   1      34.458  22.044  24.186  1.00  0.00     0.203 C 
ATOM     13  C   UNL A   1      34.320  23.161  23.111  1.00  0.00     0.186 C 
ATOM     14  N   UNL A   1      35.300  22.431  25.345  1.00  0.00    -0.332 N 
ATOM     15  C   UNL A   1      34.953  23.778  25.855  1.00  0.00     0.284 C 
ATOM     16  C   UNL A   1      36.725  22.378  25.001  1.00  0.00     0.333 C 
ATOM     17  H   UNL A   1      35.112  21.757  26.085  1.00  0.00     0.348 HD
ATOM     18  C   UNL A   1      34.655  24.873  24.813  1.00  0.00     0.183 C 
BRANCH  12  19
ATOM     19  C   UNL A   1      33.111  21.387  24.603  1.00  0.00     0.063 C 
ATOM     20  C   UNL A   1      32.907  19.901  24.343  1.00  0.00     0.010 C 
ENDBRANCH  12  19
ENDBRANCH   9  11
ENDBRANCH   8   9
BRANCH   8  21
ATOM     21  C   UNL A   1      31.068  25.660  24.145  1.00  0.00     0.037 C 
ATOM     22  C   UNL A   1      31.248  25.330  25.644  1.00  0.00     0.034 C 
ATOM     23  C   UNL A   1      29.858  26.608  23.971  1.00  0.00     0.034 C 
ATOM     24  C   UNL A   1      30.644  24.326  23.478  1.00  0.00     0.034 C 
ENDBRANCH   8  21
ENDBRANCH   7   8
ENDBRANCH   4   7
ENDBRANCH   2   3
ENDBRANCH   1   2
BRANCH   1  25
ATOM     25  C   UNL A   1      32.208  29.884  27.064  1.00  0.00     0.002 C 
BRANCH  25  26
ATOM     26  C   UNL A   1      31.587  30.913  26.116  1.00  0.00     0.002 C 
BRANCH  26  27
ATOM     27  C   UNL A   1      31.386  32.301  26.730  1.00  0.00     0.021 C 
BRANCH  27  28
ATOM     28  C   UNL A   1      32.664  32.939  27.261  1.00  0.00     0.116 C 
BRANCH  28  29
ATOM     29  N   UNL A   1      32.453  34.324  27.648  1.00  0.00    -0.352 N 
ATOM     30  C   UNL A   1      33.015  35.022  28.683  1.00  0.00     0.251 C 
ATOM     31  H   UNL A   1      31.820  34.829  27.090  1.00  0.00     0.163 HD
ATOM     32  O   UNL A   1      32.571  36.122  29.007  1.00  0.00    -0.269 OA
BRANCH  30  33
ATOM     33  C   UNL A   1      34.152  34.440  29.422  1.00  0.00     0.039 A 
ATOM     34  C   UNL A   1      33.908  33.787  30.630  1.00  0.00     0.014 A 
ATOM     35  C   UNL A   1      35.454  34.542  28.922  1.00  0.00     0.014 A 
ATOM     36  C   UNL A   1      34.967  33.197  31.320  1.00  0.00     0.010 A 
ATOM     37  C   UNL A   1      36.497  33.890  29.572  1.00  0.00     0.010 A 
ATOM     38  C   UNL A   1      36.266  33.220  30.783  1.00  0.00    -0.014 A 
BRANCH  38  39
ATOM     39  C   UNL A   1      37.393  32.559  31.485  1.00  0.00     0.031 A 
ATOM     40  C   UNL A   1      38.111  31.406  30.844  1.00  0.00     0.074 A 
ATOM     41  C   UNL A   1      37.739  32.971  32.720  1.00  0.00     0.049 A 
ATOM     42  N   UNL A   1      39.096  30.680  31.310  1.00  0.00    -0.248 NA
ATOM     43  C   UNL A   1      37.644  30.995  29.510  1.00  0.00     0.031 C 
ATOM     44  C   UNL A   1      37.085  34.048  33.466  1.00  0.00     0.029 A 
ATOM     45  N   UNL A   1      38.724  32.531  33.567  1.00  0.00    -0.354 N 
ATOM     46  C   UNL A   1      39.358  29.727  30.335  1.00  0.00     0.074 A 
ATOM     47  C   UNL A   1      38.390  29.925  29.279  1.00  0.00     0.031 C 
ATOM     48  C   UNL A   1      37.703  34.202  34.647  1.00  0.00     0.029 A 
ATOM     49  C   UNL A   1      38.773  33.214  34.757  1.00  0.00     0.049 A 
ATOM     50  H   UNL A   1      39.338  31.794  33.343  1.00  0.00     0.167 HD
ATOM     51  C   UNL A   1      40.333  28.787  30.312  1.00  0.00     0.037 A 
ATOM     52  C   UNL A   1      39.588  33.060  35.816  1.00  0.00     0.037 A 
ATOM     53  C   UNL A   1      41.305  28.606  31.360  1.00  0.00     0.049 A 
ATOM     54  C   UNL A   1      40.660  32.005  35.767  1.00  0.00     0.074 A 
ATOM     55  C   UNL A   1      42.365  27.718  31.409  1.00  0.00     0.029 A 
ATOM     56  N   UNL A   1      41.332  29.327  32.544  1.00  0.00    -0.354 N 
ATOM     57  N   UNL A   1      40.944  31.155  34.811  1.00  0.00    -0.248 NA
ATOM     58  C   UNL A   1      41.534  31.897  36.943  1.00  0.00     0.031 C 
ATOM     59  C   UNL A   1      43.004  27.867  32.645  1.00  0.00     0.029 A 
ATOM     60  C   UNL A   1      42.378  28.888  33.341  1.00  0.00     0.049 A 
ATOM     61  H   UNL A   1      40.701  30.044  32.784  1.00  0.00     0.167 HD
ATOM     62  C   UNL A   1      42.043  30.433  35.254  1.00  0.00     0.074 A 
ATOM     63  C   UNL A   1      42.386  30.958  36.560  1.00  0.00     0.031 C 
ATOM     64  C   UNL A   1      42.710  29.427  34.636  1.00  0.00     0.037 A 
BRANCH  51  65
ATOM     65  C   UNL A   1      40.399  27.883  29.114  1.00  0.00     0.064 A 
ATOM     66  C   UNL A   1      41.194  28.196  28.001  1.00  0.00     0.173 A 
ATOM     67  C   UNL A   1      39.685  26.676  29.091  1.00  0.00     0.173 A 
ATOM     68  F   UNL A   1      41.888  29.344  27.967  1.00  0.00    -0.203 F 
ATOM     69  C   UNL A   1      41.248  27.349  26.896  1.00  0.00     0.198 A 
ATOM     70  C   UNL A   1      39.767  25.816  27.999  1.00  0.00     0.198 A 
ATOM     71  F   UNL A   1      38.913  26.326  30.131  1.00  0.00    -0.203 F 
ATOM     72  F   UNL A   1      41.974  27.693  25.824  1.00  0.00    -0.200 F 
ATOM     73  C   UNL A   1      40.540  26.156  26.899  1.00  0.00     0.200 A 
ATOM     74  F   UNL A   1      39.094  24.656  28.009  1.00  0.00    -0.200 F 
ATOM     75  F   UNL A   1      40.599  25.337  25.840  1.00  0.00    -0.200 F 
ENDBRANCH  51  65
BRANCH  52  76
ATOM     76  C   UNL A   1      39.443  33.946  37.001  1.00  0.00     0.064 A 
ATOM     77  C   UNL A   1      40.059  35.206  37.037  1.00  0.00     0.173 A 
ATOM     78  C   UNL A   1      38.695  33.554  38.120  1.00  0.00     0.173 A 
ATOM     79  F   UNL A   1      40.801  35.618  35.998  1.00  0.00    -0.203 F 
ATOM     80  C   UNL A   1      39.952  36.028  38.155  1.00  0.00     0.198 A 
ATOM     81  C   UNL A   1      38.564  34.389  39.227  1.00  0.00     0.198 A 
ATOM     82  F   UNL A   1      38.082  32.362  38.134  1.00  0.00    -0.203 F 
ATOM     83  F   UNL A   1      40.591  37.205  38.183  1.00  0.00    -0.200 F 
ATOM     84  C   UNL A   1      39.200  35.622  39.248  1.00  0.00     0.200 A 
ATOM     85  F   UNL A   1      37.824  34.000  40.274  1.00  0.00    -0.200 F 
ATOM     86  F   UNL A   1      39.095  36.414  40.324  1.00  0.00    -0.200 F 
ENDBRANCH  52  76
BRANCH  64  87
ATOM     87  C   UNL A   1      43.902  28.854  35.348  1.00  0.00     0.064 A 
ATOM     88  C   UNL A   1      45.191  29.379  35.170  1.00  0.00     0.173 A 
ATOM     89  C   UNL A   1      43.747  27.783  36.241  1.00  0.00     0.173 A 
ATOM     90  F   UNL A   1      45.395  30.394  34.317  1.00  0.00    -0.203 F 
ATOM     91  C   UNL A   1      46.285  28.831  35.835  1.00  0.00     0.198 A 
ATOM     92  C   UNL A   1      44.837  27.259  36.929  1.00  0.00     0.198 A 
ATOM     93  F   UNL A   1      42.535  27.249  36.453  1.00  0.00    -0.203 F 
ATOM     94  F   UNL A   1      47.515  29.312  35.607  1.00  0.00    -0.200 F 
ATOM     95  C   UNL A   1      46.106  27.777  36.719  1.00  0.00     0.200 A 
ATOM     96  F   UNL A   1      44.661  26.251  37.794  1.00  0.00    -0.200 F 
ATOM     97  F   UNL A   1      47.160  27.254  37.361  1.00  0.00    -0.200 F 
ENDBRANCH  64  87
ENDBRANCH  38  39
ENDBRANCH  30  33
ENDBRANCH  28  29
ENDBRANCH  27  28
ENDBRANCH  26  27
ENDBRANCH  25  26
ENDBRANCH   1  25
TORSDOF 18
ENDMDL
MODEL 2
REMARK VINA RESULT:     -11.3      0.691      7.403
REMARK SMILES CC[C@H]1CN(C(=O)N(CC(=O)NCCCCCCNC(=O)c2ccc(-c3c4nc(c(-c5c(F)c(F)c(F)c(F)c5F)c5ccc([nH]5)c(-c5c(F)c(F)c(F)c(F)c5F)c5nc(c(-c6c(F)c(F)c(F)c(F)c6F)c6ccc3[nH]6)C=C5)C=C4)cc2)C(C)(C)C)CC[N@@H+]1C
REMARK SMILES IDX 14 1 13 2 12 3 10 4 11 5 9 7 8 8 6 9 7 10 5 11 3 12 4 13
REMARK SMILES IDX 91 14 90 15 92 16 89 18 2 19 1 20 85 21 86 22 87 23 88 24
REMARK SMILES IDX 15 25 16 26 17 27 18 28 19 29 20 30 21 32 22 33 23 34 84 35
REMARK SMILES IDX 24 36 83 37 25 38 26 39 27 40 77 41 28 42 82 43 76 44 78 45
REMARK SMILES IDX 29 46 81 47 75 48 74 49 30 51 62 52 42 53 61 54 43 55 46 56
REMARK SMILES IDX 60 57 79 58 44 59 45 60 59 62 80 63 47 64 31 65 32 66 40 67
REMARK SMILES IDX 33 68 34 69 38 70 41 71 35 72 36 73 39 74 37 75 63 76 64 77
REMARK SMILES IDX 72 78 65 79 66 80 70 81 73 82 67 83 68 84 71 85 69 86 48 87
REMARK SMILES IDX 49 88 57 89 50 90 51 91 55 92 58 93 52 94 53 95 56 96 54 97
REMARK H PARENT 12 6 91 17 19 31 78 50 46 61
REMARK Flexibility Score: inf
ROOT
ATOM      1  C   UNL A   1      33.690  29.633  26.681  1.00  0.00     0.021 C 
ENDROOT
BRANCH   1   2
ATOM      2  C   UNL A   1      33.922  28.323  25.945  1.00  0.00     0.116 C 
BRANCH   2   3
ATOM      3  N   UNL A   1      34.366  28.542  24.587  1.00  0.00    -0.355 N 
ATOM      4  C   UNL A   1      33.720  28.242  23.427  1.00  0.00     0.239 C 
ATOM      5  O   UNL A   1      34.216  28.630  22.366  1.00  0.00    -0.273 OA
ATOM      6  H   UNL A   1      35.250  28.964  24.488  1.00  0.00     0.163 HD
BRANCH   4   7
ATOM      7  C   UNL A   1      32.340  27.581  23.470  1.00  0.00     0.221 C 
BRANCH   7   8
ATOM      8  N   UNL A   1      32.237  26.108  23.486  1.00  0.00    -0.311 N 
BRANCH   8   9
ATOM      9  C   UNL A   1      33.178  25.273  22.881  1.00  0.00     0.321 C 
ATOM     10  O   UNL A   1      33.448  25.387  21.681  1.00  0.00    -0.248 OA
BRANCH   9  11
ATOM     11  N   UNL A   1      33.839  24.297  23.619  1.00  0.00    -0.313 N 
ATOM     12  C   UNL A   1      34.502  21.942  24.229  1.00  0.00     0.203 C 
ATOM     13  C   UNL A   1      34.287  23.001  23.109  1.00  0.00     0.186 C 
ATOM     14  N   UNL A   1      35.406  22.395  25.314  1.00  0.00    -0.332 N 
ATOM     15  C   UNL A   1      35.074  23.762  25.776  1.00  0.00     0.284 C 
ATOM     16  C   UNL A   1      36.809  22.337  24.889  1.00  0.00     0.333 C 
ATOM     17  H   UNL A   1      35.270  21.757  26.097  1.00  0.00     0.348 HD
ATOM     18  C   UNL A   1      34.701  24.800  24.700  1.00  0.00     0.183 C 
BRANCH  12  19
ATOM     19  C   UNL A   1      33.189  21.294  24.758  1.00  0.00     0.063 C 
ATOM     20  C   UNL A   1      32.986  19.797  24.579  1.00  0.00     0.010 C 
ENDBRANCH  12  19
ENDBRANCH   9  11
ENDBRANCH   8   9
BRANCH   8  21
ATOM     21  C   UNL A   1      30.987  25.470  24.074  1.00  0.00     0.037 C 
ATOM     22  C   UNL A   1      30.679  24.089  23.454  1.00  0.00     0.034 C 
ATOM     23  C   UNL A   1      31.150  25.320  25.605  1.00  0.00     0.034 C 
ATOM     24  C   UNL A   1      29.697  26.307  23.879  1.00  0.00     0.034 C 
ENDBRANCH   8  21
ENDBRANCH   7   8
ENDBRANCH   4   7
ENDBRANCH   2   3
ENDBRANCH   1   2
BRANCH   1  25
ATOM     25  C   UNL A   1      32.223  29.866  27.049  1.00  0.00     0.002 C 
BRANCH  25  26
ATOM     26  C   UNL A   1      31.497  30.849  26.127  1.00  0.00     0.002 C 
BRANCH  26  27
ATOM     27  C   UNL A   1      31.335  32.257  26.703  1.00  0.00     0.021 C 
BRANCH  27  28
ATOM     28  C   UNL A   1      32.647  32.925  27.094  1.00  0.00     0.116 C 
BRANCH  28  29
ATOM     29  N   UNL A   1      32.436  34.271  27.602  1.00  0.00    -0.352 N 
ATOM     30  C   UNL A   1      33.027  34.888  28.672  1.00  0.00     0.251 C 
ATOM     31  H   UNL A   1      31.777  34.812  27.111  1.00  0.00     0.163 HD
ATOM     32  O   UNL A   1      32.583  35.951  29.103  1.00  0.00    -0.269 OA
BRANCH  30  33
ATOM     33  C   UNL A   1      34.196  34.262  29.319  1.00  0.00     0.039 A 
ATOM     34  C   UNL A   1      33.987  33.363  30.366  1.00  0.00     0.014 A 
ATOM     35  C   UNL A   1      35.493  34.565  28.894  1.00  0.00     0.014 A 
ATOM     36  C   UNL A   1      35.080  32.733  30.961  1.00  0.00     0.010 A 
ATOM     37  C   UNL A   1      36.576  33.881  29.437  1.00  0.00     0.010 A 
ATOM     38  C   UNL A   1      36.381  32.967  30.483  1.00  0.00    -0.014 A 
BRANCH  38  39
ATOM     39  C   UNL A   1      37.548  32.270  31.078  1.00  0.00     0.031 A 
ATOM     40  C   UNL A   1      38.034  32.645  32.450  1.00  0.00     0.074 A 
ATOM     41  C   UNL A   1      38.197  31.331  30.363  1.00  0.00     0.049 A 
ATOM     42  N   UNL A   1      39.052  32.175  33.125  1.00  0.00    -0.248 NA
ATOM     43  C   UNL A   1      37.292  33.708  33.147  1.00  0.00     0.031 C 
ATOM     44  C   UNL A   1      37.850  30.917  29.002  1.00  0.00     0.029 A 
ATOM     45  N   UNL A   1      39.285  30.559  30.678  1.00  0.00    -0.354 N 
ATOM     46  C   UNL A   1      39.077  32.889  34.316  1.00  0.00     0.074 A 
ATOM     47  C   UNL A   1      38.012  33.865  34.247  1.00  0.00     0.031 C 
ATOM     48  C   UNL A   1      38.692  29.947  28.611  1.00  0.00     0.029 A 
ATOM     49  C   UNL A   1      39.657  29.697  29.677  1.00  0.00     0.049 A 
ATOM     50  H   UNL A   1      39.756  30.618  31.541  1.00  0.00     0.167 HD
ATOM     51  C   UNL A   1      39.899  32.728  35.381  1.00  0.00     0.037 A 
ATOM     52  C   UNL A   1      40.664  28.806  29.625  1.00  0.00     0.037 A 
ATOM     53  C   UNL A   1      40.947  31.743  35.451  1.00  0.00     0.049 A 
ATOM     54  C   UNL A   1      41.566  28.650  30.820  1.00  0.00     0.074 A 
ATOM     55  C   UNL A   1      41.800  31.464  36.504  1.00  0.00     0.029 A 
ATOM     56  N   UNL A   1      41.285  30.877  34.421  1.00  0.00    -0.354 N 
ATOM     57  N   UNL A   1      41.537  29.281  31.968  1.00  0.00    -0.248 NA
ATOM     58  C   UNL A   1      42.635  27.647  30.714  1.00  0.00     0.031 C 
ATOM     59  C   UNL A   1      42.687  30.462  36.095  1.00  0.00     0.029 A 
ATOM     60  C   UNL A   1      42.349  30.077  34.807  1.00  0.00     0.049 A 
ATOM     61  H   UNL A   1      40.836  30.836  33.546  1.00  0.00     0.167 HD
ATOM     62  C   UNL A   1      42.559  28.734  32.731  1.00  0.00     0.074 A 
ATOM     63  C   UNL A   1      43.179  27.706  31.920  1.00  0.00     0.031 C 
ATOM     64  C   UNL A   1      42.950  29.053  33.990  1.00  0.00     0.037 A 
BRANCH  51  65
ATOM     65  C   UNL A   1      39.695  33.637  36.559  1.00  0.00     0.064 A 
ATOM     66  C   UNL A   1      38.829  33.296  37.610  1.00  0.00     0.173 A 
ATOM     67  C   UNL A   1      40.397  34.848  36.657  1.00  0.00     0.173 A 
ATOM     68  F   UNL A   1      38.124  32.155  37.561  1.00  0.00    -0.203 F 
ATOM     69  C   UNL A   1      38.649  34.147  38.698  1.00  0.00     0.198 A 
ATOM     70  C   UNL A   1      40.241  35.680  37.762  1.00  0.00     0.198 A 
ATOM     71  F   UNL A   1      41.242  35.220  35.684  1.00  0.00    -0.203 F 
ATOM     72  F   UNL A   1      37.778  33.824  39.663  1.00  0.00    -0.200 F 
ATOM     73  C   UNL A   1      39.361  35.335  38.777  1.00  0.00     0.200 A 
ATOM     74  F   UNL A   1      40.940  36.821  37.844  1.00  0.00    -0.200 F 
ATOM     75  F   UNL A   1      39.194  36.149  39.828  1.00  0.00    -0.200 F 
ENDBRANCH  51  65
BRANCH  52  76
ATOM     76  C   UNL A   1      40.855  27.970  28.411  1.00  0.00     0.064 A 
ATOM     77  C   UNL A   1      40.253  26.707  28.304  1.00  0.00     0.173 A 
ATOM     78  C   UNL A   1      41.645  28.408  27.338  1.00  0.00     0.173 A 
ATOM     79  F   UNL A   1      39.504  26.236  29.312  1.00  0.00    -0.203 F 
ATOM     80  C   UNL A   1      40.452  25.907  27.183  1.00  0.00     0.198 A 
ATOM     81  C   UNL A   1      41.820  27.619  26.203  1.00  0.00     0.198 A 
ATOM     82  F   UNL A   1      42.238  29.609  27.388  1.00  0.00    -0.203 F 
ATOM     83  F   UNL A   1      39.905  24.685  27.129  1.00  0.00    -0.200 F 
ATOM     84  C   UNL A   1      41.231  26.365  26.130  1.00  0.00     0.200 A 
ATOM     85  F   UNL A   1      42.560  28.071  25.182  1.00  0.00    -0.200 F 
ATOM     86  F   UNL A   1      41.421  25.595  25.050  1.00  0.00    -0.200 F 
ENDBRANCH  52  76
BRANCH  64  87
ATOM     87  C   UNL A   1      44.076  28.254  34.582  1.00  0.00     0.064 A 
ATOM     88  C   UNL A   1      43.848  27.050  35.266  1.00  0.00     0.173 A 
ATOM     89  C   UNL A   1      45.403  28.687  34.441  1.00  0.00     0.173 A 
ATOM     90  F   UNL A   1      42.596  26.600  35.441  1.00  0.00    -0.203 F 
ATOM     91  C   UNL A   1      44.905  26.327  35.813  1.00  0.00     0.198 A 
ATOM     92  C   UNL A   1      46.459  27.944  34.960  1.00  0.00     0.198 A 
ATOM     93  F   UNL A   1      45.676  29.828  33.789  1.00  0.00    -0.203 F 
ATOM     94  F   UNL A   1      44.658  25.209  36.510  1.00  0.00    -0.200 F 
ATOM     95  C   UNL A   1      46.208  26.770  35.653  1.00  0.00     0.200 A 
ATOM     96  F   UNL A   1      47.720  28.367  34.792  1.00  0.00    -0.200 F 
ATOM     97  F   UNL A   1      47.225  26.070  36.177  1.00  0.00    -0.200 F 
ENDBRANCH  64  87
ENDBRANCH  38  39
ENDBRANCH  30  33
ENDBRANCH  28  29
ENDBRANCH  27  28
ENDBRANCH  26  27
ENDBRANCH  25  26
ENDBRANCH   1  25
TORSDOF 18
ENDMDL
MODEL 3
REMARK VINA RESULT:     -11.2      1.089      7.229
REMARK SMILES CC[C@H]1CN(C(=O)N(CC(=O)NCCCCCCNC(=O)c2ccc(-c3c4nc(c(-c5c(F)c(F)c(F)c(F)c5F)c5ccc([nH]5)c(-c5c(F)c(F)c(F)c(F)c5F)c5nc(c(-c6c(F)c(F)c(F)c(F)c6F)c6ccc3[nH]6)C=C5)C=C4)cc2)C(C)(C)C)CC[N@@H+]1C
REMARK SMILES IDX 14 1 13 2 12 3 10 4 11 5 9 7 8 8 6 9 7 10 5 11 3 12 4 13
REMARK SMILES IDX 91 14 90 15 92 16 89 18 2 19 1 20 85 21 86 22 87 23 88 24
REMARK SMILES IDX 15 25 16 26 17 27 18 28 19 29 20 30 21 32 22 33 23 34 84 35
REMARK SMILES IDX 24 36 83 37 25 38 26 39 27 40 77 41 28 42 82 43 76 44 78 45
REMARK SMILES IDX 29 46 81 47 75 48 74 49 30 51 62 52 42 53 61 54 43 55 46 56
REMARK SMILES IDX 60 57 79 58 44 59 45 60 59 62 80 63 47 64 31 65 32 66 40 67
REMARK SMILES IDX 33 68 34 69 38 70 41 71 35 72 36 73 39 74 37 75 63 76 64 77
REMARK SMILES IDX 72 78 65 79 66 80 70 81 73 82 67 83 68 84 71 85 69 86 48 87
REMARK SMILES IDX 49 88 57 89 50 90 51 91 55 92 58 93 52 94 53 95 56 96 54 97
REMARK H PARENT 12 6 91 17 19 31 78 50 46 61
REMARK Flexibility Score: inf
ROOT
ATOM      1  C   UNL A   1      33.360  28.673  25.368  1.00  0.00     0.021 C 
ENDROOT
BRANCH   1   2
ATOM      2  C   UNL A   1      32.764  28.798  23.975  1.00  0.00     0.116 C 
BRANCH   2   3
ATOM      3  N   UNL A   1      33.488  28.002  23.009  1.00  0.00    -0.355 N 
ATOM      4  C   UNL A   1      33.182  26.764  22.533  1.00  0.00     0.239 C 
ATOM      5  O   UNL A   1      33.863  26.309  21.611  1.00  0.00    -0.273 OA
ATOM      6  H   UNL A   1      34.309  28.409  22.648  1.00  0.00     0.163 HD
BRANCH   4   7
ATOM      7  C   UNL A   1      31.926  26.043  23.031  1.00  0.00     0.221 C 
BRANCH   7   8
ATOM      8  N   UNL A   1      32.051  24.983  24.053  1.00  0.00    -0.311 N 
BRANCH   8   9
ATOM      9  C   UNL A   1      32.680  23.761  23.807  1.00  0.00     0.321 C 
ATOM     10  O   UNL A   1      32.265  23.000  22.928  1.00  0.00    -0.248 OA
BRANCH   9  11
ATOM     11  N   UNL A   1      33.794  23.377  24.545  1.00  0.00    -0.313 N 
ATOM     12  C   UNL A   1      35.046  22.038  26.277  1.00  0.00     0.203 C 
ATOM     13  C   UNL A   1      34.033  22.042  25.094  1.00  0.00     0.186 C 
ATOM     14  N   UNL A   1      36.340  22.689  25.958  1.00  0.00    -0.332 N 
ATOM     15  C   UNL A   1      36.151  23.990  25.277  1.00  0.00     0.284 C 
ATOM     16  C   UNL A   1      37.182  21.812  25.136  1.00  0.00     0.333 C 
ATOM     17  H   UNL A   1      36.809  22.864  26.845  1.00  0.00     0.348 HD
ATOM     18  C   UNL A   1      35.045  24.074  24.207  1.00  0.00     0.183 C 
BRANCH  12  19
ATOM     19  C   UNL A   1      34.446  22.503  27.635  1.00  0.00     0.063 C 
ATOM     20  C   UNL A   1      32.967  22.264  27.905  1.00  0.00     0.010 C 
ENDBRANCH  12  19
ENDBRANCH   9  11
ENDBRANCH   8   9
BRANCH   8  21
ATOM     21  C   UNL A   1      31.353  25.174  25.390  1.00  0.00     0.037 C 
ATOM     22  C   UNL A   1      30.587  23.911  25.844  1.00  0.00     0.034 C 
ATOM     23  C   UNL A   1      32.393  25.558  26.470  1.00  0.00     0.034 C 
ATOM     24  C   UNL A   1      30.307  26.318  25.402  1.00  0.00     0.034 C 
ENDBRANCH   8  21
ENDBRANCH   7   8
ENDBRANCH   4   7
ENDBRANCH   2   3
ENDBRANCH   1   2
BRANCH   1  25
ATOM     25  C   UNL A   1      32.935  29.803  26.309  1.00  0.00     0.002 C 
BRANCH  25  26
ATOM     26  C   UNL A   1      31.641  30.508  25.894  1.00  0.00     0.002 C 
BRANCH  26  27
ATOM     27  C   UNL A   1      31.449  31.896  26.509  1.00  0.00     0.021 C 
BRANCH  27  28
ATOM     28  C   UNL A   1      32.720  32.499  27.095  1.00  0.00     0.116 C 
BRANCH  28  29
ATOM     29  N   UNL A   1      32.518  33.875  27.517  1.00  0.00    -0.352 N 
ATOM     30  C   UNL A   1      33.125  34.559  28.536  1.00  0.00     0.251 C 
ATOM     31  H   UNL A   1      31.853  34.385  27.001  1.00  0.00     0.163 HD
ATOM     32  O   UNL A   1      32.688  35.649  28.903  1.00  0.00    -0.269 OA
BRANCH  30  33
ATOM     33  C   UNL A   1      34.301  33.974  29.207  1.00  0.00     0.039 A 
ATOM     34  C   UNL A   1      34.102  33.088  30.267  1.00  0.00     0.014 A 
ATOM     35  C   UNL A   1      35.595  34.302  28.791  1.00  0.00     0.014 A 
ATOM     36  C   UNL A   1      35.204  32.496  30.885  1.00  0.00     0.010 A 
ATOM     37  C   UNL A   1      36.688  33.654  29.358  1.00  0.00     0.010 A 
ATOM     38  C   UNL A   1      36.504  32.754  30.418  1.00  0.00    -0.014 A 
BRANCH  38  39
ATOM     39  C   UNL A   1      37.681  32.097  31.038  1.00  0.00     0.031 A 
ATOM     40  C   UNL A   1      38.139  32.504  32.410  1.00  0.00     0.074 A 
ATOM     41  C   UNL A   1      38.363  31.166  30.344  1.00  0.00     0.049 A 
ATOM     42  N   UNL A   1      39.160  32.071  33.105  1.00  0.00    -0.248 NA
ATOM     43  C   UNL A   1      37.360  33.557  33.082  1.00  0.00     0.031 C 
ATOM     44  C   UNL A   1      38.046  30.723  28.985  1.00  0.00     0.029 A 
ATOM     45  N   UNL A   1      39.468  30.427  30.685  1.00  0.00    -0.354 N 
ATOM     46  C   UNL A   1      39.151  32.802  34.285  1.00  0.00     0.074 A 
ATOM     47  C   UNL A   1      38.061  33.748  34.189  1.00  0.00     0.031 C 
ATOM     48  C   UNL A   1      38.918  29.770  28.619  1.00  0.00     0.029 A 
ATOM     49  C   UNL A   1      39.876  29.561  29.701  1.00  0.00     0.049 A 
ATOM     50  H   UNL A   1      39.925  30.510  31.553  1.00  0.00     0.167 HD
ATOM     51  C   UNL A   1      39.962  32.678  35.363  1.00  0.00     0.037 A 
ATOM     52  C   UNL A   1      40.906  28.696  29.674  1.00  0.00     0.037 A 
ATOM     53  C   UNL A   1      41.035  31.722  35.460  1.00  0.00     0.049 A 
ATOM     54  C   UNL A   1      41.796  28.581  30.883  1.00  0.00     0.074 A 
ATOM     55  C   UNL A   1      41.881  31.480  36.528  1.00  0.00     0.029 A 
ATOM     56  N   UNL A   1      41.409  30.850  34.448  1.00  0.00    -0.354 N 
ATOM     57  N   UNL A   1      41.736  29.228  32.022  1.00  0.00    -0.248 NA
ATOM     58  C   UNL A   1      42.892  27.605  30.805  1.00  0.00     0.031 C 
ATOM     59  C   UNL A   1      42.799  30.497  36.145  1.00  0.00     0.029 A 
ATOM     60  C   UNL A   1      42.489  30.084  34.859  1.00  0.00     0.049 A 
ATOM     61  H   UNL A   1      40.973  30.785  33.568  1.00  0.00     0.167 HD
ATOM     62  C   UNL A   1      42.761  28.719  32.806  1.00  0.00     0.074 A 
ATOM     63  C   UNL A   1      43.419  27.696  32.017  1.00  0.00     0.031 C 
ATOM     64  C   UNL A   1      43.127  29.065  34.064  1.00  0.00     0.037 A 
BRANCH  51  65
ATOM     65  C   UNL A   1      39.719  33.598  36.525  1.00  0.00     0.064 A 
ATOM     66  C   UNL A   1      40.318  34.866  36.596  1.00  0.00     0.173 A 
ATOM     67  C   UNL A   1      38.855  33.223  37.564  1.00  0.00     0.173 A 
ATOM     68  F   UNL A   1      41.163  35.270  35.635  1.00  0.00    -0.203 F 
ATOM     69  C   UNL A   1      40.084  35.711  37.679  1.00  0.00     0.198 A 
ATOM     70  C   UNL A   1      38.597  34.084  38.628  1.00  0.00     0.198 A 
ATOM     71  F   UNL A   1      38.253  32.025  37.544  1.00  0.00    -0.203 F 
ATOM     72  F   UNL A   1      40.706  36.895  37.750  1.00  0.00    -0.200 F 
ATOM     73  C   UNL A   1      39.218  35.322  38.690  1.00  0.00     0.200 A 
ATOM     74  F   UNL A   1      37.748  33.712  39.597  1.00  0.00    -0.200 F 
ATOM     75  F   UNL A   1      38.986  36.139  39.727  1.00  0.00    -0.200 F 
ENDBRANCH  51  65
BRANCH  52  76
ATOM     76  C   UNL A   1      41.135  27.848  28.475  1.00  0.00     0.064 A 
ATOM     77  C   UNL A   1      42.002  28.266  27.454  1.00  0.00     0.173 A 
ATOM     78  C   UNL A   1      40.492  26.612  28.319  1.00  0.00     0.173 A 
ATOM     79  F   UNL A   1      42.625  29.450  27.549  1.00  0.00    -0.203 F 
ATOM     80  C   UNL A   1      42.198  27.491  26.314  1.00  0.00     0.198 A 
ATOM     81  C   UNL A   1      40.712  25.823  27.192  1.00  0.00     0.198 A 
ATOM     82  F   UNL A   1      39.658  26.165  29.269  1.00  0.00    -0.203 F 
ATOM     83  F   UNL A   1      42.993  27.936  25.332  1.00  0.00    -0.200 F 
ATOM     84  C   UNL A   1      41.557  26.267  26.186  1.00  0.00     0.200 A 
ATOM     85  F   UNL A   1      40.103  24.635  27.080  1.00  0.00    -0.200 F 
ATOM     86  F   UNL A   1      41.747  25.520  25.090  1.00  0.00    -0.200 F 
ENDBRANCH  52  76
BRANCH  64  87
ATOM     87  C   UNL A   1      44.265  28.305  34.683  1.00  0.00     0.064 A 
ATOM     88  C   UNL A   1      45.591  28.755  34.591  1.00  0.00     0.173 A 
ATOM     89  C   UNL A   1      44.022  27.124  35.400  1.00  0.00     0.173 A 
ATOM     90  F   UNL A   1      45.879  29.871  33.904  1.00  0.00    -0.203 F 
ATOM     91  C   UNL A   1      46.633  28.033  35.167  1.00  0.00     0.198 A 
ATOM     92  C   UNL A   1      45.062  26.423  36.003  1.00  0.00     0.198 A 
ATOM     93  F   UNL A   1      42.771  26.654  35.525  1.00  0.00    -0.203 F 
ATOM     94  F   UNL A   1      47.898  28.453  35.018  1.00  0.00    -0.200 F 
ATOM     95  C   UNL A   1      46.367  26.873  35.878  1.00  0.00     0.200 A 
ATOM     96  F   UNL A   1      44.802  25.310  36.703  1.00  0.00    -0.200 F 
ATOM     97  F   UNL A   1      47.372  26.182  36.435  1.00  0.00    -0.200 F 
ENDBRANCH  64  87
ENDBRANCH  38  39
ENDBRANCH  30  33
ENDBRANCH  28  29
ENDBRANCH  27  28
ENDBRANCH  26  27
ENDBRANCH  25  26
ENDBRANCH   1  25
TORSDOF 18
ENDMDL
