MODEL 1
REMARK VINA RESULT:     -10.3      0.000      0.000
REMARK SMILES CNC(=O)CC[NH+]1CCC(CC(=O)NCCCCCCNC(=O)c2ccc(-c3c4nc(c(-c5c(F)c(F)c(F)c(F)c5F)c5ccc([nH]5)c(-c5c(F)c(F)c(F)c(F)c5F)c5nc(c(-c6c(F)c(F)c(F)c(F)c6F)c6ccc3[nH]6)C=C5)C=C4)cc2)CC1
REMARK SMILES IDX 16 1 15 2 14 3 12 4 13 5 11 7 10 8 7 9 8 10 88 11 9 13 87 14
REMARK SMILES IDX 6 15 5 16 3 17 1 18 2 19 4 21 17 22 18 23 19 24 20 25 21 26
REMARK SMILES IDX 22 27 23 29 24 30 25 31 86 32 26 33 85 34 27 35 28 36 29 37
REMARK SMILES IDX 79 38 30 39 84 40 78 41 80 42 31 43 83 44 77 45 76 46 32 48
REMARK SMILES IDX 64 49 44 50 63 51 45 52 48 53 62 54 81 55 46 56 47 57 61 59
REMARK SMILES IDX 82 60 49 61 33 62 34 63 42 64 35 65 36 66 40 67 43 68 37 69
REMARK SMILES IDX 38 70 41 71 39 72 65 73 66 74 74 75 67 76 68 77 72 78 75 79
REMARK SMILES IDX 69 80 70 81 73 82 71 83 50 84 51 85 59 86 52 87 53 88 57 89
REMARK SMILES IDX 60 90 54 91 55 92 58 93 56 94
REMARK H PARENT 14 6 7 12 2 20 21 28 80 47 48 58
REMARK Flexibility Score: inf
ROOT
ATOM      1  C   UNL A   1      35.581  32.234  28.038  1.00  0.00     0.021 C 
ENDROOT
BRANCH   1   2
ATOM      2  C   UNL A   1      34.756  30.946  27.958  1.00  0.00     0.116 C 
BRANCH   2   3
ATOM      3  N   UNL A   1      33.478  31.200  27.319  1.00  0.00    -0.356 N 
ATOM      4  C   UNL A   1      32.520  30.339  26.878  1.00  0.00     0.220 C 
ATOM      5  O   UNL A   1      31.567  30.805  26.252  1.00  0.00    -0.275 OA
ATOM      6  H   UNL A   1      33.271  32.152  27.180  1.00  0.00     0.163 HD
BRANCH   4   7
ATOM      7  C   UNL A   1      32.604  28.850  27.162  1.00  0.00     0.104 C 
BRANCH   7   8
ATOM      8  C   UNL A   1      32.394  27.956  25.923  1.00  0.00     0.009 C 
ATOM      9  N   UNL A   1      31.942  25.141  25.211  1.00  0.00    -0.334 N 
ATOM     10  C   UNL A   1      33.232  25.740  24.866  1.00  0.00     0.262 C 
ATOM     11  C   UNL A   1      30.901  26.150  24.948  1.00  0.00     0.262 C 
ATOM     12  H   UNL A   1      31.908  24.880  26.197  1.00  0.00     0.348 HD
ATOM     13  C   UNL A   1      33.517  26.920  25.786  1.00  0.00     0.066 C 
ATOM     14  C   UNL A   1      31.029  27.257  25.995  1.00  0.00     0.066 C 
BRANCH   9  15
ATOM     15  C   UNL A   1      31.731  23.892  24.461  1.00  0.00     0.272 C 
BRANCH  15  16
ATOM     16  C   UNL A   1      31.102  22.784  25.308  1.00  0.00     0.161 C 
BRANCH  16  17
ATOM     17  C   UNL A   1      31.692  22.708  26.693  1.00  0.00     0.225 C 
ATOM     18  C   UNL A   1      33.430  20.966  26.066  1.00  0.00     0.142 C 
ATOM     19  N   UNL A   1      32.696  21.826  26.965  1.00  0.00    -0.359 N 
ATOM     20  H   UNL A   1      32.959  21.768  27.913  1.00  0.00     0.163 HD
ATOM     21  O   UNL A   1      31.290  23.445  27.596  1.00  0.00    -0.275 OA
ENDBRANCH  16  17
ENDBRANCH  15  16
ENDBRANCH   9  15
ENDBRANCH   7   8
ENDBRANCH   4   7
ENDBRANCH   2   3
ENDBRANCH   1   2
BRANCH   1  22
ATOM     22  C   UNL A   1      35.017  33.311  28.959  1.00  0.00     0.002 C 
BRANCH  22  23
ATOM     23  C   UNL A   1      35.165  34.743  28.445  1.00  0.00     0.002 C 
BRANCH  23  24
ATOM     24  C   UNL A   1      33.979  35.672  28.718  1.00  0.00     0.021 C 
BRANCH  24  25
ATOM     25  C   UNL A   1      32.826  35.051  29.503  1.00  0.00     0.116 C 
BRANCH  25  26
ATOM     26  N   UNL A   1      32.385  35.903  30.597  1.00  0.00    -0.352 N 
ATOM     27  C   UNL A   1      32.777  35.916  31.909  1.00  0.00     0.251 C 
ATOM     28  H   UNL A   1      31.703  36.570  30.357  1.00  0.00     0.163 HD
ATOM     29  O   UNL A   1      32.134  36.556  32.741  1.00  0.00    -0.269 OA
BRANCH  27  30
ATOM     30  C   UNL A   1      33.967  35.153  32.335  1.00  0.00     0.039 A 
ATOM     31  C   UNL A   1      33.795  33.878  32.878  1.00  0.00     0.014 A 
ATOM     32  C   UNL A   1      35.245  35.708  32.230  1.00  0.00     0.014 A 
ATOM     33  C   UNL A   1      34.911  33.136  33.267  1.00  0.00     0.010 A 
ATOM     34  C   UNL A   1      36.362  34.942  32.556  1.00  0.00     0.010 A 
ATOM     35  C   UNL A   1      36.205  33.651  33.083  1.00  0.00    -0.014 A 
BRANCH  35  36
ATOM     36  C   UNL A   1      37.405  32.858  33.447  1.00  0.00     0.031 A 
ATOM     37  C   UNL A   1      38.131  33.136  34.734  1.00  0.00     0.074 A 
ATOM     38  C   UNL A   1      37.873  31.927  32.593  1.00  0.00     0.049 A 
ATOM     39  N   UNL A   1      39.237  32.606  35.193  1.00  0.00    -0.248 NA
ATOM     40  C   UNL A   1      37.549  34.164  35.613  1.00  0.00     0.031 C 
ATOM     41  C   UNL A   1      37.280  31.595  31.297  1.00  0.00     0.029 A 
ATOM     42  N   UNL A   1      38.962  31.097  32.681  1.00  0.00    -0.354 N 
ATOM     43  C   UNL A   1      39.485  33.240  36.403  1.00  0.00     0.074 A 
ATOM     44  C   UNL A   1      38.448  34.232  36.584  1.00  0.00     0.031 C 
ATOM     45  C   UNL A   1      38.003  30.623  30.717  1.00  0.00     0.029 A 
ATOM     46  C   UNL A   1      39.129  30.288  31.583  1.00  0.00     0.049 A 
ATOM     47  H   UNL A   1      39.566  31.081  33.458  1.00  0.00     0.167 HD
ATOM     48  C   UNL A   1      40.476  32.998  37.295  1.00  0.00     0.037 A 
ATOM     49  C   UNL A   1      40.089  29.386  31.303  1.00  0.00     0.037 A 
ATOM     50  C   UNL A   1      41.495  31.996  37.122  1.00  0.00     0.049 A 
ATOM     51  C   UNL A   1      41.183  29.145  32.310  1.00  0.00     0.074 A 
ATOM     52  C   UNL A   1      42.517  31.646  37.986  1.00  0.00     0.029 A 
ATOM     53  N   UNL A   1      41.614  31.178  36.009  1.00  0.00    -0.354 N 
ATOM     54  N   UNL A   1      41.373  29.710  33.477  1.00  0.00    -0.248 NA
ATOM     55  C   UNL A   1      42.191  28.133  31.963  1.00  0.00     0.031 C 
ATOM     56  C   UNL A   1      43.280  30.644  37.379  1.00  0.00     0.029 A 
ATOM     57  C   UNL A   1      42.704  30.335  36.157  1.00  0.00     0.049 A 
ATOM     58  H   UNL A   1      41.015  31.195  35.227  1.00  0.00     0.167 HD
ATOM     59  C   UNL A   1      42.500  29.103  34.015  1.00  0.00     0.074 A 
ATOM     60  C   UNL A   1      42.941  28.114  33.055  1.00  0.00     0.031 C 
ATOM     61  C   UNL A   1      43.117  29.345  35.197  1.00  0.00     0.037 A 
BRANCH  48  62
ATOM     62  C   UNL A   1      40.502  33.823  38.549  1.00  0.00     0.064 A 
ATOM     63  C   UNL A   1      39.759  33.454  39.681  1.00  0.00     0.173 A 
ATOM     64  C   UNL A   1      41.320  34.958  38.643  1.00  0.00     0.173 A 
ATOM     65  F   UNL A   1      38.952  32.383  39.640  1.00  0.00    -0.203 F 
ATOM     66  C   UNL A   1      39.819  34.203  40.853  1.00  0.00     0.198 A 
ATOM     67  C   UNL A   1      41.400  35.689  39.826  1.00  0.00     0.198 A 
ATOM     68  F   UNL A   1      42.055  35.351  37.590  1.00  0.00    -0.203 F 
ATOM     69  F   UNL A   1      39.071  33.854  41.909  1.00  0.00    -0.200 F 
ATOM     70  C   UNL A   1      40.646  35.314  40.928  1.00  0.00     0.200 A 
ATOM     71  F   UNL A   1      42.210  36.754  39.900  1.00  0.00    -0.200 F 
ATOM     72  F   UNL A   1      40.714  36.026  42.061  1.00  0.00    -0.200 F 
ENDBRANCH  48  62
BRANCH  49  73
ATOM     73  C   UNL A   1      40.057  28.631  30.023  1.00  0.00     0.064 A 
ATOM     74  C   UNL A   1      39.435  27.377  29.939  1.00  0.00     0.173 A 
ATOM     75  C   UNL A   1      40.671  29.133  28.865  1.00  0.00     0.173 A 
ATOM     76  F   UNL A   1      38.853  26.846  31.024  1.00  0.00    -0.203 F 
ATOM     77  C   UNL A   1      39.455  26.641  28.756  1.00  0.00     0.198 A 
ATOM     78  C   UNL A   1      40.663  28.409  27.675  1.00  0.00     0.198 A 
ATOM     79  F   UNL A   1      41.274  30.330  28.889  1.00  0.00    -0.203 F 
ATOM     80  F   UNL A   1      38.902  25.421  28.721  1.00  0.00    -0.200 F 
ATOM     81  C   UNL A   1      40.065  27.159  27.624  1.00  0.00     0.200 A 
ATOM     82  F   UNL A   1      41.241  28.920  26.579  1.00  0.00    -0.200 F 
ATOM     83  F   UNL A   1      40.086  26.449  26.488  1.00  0.00    -0.200 F 
ENDBRANCH  49  73
BRANCH  61  84
ATOM     84  C   UNL A   1      44.309  28.498  35.537  1.00  0.00     0.064 A 
ATOM     85  C   UNL A   1      45.613  28.900  35.215  1.00  0.00     0.173 A 
ATOM     86  C   UNL A   1      44.143  27.289  36.228  1.00  0.00     0.173 A 
ATOM     87  F   UNL A   1      45.821  30.042  34.541  1.00  0.00    -0.203 F 
ATOM     88  C   UNL A   1      46.708  28.108  35.550  1.00  0.00     0.198 A 
ATOM     89  C   UNL A   1      45.242  26.514  36.587  1.00  0.00     0.198 A 
ATOM     90  F   UNL A   1      42.917  26.863  36.565  1.00  0.00    -0.203 F 
ATOM     91  F   UNL A   1      47.942  28.487  35.189  1.00  0.00    -0.200 F 
ATOM     92  C   UNL A   1      46.522  26.920  36.242  1.00  0.00     0.200 A 
ATOM     93  F   UNL A   1      45.063  25.373  37.268  1.00  0.00    -0.200 F 
ATOM     94  F   UNL A   1      47.578  26.163  36.569  1.00  0.00    -0.200 F 
ENDBRANCH  61  84
ENDBRANCH  35  36
ENDBRANCH  27  30
ENDBRANCH  25  26
ENDBRANCH  24  25
ENDBRANCH  23  24
ENDBRANCH  22  23
ENDBRANCH   1  22
TORSDOF 17
ENDMDL
MODEL 2
REMARK VINA RESULT:     -10.2      4.289      7.798
REMARK SMILES CNC(=O)CC[NH+]1CCC(CC(=O)NCCCCCCNC(=O)c2ccc(-c3c4nc(c(-c5c(F)c(F)c(F)c(F)c5F)c5ccc([nH]5)c(-c5c(F)c(F)c(F)c(F)c5F)c5nc(c(-c6c(F)c(F)c(F)c(F)c6F)c6ccc3[nH]6)C=C5)C=C4)cc2)CC1
REMARK SMILES IDX 16 1 15 2 14 3 12 4 13 5 11 7 10 8 7 9 8 10 88 11 9 13 87 14
REMARK SMILES IDX 6 15 5 16 3 17 1 18 2 19 4 21 17 22 18 23 19 24 20 25 21 26
REMARK SMILES IDX 22 27 23 29 24 30 25 31 86 32 26 33 85 34 27 35 28 36 29 37
REMARK SMILES IDX 79 38 30 39 84 40 78 41 80 42 31 43 83 44 77 45 76 46 32 48
REMARK SMILES IDX 64 49 44 50 63 51 45 52 48 53 62 54 81 55 46 56 47 57 61 59
REMARK SMILES IDX 82 60 49 61 33 62 34 63 42 64 35 65 36 66 40 67 43 68 37 69
REMARK SMILES IDX 38 70 41 71 39 72 65 73 66 74 74 75 67 76 68 77 72 78 75 79
REMARK SMILES IDX 69 80 70 81 73 82 71 83 50 84 51 85 59 86 52 87 53 88 57 89
REMARK SMILES IDX 60 90 54 91 55 92 58 93 56 94
REMARK H PARENT 14 6 7 12 2 20 21 28 80 47 48 58
REMARK Flexibility Score: inf
ROOT
ATOM      1  C   UNL A   1      32.932  36.307  30.011  1.00  0.00     0.021 C 
ENDROOT
BRANCH   1   2
ATOM      2  C   UNL A   1      32.895  36.326  31.542  1.00  0.00     0.116 C 
BRANCH   2   3
ATOM      3  N   UNL A   1      32.881  34.972  32.066  1.00  0.00    -0.356 N 
ATOM      4  C   UNL A   1      33.685  34.367  32.984  1.00  0.00     0.220 C 
ATOM      5  O   UNL A   1      33.543  33.158  33.171  1.00  0.00    -0.275 OA
ATOM      6  H   UNL A   1      32.174  34.395  31.696  1.00  0.00     0.163 HD
BRANCH   4   7
ATOM      7  C   UNL A   1      34.716  35.156  33.771  1.00  0.00     0.104 C 
BRANCH   7   8
ATOM      8  C   UNL A   1      36.088  34.460  33.893  1.00  0.00     0.009 C 
ATOM      9  N   UNL A   1      37.247  31.803  34.374  1.00  0.00    -0.334 N 
ATOM     10  C   UNL A   1      37.392  32.818  35.419  1.00  0.00     0.262 C 
ATOM     11  C   UNL A   1      37.441  32.474  33.077  1.00  0.00     0.262 C 
ATOM     12  H   UNL A   1      36.317  31.383  34.394  1.00  0.00     0.348 HD
ATOM     13  C   UNL A   1      36.286  33.857  35.289  1.00  0.00     0.066 C 
ATOM     14  C   UNL A   1      36.234  33.376  32.816  1.00  0.00     0.066 C 
BRANCH   9  15
ATOM     15  C   UNL A   1      38.190  30.694  34.592  1.00  0.00     0.272 C 
BRANCH  15  16
ATOM     16  C   UNL A   1      38.817  30.179  33.296  1.00  0.00     0.161 C 
BRANCH  16  17
ATOM     17  C   UNL A   1      38.574  28.706  33.080  1.00  0.00     0.225 C 
ATOM     18  C   UNL A   1      41.042  28.122  32.948  1.00  0.00     0.142 C 
ATOM     19  N   UNL A   1      39.623  27.860  32.876  1.00  0.00    -0.359 N 
ATOM     20  H   UNL A   1      39.378  26.934  32.645  1.00  0.00     0.163 HD
ATOM     21  O   UNL A   1      37.432  28.242  33.098  1.00  0.00    -0.275 OA
ENDBRANCH  16  17
ENDBRANCH  15  16
ENDBRANCH   9  15
ENDBRANCH   7   8
ENDBRANCH   4   7
ENDBRANCH   2   3
ENDBRANCH   1   2
BRANCH   1  22
ATOM     22  C   UNL A   1      33.237  34.950  29.384  1.00  0.00     0.002 C 
BRANCH  22  23
ATOM     23  C   UNL A   1      34.374  34.950  28.363  1.00  0.00     0.002 C 
BRANCH  23  24
ATOM     24  C   UNL A   1      35.290  33.723  28.388  1.00  0.00     0.021 C 
BRANCH  24  25
ATOM     25  C   UNL A   1      34.839  32.587  29.304  1.00  0.00     0.116 C 
BRANCH  25  26
ATOM     26  N   UNL A   1      34.127  31.547  28.579  1.00  0.00    -0.352 N 
ATOM     27  C   UNL A   1      34.604  30.410  27.985  1.00  0.00     0.251 C 
ATOM     28  H   UNL A   1      33.155  31.682  28.504  1.00  0.00     0.163 HD
ATOM     29  O   UNL A   1      33.887  29.760  27.224  1.00  0.00    -0.269 OA
BRANCH  27  30
ATOM     30  C   UNL A   1      35.986  29.960  28.247  1.00  0.00     0.039 A 
ATOM     31  C   UNL A   1      36.944  30.096  27.241  1.00  0.00     0.014 A 
ATOM     32  C   UNL A   1      36.326  29.377  29.471  1.00  0.00     0.014 A 
ATOM     33  C   UNL A   1      38.260  29.696  27.479  1.00  0.00     0.010 A 
ATOM     34  C   UNL A   1      37.652  29.039  29.731  1.00  0.00     0.010 A 
ATOM     35  C   UNL A   1      38.630  29.189  28.736  1.00  0.00    -0.014 A 
BRANCH  35  36
ATOM     36  C   UNL A   1      40.034  28.802  29.024  1.00  0.00     0.031 A 
ATOM     37  C   UNL A   1      40.950  29.761  29.731  1.00  0.00     0.074 A 
ATOM     38  C   UNL A   1      40.496  27.611  28.597  1.00  0.00     0.049 A 
ATOM     39  N   UNL A   1      42.225  29.640  30.005  1.00  0.00    -0.248 NA
ATOM     40  C   UNL A   1      40.362  31.038  30.169  1.00  0.00     0.031 C 
ATOM     41  C   UNL A   1      39.715  26.614  27.865  1.00  0.00     0.029 A 
ATOM     42  N   UNL A   1      41.740  27.042  28.708  1.00  0.00    -0.354 N 
ATOM     43  C   UNL A   1      42.590  30.822  30.636  1.00  0.00     0.074 A 
ATOM     44  C   UNL A   1      41.419  31.671  30.658  1.00  0.00     0.031 C 
ATOM     45  C   UNL A   1      40.493  25.550  27.604  1.00  0.00     0.029 A 
ATOM     46  C   UNL A   1      41.835  25.804  28.119  1.00  0.00     0.049 A 
ATOM     47  H   UNL A   1      42.494  27.478  29.168  1.00  0.00     0.167 HD
ATOM     48  C   UNL A   1      43.787  31.157  31.172  1.00  0.00     0.037 A 
ATOM     49  C   UNL A   1      42.888  24.975  27.999  1.00  0.00     0.037 A 
ATOM     50  C   UNL A   1      44.945  30.302  31.169  1.00  0.00     0.049 A 
ATOM     51  C   UNL A   1      44.210  25.379  28.597  1.00  0.00     0.074 A 
ATOM     52  C   UNL A   1      46.192  30.534  31.721  1.00  0.00     0.029 A 
ATOM     53  N   UNL A   1      44.993  29.044  30.585  1.00  0.00    -0.354 N 
ATOM     54  N   UNL A   1      44.527  26.475  29.243  1.00  0.00    -0.248 NA
ATOM     55  C   UNL A   1      45.320  24.425  28.457  1.00  0.00     0.031 C 
ATOM     56  C   UNL A   1      47.008  29.434  31.438  1.00  0.00     0.029 A 
ATOM     57  C   UNL A   1      46.255  28.495  30.752  1.00  0.00     0.049 A 
ATOM     58  H   UNL A   1      44.244  28.607  30.121  1.00  0.00     0.167 HD
ATOM     59  C   UNL A   1      45.857  26.330  29.611  1.00  0.00     0.074 A 
ATOM     60  C   UNL A   1      46.284  25.033  29.132  1.00  0.00     0.031 C 
ATOM     61  C   UNL A   1      46.656  27.194  30.282  1.00  0.00     0.037 A 
BRANCH  48  62
ATOM     62  C   UNL A   1      43.908  32.505  31.822  1.00  0.00     0.064 A 
ATOM     63  C   UNL A   1      44.284  33.640  31.088  1.00  0.00     0.173 A 
ATOM     64  C   UNL A   1      43.588  32.676  33.178  1.00  0.00     0.173 A 
ATOM     65  F   UNL A   1      44.611  33.527  29.792  1.00  0.00    -0.203 F 
ATOM     66  C   UNL A   1      44.356  34.892  31.692  1.00  0.00     0.198 A 
ATOM     67  C   UNL A   1      43.633  33.936  33.771  1.00  0.00     0.198 A 
ATOM     68  F   UNL A   1      43.217  31.624  33.924  1.00  0.00    -0.203 F 
ATOM     69  F   UNL A   1      44.756  35.955  30.980  1.00  0.00    -0.200 F 
ATOM     70  C   UNL A   1      44.022  35.041  33.029  1.00  0.00     0.200 A 
ATOM     71  F   UNL A   1      43.296  34.080  35.060  1.00  0.00    -0.200 F 
ATOM     72  F   UNL A   1      44.077  36.250  33.605  1.00  0.00    -0.200 F 
ENDBRANCH  48  62
BRANCH  49  73
ATOM     73  C   UNL A   1      42.741  23.673  27.297  1.00  0.00     0.064 A 
ATOM     74  C   UNL A   1      42.215  22.553  27.956  1.00  0.00     0.173 A 
ATOM     75  C   UNL A   1      43.146  23.513  25.963  1.00  0.00     0.173 A 
ATOM     76  F   UNL A   1      41.833  22.650  29.238  1.00  0.00    -0.203 F 
ATOM     77  C   UNL A   1      42.131  21.316  27.319  1.00  0.00     0.198 A 
ATOM     78  C   UNL A   1      43.032  22.284  25.318  1.00  0.00     0.198 A 
ATOM     79  F   UNL A   1      43.650  24.555  25.284  1.00  0.00    -0.203 F 
ATOM     80  F   UNL A   1      41.678  20.250  27.992  1.00  0.00    -0.200 F 
ATOM     81  C   UNL A   1      42.534  21.184  26.000  1.00  0.00     0.200 A 
ATOM     82  F   UNL A   1      43.410  22.164  24.038  1.00  0.00    -0.200 F 
ATOM     83  F   UNL A   1      42.455  19.994  25.389  1.00  0.00    -0.200 F 
ENDBRANCH  49  73
BRANCH  61  84
ATOM     84  C   UNL A   1      48.058  26.749  30.577  1.00  0.00     0.064 A 
ATOM     85  C   UNL A   1      49.131  27.098  29.745  1.00  0.00     0.173 A 
ATOM     86  C   UNL A   1      48.335  25.995  31.727  1.00  0.00     0.173 A 
ATOM     87  F   UNL A   1      48.916  27.806  28.625  1.00  0.00    -0.203 F 
ATOM     88  C   UNL A   1      50.429  26.687  30.041  1.00  0.00     0.198 A 
ATOM     89  C   UNL A   1      49.636  25.611  32.036  1.00  0.00     0.198 A 
ATOM     90  F   UNL A   1      47.344  25.640  32.559  1.00  0.00    -0.203 F 
ATOM     91  F   UNL A   1      51.432  26.991  29.206  1.00  0.00    -0.200 F 
ATOM     92  C   UNL A   1      50.681  25.951  31.189  1.00  0.00     0.200 A 
ATOM     93  F   UNL A   1      49.881  24.911  33.153  1.00  0.00    -0.200 F 
ATOM     94  F   UNL A   1      51.931  25.561  31.475  1.00  0.00    -0.200 F 
ENDBRANCH  61  84
ENDBRANCH  35  36
ENDBRANCH  27  30
ENDBRANCH  25  26
ENDBRANCH  24  25
ENDBRANCH  23  24
ENDBRANCH  22  23
ENDBRANCH   1  22
TORSDOF 17
ENDMDL
MODEL 3
REMARK VINA RESULT:     -10.2      4.137      8.101
REMARK SMILES CNC(=O)CC[NH+]1CCC(CC(=O)NCCCCCCNC(=O)c2ccc(-c3c4nc(c(-c5c(F)c(F)c(F)c(F)c5F)c5ccc([nH]5)c(-c5c(F)c(F)c(F)c(F)c5F)c5nc(c(-c6c(F)c(F)c(F)c(F)c6F)c6ccc3[nH]6)C=C5)C=C4)cc2)CC1
REMARK SMILES IDX 16 1 15 2 14 3 12 4 13 5 11 7 10 8 7 9 8 10 88 11 9 13 87 14
REMARK SMILES IDX 6 15 5 16 3 17 1 18 2 19 4 21 17 22 18 23 19 24 20 25 21 26
REMARK SMILES IDX 22 27 23 29 24 30 25 31 86 32 26 33 85 34 27 35 28 36 29 37
REMARK SMILES IDX 79 38 30 39 84 40 78 41 80 42 31 43 83 44 77 45 76 46 32 48
REMARK SMILES IDX 64 49 44 50 63 51 45 52 48 53 62 54 81 55 46 56 47 57 61 59
REMARK SMILES IDX 82 60 49 61 33 62 34 63 42 64 35 65 36 66 40 67 43 68 37 69
REMARK SMILES IDX 38 70 41 71 39 72 65 73 66 74 74 75 67 76 68 77 72 78 75 79
REMARK SMILES IDX 69 80 70 81 73 82 71 83 50 84 51 85 59 86 52 87 53 88 57 89
REMARK SMILES IDX 60 90 54 91 55 92 58 93 56 94
REMARK H PARENT 14 6 7 12 2 20 21 28 80 47 48 58
REMARK Flexibility Score: inf
ROOT
ATOM      1  C   UNL A   1      33.691  37.091  28.843  1.00  0.00     0.021 C 
ENDROOT
BRANCH   1   2
ATOM      2  C   UNL A   1      32.940  36.826  30.151  1.00  0.00     0.116 C 
BRANCH   2   3
ATOM      3  N   UNL A   1      33.487  37.638  31.223  1.00  0.00    -0.356 N 
ATOM      4  C   UNL A   1      33.815  37.313  32.504  1.00  0.00     0.220 C 
ATOM      5  O   UNL A   1      34.151  38.221  33.265  1.00  0.00    -0.275 OA
ATOM      6  H   UNL A   1      33.646  38.580  30.985  1.00  0.00     0.163 HD
BRANCH   4   7
ATOM      7  C   UNL A   1      33.788  35.873  32.984  1.00  0.00     0.104 C 
BRANCH   7   8
ATOM      8  C   UNL A   1      35.182  35.264  33.240  1.00  0.00     0.009 C 
ATOM      9  N   UNL A   1      36.472  32.661  33.683  1.00  0.00    -0.334 N 
ATOM     10  C   UNL A   1      36.402  33.595  34.808  1.00  0.00     0.262 C 
ATOM     11  C   UNL A   1      36.780  33.446  32.474  1.00  0.00     0.262 C 
ATOM     12  H   UNL A   1      35.584  32.179  33.546  1.00  0.00     0.348 HD
ATOM     13  C   UNL A   1      35.244  34.564  34.603  1.00  0.00     0.066 C 
ATOM     14  C   UNL A   1      35.550  34.283  32.119  1.00  0.00     0.066 C 
BRANCH   9  15
ATOM     15  C   UNL A   1      37.462  31.604  33.946  1.00  0.00     0.272 C 
BRANCH  15  16
ATOM     16  C   UNL A   1      38.415  31.948  35.092  1.00  0.00     0.161 C 
BRANCH  16  17
ATOM     17  C   UNL A   1      38.504  30.851  36.121  1.00  0.00     0.225 C 
ATOM     18  C   UNL A   1      40.648  29.872  35.175  1.00  0.00     0.142 C 
ATOM     19  N   UNL A   1      39.504  29.926  36.056  1.00  0.00    -0.359 N 
ATOM     20  H   UNL A   1      39.436  29.187  36.703  1.00  0.00     0.163 HD
ATOM     21  O   UNL A   1      37.688  30.777  37.043  1.00  0.00    -0.275 OA
ENDBRANCH  16  17
ENDBRANCH  15  16
ENDBRANCH   9  15
ENDBRANCH   7   8
ENDBRANCH   4   7
ENDBRANCH   2   3
ENDBRANCH   1   2
BRANCH   1  22
ATOM     22  C   UNL A   1      34.148  35.844  28.092  1.00  0.00     0.002 C 
BRANCH  22  23
ATOM     23  C   UNL A   1      33.348  34.578  28.392  1.00  0.00     0.002 C 
BRANCH  23  24
ATOM     24  C   UNL A   1      34.125  33.446  29.072  1.00  0.00     0.021 C 
BRANCH  24  25
ATOM     25  C   UNL A   1      34.840  32.483  28.127  1.00  0.00     0.116 C 
BRANCH  25  26
ATOM     26  N   UNL A   1      34.146  31.210  28.011  1.00  0.00    -0.352 N 
ATOM     27  C   UNL A   1      34.651  29.939  27.952  1.00  0.00     0.251 C 
ATOM     28  H   UNL A   1      33.164  31.273  27.968  1.00  0.00     0.163 HD
ATOM     29  O   UNL A   1      33.925  28.999  27.629  1.00  0.00    -0.269 OA
BRANCH  27  30
ATOM     30  C   UNL A   1      36.071  29.691  28.267  1.00  0.00     0.039 A 
ATOM     31  C   UNL A   1      36.419  29.290  29.559  1.00  0.00     0.014 A 
ATOM     32  C   UNL A   1      37.061  29.885  27.299  1.00  0.00     0.014 A 
ATOM     33  C   UNL A   1      37.755  29.031  29.867  1.00  0.00     0.010 A 
ATOM     34  C   UNL A   1      38.384  29.563  27.588  1.00  0.00     0.010 A 
ATOM     35  C   UNL A   1      38.745  29.139  28.876  1.00  0.00    -0.014 A 
BRANCH  35  36
ATOM     36  C   UNL A   1      40.165  28.822  29.173  1.00  0.00     0.031 A 
ATOM     37  C   UNL A   1      41.021  29.817  29.906  1.00  0.00     0.074 A 
ATOM     38  C   UNL A   1      40.695  27.665  28.733  1.00  0.00     0.049 A 
ATOM     39  N   UNL A   1      42.297  29.759  30.192  1.00  0.00    -0.248 NA
ATOM     40  C   UNL A   1      40.361  31.053  30.357  1.00  0.00     0.031 C 
ATOM     41  C   UNL A   1      39.976  26.639  27.976  1.00  0.00     0.029 A 
ATOM     42  N   UNL A   1      41.966  27.161  28.849  1.00  0.00    -0.354 N 
ATOM     43  C   UNL A   1      42.592  30.948  30.845  1.00  0.00     0.074 A 
ATOM     44  C   UNL A   1      41.377  31.733  30.868  1.00  0.00     0.031 C 
ATOM     45  C   UNL A   1      40.812  25.623  27.707  1.00  0.00     0.029 A 
ATOM     46  C   UNL A   1      42.133  25.940  28.241  1.00  0.00     0.049 A 
ATOM     47  H   UNL A   1      42.690  27.629  29.324  1.00  0.00     0.167 HD
ATOM     48  C   UNL A   1      43.764  31.338  31.401  1.00  0.00     0.037 A 
ATOM     49  C   UNL A   1      43.230  25.169  28.120  1.00  0.00     0.037 A 
ATOM     50  C   UNL A   1      44.966  30.545  31.397  1.00  0.00     0.049 A 
ATOM     51  C   UNL A   1      44.522  25.633  28.740  1.00  0.00     0.074 A 
ATOM     52  C   UNL A   1      46.193  30.834  31.967  1.00  0.00     0.029 A 
ATOM     53  N   UNL A   1      45.088  29.302  30.795  1.00  0.00    -0.354 N 
ATOM     54  N   UNL A   1      44.773  26.734  29.406  1.00  0.00    -0.248 NA
ATOM     55  C   UNL A   1      45.683  24.742  28.597  1.00  0.00     0.031 C 
ATOM     56  C   UNL A   1      47.069  29.784  31.676  1.00  0.00     0.029 A 
ATOM     57  C   UNL A   1      46.374  28.818  30.967  1.00  0.00     0.049 A 
ATOM     58  H   UNL A   1      44.367  28.833  30.314  1.00  0.00     0.167 HD
ATOM     59  C   UNL A   1      46.105  26.654  29.787  1.00  0.00     0.074 A 
ATOM     60  C   UNL A   1      46.606  25.389  29.292  1.00  0.00     0.031 C 
ATOM     61  C   UNL A   1      46.850  27.549  30.481  1.00  0.00     0.037 A 
BRANCH  48  62
ATOM     62  C   UNL A   1      43.806  32.679  32.074  1.00  0.00     0.064 A 
ATOM     63  C   UNL A   1      43.581  32.812  33.453  1.00  0.00     0.173 A 
ATOM     64  C   UNL A   1      44.129  33.835  31.347  1.00  0.00     0.173 A 
ATOM     65  F   UNL A   1      43.257  31.739  34.190  1.00  0.00    -0.203 F 
ATOM     66  C   UNL A   1      43.660  34.055  34.075  1.00  0.00     0.198 A 
ATOM     67  C   UNL A   1      44.235  35.072  31.978  1.00  0.00     0.198 A 
ATOM     68  F   UNL A   1      44.358  33.762  30.027  1.00  0.00    -0.203 F 
ATOM     69  F   UNL A   1      43.404  34.163  35.386  1.00  0.00    -0.200 F 
ATOM     70  C   UNL A   1      43.995  35.182  33.340  1.00  0.00     0.200 A 
ATOM     71  F   UNL A   1      44.572  36.157  31.269  1.00  0.00    -0.200 F 
ATOM     72  F   UNL A   1      44.084  36.375  33.943  1.00  0.00    -0.200 F 
ENDBRANCH  48  62
BRANCH  49  73
ATOM     73  C   UNL A   1      43.160  23.874  27.396  1.00  0.00     0.064 A 
ATOM     74  C   UNL A   1      43.531  23.779  26.047  1.00  0.00     0.173 A 
ATOM     75  C   UNL A   1      42.696  22.710  28.027  1.00  0.00     0.173 A 
ATOM     76  F   UNL A   1      43.962  24.868  25.394  1.00  0.00    -0.203 F 
ATOM     77  C   UNL A   1      43.410  22.579  25.349  1.00  0.00     0.198 A 
ATOM     78  C   UNL A   1      42.605  21.503  27.336  1.00  0.00     0.198 A 
ATOM     79  F   UNL A   1      42.334  22.743  29.318  1.00  0.00    -0.203 F 
ATOM     80  F   UNL A   1      43.718  22.532  24.046  1.00  0.00    -0.200 F 
ATOM     81  C   UNL A   1      42.952  21.441  25.995  1.00  0.00     0.200 A 
ATOM     82  F   UNL A   1      42.175  20.402  27.968  1.00  0.00    -0.200 F 
ATOM     83  F   UNL A   1      42.834  20.288  25.322  1.00  0.00    -0.200 F 
ENDBRANCH  49  73
BRANCH  61  84
ATOM     84  C   UNL A   1      48.271  27.173  30.784  1.00  0.00     0.064 A 
ATOM     85  C   UNL A   1      48.614  26.473  31.949  1.00  0.00     0.173 A 
ATOM     86  C   UNL A   1      49.294  27.487  29.877  1.00  0.00     0.173 A 
ATOM     87  F   UNL A   1      47.673  26.163  32.854  1.00  0.00    -0.203 F 
ATOM     88  C   UNL A   1      49.936  26.120  32.208  1.00  0.00     0.198 A 
ATOM     89  C   UNL A   1      50.611  27.107  30.125  1.00  0.00     0.198 A 
ATOM     90  F   UNL A   1      49.017  28.150  28.745  1.00  0.00    -0.203 F 
ATOM     91  F   UNL A   1      50.250  25.494  33.350  1.00  0.00    -0.200 F 
ATOM     92  C   UNL A   1      50.932  26.432  31.292  1.00  0.00     0.200 A 
ATOM     93  F   UNL A   1      51.569  27.396  29.234  1.00  0.00    -0.200 F 
ATOM     94  F   UNL A   1      52.203  26.086  31.541  1.00  0.00    -0.200 F 
ENDBRANCH  61  84
ENDBRANCH  35  36
ENDBRANCH  27  30
ENDBRANCH  25  26
ENDBRANCH  24  25
ENDBRANCH  23  24
ENDBRANCH  22  23
ENDBRANCH   1  22
TORSDOF 17
ENDMDL
