MODEL 1
REMARK VINA RESULT:     -12.9      0.000      0.000
REMARK SMILES O=C(NCCCCCCNC(=O)[C@@H](Cc1ccccc1)/N=C1\C(=O)c2ccccc2C(=O)[C@H]1Cl)c1ccc(-c2c3nc(c(-c4c(F)c(F)c(F)c(F)c4F)c4ccc([nH]4)c(-c4c(F)c(F)c(F)c(F)c4F)c4nc(c(-c5c(F)c(F)c(F)c(F)c5F)c5ccc2[nH]5)C=C4)C=C3)cc1
REMARK SMILES IDX 6 1 5 2 4 3 3 4 1 5 2 6 35 8 36 9 97 10 37 11 96 12 38 13
REMARK SMILES IDX 39 14 40 15 90 16 41 17 95 18 89 19 91 20 42 21 94 22 88 23
REMARK SMILES IDX 87 24 43 26 75 27 55 28 74 29 56 30 59 31 73 32 92 33 57 34
REMARK SMILES IDX 58 35 72 37 93 38 60 39 44 40 45 41 53 42 46 43 47 44 51 45
REMARK SMILES IDX 54 46 48 47 49 48 52 49 50 50 76 51 77 52 85 53 78 54 79 55
REMARK SMILES IDX 83 56 86 57 80 58 81 59 84 60 82 61 61 62 62 63 70 64 63 65
REMARK SMILES IDX 64 66 68 67 71 68 65 69 66 70 69 71 67 72 7 73 8 74 9 75
REMARK SMILES IDX 10 76 11 77 12 79 13 80 14 81 15 82 16 83 20 84 17 85 19 86
REMARK SMILES IDX 18 87 21 88 22 89 23 90 33 91 24 92 25 93 31 94 34 95 26 96
REMARK SMILES IDX 30 97 32 98 27 99 29 100 28 101
REMARK H PARENT 3 7 91 25 59 36 10 78
REMARK Flexibility Score: inf
ROOT
ATOM      1  C   UNL A   1      31.646  30.283  26.410  1.00  0.00     0.002 C 
ENDROOT
BRANCH   1   2
ATOM      2  C   UNL A   1      31.622  31.812  26.519  1.00  0.00     0.021 C 
BRANCH   2   3
ATOM      3  C   UNL A   1      32.764  32.439  27.311  1.00  0.00     0.116 C 
BRANCH   3   4
ATOM      4  N   UNL A   1      32.540  33.851  27.542  1.00  0.00    -0.352 N 
ATOM      5  O   UNL A   1      32.530  35.797  28.648  1.00  0.00    -0.269 OA
ATOM      6  C   UNL A   1      33.049  34.693  28.496  1.00  0.00     0.251 C 
ATOM      7  H   UNL A   1      31.919  34.277  26.909  1.00  0.00     0.163 HD
BRANCH   6   8
ATOM      8  C   UNL A   1      34.213  34.325  29.344  1.00  0.00     0.039 A 
ATOM      9  C   UNL A   1      34.067  33.763  30.617  1.00  0.00     0.014 A 
ATOM     10  C   UNL A   1      35.489  34.392  28.766  1.00  0.00     0.014 A 
ATOM     11  C   UNL A   1      35.188  33.301  31.316  1.00  0.00     0.010 A 
ATOM     12  C   UNL A   1      36.603  33.888  29.445  1.00  0.00     0.010 A 
ATOM     13  C   UNL A   1      36.459  33.325  30.720  1.00  0.00    -0.014 A 
BRANCH  13  14
ATOM     14  C   UNL A   1      37.594  32.603  31.350  1.00  0.00     0.031 A 
ATOM     15  C   UNL A   1      38.240  31.419  30.698  1.00  0.00     0.074 A 
ATOM     16  C   UNL A   1      38.006  32.999  32.570  1.00  0.00     0.049 A 
ATOM     17  N   UNL A   1      39.254  30.704  31.120  1.00  0.00    -0.248 NA
ATOM     18  C   UNL A   1      37.678  30.968  29.417  1.00  0.00     0.031 C 
ATOM     19  C   UNL A   1      37.425  34.102  33.339  1.00  0.00     0.029 A 
ATOM     20  N   UNL A   1      39.000  32.514  33.382  1.00  0.00    -0.354 N 
ATOM     21  C   UNL A   1      39.447  29.716  30.166  1.00  0.00     0.074 A 
ATOM     22  C   UNL A   1      38.436  29.911  29.147  1.00  0.00     0.031 C 
ATOM     23  C   UNL A   1      38.082  34.219  34.503  1.00  0.00     0.029 A 
ATOM     24  C   UNL A   1      39.113  33.188  34.572  1.00  0.00     0.049 A 
ATOM     25  H   UNL A   1      39.577  31.756  33.134  1.00  0.00     0.167 HD
ATOM     26  C   UNL A   1      40.392  28.746  30.141  1.00  0.00     0.037 A 
ATOM     27  C   UNL A   1      39.942  32.993  35.613  1.00  0.00     0.037 A 
ATOM     28  C   UNL A   1      41.430  28.583  31.123  1.00  0.00     0.049 A 
ATOM     29  C   UNL A   1      40.931  31.869  35.581  1.00  0.00     0.074 A 
ATOM     30  C   UNL A   1      42.562  27.788  31.067  1.00  0.00     0.029 A 
ATOM     31  N   UNL A   1      41.444  29.210  32.358  1.00  0.00    -0.354 N 
ATOM     32  N   UNL A   1      41.187  31.030  34.611  1.00  0.00    -0.248 NA
ATOM     33  C   UNL A   1      41.728  31.654  36.797  1.00  0.00     0.031 C 
ATOM     34  C   UNL A   1      43.242  27.904  32.288  1.00  0.00     0.029 A 
ATOM     35  C   UNL A   1      42.533  28.776  33.096  1.00  0.00     0.049 A 
ATOM     36  H   UNL A   1      40.780  29.868  32.665  1.00  0.00     0.167 HD
ATOM     37  C   UNL A   1      42.181  30.192  35.091  1.00  0.00     0.074 A 
ATOM     38  C   UNL A   1      42.475  30.615  36.445  1.00  0.00     0.031 C 
ATOM     39  C   UNL A   1      42.799  29.170  34.452  1.00  0.00     0.037 A 
BRANCH  26  40
ATOM     40  C   UNL A   1      40.362  27.785  28.998  1.00  0.00     0.064 A 
ATOM     41  C   UNL A   1      39.595  26.614  29.057  1.00  0.00     0.173 A 
ATOM     42  C   UNL A   1      41.060  28.065  27.816  1.00  0.00     0.173 A 
ATOM     43  F   UNL A   1      38.918  26.305  30.172  1.00  0.00    -0.203 F 
ATOM     44  C   UNL A   1      39.529  25.753  27.965  1.00  0.00     0.198 A 
ATOM     45  C   UNL A   1      40.990  27.203  26.726  1.00  0.00     0.198 A 
ATOM     46  F   UNL A   1      41.811  29.173  27.721  1.00  0.00    -0.203 F 
ATOM     47  F   UNL A   1      38.796  24.632  28.041  1.00  0.00    -0.200 F 
ATOM     48  C   UNL A   1      40.224  26.049  26.801  1.00  0.00     0.200 A 
ATOM     49  F   UNL A   1      41.666  27.485  25.604  1.00  0.00    -0.200 F 
ATOM     50  F   UNL A   1      40.159  25.217  25.752  1.00  0.00    -0.200 F 
ENDBRANCH  26  40
BRANCH  27  51
ATOM     51  C   UNL A   1      39.853  33.888  36.785  1.00  0.00     0.064 A 
ATOM     52  C   UNL A   1      40.583  35.083  36.829  1.00  0.00     0.173 A 
ATOM     53  C   UNL A   1      39.010  33.584  37.861  1.00  0.00     0.173 A 
ATOM     54  F   UNL A   1      41.405  35.401  35.819  1.00  0.00    -0.203 F 
ATOM     55  C   UNL A   1      40.469  35.947  37.913  1.00  0.00     0.198 A 
ATOM     56  C   UNL A   1      38.896  34.452  38.943  1.00  0.00     0.198 A 
ATOM     57  F   UNL A   1      38.301  32.447  37.857  1.00  0.00    -0.203 F 
ATOM     58  F   UNL A   1      41.178  37.084  37.938  1.00  0.00    -0.200 F 
ATOM     59  C   UNL A   1      39.624  35.633  38.969  1.00  0.00     0.200 A 
ATOM     60  F   UNL A   1      38.080  34.146  39.962  1.00  0.00    -0.200 F 
ATOM     61  F   UNL A   1      39.514  36.468  40.010  1.00  0.00    -0.200 F 
ENDBRANCH  27  51
BRANCH  39  62
ATOM     62  C   UNL A   1      43.847  28.430  35.216  1.00  0.00     0.064 A 
ATOM     63  C   UNL A   1      43.525  27.274  35.939  1.00  0.00     0.173 A 
ATOM     64  C   UNL A   1      45.178  28.869  35.222  1.00  0.00     0.173 A 
ATOM     65  F   UNL A   1      42.259  26.833  35.976  1.00  0.00    -0.203 F 
ATOM     66  C   UNL A   1      44.502  26.584  36.650  1.00  0.00     0.198 A 
ATOM     67  C   UNL A   1      46.155  28.173  35.927  1.00  0.00     0.198 A 
ATOM     68  F   UNL A   1      45.526  29.976  34.549  1.00  0.00    -0.203 F 
ATOM     69  F   UNL A   1      44.173  25.492  37.353  1.00  0.00    -0.200 F 
ATOM     70  C   UNL A   1      45.816  27.033  36.642  1.00  0.00     0.200 A 
ATOM     71  F   UNL A   1      47.421  28.610  35.925  1.00  0.00    -0.200 F 
ATOM     72  F   UNL A   1      46.755  26.371  37.331  1.00  0.00    -0.200 F 
ENDBRANCH  39  62
ENDBRANCH  13  14
ENDBRANCH   6   8
ENDBRANCH   3   4
ENDBRANCH   2   3
ENDBRANCH   1   2
BRANCH   1  73
ATOM     73  C   UNL A   1      31.950  29.691  25.024  1.00  0.00     0.002 C 
BRANCH  73  74
ATOM     74  C   UNL A   1      30.756  29.484  24.086  1.00  0.00     0.021 C 
BRANCH  74  75
ATOM     75  C   UNL A   1      31.108  29.245  22.622  1.00  0.00     0.116 C 
BRANCH  75  76
ATOM     76  N   UNL A   1      32.425  28.695  22.432  1.00  0.00    -0.354 N 
ATOM     77  C   UNL A   1      32.794  27.426  22.113  1.00  0.00     0.245 C 
ATOM     78  H   UNL A   1      33.167  29.332  22.552  1.00  0.00     0.163 HD
ATOM     79  O   UNL A   1      33.928  27.291  21.633  1.00  0.00    -0.273 OA
BRANCH  77  80
ATOM     80  C   UNL A   1      31.932  26.187  22.395  1.00  0.00     0.199 C 
BRANCH  80  81
ATOM     81  C   UNL A   1      32.325  24.853  21.721  1.00  0.00     0.073 C 
BRANCH  81  82
ATOM     82  C   UNL A   1      32.760  23.656  22.541  1.00  0.00    -0.045 A 
ATOM     83  C   UNL A   1      31.844  22.719  23.039  1.00  0.00     0.004 A 
ATOM     84  C   UNL A   1      34.128  23.411  22.738  1.00  0.00     0.004 A 
ATOM     85  C   UNL A   1      32.276  21.624  23.792  1.00  0.00     0.000 A 
ATOM     86  C   UNL A   1      34.563  22.311  23.480  1.00  0.00     0.000 A 
ATOM     87  C   UNL A   1      33.636  21.426  24.021  1.00  0.00     0.000 A 
ENDBRANCH  81  82
ENDBRANCH  80  81
BRANCH  80  88
ATOM     88  N   UNL A   1      31.308  26.022  23.709  1.00  0.00    -0.270 NA
ATOM     89  C   UNL A   1      31.735  25.859  24.900  1.00  0.00     0.109 C 
ATOM     90  C   UNL A   1      33.150  25.688  25.371  1.00  0.00     0.209 C 
ATOM     91  C   UNL A   1      30.729  25.628  25.996  1.00  0.00     0.205 C 
ATOM     92  O   UNL A   1      34.015  26.502  25.112  1.00  0.00    -0.287 OA
ATOM     93  C   UNL A   1      33.404  24.492  26.202  1.00  0.00     0.035 A 
ATOM     94  C   UNL A   1      30.940  24.287  26.656  1.00  0.00     0.187 C 
ATOM     95  Cl  UNL A   1      30.878  26.900  27.228  1.00  0.00    -0.107 Cl
ATOM     96  C   UNL A   1      34.718  24.059  26.410  1.00  0.00     0.013 A 
ATOM     97  C   UNL A   1      32.336  23.787  26.768  1.00  0.00     0.031 A 
ATOM     98  O   UNL A   1      30.018  23.624  27.124  1.00  0.00    -0.292 OA
ATOM     99  C   UNL A   1      34.962  22.892  27.136  1.00  0.00     0.001 A 
ATOM    100  C   UNL A   1      32.587  22.614  27.494  1.00  0.00     0.012 A 
ATOM    101  C   UNL A   1      33.896  22.165  27.667  1.00  0.00     0.001 A 
ENDBRANCH  80  88
ENDBRANCH  77  80
ENDBRANCH  75  76
ENDBRANCH  74  75
ENDBRANCH  73  74
ENDBRANCH   1  73
TORSDOF 16
ENDMDL
MODEL 2
REMARK VINA RESULT:     -12.9      5.502     10.648
REMARK SMILES O=C(NCCCCCCNC(=O)[C@@H](Cc1ccccc1)/N=C1\C(=O)c2ccccc2C(=O)[C@H]1Cl)c1ccc(-c2c3nc(c(-c4c(F)c(F)c(F)c(F)c4F)c4ccc([nH]4)c(-c4c(F)c(F)c(F)c(F)c4F)c4nc(c(-c5c(F)c(F)c(F)c(F)c5F)c5ccc2[nH]5)C=C4)C=C3)cc1
REMARK SMILES IDX 6 1 5 2 4 3 3 4 1 5 2 6 35 8 36 9 97 10 37 11 96 12 38 13
REMARK SMILES IDX 39 14 40 15 90 16 41 17 95 18 89 19 91 20 42 21 94 22 88 23
REMARK SMILES IDX 87 24 43 26 75 27 55 28 74 29 56 30 59 31 73 32 92 33 57 34
REMARK SMILES IDX 58 35 72 37 93 38 60 39 44 40 45 41 53 42 46 43 47 44 51 45
REMARK SMILES IDX 54 46 48 47 49 48 52 49 50 50 76 51 77 52 85 53 78 54 79 55
REMARK SMILES IDX 83 56 86 57 80 58 81 59 84 60 82 61 61 62 62 63 70 64 63 65
REMARK SMILES IDX 64 66 68 67 71 68 65 69 66 70 69 71 67 72 7 73 8 74 9 75
REMARK SMILES IDX 10 76 11 77 12 79 13 80 14 81 15 82 16 83 20 84 17 85 19 86
REMARK SMILES IDX 18 87 21 88 22 89 23 90 33 91 24 92 25 93 31 94 34 95 26 96
REMARK SMILES IDX 30 97 32 98 27 99 29 100 28 101
REMARK H PARENT 3 7 91 25 59 36 10 78
REMARK Flexibility Score: inf
ROOT
ATOM      1  C   UNL A   1      36.945  20.928  24.589  1.00  0.00     0.002 C 
ENDROOT
BRANCH   1   2
ATOM      2  C   UNL A   1      37.951  19.841  24.987  1.00  0.00     0.021 C 
BRANCH   2   3
ATOM      3  C   UNL A   1      39.195  20.327  25.723  1.00  0.00     0.116 C 
BRANCH   3   4
ATOM      4  N   UNL A   1      40.148  19.255  25.920  1.00  0.00    -0.352 N 
ATOM      5  O   UNL A   1      42.139  18.234  25.985  1.00  0.00    -0.269 OA
ATOM      6  C   UNL A   1      41.510  19.286  26.075  1.00  0.00     0.251 C 
ATOM      7  H   UNL A   1      39.753  18.354  25.948  1.00  0.00     0.163 HD
BRANCH   6   8
ATOM      8  C   UNL A   1      42.251  20.543  26.360  1.00  0.00     0.039 A 
ATOM      9  C   UNL A   1      42.749  21.366  25.345  1.00  0.00     0.014 A 
ATOM     10  C   UNL A   1      42.294  20.988  27.688  1.00  0.00     0.014 A 
ATOM     11  C   UNL A   1      43.312  22.609  25.659  1.00  0.00     0.010 A 
ATOM     12  C   UNL A   1      42.814  22.249  27.998  1.00  0.00     0.010 A 
ATOM     13  C   UNL A   1      43.314  23.076  26.984  1.00  0.00    -0.014 A 
BRANCH  13  14
ATOM     14  C   UNL A   1      43.667  24.488  27.278  1.00  0.00     0.031 A 
ATOM     15  C   UNL A   1      42.636  25.497  27.681  1.00  0.00     0.074 A 
ATOM     16  C   UNL A   1      44.949  24.873  27.116  1.00  0.00     0.049 A 
ATOM     17  N   UNL A   1      42.802  26.759  27.991  1.00  0.00    -0.248 NA
ATOM     18  C   UNL A   1      41.239  25.043  27.737  1.00  0.00     0.031 C 
ATOM     19  C   UNL A   1      46.041  24.004  26.674  1.00  0.00     0.029 A 
ATOM     20  N   UNL A   1      45.547  26.095  27.295  1.00  0.00    -0.354 N 
ATOM     21  C   UNL A   1      41.537  27.253  28.269  1.00  0.00     0.074 A 
ATOM     22  C   UNL A   1      40.606  26.160  28.078  1.00  0.00     0.031 C 
ATOM     23  C   UNL A   1      47.178  24.715  26.630  1.00  0.00     0.029 A 
ATOM     24  C   UNL A   1      46.891  26.093  27.018  1.00  0.00     0.049 A 
ATOM     25  H   UNL A   1      45.058  26.897  27.592  1.00  0.00     0.167 HD
ATOM     26  C   UNL A   1      41.191  28.503  28.661  1.00  0.00     0.037 A 
ATOM     27  C   UNL A   1      47.794  27.088  27.057  1.00  0.00     0.037 A 
ATOM     28  C   UNL A   1      42.118  29.575  28.904  1.00  0.00     0.049 A 
ATOM     29  C   UNL A   1      47.365  28.473  27.430  1.00  0.00     0.074 A 
ATOM     30  C   UNL A   1      41.894  30.794  29.522  1.00  0.00     0.029 A 
ATOM     31  N   UNL A   1      43.445  29.566  28.510  1.00  0.00    -0.354 N 
ATOM     32  N   UNL A   1      46.188  28.890  27.820  1.00  0.00    -0.248 NA
ATOM     33  C   UNL A   1      48.385  29.528  27.347  1.00  0.00     0.031 C 
ATOM     34  C   UNL A   1      43.080  31.540  29.465  1.00  0.00     0.029 A 
ATOM     35  C   UNL A   1      44.038  30.779  28.819  1.00  0.00     0.049 A 
ATOM     36  H   UNL A   1      43.901  28.808  28.077  1.00  0.00     0.167 HD
ATOM     37  C   UNL A   1      46.323  30.251  28.039  1.00  0.00     0.074 A 
ATOM     38  C   UNL A   1      47.696  30.596  27.728  1.00  0.00     0.031 C 
ATOM     39  C   UNL A   1      45.389  31.129  28.474  1.00  0.00     0.037 A 
BRANCH  26  40
ATOM     40  C   UNL A   1      39.738  28.781  28.873  1.00  0.00     0.064 A 
ATOM     41  C   UNL A   1      39.142  28.598  30.127  1.00  0.00     0.173 A 
ATOM     42  C   UNL A   1      38.952  29.287  27.830  1.00  0.00     0.173 A 
ATOM     43  F   UNL A   1      39.858  28.108  31.150  1.00  0.00    -0.203 F 
ATOM     44  C   UNL A   1      37.801  28.913  30.329  1.00  0.00     0.198 A 
ATOM     45  C   UNL A   1      37.613  29.604  28.036  1.00  0.00     0.198 A 
ATOM     46  F   UNL A   1      39.484  29.472  26.611  1.00  0.00    -0.203 F 
ATOM     47  F   UNL A   1      37.245  28.725  31.535  1.00  0.00    -0.200 F 
ATOM     48  C   UNL A   1      37.040  29.418  29.286  1.00  0.00     0.200 A 
ATOM     49  F   UNL A   1      36.875  30.085  27.027  1.00  0.00    -0.200 F 
ATOM     50  F   UNL A   1      35.749  29.720  29.483  1.00  0.00    -0.200 F 
ENDBRANCH  26  40
BRANCH  27  51
ATOM     51  C   UNL A   1      49.203  26.800  26.713  1.00  0.00     0.064 A 
ATOM     52  C   UNL A   1      49.644  26.874  25.387  1.00  0.00     0.173 A 
ATOM     53  C   UNL A   1      50.136  26.484  27.708  1.00  0.00     0.173 A 
ATOM     54  F   UNL A   1      48.775  27.166  24.408  1.00  0.00    -0.203 F 
ATOM     55  C   UNL A   1      50.977  26.643  25.067  1.00  0.00     0.198 A 
ATOM     56  C   UNL A   1      51.470  26.257  27.386  1.00  0.00     0.198 A 
ATOM     57  F   UNL A   1      49.748  26.399  28.989  1.00  0.00    -0.203 F 
ATOM     58  F   UNL A   1      51.380  26.715  23.791  1.00  0.00    -0.200 F 
ATOM     59  C   UNL A   1      51.891  26.338  26.066  1.00  0.00     0.200 A 
ATOM     60  F   UNL A   1      52.350  25.961  28.352  1.00  0.00    -0.200 F 
ATOM     61  F   UNL A   1      53.176  26.119  25.756  1.00  0.00    -0.200 F 
ENDBRANCH  27  51
BRANCH  39  62
ATOM     62  C   UNL A   1      45.816  32.553  28.626  1.00  0.00     0.064 A 
ATOM     63  C   UNL A   1      46.431  32.995  29.804  1.00  0.00     0.173 A 
ATOM     64  C   UNL A   1      45.616  33.476  27.591  1.00  0.00     0.173 A 
ATOM     65  F   UNL A   1      46.621  32.148  30.825  1.00  0.00    -0.203 F 
ATOM     66  C   UNL A   1      46.830  34.322  29.942  1.00  0.00     0.198 A 
ATOM     67  C   UNL A   1      46.022  34.800  27.730  1.00  0.00     0.198 A 
ATOM     68  F   UNL A   1      45.022  33.094  26.450  1.00  0.00    -0.203 F 
ATOM     69  F   UNL A   1      47.399  34.733  31.083  1.00  0.00    -0.200 F 
ATOM     70  C   UNL A   1      46.626  35.222  28.906  1.00  0.00     0.200 A 
ATOM     71  F   UNL A   1      45.819  35.670  26.732  1.00  0.00    -0.200 F 
ATOM     72  F   UNL A   1      47.004  36.500  29.044  1.00  0.00    -0.200 F 
ENDBRANCH  39  62
ENDBRANCH  13  14
ENDBRANCH   6   8
ENDBRANCH   3   4
ENDBRANCH   2   3
ENDBRANCH   1   2
BRANCH   1  73
ATOM     73  C   UNL A   1      35.656  21.020  25.421  1.00  0.00     0.002 C 
BRANCH  73  74
ATOM     74  C   UNL A   1      34.493  20.119  24.993  1.00  0.00     0.021 C 
BRANCH  74  75
ATOM     75  C   UNL A   1      33.317  20.064  25.962  1.00  0.00     0.116 C 
BRANCH  75  76
ATOM     76  N   UNL A   1      33.286  21.167  26.887  1.00  0.00    -0.354 N 
ATOM     77  C   UNL A   1      32.438  22.229  26.938  1.00  0.00     0.245 C 
ATOM     78  H   UNL A   1      33.981  21.150  27.584  1.00  0.00     0.163 HD
ATOM     79  O   UNL A   1      32.366  22.818  28.025  1.00  0.00    -0.273 OA
BRANCH  77  80
ATOM     80  C   UNL A   1      31.660  22.763  25.727  1.00  0.00     0.199 C 
BRANCH  80  81
ATOM     81  C   UNL A   1      30.490  23.740  25.981  1.00  0.00     0.073 C 
BRANCH  81  82
ATOM     82  C   UNL A   1      30.473  25.124  25.363  1.00  0.00    -0.045 A 
ATOM     83  C   UNL A   1      30.041  25.349  24.049  1.00  0.00     0.004 A 
ATOM     84  C   UNL A   1      30.807  26.238  26.149  1.00  0.00     0.004 A 
ATOM     85  C   UNL A   1      30.035  26.637  23.508  1.00  0.00     0.000 A 
ATOM     86  C   UNL A   1      30.791  27.527  25.613  1.00  0.00     0.000 A 
ATOM     87  C   UNL A   1      30.420  27.725  24.287  1.00  0.00     0.000 A 
ENDBRANCH  81  82
ENDBRANCH  80  81
BRANCH  80  88
ATOM     88  N   UNL A   1      32.360  22.998  24.463  1.00  0.00    -0.270 NA
ATOM     89  C   UNL A   1      33.272  23.798  24.068  1.00  0.00     0.109 C 
ATOM     90  C   UNL A   1      33.928  24.916  24.826  1.00  0.00     0.209 C 
ATOM     91  C   UNL A   1      33.660  23.779  22.614  1.00  0.00     0.205 C 
ATOM     92  O   UNL A   1      34.474  24.732  25.896  1.00  0.00    -0.287 OA
ATOM     93  C   UNL A   1      33.900  26.237  24.161  1.00  0.00     0.035 A 
ATOM     94  C   UNL A   1      33.407  25.118  21.964  1.00  0.00     0.187 C 
ATOM     95  Cl  UNL A   1      35.386  23.388  22.456  1.00  0.00    -0.107 Cl
ATOM     96  C   UNL A   1      34.173  27.391  24.903  1.00  0.00     0.013 A 
ATOM     97  C   UNL A   1      33.591  26.335  22.800  1.00  0.00     0.031 A 
ATOM     98  O   UNL A   1      33.091  25.235  20.783  1.00  0.00    -0.292 OA
ATOM     99  C   UNL A   1      34.081  28.646  24.298  1.00  0.00     0.001 A 
ATOM    100  C   UNL A   1      33.498  27.598  22.199  1.00  0.00     0.012 A 
ATOM    101  C   UNL A   1      33.733  28.749  22.952  1.00  0.00     0.001 A 
ENDBRANCH  80  88
ENDBRANCH  77  80
ENDBRANCH  75  76
ENDBRANCH  74  75
ENDBRANCH  73  74
ENDBRANCH   1  73
TORSDOF 16
ENDMDL
MODEL 3
REMARK VINA RESULT:     -12.9      5.536     10.629
REMARK SMILES O=C(NCCCCCCNC(=O)[C@@H](Cc1ccccc1)/N=C1\C(=O)c2ccccc2C(=O)[C@H]1Cl)c1ccc(-c2c3nc(c(-c4c(F)c(F)c(F)c(F)c4F)c4ccc([nH]4)c(-c4c(F)c(F)c(F)c(F)c4F)c4nc(c(-c5c(F)c(F)c(F)c(F)c5F)c5ccc2[nH]5)C=C4)C=C3)cc1
REMARK SMILES IDX 6 1 5 2 4 3 3 4 1 5 2 6 35 8 36 9 97 10 37 11 96 12 38 13
REMARK SMILES IDX 39 14 40 15 90 16 41 17 95 18 89 19 91 20 42 21 94 22 88 23
REMARK SMILES IDX 87 24 43 26 75 27 55 28 74 29 56 30 59 31 73 32 92 33 57 34
REMARK SMILES IDX 58 35 72 37 93 38 60 39 44 40 45 41 53 42 46 43 47 44 51 45
REMARK SMILES IDX 54 46 48 47 49 48 52 49 50 50 76 51 77 52 85 53 78 54 79 55
REMARK SMILES IDX 83 56 86 57 80 58 81 59 84 60 82 61 61 62 62 63 70 64 63 65
REMARK SMILES IDX 64 66 68 67 71 68 65 69 66 70 69 71 67 72 7 73 8 74 9 75
REMARK SMILES IDX 10 76 11 77 12 79 13 80 14 81 15 82 16 83 20 84 17 85 19 86
REMARK SMILES IDX 18 87 21 88 22 89 23 90 33 91 24 92 25 93 31 94 34 95 26 96
REMARK SMILES IDX 30 97 32 98 27 99 29 100 28 101
REMARK H PARENT 3 7 91 25 59 36 10 78
REMARK Flexibility Score: inf
ROOT
ATOM      1  C   UNL A   1      37.233  21.006  24.586  1.00  0.00     0.002 C 
ENDROOT
BRANCH   1   2
ATOM      2  C   UNL A   1      38.179  19.861  24.968  1.00  0.00     0.021 C 
BRANCH   2   3
ATOM      3  C   UNL A   1      39.299  20.222  25.938  1.00  0.00     0.116 C 
BRANCH   3   4
ATOM      4  N   UNL A   1      40.289  19.169  26.023  1.00  0.00    -0.352 N 
ATOM      5  O   UNL A   1      42.305  18.201  25.907  1.00  0.00    -0.269 OA
ATOM      6  C   UNL A   1      41.657  19.232  26.086  1.00  0.00     0.251 C 
ATOM      7  H   UNL A   1      39.919  18.258  26.037  1.00  0.00     0.163 HD
BRANCH   6   8
ATOM      8  C   UNL A   1      42.384  20.495  26.375  1.00  0.00     0.039 A 
ATOM      9  C   UNL A   1      42.979  21.266  25.371  1.00  0.00     0.014 A 
ATOM     10  C   UNL A   1      42.317  21.002  27.681  1.00  0.00     0.014 A 
ATOM     11  C   UNL A   1      43.526  22.518  25.675  1.00  0.00     0.010 A 
ATOM     12  C   UNL A   1      42.823  22.273  27.976  1.00  0.00     0.010 A 
ATOM     13  C   UNL A   1      43.418  23.047  26.971  1.00  0.00    -0.014 A 
BRANCH  13  14
ATOM     14  C   UNL A   1      43.761  24.469  27.229  1.00  0.00     0.031 A 
ATOM     15  C   UNL A   1      42.728  25.472  27.642  1.00  0.00     0.074 A 
ATOM     16  C   UNL A   1      45.032  24.867  27.024  1.00  0.00     0.049 A 
ATOM     17  N   UNL A   1      42.886  26.741  27.925  1.00  0.00    -0.248 NA
ATOM     18  C   UNL A   1      41.340  25.001  27.746  1.00  0.00     0.031 C 
ATOM     19  C   UNL A   1      46.123  24.004  26.568  1.00  0.00     0.029 A 
ATOM     20  N   UNL A   1      45.618  26.100  27.164  1.00  0.00    -0.354 N 
ATOM     21  C   UNL A   1      41.623  27.225  28.229  1.00  0.00     0.074 A 
ATOM     22  C   UNL A   1      40.702  26.116  28.084  1.00  0.00     0.031 C 
ATOM     23  C   UNL A   1      47.249  24.729  26.479  1.00  0.00     0.029 A 
ATOM     24  C   UNL A   1      46.954  26.109  26.850  1.00  0.00     0.049 A 
ATOM     25  H   UNL A   1      45.128  26.900  27.460  1.00  0.00     0.167 HD
ATOM     26  C   UNL A   1      41.271  28.477  28.607  1.00  0.00     0.037 A 
ATOM     27  C   UNL A   1      47.845  27.117  26.844  1.00  0.00     0.037 A 
ATOM     28  C   UNL A   1      42.190  29.565  28.804  1.00  0.00     0.049 A 
ATOM     29  C   UNL A   1      47.408  28.503  27.204  1.00  0.00     0.074 A 
ATOM     30  C   UNL A   1      41.967  30.793  29.405  1.00  0.00     0.029 A 
ATOM     31  N   UNL A   1      43.506  29.565  28.373  1.00  0.00    -0.354 N 
ATOM     32  N   UNL A   1      46.237  28.912  27.619  1.00  0.00    -0.248 NA
ATOM     33  C   UNL A   1      48.412  29.569  27.072  1.00  0.00     0.031 C 
ATOM     34  C   UNL A   1      43.141  31.553  29.301  1.00  0.00     0.029 A 
ATOM     35  C   UNL A   1      44.091  30.792  28.643  1.00  0.00     0.049 A 
ATOM     36  H   UNL A   1      43.960  28.806  27.942  1.00  0.00     0.167 HD
ATOM     37  C   UNL A   1      46.360  30.279  27.809  1.00  0.00     0.074 A 
ATOM     38  C   UNL A   1      47.718  30.635  27.453  1.00  0.00     0.031 C 
ATOM     39  C   UNL A   1      45.427  31.153  28.254  1.00  0.00     0.037 A 
BRANCH  26  40
ATOM     40  C   UNL A   1      39.821  28.740  28.855  1.00  0.00     0.064 A 
ATOM     41  C   UNL A   1      39.255  28.539  30.120  1.00  0.00     0.173 A 
ATOM     42  C   UNL A   1      39.008  29.251  27.835  1.00  0.00     0.173 A 
ATOM     43  F   UNL A   1      39.998  28.044  31.121  1.00  0.00    -0.203 F 
ATOM     44  C   UNL A   1      37.917  28.840  30.355  1.00  0.00     0.198 A 
ATOM     45  C   UNL A   1      37.671  29.554  28.074  1.00  0.00     0.198 A 
ATOM     46  F   UNL A   1      39.510  29.453  26.607  1.00  0.00    -0.203 F 
ATOM     47  F   UNL A   1      37.389  28.634  31.571  1.00  0.00    -0.200 F 
ATOM     48  C   UNL A   1      37.127  29.350  29.334  1.00  0.00     0.200 A 
ATOM     49  F   UNL A   1      36.906  30.039  27.087  1.00  0.00    -0.200 F 
ATOM     50  F   UNL A   1      35.839  29.638  29.564  1.00  0.00    -0.200 F 
ENDBRANCH  26  40
BRANCH  27  51
ATOM     51  C   UNL A   1      49.247  26.840  26.467  1.00  0.00     0.064 A 
ATOM     52  C   UNL A   1      50.183  26.452  27.433  1.00  0.00     0.173 A 
ATOM     53  C   UNL A   1      49.663  26.922  25.132  1.00  0.00     0.173 A 
ATOM     54  F   UNL A   1      49.821  26.372  28.721  1.00  0.00    -0.203 F 
ATOM     55  C   UNL A   1      51.493  26.152  27.073  1.00  0.00     0.198 A 
ATOM     56  C   UNL A   1      50.973  26.618  24.775  1.00  0.00     0.198 A 
ATOM     57  F   UNL A   1      48.795  27.296  24.181  1.00  0.00    -0.203 F 
ATOM     58  F   UNL A   1      52.376  25.786  28.013  1.00  0.00    -0.200 F 
ATOM     59  C   UNL A   1      51.887  26.232  25.745  1.00  0.00     0.200 A 
ATOM     60  F   UNL A   1      51.351  26.698  23.492  1.00  0.00    -0.200 F 
ATOM     61  F   UNL A   1      53.149  25.940  25.401  1.00  0.00    -0.200 F 
ENDBRANCH  27  51
BRANCH  39  62
ATOM     62  C   UNL A   1      45.838  32.584  28.366  1.00  0.00     0.064 A 
ATOM     63  C   UNL A   1      45.597  33.484  27.320  1.00  0.00     0.173 A 
ATOM     64  C   UNL A   1      46.469  33.061  29.523  1.00  0.00     0.173 A 
ATOM     65  F   UNL A   1      45.014  33.062  26.189  1.00  0.00    -0.203 F 
ATOM     66  C   UNL A   1      45.979  34.818  27.427  1.00  0.00     0.198 A 
ATOM     67  C   UNL A   1      46.845  34.397  29.630  1.00  0.00     0.198 A 
ATOM     68  F   UNL A   1      46.727  32.229  30.543  1.00  0.00    -0.203 F 
ATOM     69  F   UNL A   1      45.760  35.661  26.409  1.00  0.00    -0.200 F 
ATOM     70  C   UNL A   1      46.602  35.273  28.581  1.00  0.00     0.200 A 
ATOM     71  F   UNL A   1      47.452  34.834  30.741  1.00  0.00    -0.200 F 
ATOM     72  F   UNL A   1      46.976  36.556  28.680  1.00  0.00    -0.200 F 
ENDBRANCH  39  62
ENDBRANCH  13  14
ENDBRANCH   6   8
ENDBRANCH   3   4
ENDBRANCH   2   3
ENDBRANCH   1   2
BRANCH   1  73
ATOM     73  C   UNL A   1      36.965  22.073  25.661  1.00  0.00     0.002 C 
BRANCH  73  74
ATOM     74  C   UNL A   1      36.982  23.534  25.200  1.00  0.00     0.021 C 
BRANCH  74  75
ATOM     75  C   UNL A   1      35.626  24.117  24.821  1.00  0.00     0.116 C 
BRANCH  75  76
ATOM     76  N   UNL A   1      35.079  23.554  23.614  1.00  0.00    -0.354 N 
ATOM     77  C   UNL A   1      33.850  23.014  23.391  1.00  0.00     0.245 C 
ATOM     78  H   UNL A   1      35.683  23.562  22.836  1.00  0.00     0.163 HD
ATOM     79  O   UNL A   1      33.485  22.959  22.209  1.00  0.00    -0.273 OA
BRANCH  77  80
ATOM     80  C   UNL A   1      32.968  22.411  24.492  1.00  0.00     0.199 C 
BRANCH  80  81
ATOM     81  C   UNL A   1      33.427  21.094  25.158  1.00  0.00     0.073 C 
BRANCH  81  82
ATOM     82  C   UNL A   1      33.362  19.774  24.417  1.00  0.00    -0.045 A 
ATOM     83  C   UNL A   1      32.404  19.520  23.427  1.00  0.00     0.004 A 
ATOM     84  C   UNL A   1      34.344  18.799  24.652  1.00  0.00     0.004 A 
ATOM     85  C   UNL A   1      32.370  18.293  22.760  1.00  0.00     0.000 A 
ATOM     86  C   UNL A   1      34.319  17.576  23.978  1.00  0.00     0.000 A 
ATOM     87  C   UNL A   1      33.322  17.316  23.043  1.00  0.00     0.000 A 
ENDBRANCH  81  82
ENDBRANCH  80  81
BRANCH  80  88
ATOM     88  N   UNL A   1      32.220  23.295  25.388  1.00  0.00    -0.270 NA
ATOM     89  C   UNL A   1      31.342  24.207  25.235  1.00  0.00     0.109 C 
ATOM     90  C   UNL A   1      30.801  24.778  23.955  1.00  0.00     0.209 C 
ATOM     91  C   UNL A   1      30.879  24.967  26.448  1.00  0.00     0.205 C 
ATOM     92  O   UNL A   1      30.300  24.074  23.100  1.00  0.00    -0.287 OA
ATOM     93  C   UNL A   1      30.879  26.250  23.832  1.00  0.00     0.035 A 
ATOM     94  C   UNL A   1      31.185  26.439  26.320  1.00  0.00     0.187 C 
ATOM     95  Cl  UNL A   1      29.125  24.765  26.652  1.00  0.00    -0.107 Cl
ATOM     96  C   UNL A   1      30.720  26.849  22.578  1.00  0.00     0.013 A 
ATOM     97  C   UNL A   1      31.124  27.040  24.960  1.00  0.00     0.031 A 
ATOM     98  O   UNL A   1      31.445  27.151  27.286  1.00  0.00    -0.292 OA
ATOM     99  C   UNL A   1      30.862  28.231  22.442  1.00  0.00     0.001 A 
ATOM    100  C   UNL A   1      31.267  28.427  24.818  1.00  0.00     0.012 A 
ATOM    101  C   UNL A   1      31.146  29.016  23.559  1.00  0.00     0.001 A 
ENDBRANCH  80  88
ENDBRANCH  77  80
ENDBRANCH  75  76
ENDBRANCH  74  75
ENDBRANCH  73  74
ENDBRANCH   1  73
TORSDOF 16
ENDMDL
