MODEL 1
REMARK VINA RESULT:     -12.9      0.000      0.000
REMARK SMILES Cc1cccc(-n2ncc(C(=O)Nc3cccc(C(=O)NCCCCCCNC(=O)c4ccc(-c5c6nc(c(-c7c(F)c(F)c(F)c(F)c7F)c7ccc([nH]7)c(-c7c(F)c(F)c(F)c(F)c7F)c7nc(c(-c8c(F)c(F)c(F)c(F)c8F)c8ccc5[nH]8)C=C7)C=C6)cc4)c3C)c2C)c1
REMARK SMILES IDX 24 1 23 2 22 3 21 4 19 5 20 6 18 8 14 9 15 10 94 11 16 12
REMARK SMILES IDX 95 13 17 14 13 15 11 16 12 17 10 19 7 20 8 21 96 22 9 23
REMARK SMILES IDX 97 24 6 25 1 26 2 27 3 28 98 29 4 30 5 31 25 32 26 33 27 34
REMARK SMILES IDX 28 35 29 36 30 38 31 39 32 40 93 41 33 42 92 43 34 44 35 45
REMARK SMILES IDX 36 46 86 47 37 48 91 49 85 50 87 51 38 52 90 53 84 54 83 55
REMARK SMILES IDX 39 57 71 58 51 59 70 60 52 61 55 62 69 63 88 64 53 65 54 66
REMARK SMILES IDX 68 68 89 69 56 70 40 71 41 72 49 73 42 74 43 75 47 76 50 77
REMARK SMILES IDX 44 78 45 79 48 80 46 81 72 82 73 83 81 84 74 85 75 86 79 87
REMARK SMILES IDX 82 88 76 89 77 90 80 91 78 92 57 93 58 94 66 95 59 96 60 97
REMARK SMILES IDX 64 98 67 99 61 100 62 101 65 102 63 103
REMARK H PARENT 21 7 13 18 28 37 87 56 55 67
REMARK Flexibility Score: inf
ROOT
ATOM      1  C   UNL A   1      33.841  28.347  25.609  1.00  0.00     0.002 C 
ENDROOT
BRANCH   1   2
ATOM      2  C   UNL A   1      32.912  29.139  24.687  1.00  0.00     0.021 C 
BRANCH   2   3
ATOM      3  C   UNL A   1      32.585  28.583  23.306  1.00  0.00     0.116 C 
BRANCH   3   4
ATOM      4  N   UNL A   1      31.210  28.188  23.076  1.00  0.00    -0.352 N 
ATOM      5  C   UNL A   1      30.432  27.209  23.669  1.00  0.00     0.251 C 
ATOM      6  O   UNL A   1      29.225  27.248  23.435  1.00  0.00    -0.269 OA
ATOM      7  H   UNL A   1      30.750  28.705  22.376  1.00  0.00     0.163 HD
BRANCH   5   8
ATOM      8  C   UNL A   1      30.989  26.127  24.562  1.00  0.00     0.044 A 
ATOM      9  C   UNL A   1      31.767  23.861  24.965  1.00  0.00     0.045 A 
ATOM     10  C   UNL A   1      31.957  24.150  26.320  1.00  0.00     0.026 A 
ATOM     11  C   UNL A   1      31.431  24.879  24.041  1.00  0.00    -0.015 A 
ATOM     12  C   UNL A   1      31.540  25.366  26.823  1.00  0.00     0.003 A 
ATOM     13  C   UNL A   1      31.394  24.550  22.568  1.00  0.00     0.047 C 
ATOM     14  C   UNL A   1      30.964  26.292  25.959  1.00  0.00     0.014 A 
BRANCH   9  15
ATOM     15  N   UNL A   1      31.778  22.513  24.566  1.00  0.00    -0.322 N 
ATOM     16  C   UNL A   1      32.827  21.807  23.993  1.00  0.00     0.259 C 
ATOM     17  O   UNL A   1      32.576  20.717  23.484  1.00  0.00    -0.269 OA
ATOM     18  H   UNL A   1      30.944  22.011  24.709  1.00  0.00     0.170 HD
BRANCH  16  19
ATOM     19  C   UNL A   1      34.207  22.308  24.095  1.00  0.00     0.081 A 
ATOM     20  N   UNL A   1      36.269  22.772  24.836  1.00  0.00    -0.237 N 
ATOM     21  N   UNL A   1      36.153  23.454  23.672  1.00  0.00    -0.175 NA
ATOM     22  C   UNL A   1      35.062  22.178  25.191  1.00  0.00     0.054 A 
ATOM     23  C   UNL A   1      34.928  23.171  23.241  1.00  0.00     0.149 A 
ATOM     24  C   UNL A   1      34.737  21.681  26.557  1.00  0.00     0.068 C 
BRANCH  20  25
ATOM     25  C   UNL A   1      37.502  22.816  25.538  1.00  0.00     0.065 A 
ATOM     26  C   UNL A   1      39.250  25.225  27.916  1.00  0.00     0.044 C 
ATOM     27  C   UNL A   1      38.972  24.029  27.053  1.00  0.00    -0.049 A 
ATOM     28  C   UNL A   1      39.832  22.926  27.075  1.00  0.00     0.003 A 
ATOM     29  C   UNL A   1      37.826  23.981  26.252  1.00  0.00     0.031 A 
ATOM     30  C   UNL A   1      39.550  21.792  26.312  1.00  0.00     0.002 A 
ATOM     31  C   UNL A   1      38.382  21.729  25.547  1.00  0.00     0.028 A 
ENDBRANCH  20  25
ENDBRANCH  16  19
ENDBRANCH   9  15
ENDBRANCH   5   8
ENDBRANCH   3   4
ENDBRANCH   2   3
ENDBRANCH   1   2
BRANCH   1  32
ATOM     32  C   UNL A   1      34.098  28.865  27.029  1.00  0.00     0.002 C 
BRANCH  32  33
ATOM     33  C   UNL A   1      35.286  29.800  27.250  1.00  0.00     0.021 C 
BRANCH  33  34
ATOM     34  C   UNL A   1      35.320  30.519  28.591  1.00  0.00     0.116 C 
BRANCH  34  35
ATOM     35  N   UNL A   1      34.388  31.639  28.710  1.00  0.00    -0.352 N 
ATOM     36  C   UNL A   1      34.532  32.823  29.421  1.00  0.00     0.251 C 
ATOM     37  H   UNL A   1      33.542  31.541  28.216  1.00  0.00     0.163 HD
ATOM     38  O   UNL A   1      33.644  33.665  29.433  1.00  0.00    -0.269 OA
BRANCH  36  39
ATOM     39  C   UNL A   1      35.846  33.124  30.036  1.00  0.00     0.039 A 
ATOM     40  C   UNL A   1      36.795  33.761  29.230  1.00  0.00     0.014 A 
ATOM     41  C   UNL A   1      36.230  32.474  31.202  1.00  0.00     0.014 A 
ATOM     42  C   UNL A   1      38.140  33.461  29.410  1.00  0.00     0.010 A 
ATOM     43  C   UNL A   1      37.542  32.071  31.308  1.00  0.00     0.010 A 
ATOM     44  C   UNL A   1      38.476  32.498  30.357  1.00  0.00    -0.014 A 
BRANCH  44  45
ATOM     45  C   UNL A   1      39.786  31.878  30.441  1.00  0.00     0.031 A 
ATOM     46  C   UNL A   1      39.978  30.562  29.814  1.00  0.00     0.074 A 
ATOM     47  C   UNL A   1      40.827  32.535  31.000  1.00  0.00     0.049 A 
ATOM     48  N   UNL A   1      40.943  29.756  30.092  1.00  0.00    -0.248 NA
ATOM     49  C   UNL A   1      39.032  30.022  28.849  1.00  0.00     0.031 C 
ATOM     50  C   UNL A   1      42.242  32.186  30.919  1.00  0.00     0.029 A 
ATOM     51  N   UNL A   1      40.783  33.578  31.936  1.00  0.00    -0.354 N 
ATOM     52  C   UNL A   1      40.916  28.738  29.168  1.00  0.00     0.074 A 
ATOM     53  C   UNL A   1      39.655  28.900  28.484  1.00  0.00     0.031 C 
ATOM     54  C   UNL A   1      42.889  32.750  31.951  1.00  0.00     0.029 A 
ATOM     55  C   UNL A   1      41.888  33.361  32.802  1.00  0.00     0.049 A 
ATOM     56  H   UNL A   1      40.124  34.308  31.984  1.00  0.00     0.167 HD
ATOM     57  C   UNL A   1      42.036  27.971  29.022  1.00  0.00     0.037 A 
ATOM     58  C   UNL A   1      41.686  33.071  34.124  1.00  0.00     0.037 A 
ATOM     59  C   UNL A   1      43.013  28.275  30.077  1.00  0.00     0.049 A 
ATOM     60  C   UNL A   1      42.117  31.673  34.521  1.00  0.00     0.074 A 
ATOM     61  C   UNL A   1      44.167  29.038  30.149  1.00  0.00     0.029 A 
ATOM     62  N   UNL A   1      42.660  28.013  31.392  1.00  0.00    -0.354 N 
ATOM     63  N   UNL A   1      42.654  30.805  33.708  1.00  0.00    -0.248 NA
ATOM     64  C   UNL A   1      41.868  31.111  35.847  1.00  0.00     0.031 C 
ATOM     65  C   UNL A   1      44.480  29.248  31.527  1.00  0.00     0.029 A 
ATOM     66  C   UNL A   1      43.532  28.594  32.293  1.00  0.00     0.049 A 
ATOM     67  H   UNL A   1      41.877  27.475  31.654  1.00  0.00     0.167 HD
ATOM     68  C   UNL A   1      42.771  29.596  34.339  1.00  0.00     0.074 A 
ATOM     69  C   UNL A   1      42.249  29.836  35.675  1.00  0.00     0.031 C 
ATOM     70  C   UNL A   1      43.250  28.476  33.718  1.00  0.00     0.037 A 
BRANCH  57  71
ATOM     71  C   UNL A   1      42.351  27.134  27.794  1.00  0.00     0.064 A 
ATOM     72  C   UNL A   1      42.622  25.754  27.926  1.00  0.00     0.173 A 
ATOM     73  C   UNL A   1      42.487  27.623  26.479  1.00  0.00     0.173 A 
ATOM     74  F   UNL A   1      42.440  25.114  29.087  1.00  0.00    -0.203 F 
ATOM     75  C   UNL A   1      43.096  24.971  26.865  1.00  0.00     0.198 A 
ATOM     76  C   UNL A   1      43.006  26.856  25.431  1.00  0.00     0.198 A 
ATOM     77  F   UNL A   1      42.062  28.837  26.127  1.00  0.00    -0.203 F 
ATOM     78  F   UNL A   1      43.346  23.670  27.061  1.00  0.00    -0.200 F 
ATOM     79  C   UNL A   1      43.323  25.532  25.625  1.00  0.00     0.200 A 
ATOM     80  F   UNL A   1      43.189  27.419  24.226  1.00  0.00    -0.200 F 
ATOM     81  F   UNL A   1      43.814  24.795  24.620  1.00  0.00    -0.200 F 
ENDBRANCH  57  71
BRANCH  58  82
ATOM     82  C   UNL A   1      40.500  33.802  34.658  1.00  0.00     0.064 A 
ATOM     83  C   UNL A   1      39.340  33.032  34.882  1.00  0.00     0.173 A 
ATOM     84  C   UNL A   1      40.665  34.968  35.413  1.00  0.00     0.173 A 
ATOM     85  F   UNL A   1      39.113  31.932  34.145  1.00  0.00    -0.203 F 
ATOM     86  C   UNL A   1      38.538  33.265  35.993  1.00  0.00     0.198 A 
ATOM     87  C   UNL A   1      39.818  35.233  36.486  1.00  0.00     0.198 A 
ATOM     88  F   UNL A   1      41.723  35.765  35.216  1.00  0.00    -0.203 F 
ATOM     89  F   UNL A   1      37.585  32.381  36.326  1.00  0.00    -0.200 F 
ATOM     90  C   UNL A   1      38.809  34.340  36.822  1.00  0.00     0.200 A 
ATOM     91  F   UNL A   1      40.057  36.293  37.270  1.00  0.00    -0.200 F 
ATOM     92  F   UNL A   1      38.136  34.482  37.973  1.00  0.00    -0.200 F 
ENDBRANCH  58  82
BRANCH  70  93
ATOM     93  C   UNL A   1      43.457  27.160  34.429  1.00  0.00     0.064 A 
ATOM     94  C   UNL A   1      44.736  26.656  34.726  1.00  0.00     0.173 A 
ATOM     95  C   UNL A   1      42.379  26.305  34.753  1.00  0.00     0.173 A 
ATOM     96  F   UNL A   1      45.842  27.311  34.344  1.00  0.00    -0.203 F 
ATOM     97  C   UNL A   1      44.917  25.447  35.401  1.00  0.00     0.198 A 
ATOM     98  C   UNL A   1      42.566  25.070  35.370  1.00  0.00     0.198 A 
ATOM     99  F   UNL A   1      41.108  26.644  34.504  1.00  0.00    -0.203 F 
ATOM    100  F   UNL A   1      46.153  25.053  35.738  1.00  0.00    -0.200 F 
ATOM    101  C   UNL A   1      43.832  24.653  35.721  1.00  0.00     0.200 A 
ATOM    102  F   UNL A   1      41.505  24.292  35.630  1.00  0.00    -0.200 F 
ATOM    103  F   UNL A   1      44.007  23.488  36.358  1.00  0.00    -0.200 F 
ENDBRANCH  70  93
ENDBRANCH  44  45
ENDBRANCH  36  39
ENDBRANCH  34  35
ENDBRANCH  33  34
ENDBRANCH  32  33
ENDBRANCH   1  32
TORSDOF 16
ENDMDL
MODEL 2
REMARK VINA RESULT:     -12.6      4.000     10.105
REMARK SMILES Cc1cccc(-n2ncc(C(=O)Nc3cccc(C(=O)NCCCCCCNC(=O)c4ccc(-c5c6nc(c(-c7c(F)c(F)c(F)c(F)c7F)c7ccc([nH]7)c(-c7c(F)c(F)c(F)c(F)c7F)c7nc(c(-c8c(F)c(F)c(F)c(F)c8F)c8ccc5[nH]8)C=C7)C=C6)cc4)c3C)c2C)c1
REMARK SMILES IDX 24 1 23 2 22 3 21 4 19 5 20 6 18 8 14 9 15 10 94 11 16 12
REMARK SMILES IDX 95 13 17 14 13 15 11 16 12 17 10 19 7 20 8 21 96 22 9 23
REMARK SMILES IDX 97 24 6 25 1 26 2 27 3 28 98 29 4 30 5 31 25 32 26 33 27 34
REMARK SMILES IDX 28 35 29 36 30 38 31 39 32 40 93 41 33 42 92 43 34 44 35 45
REMARK SMILES IDX 36 46 86 47 37 48 91 49 85 50 87 51 38 52 90 53 84 54 83 55
REMARK SMILES IDX 39 57 71 58 51 59 70 60 52 61 55 62 69 63 88 64 53 65 54 66
REMARK SMILES IDX 68 68 89 69 56 70 40 71 41 72 49 73 42 74 43 75 47 76 50 77
REMARK SMILES IDX 44 78 45 79 48 80 46 81 72 82 73 83 81 84 74 85 75 86 79 87
REMARK SMILES IDX 82 88 76 89 77 90 80 91 78 92 57 93 58 94 66 95 59 96 60 97
REMARK SMILES IDX 64 98 67 99 61 100 62 101 65 102 63 103
REMARK H PARENT 21 7 13 18 28 37 87 56 55 67
REMARK Flexibility Score: inf
ROOT
ATOM      1  C   UNL A   1      40.538  19.689  26.613  1.00  0.00     0.002 C 
ENDROOT
BRANCH   1   2
ATOM      2  C   UNL A   1      40.147  21.135  26.305  1.00  0.00     0.021 C 
BRANCH   2   3
ATOM      3  C   UNL A   1      38.763  21.425  25.735  1.00  0.00     0.116 C 
BRANCH   3   4
ATOM      4  N   UNL A   1      38.345  22.811  25.724  1.00  0.00    -0.352 N 
ATOM      5  C   UNL A   1      37.095  23.387  25.874  1.00  0.00     0.251 C 
ATOM      6  O   UNL A   1      37.067  24.604  26.052  1.00  0.00    -0.269 OA
ATOM      7  H   UNL A   1      39.076  23.456  25.587  1.00  0.00     0.163 HD
BRANCH   5   8
ATOM      8  C   UNL A   1      35.805  22.606  25.827  1.00  0.00     0.044 A 
ATOM      9  C   UNL A   1      33.770  21.880  24.714  1.00  0.00     0.045 A 
ATOM     10  C   UNL A   1      33.377  21.177  25.856  1.00  0.00     0.026 A 
ATOM     11  C   UNL A   1      35.052  22.474  24.627  1.00  0.00    -0.015 A 
ATOM     12  C   UNL A   1      34.115  21.295  27.018  1.00  0.00     0.003 A 
ATOM     13  C   UNL A   1      35.491  23.084  23.316  1.00  0.00     0.047 C 
ATOM     14  C   UNL A   1      35.254  22.093  27.015  1.00  0.00     0.014 A 
BRANCH   9  15
ATOM     15  N   UNL A   1      32.811  22.107  23.711  1.00  0.00    -0.322 N 
ATOM     16  C   UNL A   1      31.756  23.008  23.735  1.00  0.00     0.259 C 
ATOM     17  O   UNL A   1      30.880  22.891  22.881  1.00  0.00    -0.269 OA
ATOM     18  H   UNL A   1      32.900  21.563  22.895  1.00  0.00     0.170 HD
BRANCH  16  19
ATOM     19  C   UNL A   1      31.752  24.128  24.691  1.00  0.00     0.081 A 
ATOM     20  N   UNL A   1      32.082  26.120  25.657  1.00  0.00    -0.237 N 
ATOM     21  N   UNL A   1      31.509  25.355  26.617  1.00  0.00    -0.175 NA
ATOM     22  C   UNL A   1      32.369  25.368  24.523  1.00  0.00     0.054 A 
ATOM     23  C   UNL A   1      31.317  24.178  26.033  1.00  0.00     0.149 A 
ATOM     24  C   UNL A   1      33.313  25.788  23.450  1.00  0.00     0.068 C 
BRANCH  20  25
ATOM     25  C   UNL A   1      32.371  27.481  25.945  1.00  0.00     0.065 A 
ATOM     26  C   UNL A   1      35.294  29.441  27.402  1.00  0.00     0.044 C 
ATOM     27  C   UNL A   1      33.955  29.115  26.809  1.00  0.00    -0.049 A 
ATOM     28  C   UNL A   1      33.091  30.139  26.405  1.00  0.00     0.003 A 
ATOM     29  C   UNL A   1      33.570  27.785  26.609  1.00  0.00     0.031 A 
ATOM     30  C   UNL A   1      31.866  29.840  25.807  1.00  0.00     0.002 A 
ATOM     31  C   UNL A   1      31.505  28.511  25.569  1.00  0.00     0.028 A 
ENDBRANCH  20  25
ENDBRANCH  16  19
ENDBRANCH   9  15
ENDBRANCH   5   8
ENDBRANCH   3   4
ENDBRANCH   2   3
ENDBRANCH   1   2
BRANCH   1  32
ATOM     32  C   UNL A   1      41.943  19.398  27.156  1.00  0.00     0.002 C 
BRANCH  32  33
ATOM     33  C   UNL A   1      42.957  18.750  26.214  1.00  0.00     0.021 C 
BRANCH  33  34
ATOM     34  C   UNL A   1      43.401  19.604  25.035  1.00  0.00     0.116 C 
BRANCH  34  35
ATOM     35  N   UNL A   1      44.775  20.097  25.119  1.00  0.00    -0.352 N 
ATOM     36  C   UNL A   1      45.227  21.382  25.391  1.00  0.00     0.251 C 
ATOM     37  H   UNL A   1      45.477  19.426  24.961  1.00  0.00     0.163 HD
ATOM     38  O   UNL A   1      46.422  21.641  25.410  1.00  0.00    -0.269 OA
BRANCH  36  39
ATOM     39  C   UNL A   1      44.241  22.402  25.818  1.00  0.00     0.039 A 
ATOM     40  C   UNL A   1      44.232  23.611  25.116  1.00  0.00     0.014 A 
ATOM     41  C   UNL A   1      43.640  22.304  27.067  1.00  0.00     0.014 A 
ATOM     42  C   UNL A   1      43.927  24.783  25.799  1.00  0.00     0.010 A 
ATOM     43  C   UNL A   1      43.461  23.465  27.784  1.00  0.00     0.010 A 
ATOM     44  C   UNL A   1      43.691  24.702  27.168  1.00  0.00    -0.014 A 
BRANCH  44  45
ATOM     45  C   UNL A   1      43.658  25.857  28.047  1.00  0.00     0.031 A 
ATOM     46  C   UNL A   1      42.405  26.617  28.156  1.00  0.00     0.074 A 
ATOM     47  C   UNL A   1      44.724  26.168  28.818  1.00  0.00     0.049 A 
ATOM     48  N   UNL A   1      42.319  27.821  28.604  1.00  0.00    -0.248 NA
ATOM     49  C   UNL A   1      41.134  26.080  27.694  1.00  0.00     0.031 C 
ATOM     50  C   UNL A   1      44.765  27.104  29.938  1.00  0.00     0.029 A 
ATOM     51  N   UNL A   1      46.067  25.824  28.608  1.00  0.00    -0.354 N 
ATOM     52  C   UNL A   1      40.985  28.117  28.756  1.00  0.00     0.074 A 
ATOM     53  C   UNL A   1      40.295  27.042  28.085  1.00  0.00     0.031 C 
ATOM     54  C   UNL A   1      46.033  27.503  30.126  1.00  0.00     0.029 A 
ATOM     55  C   UNL A   1      46.822  26.946  29.046  1.00  0.00     0.049 A 
ATOM     56  H   UNL A   1      46.415  24.983  28.235  1.00  0.00     0.167 HD
ATOM     57  C   UNL A   1      40.646  29.175  29.549  1.00  0.00     0.037 A 
ATOM     58  C   UNL A   1      47.570  27.667  28.156  1.00  0.00     0.037 A 
ATOM     59  C   UNL A   1      41.842  29.941  29.930  1.00  0.00     0.049 A 
ATOM     60  C   UNL A   1      47.078  29.084  27.943  1.00  0.00     0.074 A 
ATOM     61  C   UNL A   1      42.640  30.007  31.060  1.00  0.00     0.029 A 
ATOM     62  N   UNL A   1      42.568  30.562  28.925  1.00  0.00    -0.354 N 
ATOM     63  N   UNL A   1      46.048  29.609  28.549  1.00  0.00    -0.248 NA
ATOM     64  C   UNL A   1      47.647  29.981  26.939  1.00  0.00     0.031 C 
ATOM     65  C   UNL A   1      43.864  30.654  30.706  1.00  0.00     0.029 A 
ATOM     66  C   UNL A   1      43.801  31.002  29.369  1.00  0.00     0.049 A 
ATOM     67  H   UNL A   1      42.243  30.676  28.002  1.00  0.00     0.167 HD
ATOM     68  C   UNL A   1      45.777  30.839  28.012  1.00  0.00     0.074 A 
ATOM     69  C   UNL A   1      46.798  31.020  26.994  1.00  0.00     0.031 C 
ATOM     70  C   UNL A   1      44.717  31.607  28.409  1.00  0.00     0.037 A 
BRANCH  57  71
ATOM     71  C   UNL A   1      39.279  29.372  30.182  1.00  0.00     0.064 A 
ATOM     72  C   UNL A   1      38.359  30.282  29.616  1.00  0.00     0.173 A 
ATOM     73  C   UNL A   1      38.834  28.775  31.379  1.00  0.00     0.173 A 
ATOM     74  F   UNL A   1      38.585  30.856  28.428  1.00  0.00    -0.203 F 
ATOM     75  C   UNL A   1      37.163  30.642  30.251  1.00  0.00     0.198 A 
ATOM     76  C   UNL A   1      37.665  29.168  32.038  1.00  0.00     0.198 A 
ATOM     77  F   UNL A   1      39.465  27.738  31.931  1.00  0.00    -0.203 F 
ATOM     78  F   UNL A   1      36.340  31.522  29.665  1.00  0.00    -0.200 F 
ATOM     79  C   UNL A   1      36.834  30.112  31.481  1.00  0.00     0.200 A 
ATOM     80  F   UNL A   1      37.353  28.615  33.220  1.00  0.00    -0.200 F 
ATOM     81  F   UNL A   1      35.711  30.485  32.109  1.00  0.00    -0.200 F 
ENDBRANCH  57  71
BRANCH  58  82
ATOM     82  C   UNL A   1      48.159  26.782  27.109  1.00  0.00     0.064 A 
ATOM     83  C   UNL A   1      47.573  26.854  25.828  1.00  0.00     0.173 A 
ATOM     84  C   UNL A   1      49.493  26.371  27.194  1.00  0.00     0.173 A 
ATOM     85  F   UNL A   1      46.279  27.194  25.701  1.00  0.00    -0.203 F 
ATOM     86  C   UNL A   1      48.360  26.793  24.684  1.00  0.00     0.198 A 
ATOM     87  C   UNL A   1      50.262  26.248  26.038  1.00  0.00     0.198 A 
ATOM     88  F   UNL A   1      50.094  26.240  28.384  1.00  0.00    -0.203 F 
ATOM     89  F   UNL A   1      47.829  27.104  23.492  1.00  0.00    -0.200 F 
ATOM     90  C   UNL A   1      49.716  26.537  24.796  1.00  0.00     0.200 A 
ATOM     91  F   UNL A   1      51.568  25.965  26.143  1.00  0.00    -0.200 F 
ATOM     92  F   UNL A   1      50.504  26.627  23.715  1.00  0.00    -0.200 F 
ENDBRANCH  58  82
BRANCH  70  93
ATOM     93  C   UNL A   1      44.457  32.996  27.879  1.00  0.00     0.064 A 
ATOM     94  C   UNL A   1      44.571  34.144  28.683  1.00  0.00     0.173 A 
ATOM     95  C   UNL A   1      43.986  33.222  26.566  1.00  0.00     0.173 A 
ATOM     96  F   UNL A   1      44.876  34.047  29.986  1.00  0.00    -0.203 F 
ATOM     97  C   UNL A   1      44.348  35.427  28.179  1.00  0.00     0.198 A 
ATOM     98  C   UNL A   1      43.703  34.498  26.084  1.00  0.00     0.198 A 
ATOM     99  F   UNL A   1      43.805  32.219  25.697  1.00  0.00    -0.203 F 
ATOM    100  F   UNL A   1      44.554  36.494  28.963  1.00  0.00    -0.200 F 
ATOM    101  C   UNL A   1      43.911  35.603  26.880  1.00  0.00     0.200 A 
ATOM    102  F   UNL A   1      43.236  34.646  24.835  1.00  0.00    -0.200 F 
ATOM    103  F   UNL A   1      43.685  36.833  26.400  1.00  0.00    -0.200 F 
ENDBRANCH  70  93
ENDBRANCH  44  45
ENDBRANCH  36  39
ENDBRANCH  34  35
ENDBRANCH  33  34
ENDBRANCH  32  33
ENDBRANCH   1  32
TORSDOF 16
ENDMDL
MODEL 3
REMARK VINA RESULT:     -12.6      4.046     10.292
REMARK SMILES Cc1cccc(-n2ncc(C(=O)Nc3cccc(C(=O)NCCCCCCNC(=O)c4ccc(-c5c6nc(c(-c7c(F)c(F)c(F)c(F)c7F)c7ccc([nH]7)c(-c7c(F)c(F)c(F)c(F)c7F)c7nc(c(-c8c(F)c(F)c(F)c(F)c8F)c8ccc5[nH]8)C=C7)C=C6)cc4)c3C)c2C)c1
REMARK SMILES IDX 24 1 23 2 22 3 21 4 19 5 20 6 18 8 14 9 15 10 94 11 16 12
REMARK SMILES IDX 95 13 17 14 13 15 11 16 12 17 10 19 7 20 8 21 96 22 9 23
REMARK SMILES IDX 97 24 6 25 1 26 2 27 3 28 98 29 4 30 5 31 25 32 26 33 27 34
REMARK SMILES IDX 28 35 29 36 30 38 31 39 32 40 93 41 33 42 92 43 34 44 35 45
REMARK SMILES IDX 36 46 86 47 37 48 91 49 85 50 87 51 38 52 90 53 84 54 83 55
REMARK SMILES IDX 39 57 71 58 51 59 70 60 52 61 55 62 69 63 88 64 53 65 54 66
REMARK SMILES IDX 68 68 89 69 56 70 40 71 41 72 49 73 42 74 43 75 47 76 50 77
REMARK SMILES IDX 44 78 45 79 48 80 46 81 72 82 73 83 81 84 74 85 75 86 79 87
REMARK SMILES IDX 82 88 76 89 77 90 80 91 78 92 57 93 58 94 66 95 59 96 60 97
REMARK SMILES IDX 64 98 67 99 61 100 62 101 65 102 63 103
REMARK H PARENT 21 7 13 18 28 37 87 56 55 67
REMARK Flexibility Score: inf
ROOT
ATOM      1  C   UNL A   1      40.313  20.002  26.119  1.00  0.00     0.002 C 
ENDROOT
BRANCH   1   2
ATOM      2  C   UNL A   1      39.927  21.481  26.148  1.00  0.00     0.021 C 
BRANCH   2   3
ATOM      3  C   UNL A   1      38.461  21.870  25.988  1.00  0.00     0.116 C 
BRANCH   3   4
ATOM      4  N   UNL A   1      37.953  21.935  24.633  1.00  0.00    -0.352 N 
ATOM      5  C   UNL A   1      36.810  22.519  24.116  1.00  0.00     0.251 C 
ATOM      6  O   UNL A   1      36.748  22.618  22.891  1.00  0.00    -0.269 OA
ATOM      7  H   UNL A   1      38.519  21.486  23.964  1.00  0.00     0.163 HD
BRANCH   5   8
ATOM      8  C   UNL A   1      35.672  23.024  24.968  1.00  0.00     0.044 A 
ATOM      9  C   UNL A   1      33.525  22.745  26.073  1.00  0.00     0.045 A 
ATOM     10  C   UNL A   1      33.556  24.074  26.504  1.00  0.00     0.026 A 
ATOM     11  C   UNL A   1      34.644  22.158  25.435  1.00  0.00    -0.015 A 
ATOM     12  C   UNL A   1      34.560  24.912  26.060  1.00  0.00     0.003 A 
ATOM     13  C   UNL A   1      34.624  20.678  25.132  1.00  0.00     0.047 C 
ATOM     14  C   UNL A   1      35.539  24.403  25.213  1.00  0.00     0.014 A 
BRANCH   9  15
ATOM     15  N   UNL A   1      32.308  22.047  26.158  1.00  0.00    -0.322 N 
ATOM     16  C   UNL A   1      31.050  22.484  25.765  1.00  0.00     0.259 C 
ATOM     17  O   UNL A   1      30.074  21.841  26.144  1.00  0.00    -0.269 OA
ATOM     18  H   UNL A   1      32.353  21.142  26.542  1.00  0.00     0.170 HD
BRANCH  16  19
ATOM     19  C   UNL A   1      30.911  23.618  24.837  1.00  0.00     0.081 A 
ATOM     20  N   UNL A   1      30.561  25.658  23.984  1.00  0.00    -0.237 N 
ATOM     21  N   UNL A   1      30.725  24.852  22.908  1.00  0.00    -0.175 NA
ATOM     22  C   UNL A   1      30.531  24.920  25.162  1.00  0.00     0.054 A 
ATOM     23  C   UNL A   1      30.932  23.646  23.425  1.00  0.00     0.149 A 
ATOM     24  C   UNL A   1      30.007  25.428  26.461  1.00  0.00     0.068 C 
BRANCH  20  25
ATOM     25  C   UNL A   1      30.373  27.050  23.776  1.00  0.00     0.065 A 
ATOM     26  C   UNL A   1      27.513  29.326  22.704  1.00  0.00     0.044 C 
ATOM     27  C   UNL A   1      28.869  28.856  23.141  1.00  0.00    -0.049 A 
ATOM     28  C   UNL A   1      29.860  29.780  23.487  1.00  0.00     0.003 A 
ATOM     29  C   UNL A   1      29.146  27.489  23.252  1.00  0.00     0.031 A 
ATOM     30  C   UNL A   1      31.107  29.347  23.942  1.00  0.00     0.002 A 
ATOM     31  C   UNL A   1      31.365  27.982  24.094  1.00  0.00     0.028 A 
ENDBRANCH  20  25
ENDBRANCH  16  19
ENDBRANCH   9  15
ENDBRANCH   5   8
ENDBRANCH   3   4
ENDBRANCH   2   3
ENDBRANCH   1   2
BRANCH   1  32
ATOM     32  C   UNL A   1      41.322  19.476  27.148  1.00  0.00     0.002 C 
BRANCH  32  33
ATOM     33  C   UNL A   1      42.649  18.922  26.633  1.00  0.00     0.021 C 
BRANCH  33  34
ATOM     34  C   UNL A   1      43.105  19.450  25.280  1.00  0.00     0.116 C 
BRANCH  34  35
ATOM     35  N   UNL A   1      44.484  19.934  25.243  1.00  0.00    -0.352 N 
ATOM     36  C   UNL A   1      44.958  21.232  25.379  1.00  0.00     0.251 C 
ATOM     37  H   UNL A   1      45.172  19.244  25.104  1.00  0.00     0.163 HD
ATOM     38  O   UNL A   1      46.154  21.479  25.309  1.00  0.00    -0.269 OA
BRANCH  36  39
ATOM     39  C   UNL A   1      44.004  22.296  25.773  1.00  0.00     0.039 A 
ATOM     40  C   UNL A   1      44.079  23.507  25.078  1.00  0.00     0.014 A 
ATOM     41  C   UNL A   1      43.350  22.221  26.996  1.00  0.00     0.014 A 
ATOM     42  C   UNL A   1      43.802  24.688  25.755  1.00  0.00     0.010 A 
ATOM     43  C   UNL A   1      43.197  23.386  27.712  1.00  0.00     0.010 A 
ATOM     44  C   UNL A   1      43.508  24.613  27.113  1.00  0.00    -0.014 A 
BRANCH  44  45
ATOM     45  C   UNL A   1      43.494  25.765  27.997  1.00  0.00     0.031 A 
ATOM     46  C   UNL A   1      42.263  26.565  28.082  1.00  0.00     0.074 A 
ATOM     47  C   UNL A   1      44.552  26.038  28.792  1.00  0.00     0.049 A 
ATOM     48  N   UNL A   1      42.207  27.769  28.534  1.00  0.00    -0.248 NA
ATOM     49  C   UNL A   1      40.986  26.072  27.590  1.00  0.00     0.031 C 
ATOM     50  C   UNL A   1      44.599  26.967  29.918  1.00  0.00     0.029 A 
ATOM     51  N   UNL A   1      45.887  25.651  28.610  1.00  0.00    -0.354 N 
ATOM     52  C   UNL A   1      40.880  28.108  28.659  1.00  0.00     0.074 A 
ATOM     53  C   UNL A   1      40.171  27.058  27.968  1.00  0.00     0.031 C 
ATOM     54  C   UNL A   1      45.874  27.323  30.135  1.00  0.00     0.029 A 
ATOM     55  C   UNL A   1      46.669  26.746  29.069  1.00  0.00     0.049 A 
ATOM     56  H   UNL A   1      46.215  24.800  28.241  1.00  0.00     0.167 HD
ATOM     57  C   UNL A   1      40.559  29.173  29.449  1.00  0.00     0.037 A 
ATOM     58  C   UNL A   1      47.459  27.446  28.200  1.00  0.00     0.037 A 
ATOM     59  C   UNL A   1      41.770  29.898  29.859  1.00  0.00     0.049 A 
ATOM     60  C   UNL A   1      47.018  28.879  27.983  1.00  0.00     0.074 A 
ATOM     61  C   UNL A   1      42.545  29.934  31.007  1.00  0.00     0.029 A 
ATOM     62  N   UNL A   1      42.538  30.499  28.874  1.00  0.00    -0.354 N 
ATOM     63  N   UNL A   1      45.992  29.435  28.569  1.00  0.00    -0.248 NA
ATOM     64  C   UNL A   1      47.637  29.761  26.996  1.00  0.00     0.031 C 
ATOM     65  C   UNL A   1      43.797  30.542  30.683  1.00  0.00     0.029 A 
ATOM     66  C   UNL A   1      43.775  30.897  29.347  1.00  0.00     0.049 A 
ATOM     67  H   UNL A   1      42.237  30.627  27.945  1.00  0.00     0.167 HD
ATOM     68  C   UNL A   1      45.773  30.675  28.033  1.00  0.00     0.074 A 
ATOM     69  C   UNL A   1      46.822  30.826  27.037  1.00  0.00     0.031 C 
ATOM     70  C   UNL A   1      44.731  31.475  28.410  1.00  0.00     0.037 A 
BRANCH  57  71
ATOM     71  C   UNL A   1      39.186  29.412  30.053  1.00  0.00     0.064 A 
ATOM     72  C   UNL A   1      38.149  29.961  29.267  1.00  0.00     0.173 A 
ATOM     73  C   UNL A   1      38.835  29.209  31.404  1.00  0.00     0.173 A 
ATOM     74  F   UNL A   1      38.285  30.120  27.945  1.00  0.00    -0.203 F 
ATOM     75  C   UNL A   1      36.925  30.373  29.808  1.00  0.00     0.198 A 
ATOM     76  C   UNL A   1      37.633  29.664  31.956  1.00  0.00     0.198 A 
ATOM     77  F   UNL A   1      39.601  28.503  32.236  1.00  0.00    -0.203 F 
ATOM     78  F   UNL A   1      35.988  30.898  29.007  1.00  0.00    -0.200 F 
ATOM     79  C   UNL A   1      36.681  30.257  31.161  1.00  0.00     0.200 A 
ATOM     80  F   UNL A   1      37.409  29.512  33.270  1.00  0.00    -0.200 F 
ATOM     81  F   UNL A   1      35.527  30.688  31.688  1.00  0.00    -0.200 F 
ENDBRANCH  57  71
BRANCH  58  82
ATOM     82  C   UNL A   1      48.042  26.546  27.161  1.00  0.00     0.064 A 
ATOM     83  C   UNL A   1      47.480  26.636  25.871  1.00  0.00     0.173 A 
ATOM     84  C   UNL A   1      49.362  26.099  27.269  1.00  0.00     0.173 A 
ATOM     85  F   UNL A   1      46.199  27.012  25.721  1.00  0.00    -0.203 F 
ATOM     86  C   UNL A   1      48.285  26.555  24.740  1.00  0.00     0.198 A 
ATOM     87  C   UNL A   1      50.148  25.955  26.127  1.00  0.00     0.198 A 
ATOM     88  F   UNL A   1      49.938  25.949  28.469  1.00  0.00    -0.203 F 
ATOM     89  F   UNL A   1      47.785  26.883  23.539  1.00  0.00    -0.200 F 
ATOM     90  C   UNL A   1      49.631  26.262  24.875  1.00  0.00     0.200 A 
ATOM     91  F   UNL A   1      51.444  25.637  26.254  1.00  0.00    -0.200 F 
ATOM     92  F   UNL A   1      50.441  26.332  23.809  1.00  0.00    -0.200 F 
ENDBRANCH  58  82
BRANCH  70  93
ATOM     93  C   UNL A   1      44.527  32.874  27.881  1.00  0.00     0.064 A 
ATOM     94  C   UNL A   1      44.029  33.127  26.591  1.00  0.00     0.173 A 
ATOM     95  C   UNL A   1      44.918  34.018  28.614  1.00  0.00     0.173 A 
ATOM     96  F   UNL A   1      43.753  32.122  25.747  1.00  0.00    -0.203 F 
ATOM     97  C   UNL A   1      43.825  34.425  26.117  1.00  0.00     0.198 A 
ATOM     98  C   UNL A   1      44.773  35.310  28.113  1.00  0.00     0.198 A 
ATOM     99  F   UNL A   1      45.432  33.927  29.847  1.00  0.00    -0.203 F 
ATOM    100  F   UNL A   1      43.267  34.612  24.913  1.00  0.00    -0.200 F 
ATOM    101  C   UNL A   1      44.200  35.516  26.877  1.00  0.00     0.200 A 
ATOM    102  F   UNL A   1      45.185  36.355  28.847  1.00  0.00    -0.200 F 
ATOM    103  F   UNL A   1      44.016  36.761  26.417  1.00  0.00    -0.200 F 
ENDBRANCH  70  93
ENDBRANCH  44  45
ENDBRANCH  36  39
ENDBRANCH  34  35
ENDBRANCH  33  34
ENDBRANCH  32  33
ENDBRANCH   1  32
TORSDOF 16
ENDMDL
