MODEL 1
REMARK VINA RESULT:     -11.4      0.000      0.000
REMARK SMILES Cc1cc(C(=O)Nc2nc(CC(=O)NCCCCCCNC(=O)c3ccc(-c4c5nc(c(-c6c(F)c(F)c(F)c(F)c6F)c6ccc([nH]6)c(-c6c(F)c(F)c(F)c(F)c6F)c6nc(c(-c7c(F)c(F)c(F)c(F)c7F)c7ccc4[nH]7)C=C6)C=C5)cc3)cs2)sc1C
REMARK SMILES IDX 17 1 16 2 15 3 14 4 12 5 13 6 11 8 10 9 8 10 9 11 88 12
REMARK SMILES IDX 87 13 7 14 5 15 6 16 4 18 1 19 2 20 3 21 90 22 89 23 91 24
REMARK SMILES IDX 18 25 19 26 20 27 21 28 22 29 23 31 24 32 25 33 86 34 26 35
REMARK SMILES IDX 85 36 27 37 28 38 29 39 79 40 30 41 84 42 78 43 80 44 31 45
REMARK SMILES IDX 83 46 77 47 76 48 32 50 64 51 44 52 63 53 45 54 48 55 62 56
REMARK SMILES IDX 81 57 46 58 47 59 61 61 82 62 49 63 33 64 34 65 42 66 35 67
REMARK SMILES IDX 36 68 40 69 43 70 37 71 38 72 41 73 39 74 65 75 66 76 74 77
REMARK SMILES IDX 67 78 68 79 72 80 75 81 69 82 70 83 73 84 71 85 50 86 51 87
REMARK SMILES IDX 59 88 52 89 53 90 57 91 60 92 54 93 55 94 58 95 56 96
REMARK H PARENT 14 7 7 17 21 30 80 49 48 60
REMARK Flexibility Score: inf
ROOT
ATOM      1  C   UNL A   1      34.763  32.656  28.084  1.00  0.00     0.002 C 
ENDROOT
BRANCH   1   2
ATOM      2  C   UNL A   1      34.721  31.197  28.555  1.00  0.00     0.021 C 
BRANCH   2   3
ATOM      3  C   UNL A   1      34.683  30.178  27.413  1.00  0.00     0.116 C 
BRANCH   3   4
ATOM      4  N   UNL A   1      33.621  29.210  27.619  1.00  0.00    -0.356 N 
ATOM      5  C   UNL A   1      32.326  29.270  27.193  1.00  0.00     0.226 C 
ATOM      6  O   UNL A   1      31.533  28.417  27.598  1.00  0.00    -0.275 OA
ATOM      7  H   UNL A   1      33.867  28.407  28.134  1.00  0.00     0.163 HD
BRANCH   5   8
ATOM      8  C   UNL A   1      31.903  30.326  26.195  1.00  0.00     0.157 C 
BRANCH   8   9
ATOM      9  C   UNL A   1      31.526  29.767  24.866  1.00  0.00     0.063 A 
ATOM     10  C   UNL A   1      32.011  28.603  23.057  1.00  0.00     0.189 A 
ATOM     11  N   UNL A   1      32.523  29.146  24.127  1.00  0.00    -0.224 NA
ATOM     12  S   UNL A   1      30.389  28.996  22.718  1.00  0.00    -0.105 S 
ATOM     13  C   UNL A   1      30.281  29.756  24.260  1.00  0.00     0.093 A 
BRANCH  10  14
ATOM     14  N   UNL A   1      32.608  27.759  22.172  1.00  0.00    -0.297 N 
ATOM     15  C   UNL A   1      33.196  26.544  22.459  1.00  0.00     0.267 C 
ATOM     16  O   UNL A   1      34.025  26.147  21.632  1.00  0.00    -0.268 OA
ATOM     17  H   UNL A   1      32.620  28.043  21.230  1.00  0.00     0.172 HD
BRANCH  15  18
ATOM     18  C   UNL A   1      32.812  25.707  23.600  1.00  0.00     0.093 A 
ATOM     19  C   UNL A   1      33.711  23.686  26.667  1.00  0.00     0.045 C 
ATOM     20  C   UNL A   1      33.004  24.398  25.563  1.00  0.00    -0.037 A 
ATOM     21  C   UNL A   1      33.669  25.180  24.555  1.00  0.00     0.029 A 
ATOM     22  C   UNL A   1      31.634  24.435  25.369  1.00  0.00     0.005 A 
ATOM     23  S   UNL A   1      31.260  25.010  23.810  1.00  0.00    -0.135 S 
ATOM     24  C   UNL A   1      30.531  23.977  26.261  1.00  0.00     0.056 C 
ENDBRANCH  15  18
ENDBRANCH  10  14
ENDBRANCH   8   9
ENDBRANCH   5   8
ENDBRANCH   3   4
ENDBRANCH   2   3
ENDBRANCH   1   2
BRANCH   1  25
ATOM     25  C   UNL A   1      34.485  33.693  29.175  1.00  0.00     0.002 C 
BRANCH  25  26
ATOM     26  C   UNL A   1      33.266  34.581  28.920  1.00  0.00     0.021 C 
BRANCH  26  27
ATOM     27  C   UNL A   1      33.404  36.006  29.444  1.00  0.00     0.116 C 
BRANCH  27  28
ATOM     28  N   UNL A   1      32.515  36.261  30.567  1.00  0.00    -0.352 N 
ATOM     29  C   UNL A   1      32.575  35.784  31.851  1.00  0.00     0.251 C 
ATOM     30  H   UNL A   1      31.759  36.864  30.378  1.00  0.00     0.163 HD
ATOM     31  O   UNL A   1      31.621  35.935  32.613  1.00  0.00    -0.269 OA
BRANCH  29  32
ATOM     32  C   UNL A   1      33.780  35.071  32.318  1.00  0.00     0.039 A 
ATOM     33  C   UNL A   1      33.648  33.778  32.828  1.00  0.00     0.014 A 
ATOM     34  C   UNL A   1      35.039  35.680  32.265  1.00  0.00     0.014 A 
ATOM     35  C   UNL A   1      34.784  33.071  33.231  1.00  0.00     0.010 A 
ATOM     36  C   UNL A   1      36.176  34.950  32.597  1.00  0.00     0.010 A 
ATOM     37  C   UNL A   1      36.060  33.640  33.087  1.00  0.00    -0.014 A 
BRANCH  37  38
ATOM     38  C   UNL A   1      37.284  32.879  33.445  1.00  0.00     0.031 A 
ATOM     39  C   UNL A   1      38.008  33.171  34.729  1.00  0.00     0.074 A 
ATOM     40  C   UNL A   1      37.774  31.964  32.586  1.00  0.00     0.049 A 
ATOM     41  N   UNL A   1      39.125  32.662  35.186  1.00  0.00    -0.248 NA
ATOM     42  C   UNL A   1      37.410  34.188  35.609  1.00  0.00     0.031 C 
ATOM     43  C   UNL A   1      37.186  31.621  31.290  1.00  0.00     0.029 A 
ATOM     44  N   UNL A   1      38.886  31.162  32.668  1.00  0.00    -0.354 N 
ATOM     45  C   UNL A   1      39.364  33.300  36.396  1.00  0.00     0.074 A 
ATOM     46  C   UNL A   1      38.310  34.275  36.577  1.00  0.00     0.031 C 
ATOM     47  C   UNL A   1      37.926  30.663  30.711  1.00  0.00     0.029 A 
ATOM     48  C   UNL A   1      39.064  30.354  31.571  1.00  0.00     0.049 A 
ATOM     49  H   UNL A   1      39.496  31.166  33.440  1.00  0.00     0.167 HD
ATOM     50  C   UNL A   1      40.359  33.075  37.287  1.00  0.00     0.037 A 
ATOM     51  C   UNL A   1      40.041  29.472  31.289  1.00  0.00     0.037 A 
ATOM     52  C   UNL A   1      41.397  32.093  37.112  1.00  0.00     0.049 A 
ATOM     53  C   UNL A   1      41.151  29.263  32.286  1.00  0.00     0.074 A 
ATOM     54  C   UNL A   1      42.423  31.757  37.978  1.00  0.00     0.029 A 
ATOM     55  N   UNL A   1      41.541  31.289  35.991  1.00  0.00    -0.354 N 
ATOM     56  N   UNL A   1      41.330  29.826  33.456  1.00  0.00    -0.248 NA
ATOM     57  C   UNL A   1      42.191  28.291  31.922  1.00  0.00     0.031 C 
ATOM     58  C   UNL A   1      43.216  30.785  37.360  1.00  0.00     0.029 A 
ATOM     59  C   UNL A   1      42.653  30.474  36.133  1.00  0.00     0.049 A 
ATOM     60  H   UNL A   1      40.943  31.295  35.209  1.00  0.00     0.167 HD
ATOM     61  C   UNL A   1      42.481  29.253  33.982  1.00  0.00     0.074 A 
ATOM     62  C   UNL A   1      42.948  28.287  33.010  1.00  0.00     0.031 C 
ATOM     63  C   UNL A   1      43.097  29.507  35.162  1.00  0.00     0.037 A 
BRANCH  50  64
ATOM     64  C   UNL A   1      40.371  33.903  38.541  1.00  0.00     0.064 A 
ATOM     65  C   UNL A   1      41.084  35.109  38.617  1.00  0.00     0.173 A 
ATOM     66  C   UNL A   1      39.625  33.512  39.661  1.00  0.00     0.173 A 
ATOM     67  F   UNL A   1      41.824  35.524  37.577  1.00  0.00    -0.203 F 
ATOM     68  C   UNL A   1      41.070  35.878  39.778  1.00  0.00     0.198 A 
ATOM     69  C   UNL A   1      39.587  34.299  40.809  1.00  0.00     0.198 A 
ATOM     70  F   UNL A   1      38.918  32.371  39.640  1.00  0.00    -0.203 F 
ATOM     71  F   UNL A   1      41.797  37.003  39.843  1.00  0.00    -0.200 F 
ATOM     72  C   UNL A   1      40.316  35.478  40.870  1.00  0.00     0.200 A 
ATOM     73  F   UNL A   1      38.846  33.919  41.859  1.00  0.00    -0.200 F 
ATOM     74  F   UNL A   1      40.294  36.225  41.982  1.00  0.00    -0.200 F 
ENDBRANCH  50  64
BRANCH  51  75
ATOM     75  C   UNL A   1      40.012  28.704  30.016  1.00  0.00     0.064 A 
ATOM     76  C   UNL A   1      39.410  27.440  29.952  1.00  0.00     0.173 A 
ATOM     77  C   UNL A   1      40.604  29.203  28.846  1.00  0.00     0.173 A 
ATOM     78  F   UNL A   1      38.849  26.909  31.049  1.00  0.00    -0.203 F 
ATOM     79  C   UNL A   1      39.427  26.691  28.777  1.00  0.00     0.198 A 
ATOM     80  C   UNL A   1      40.592  28.467  27.663  1.00  0.00     0.198 A 
ATOM     81  F   UNL A   1      41.188  30.410  28.850  1.00  0.00    -0.203 F 
ATOM     82  F   UNL A   1      38.895  25.461  28.762  1.00  0.00    -0.200 F 
ATOM     83  C   UNL A   1      40.014  27.207  27.633  1.00  0.00     0.200 A 
ATOM     84  F   UNL A   1      41.147  28.977  26.555  1.00  0.00    -0.200 F 
ATOM     85  F   UNL A   1      40.032  26.486  26.503  1.00  0.00    -0.200 F 
ENDBRANCH  51  75
BRANCH  63  86
ATOM     86  C   UNL A   1      44.319  28.698  35.489  1.00  0.00     0.064 A 
ATOM     87  C   UNL A   1      44.235  27.476  36.173  1.00  0.00     0.173 A 
ATOM     88  C   UNL A   1      45.589  29.134  35.080  1.00  0.00     0.173 A 
ATOM     89  F   UNL A   1      43.047  27.022  36.599  1.00  0.00    -0.203 F 
ATOM     90  C   UNL A   1      45.379  26.736  36.461  1.00  0.00     0.198 A 
ATOM     91  C   UNL A   1      46.727  28.376  35.339  1.00  0.00     0.198 A 
ATOM     92  F   UNL A   1      45.725  30.293  34.416  1.00  0.00    -0.203 F 
ATOM     93  F   UNL A   1      45.279  25.599  37.161  1.00  0.00    -0.200 F 
ATOM     94  C   UNL A   1      46.622  27.182  36.036  1.00  0.00     0.200 A 
ATOM     95  F   UNL A   1      47.925  28.801  34.916  1.00  0.00    -0.200 F 
ATOM     96  F   UNL A   1      47.721  26.464  36.307  1.00  0.00    -0.200 F 
ENDBRANCH  63  86
ENDBRANCH  37  38
ENDBRANCH  29  32
ENDBRANCH  27  28
ENDBRANCH  26  27
ENDBRANCH  25  26
ENDBRANCH   1  25
TORSDOF 16
ENDMDL
MODEL 2
REMARK VINA RESULT:     -11.4      0.962      1.882
REMARK SMILES Cc1cc(C(=O)Nc2nc(CC(=O)NCCCCCCNC(=O)c3ccc(-c4c5nc(c(-c6c(F)c(F)c(F)c(F)c6F)c6ccc([nH]6)c(-c6c(F)c(F)c(F)c(F)c6F)c6nc(c(-c7c(F)c(F)c(F)c(F)c7F)c7ccc4[nH]7)C=C6)C=C5)cc3)cs2)sc1C
REMARK SMILES IDX 17 1 16 2 15 3 14 4 12 5 13 6 11 8 10 9 8 10 9 11 88 12
REMARK SMILES IDX 87 13 7 14 5 15 6 16 4 18 1 19 2 20 3 21 90 22 89 23 91 24
REMARK SMILES IDX 18 25 19 26 20 27 21 28 22 29 23 31 24 32 25 33 86 34 26 35
REMARK SMILES IDX 85 36 27 37 28 38 29 39 79 40 30 41 84 42 78 43 80 44 31 45
REMARK SMILES IDX 83 46 77 47 76 48 32 50 64 51 44 52 63 53 45 54 48 55 62 56
REMARK SMILES IDX 81 57 46 58 47 59 61 61 82 62 49 63 33 64 34 65 42 66 35 67
REMARK SMILES IDX 36 68 40 69 43 70 37 71 38 72 41 73 39 74 65 75 66 76 74 77
REMARK SMILES IDX 67 78 68 79 72 80 75 81 69 82 70 83 73 84 71 85 50 86 51 87
REMARK SMILES IDX 59 88 52 89 53 90 57 91 60 92 54 93 55 94 58 95 56 96
REMARK H PARENT 14 7 7 17 21 30 80 49 48 60
REMARK Flexibility Score: inf
ROOT
ATOM      1  C   UNL A   1      35.109  33.096  28.855  1.00  0.00     0.002 C 
ENDROOT
BRANCH   1   2
ATOM      2  C   UNL A   1      34.485  31.700  28.737  1.00  0.00     0.021 C 
BRANCH   2   3
ATOM      3  C   UNL A   1      33.917  31.391  27.350  1.00  0.00     0.116 C 
BRANCH   3   4
ATOM      4  N   UNL A   1      34.339  30.077  26.899  1.00  0.00    -0.356 N 
ATOM      5  C   UNL A   1      33.686  29.217  26.065  1.00  0.00     0.226 C 
ATOM      6  O   UNL A   1      34.139  28.080  25.921  1.00  0.00    -0.275 OA
ATOM      7  H   UNL A   1      35.209  29.766  27.240  1.00  0.00     0.163 HD
BRANCH   5   8
ATOM      8  C   UNL A   1      32.470  29.684  25.293  1.00  0.00     0.157 C 
BRANCH   8   9
ATOM      9  C   UNL A   1      31.788  28.589  24.545  1.00  0.00     0.063 A 
ATOM     10  C   UNL A   1      31.561  27.338  22.744  1.00  0.00     0.189 A 
ATOM     11  N   UNL A   1      32.146  28.404  23.217  1.00  0.00    -0.224 NA
ATOM     12  S   UNL A   1      30.368  26.634  23.735  1.00  0.00    -0.105 S 
ATOM     13  C   UNL A   1      30.843  27.691  25.009  1.00  0.00     0.093 A 
BRANCH  10  14
ATOM     14  N   UNL A   1      31.781  26.712  21.556  1.00  0.00    -0.297 N 
ATOM     15  C   UNL A   1      32.726  25.742  21.298  1.00  0.00     0.267 C 
ATOM     16  O   UNL A   1      33.046  25.613  20.109  1.00  0.00    -0.268 OA
ATOM     17  H   UNL A   1      31.205  26.979  20.804  1.00  0.00     0.172 HD
BRANCH  15  18
ATOM     18  C   UNL A   1      33.259  24.836  22.321  1.00  0.00     0.093 A 
ATOM     19  C   UNL A   1      35.416  24.185  25.357  1.00  0.00     0.045 C 
ATOM     20  C   UNL A   1      34.470  24.080  24.209  1.00  0.00    -0.037 A 
ATOM     21  C   UNL A   1      34.118  25.182  23.354  1.00  0.00     0.029 A 
ATOM     22  C   UNL A   1      33.783  22.941  23.827  1.00  0.00     0.005 A 
ATOM     23  S   UNL A   1      33.123  23.129  22.267  1.00  0.00    -0.135 S 
ATOM     24  C   UNL A   1      33.642  21.631  24.525  1.00  0.00     0.056 C 
ENDBRANCH  15  18
ENDBRANCH  10  14
ENDBRANCH   8   9
ENDBRANCH   5   8
ENDBRANCH   3   4
ENDBRANCH   2   3
ENDBRANCH   1   2
BRANCH   1  25
ATOM     25  C   UNL A   1      34.381  34.195  28.077  1.00  0.00     0.002 C 
BRANCH  25  26
ATOM     26  C   UNL A   1      33.156  34.776  28.783  1.00  0.00     0.021 C 
BRANCH  26  27
ATOM     27  C   UNL A   1      33.422  36.071  29.545  1.00  0.00     0.116 C 
BRANCH  27  28
ATOM     28  N   UNL A   1      32.504  36.243  30.661  1.00  0.00    -0.352 N 
ATOM     29  C   UNL A   1      32.554  35.703  31.920  1.00  0.00     0.251 C 
ATOM     30  H   UNL A   1      31.735  36.834  30.487  1.00  0.00     0.163 HD
ATOM     31  O   UNL A   1      31.582  35.789  32.669  1.00  0.00    -0.269 OA
BRANCH  29  32
ATOM     32  C   UNL A   1      33.770  35.001  32.375  1.00  0.00     0.039 A 
ATOM     33  C   UNL A   1      33.656  33.701  32.872  1.00  0.00     0.014 A 
ATOM     34  C   UNL A   1      35.020  35.627  32.323  1.00  0.00     0.014 A 
ATOM     35  C   UNL A   1      34.802  33.005  33.263  1.00  0.00     0.010 A 
ATOM     36  C   UNL A   1      36.168  34.908  32.644  1.00  0.00     0.010 A 
ATOM     37  C   UNL A   1      36.071  33.592  33.120  1.00  0.00    -0.014 A 
BRANCH  37  38
ATOM     38  C   UNL A   1      37.306  32.843  33.465  1.00  0.00     0.031 A 
ATOM     39  C   UNL A   1      38.044  33.147  34.739  1.00  0.00     0.074 A 
ATOM     40  C   UNL A   1      37.792  31.927  32.604  1.00  0.00     0.049 A 
ATOM     41  N   UNL A   1      39.171  32.650  35.183  1.00  0.00    -0.248 NA
ATOM     42  C   UNL A   1      37.449  34.163  35.622  1.00  0.00     0.031 C 
ATOM     43  C   UNL A   1      37.190  31.573  31.319  1.00  0.00     0.029 A 
ATOM     44  N   UNL A   1      38.912  31.135  32.676  1.00  0.00    -0.354 N 
ATOM     45  C   UNL A   1      39.421  33.296  36.387  1.00  0.00     0.074 A 
ATOM     46  C   UNL A   1      38.361  34.262  36.577  1.00  0.00     0.031 C 
ATOM     47  C   UNL A   1      37.931  30.619  30.734  1.00  0.00     0.029 A 
ATOM     48  C   UNL A   1      39.082  30.324  31.580  1.00  0.00     0.049 A 
ATOM     49  H   UNL A   1      39.532  31.148  33.439  1.00  0.00     0.167 HD
ATOM     50  C   UNL A   1      40.430  33.084  37.265  1.00  0.00     0.037 A 
ATOM     51  C   UNL A   1      40.063  29.449  31.289  1.00  0.00     0.037 A 
ATOM     52  C   UNL A   1      41.474  32.110  37.082  1.00  0.00     0.049 A 
ATOM     53  C   UNL A   1      41.187  29.254  32.273  1.00  0.00     0.074 A 
ATOM     54  C   UNL A   1      42.514  31.787  37.935  1.00  0.00     0.029 A 
ATOM     55  N   UNL A   1      41.609  31.301  35.962  1.00  0.00    -0.354 N 
ATOM     56  N   UNL A   1      41.378  29.824  33.437  1.00  0.00    -0.248 NA
ATOM     57  C   UNL A   1      42.231  28.289  31.900  1.00  0.00     0.031 C 
ATOM     58  C   UNL A   1      43.307  30.818  37.312  1.00  0.00     0.029 A 
ATOM     59  C   UNL A   1      42.731  30.496  36.094  1.00  0.00     0.049 A 
ATOM     60  H   UNL A   1      41.001  31.299  35.189  1.00  0.00     0.167 HD
ATOM     61  C   UNL A   1      42.540  29.264  33.951  1.00  0.00     0.074 A 
ATOM     62  C   UNL A   1      43.002  28.297  32.978  1.00  0.00     0.031 C 
ATOM     63  C   UNL A   1      43.170  29.528  35.122  1.00  0.00     0.037 A 
BRANCH  50  64
ATOM     64  C   UNL A   1      40.451  33.918  38.515  1.00  0.00     0.064 A 
ATOM     65  C   UNL A   1      39.762  33.523  39.672  1.00  0.00     0.173 A 
ATOM     66  C   UNL A   1      41.206  35.098  38.573  1.00  0.00     0.173 A 
ATOM     67  F   UNL A   1      39.016  32.408  39.667  1.00  0.00    -0.203 F 
ATOM     68  C   UNL A   1      39.806  34.294  40.831  1.00  0.00     0.198 A 
ATOM     69  C   UNL A   1      41.275  35.850  39.744  1.00  0.00     0.198 A 
ATOM     70  F   UNL A   1      41.890  35.518  37.498  1.00  0.00    -0.203 F 
ATOM     71  F   UNL A   1      39.101  33.921  41.909  1.00  0.00    -0.200 F 
ATOM     72  C   UNL A   1      40.568  35.451  40.869  1.00  0.00     0.200 A 
ATOM     73  F   UNL A   1      42.023  36.960  39.784  1.00  0.00    -0.200 F 
ATOM     74  F   UNL A   1      40.620  36.185  41.989  1.00  0.00    -0.200 F 
ENDBRANCH  50  64
BRANCH  51  75
ATOM     75  C   UNL A   1      40.024  28.674  30.021  1.00  0.00     0.064 A 
ATOM     76  C   UNL A   1      39.428  27.406  29.970  1.00  0.00     0.173 A 
ATOM     77  C   UNL A   1      40.600  29.170  28.842  1.00  0.00     0.173 A 
ATOM     78  F   UNL A   1      38.882  26.879  31.076  1.00  0.00    -0.203 F 
ATOM     79  C   UNL A   1      39.436  26.651  28.799  1.00  0.00     0.198 A 
ATOM     80  C   UNL A   1      40.578  28.428  27.662  1.00  0.00     0.198 A 
ATOM     81  F   UNL A   1      41.178  30.380  28.834  1.00  0.00    -0.203 F 
ATOM     82  F   UNL A   1      38.910  25.419  28.795  1.00  0.00    -0.200 F 
ATOM     83  C   UNL A   1      40.007  27.165  27.645  1.00  0.00     0.200 A 
ATOM     84  F   UNL A   1      41.118  28.935  26.546  1.00  0.00    -0.200 F 
ATOM     85  F   UNL A   1      40.016  26.439  26.518  1.00  0.00    -0.200 F 
ENDBRANCH  51  75
BRANCH  63  86
ATOM     86  C   UNL A   1      44.403  28.731  35.436  1.00  0.00     0.064 A 
ATOM     87  C   UNL A   1      45.682  29.175  35.073  1.00  0.00     0.173 A 
ATOM     88  C   UNL A   1      44.304  27.523  36.144  1.00  0.00     0.173 A 
ATOM     89  F   UNL A   1      45.830  30.315  34.381  1.00  0.00    -0.203 F 
ATOM     90  C   UNL A   1      46.815  28.425  35.380  1.00  0.00     0.198 A 
ATOM     91  C   UNL A   1      45.441  26.793  36.480  1.00  0.00     0.198 A 
ATOM     92  F   UNL A   1      43.104  27.056  36.523  1.00  0.00    -0.203 F 
ATOM     93  F   UNL A   1      48.021  28.843  34.976  1.00  0.00    -0.200 F 
ATOM     94  C   UNL A   1      46.693  27.240  36.091  1.00  0.00     0.200 A 
ATOM     95  F   UNL A   1      45.323  25.656  37.180  1.00  0.00    -0.200 F 
ATOM     96  F   UNL A   1      47.786  26.524  36.393  1.00  0.00    -0.200 F 
ENDBRANCH  63  86
ENDBRANCH  37  38
ENDBRANCH  29  32
ENDBRANCH  27  28
ENDBRANCH  26  27
ENDBRANCH  25  26
ENDBRANCH   1  25
TORSDOF 16
ENDMDL
MODEL 3
REMARK VINA RESULT:     -11.3      1.868      7.807
REMARK SMILES Cc1cc(C(=O)Nc2nc(CC(=O)NCCCCCCNC(=O)c3ccc(-c4c5nc(c(-c6c(F)c(F)c(F)c(F)c6F)c6ccc([nH]6)c(-c6c(F)c(F)c(F)c(F)c6F)c6nc(c(-c7c(F)c(F)c(F)c(F)c7F)c7ccc4[nH]7)C=C6)C=C5)cc3)cs2)sc1C
REMARK SMILES IDX 17 1 16 2 15 3 14 4 12 5 13 6 11 8 10 9 8 10 9 11 88 12
REMARK SMILES IDX 87 13 7 14 5 15 6 16 4 18 1 19 2 20 3 21 90 22 89 23 91 24
REMARK SMILES IDX 18 25 19 26 20 27 21 28 22 29 23 31 24 32 25 33 86 34 26 35
REMARK SMILES IDX 85 36 27 37 28 38 29 39 79 40 30 41 84 42 78 43 80 44 31 45
REMARK SMILES IDX 83 46 77 47 76 48 32 50 64 51 44 52 63 53 45 54 48 55 62 56
REMARK SMILES IDX 81 57 46 58 47 59 61 61 82 62 49 63 33 64 34 65 42 66 35 67
REMARK SMILES IDX 36 68 40 69 43 70 37 71 38 72 41 73 39 74 65 75 66 76 74 77
REMARK SMILES IDX 67 78 68 79 72 80 75 81 69 82 70 83 73 84 71 85 50 86 51 87
REMARK SMILES IDX 59 88 52 89 53 90 57 91 60 92 54 93 55 94 58 95 56 96
REMARK H PARENT 14 7 7 17 21 30 80 49 48 60
REMARK Flexibility Score: inf
ROOT
ATOM      1  C   UNL A   1      31.830  29.939  25.763  1.00  0.00     0.002 C 
ENDROOT
BRANCH   1   2
ATOM      2  C   UNL A   1      32.651  28.773  26.329  1.00  0.00     0.021 C 
BRANCH   2   3
ATOM      3  C   UNL A   1      34.019  28.600  25.666  1.00  0.00     0.116 C 
BRANCH   3   4
ATOM      4  N   UNL A   1      33.961  28.952  24.259  1.00  0.00    -0.356 N 
ATOM      5  C   UNL A   1      33.886  28.121  23.179  1.00  0.00     0.226 C 
ATOM      6  O   UNL A   1      33.998  28.608  22.053  1.00  0.00    -0.275 OA
ATOM      7  H   UNL A   1      33.977  29.916  24.058  1.00  0.00     0.163 HD
BRANCH   5   8
ATOM      8  C   UNL A   1      33.609  26.645  23.375  1.00  0.00     0.157 C 
BRANCH   8   9
ATOM      9  C   UNL A   1      32.221  26.361  23.838  1.00  0.00     0.063 A 
ATOM     10  C   UNL A   1      30.819  25.450  25.276  1.00  0.00     0.189 A 
ATOM     11  N   UNL A   1      32.071  25.495  24.913  1.00  0.00    -0.224 NA
ATOM     12  S   UNL A   1      29.708  26.211  24.233  1.00  0.00    -0.105 S 
ATOM     13  C   UNL A   1      31.031  26.873  23.352  1.00  0.00     0.093 A 
BRANCH  10  14
ATOM     14  N   UNL A   1      30.282  24.870  26.383  1.00  0.00    -0.297 N 
ATOM     15  C   UNL A   1      30.410  23.551  26.768  1.00  0.00     0.267 C 
ATOM     16  O   UNL A   1      29.534  23.134  27.535  1.00  0.00    -0.268 OA
ATOM     17  H   UNL A   1      29.748  25.451  26.971  1.00  0.00     0.172 HD
BRANCH  15  18
ATOM     18  C   UNL A   1      31.549  22.706  26.397  1.00  0.00     0.093 A 
ATOM     19  C   UNL A   1      33.053  19.895  24.364  1.00  0.00     0.045 C 
ATOM     20  C   UNL A   1      32.815  21.040  25.289  1.00  0.00    -0.037 A 
ATOM     21  C   UNL A   1      31.546  21.700  25.440  1.00  0.00     0.029 A 
ATOM     22  C   UNL A   1      33.765  21.641  26.096  1.00  0.00     0.005 A 
ATOM     23  S   UNL A   1      33.023  22.632  27.267  1.00  0.00    -0.135 S 
ATOM     24  C   UNL A   1      35.245  21.466  26.122  1.00  0.00     0.056 C 
ENDBRANCH  15  18
ENDBRANCH  10  14
ENDBRANCH   8   9
ENDBRANCH   5   8
ENDBRANCH   3   4
ENDBRANCH   2   3
ENDBRANCH   1   2
BRANCH   1  25
ATOM     25  C   UNL A   1      31.271  30.902  26.813  1.00  0.00     0.002 C 
BRANCH  25  26
ATOM     26  C   UNL A   1      31.507  32.384  26.515  1.00  0.00     0.021 C 
BRANCH  26  27
ATOM     27  C   UNL A   1      32.718  32.984  27.223  1.00  0.00     0.116 C 
BRANCH  27  28
ATOM     28  N   UNL A   1      32.475  34.355  27.647  1.00  0.00    -0.352 N 
ATOM     29  C   UNL A   1      33.030  35.055  28.686  1.00  0.00     0.251 C 
ATOM     30  H   UNL A   1      31.817  34.852  27.109  1.00  0.00     0.163 HD
ATOM     31  O   UNL A   1      32.553  36.137  29.029  1.00  0.00    -0.269 OA
BRANCH  29  32
ATOM     32  C   UNL A   1      34.192  34.505  29.411  1.00  0.00     0.039 A 
ATOM     33  C   UNL A   1      33.986  33.862  30.634  1.00  0.00     0.014 A 
ATOM     34  C   UNL A   1      35.485  34.632  28.893  1.00  0.00     0.014 A 
ATOM     35  C   UNL A   1      35.069  33.295  31.310  1.00  0.00     0.010 A 
ATOM     36  C   UNL A   1      36.551  34.004  29.530  1.00  0.00     0.010 A 
ATOM     37  C   UNL A   1      36.355  33.333  30.746  1.00  0.00    -0.014 A 
BRANCH  37  38
ATOM     38  C   UNL A   1      37.506  32.675  31.416  1.00  0.00     0.031 A 
ATOM     39  C   UNL A   1      38.220  31.535  30.746  1.00  0.00     0.074 A 
ATOM     40  C   UNL A   1      37.872  33.070  32.651  1.00  0.00     0.049 A 
ATOM     41  N   UNL A   1      39.201  30.792  31.195  1.00  0.00    -0.248 NA
ATOM     42  C   UNL A   1      37.755  31.162  29.400  1.00  0.00     0.031 C 
ATOM     43  C   UNL A   1      37.232  34.136  33.422  1.00  0.00     0.029 A 
ATOM     44  N   UNL A   1      38.866  32.612  33.481  1.00  0.00    -0.354 N 
ATOM     45  C   UNL A   1      39.463  29.865  30.194  1.00  0.00     0.074 A 
ATOM     46  C   UNL A   1      38.501  30.099  29.138  1.00  0.00     0.031 C 
ATOM     47  C   UNL A   1      37.862  34.267  34.599  1.00  0.00     0.029 A 
ATOM     48  C   UNL A   1      38.923  33.268  34.686  1.00  0.00     0.049 A 
ATOM     49  H   UNL A   1      39.479  31.883  33.234  1.00  0.00     0.167 HD
ATOM     50  C   UNL A   1      40.433  28.922  30.150  1.00  0.00     0.037 A 
ATOM     51  C   UNL A   1      39.733  33.078  35.744  1.00  0.00     0.037 A 
ATOM     52  C   UNL A   1      41.399  28.702  31.194  1.00  0.00     0.049 A 
ATOM     53  C   UNL A   1      40.785  32.002  35.677  1.00  0.00     0.074 A 
ATOM     54  C   UNL A   1      42.450  27.803  31.224  1.00  0.00     0.029 A 
ATOM     55  N   UNL A   1      41.429  29.392  32.398  1.00  0.00    -0.354 N 
ATOM     56  N   UNL A   1      41.064  31.176  34.700  1.00  0.00    -0.248 NA
ATOM     57  C   UNL A   1      41.638  31.838  36.863  1.00  0.00     0.031 C 
ATOM     58  C   UNL A   1      43.086  27.914  32.465  1.00  0.00     0.029 A 
ATOM     59  C   UNL A   1      42.467  28.921  33.187  1.00  0.00     0.049 A 
ATOM     60  H   UNL A   1      40.806  30.109  32.655  1.00  0.00     0.167 HD
ATOM     61  C   UNL A   1      42.143  30.418  35.137  1.00  0.00     0.074 A 
ATOM     62  C   UNL A   1      42.479  30.895  36.462  1.00  0.00     0.031 C 
ATOM     63  C   UNL A   1      42.796  29.416  34.499  1.00  0.00     0.037 A 
BRANCH  50  64
ATOM     64  C   UNL A   1      40.506  28.055  28.925  1.00  0.00     0.064 A 
ATOM     65  C   UNL A   1      39.782  26.857  28.829  1.00  0.00     0.173 A 
ATOM     66  C   UNL A   1      41.269  28.449  27.816  1.00  0.00     0.173 A 
ATOM     67  F   UNL A   1      39.045  26.429  29.865  1.00  0.00    -0.203 F 
ATOM     68  C   UNL A   1      39.840  26.073  27.680  1.00  0.00     0.198 A 
ATOM     69  C   UNL A   1      41.300  27.679  26.656  1.00  0.00     0.198 A 
ATOM     70  F   UNL A   1      41.976  29.589  27.851  1.00  0.00    -0.203 F 
ATOM     71  F   UNL A   1      39.177  24.909  27.630  1.00  0.00    -0.200 F 
ATOM     72  C   UNL A   1      40.593  26.488  26.591  1.00  0.00     0.200 A 
ATOM     73  F   UNL A   1      42.016  28.088  25.600  1.00  0.00    -0.200 F 
ATOM     74  F   UNL A   1      40.639  25.738  25.482  1.00  0.00    -0.200 F 
ENDBRANCH  50  64
BRANCH  51  75
ATOM     75  C   UNL A   1      39.598  33.931  36.954  1.00  0.00     0.064 A 
ATOM     76  C   UNL A   1      38.830  33.512  38.049  1.00  0.00     0.173 A 
ATOM     77  C   UNL A   1      40.211  35.191  37.033  1.00  0.00     0.173 A 
ATOM     78  F   UNL A   1      38.207  32.325  38.014  1.00  0.00    -0.203 F 
ATOM     79  C   UNL A   1      38.655  34.331  39.163  1.00  0.00     0.198 A 
ATOM     80  C   UNL A   1      40.062  35.995  38.161  1.00  0.00     0.198 A 
ATOM     81  F   UNL A   1      40.962  35.638  36.015  1.00  0.00    -0.203 F 
ATOM     82  F   UNL A   1      37.868  33.928  40.171  1.00  0.00    -0.200 F 
ATOM     83  C   UNL A   1      39.275  35.569  39.220  1.00  0.00     0.200 A 
ATOM     84  F   UNL A   1      40.675  37.185  38.218  1.00  0.00    -0.200 F 
ATOM     85  F   UNL A   1      39.105  36.357  40.291  1.00  0.00    -0.200 F 
ENDBRANCH  51  75
BRANCH  63  86
ATOM     86  C   UNL A   1      43.966  28.796  35.207  1.00  0.00     0.064 A 
ATOM     87  C   UNL A   1      45.270  29.288  35.050  1.00  0.00     0.173 A 
ATOM     88  C   UNL A   1      43.774  27.717  36.083  1.00  0.00     0.173 A 
ATOM     89  F   UNL A   1      45.510  30.308  34.212  1.00  0.00    -0.203 F 
ATOM     90  C   UNL A   1      46.342  28.704  35.720  1.00  0.00     0.198 A 
ATOM     91  C   UNL A   1      44.842  27.157  36.779  1.00  0.00     0.198 A 
ATOM     92  F   UNL A   1      42.546  27.212  36.275  1.00  0.00    -0.203 F 
ATOM     93  F   UNL A   1      47.585  29.158  35.514  1.00  0.00    -0.200 F 
ATOM     94  C   UNL A   1      46.126  27.646  36.590  1.00  0.00     0.200 A 
ATOM     95  F   UNL A   1      44.629  26.144  37.630  1.00  0.00    -0.200 F 
ATOM     96  F   UNL A   1      47.157  27.091  37.241  1.00  0.00    -0.200 F 
ENDBRANCH  63  86
ENDBRANCH  37  38
ENDBRANCH  29  32
ENDBRANCH  27  28
ENDBRANCH  26  27
ENDBRANCH  25  26
ENDBRANCH   1  25
TORSDOF 16
ENDMDL
