MODEL 1
REMARK VINA RESULT:     -11.6      0.000      0.000
REMARK SMILES O=C(CC[N@H+]1CCC[C@H](c2nccn2Cc2cscn2)C1)NCCCCCCNC(=O)c1ccc(-c2c3nc(c(-c4c(F)c(F)c(F)c(F)c4F)c4ccc([nH]4)c(-c4c(F)c(F)c(F)c(F)c4F)c4nc(c(-c5c(F)c(F)c(F)c(F)c5F)c5ccc2[nH]5)C=C4)C=C3)cc1
REMARK SMILES IDX 24 1 23 2 22 3 1 4 2 5 3 7 4 8 5 9 6 10 21 11 7 13 9 14 8 15
REMARK SMILES IDX 10 16 11 17 14 18 12 19 13 20 15 21 16 22 17 23 20 24 18 25
REMARK SMILES IDX 19 26 25 27 26 28 27 29 28 30 29 31 30 32 31 34 32 35 33 36
REMARK SMILES IDX 94 37 34 38 93 39 35 40 36 41 37 42 87 43 38 44 92 45 86 46
REMARK SMILES IDX 88 47 39 48 91 49 85 50 84 51 40 53 72 54 52 55 71 56 53 57
REMARK SMILES IDX 56 58 70 59 89 60 54 61 55 62 69 64 90 65 57 66 41 67 42 68
REMARK SMILES IDX 50 69 43 70 44 71 48 72 51 73 45 74 46 75 49 76 47 77 73 78
REMARK SMILES IDX 74 79 82 80 75 81 76 82 80 83 83 84 77 85 78 86 81 87 79 88
REMARK SMILES IDX 58 89 59 90 67 91 60 92 61 93 65 94 68 95 62 96 63 97 66 98
REMARK SMILES IDX 64 99
REMARK H PARENT 22 6 5 12 29 33 88 52 56 63
REMARK Flexibility Score: inf
ROOT
ATOM      1  C   UNL A   1      39.282  22.620  26.784  1.00  0.00     0.021 C 
ENDROOT
BRANCH   1   2
ATOM      2  C   UNL A   1      38.183  22.992  25.776  1.00  0.00     0.116 C 
BRANCH   2   3
ATOM      3  N   UNL A   1      36.948  22.264  25.986  1.00  0.00    -0.356 N 
ATOM      4  O   UNL A   1      37.383  20.544  24.552  1.00  0.00    -0.275 OA
ATOM      5  C   UNL A   1      36.597  21.134  25.293  1.00  0.00     0.225 C 
ATOM      6  H   UNL A   1      36.322  22.602  26.668  1.00  0.00     0.163 HD
BRANCH   5   7
ATOM      7  C   UNL A   1      35.130  20.726  25.352  1.00  0.00     0.161 C 
BRANCH   7   8
ATOM      8  C   UNL A   1      34.125  21.429  24.435  1.00  0.00     0.272 C 
BRANCH   8   9
ATOM      9  N   UNL A   1      33.743  22.824  24.688  1.00  0.00    -0.334 N 
ATOM     10  C   UNL A   1      33.117  23.024  25.992  1.00  0.00     0.262 C 
ATOM     11  C   UNL A   1      34.545  23.891  24.109  1.00  0.00     0.273 C 
ATOM     12  H   UNL A   1      32.972  22.983  24.040  1.00  0.00     0.348 HD
ATOM     13  C   UNL A   1      32.587  24.434  26.227  1.00  0.00     0.062 C 
ATOM     14  C   UNL A   1      34.086  25.318  24.410  1.00  0.00     0.111 C 
ATOM     15  C   UNL A   1      33.641  25.461  25.872  1.00  0.00     0.023 C 
BRANCH  14  16
ATOM     16  C   UNL A   1      33.100  25.993  23.492  1.00  0.00     0.117 A 
ATOM     17  N   UNL A   1      32.152  25.259  22.924  1.00  0.00    -0.241 NA
ATOM     18  N   UNL A   1      32.972  27.311  23.098  1.00  0.00    -0.328 N 
ATOM     19  C   UNL A   1      31.392  26.095  22.170  1.00  0.00     0.131 A 
ATOM     20  C   UNL A   1      31.855  27.376  22.285  1.00  0.00     0.108 A 
BRANCH  18  21
ATOM     21  C   UNL A   1      33.695  28.513  23.487  1.00  0.00     0.180 C 
BRANCH  21  22
ATOM     22  C   UNL A   1      33.256  29.058  24.808  1.00  0.00     0.071 A 
ATOM     23  C   UNL A   1      33.987  29.075  25.983  1.00  0.00     0.092 A 
ATOM     24  N   UNL A   1      32.034  29.714  24.895  1.00  0.00    -0.248 NA
ATOM     25  S   UNL A   1      33.113  29.871  27.224  1.00  0.00    -0.130 S 
ATOM     26  C   UNL A   1      31.842  30.159  26.115  1.00  0.00     0.175 A 
ENDBRANCH  21  22
ENDBRANCH  18  21
ENDBRANCH  14  16
ENDBRANCH   8   9
ENDBRANCH   7   8
ENDBRANCH   5   7
ENDBRANCH   2   3
ENDBRANCH   1   2
BRANCH   1  27
ATOM     27  C   UNL A   1      40.449  21.761  26.274  1.00  0.00     0.002 C 
BRANCH  27  28
ATOM     28  C   UNL A   1      40.317  20.242  26.429  1.00  0.00     0.002 C 
BRANCH  28  29
ATOM     29  C   UNL A   1      41.510  19.373  26.034  1.00  0.00     0.021 C 
BRANCH  29  30
ATOM     30  C   UNL A   1      42.847  19.893  26.528  1.00  0.00     0.116 C 
BRANCH  30  31
ATOM     31  N   UNL A   1      43.986  19.567  25.660  1.00  0.00    -0.352 N 
ATOM     32  C   UNL A   1      44.654  20.447  24.824  1.00  0.00     0.251 C 
ATOM     33  H   UNL A   1      44.306  18.635  25.673  1.00  0.00     0.163 HD
ATOM     34  O   UNL A   1      45.317  20.067  23.860  1.00  0.00    -0.269 OA
BRANCH  32  35
ATOM     35  C   UNL A   1      44.561  21.878  25.146  1.00  0.00     0.039 A 
ATOM     36  C   UNL A   1      43.577  22.717  24.619  1.00  0.00     0.014 A 
ATOM     37  C   UNL A   1      45.438  22.323  26.130  1.00  0.00     0.014 A 
ATOM     38  C   UNL A   1      43.427  23.987  25.172  1.00  0.00     0.010 A 
ATOM     39  C   UNL A   1      45.137  23.464  26.815  1.00  0.00     0.010 A 
ATOM     40  C   UNL A   1      44.195  24.340  26.295  1.00  0.00    -0.014 A 
BRANCH  40  41
ATOM     41  C   UNL A   1      43.963  25.576  27.034  1.00  0.00     0.031 A 
ATOM     42  C   UNL A   1      44.910  26.668  26.689  1.00  0.00     0.074 A 
ATOM     43  C   UNL A   1      42.853  25.773  27.784  1.00  0.00     0.049 A 
ATOM     44  N   UNL A   1      45.847  27.155  27.433  1.00  0.00    -0.248 NA
ATOM     45  C   UNL A   1      44.936  27.169  25.304  1.00  0.00     0.031 C 
ATOM     46  C   UNL A   1      41.687  24.889  27.937  1.00  0.00     0.029 A 
ATOM     47  N   UNL A   1      42.483  26.863  28.509  1.00  0.00    -0.354 N 
ATOM     48  C   UNL A   1      46.431  28.180  26.693  1.00  0.00     0.074 A 
ATOM     49  C   UNL A   1      45.978  28.003  25.340  1.00  0.00     0.031 C 
ATOM     50  C   UNL A   1      40.662  25.567  28.497  1.00  0.00     0.029 A 
ATOM     51  C   UNL A   1      41.151  26.863  28.920  1.00  0.00     0.049 A 
ATOM     52  H   UNL A   1      43.105  27.594  28.726  1.00  0.00     0.167 HD
ATOM     53  C   UNL A   1      46.999  29.244  27.326  1.00  0.00     0.037 A 
ATOM     54  C   UNL A   1      40.499  27.863  29.563  1.00  0.00     0.037 A 
ATOM     55  C   UNL A   1      47.215  28.940  28.722  1.00  0.00     0.049 A 
ATOM     56  C   UNL A   1      41.538  28.729  30.164  1.00  0.00     0.074 A 
ATOM     57  C   UNL A   1      47.976  28.032  29.428  1.00  0.00     0.029 A 
ATOM     58  N   UNL A   1      46.249  29.386  29.587  1.00  0.00    -0.354 N 
ATOM     59  N   UNL A   1      42.330  28.349  31.129  1.00  0.00    -0.248 NA
ATOM     60  C   UNL A   1      41.997  29.869  29.389  1.00  0.00     0.031 C 
ATOM     61  C   UNL A   1      47.173  27.663  30.550  1.00  0.00     0.029 A 
ATOM     62  C   UNL A   1      45.998  28.418  30.520  1.00  0.00     0.049 A 
ATOM     63  H   UNL A   1      45.807  30.264  29.545  1.00  0.00     0.167 HD
ATOM     64  C   UNL A   1      43.562  28.895  30.803  1.00  0.00     0.074 A 
ATOM     65  C   UNL A   1      43.268  29.910  29.794  1.00  0.00     0.031 C 
ATOM     66  C   UNL A   1      44.715  28.260  31.169  1.00  0.00     0.037 A 
BRANCH  53  67
ATOM     67  C   UNL A   1      46.926  30.680  26.839  1.00  0.00     0.064 A 
ATOM     68  C   UNL A   1      48.090  31.477  26.911  1.00  0.00     0.173 A 
ATOM     69  C   UNL A   1      45.725  31.391  26.626  1.00  0.00     0.173 A 
ATOM     70  F   UNL A   1      49.291  30.915  27.123  1.00  0.00    -0.203 F 
ATOM     71  C   UNL A   1      48.039  32.873  26.876  1.00  0.00     0.198 A 
ATOM     72  C   UNL A   1      45.685  32.784  26.540  1.00  0.00     0.198 A 
ATOM     73  F   UNL A   1      44.530  30.796  26.604  1.00  0.00    -0.203 F 
ATOM     74  F   UNL A   1      49.153  33.585  27.089  1.00  0.00    -0.200 F 
ATOM     75  C   UNL A   1      46.835  33.526  26.699  1.00  0.00     0.200 A 
ATOM     76  F   UNL A   1      44.503  33.398  26.388  1.00  0.00    -0.200 F 
ATOM     77  F   UNL A   1      46.770  34.863  26.734  1.00  0.00    -0.200 F 
ENDBRANCH  53  67
BRANCH  54  78
ATOM     78  C   UNL A   1      39.091  28.306  29.424  1.00  0.00     0.064 A 
ATOM     79  C   UNL A   1      38.278  28.497  30.554  1.00  0.00     0.173 A 
ATOM     80  C   UNL A   1      38.617  28.849  28.214  1.00  0.00     0.173 A 
ATOM     81  F   UNL A   1      38.676  28.052  31.754  1.00  0.00    -0.203 F 
ATOM     82  C   UNL A   1      37.080  29.221  30.485  1.00  0.00     0.198 A 
ATOM     83  C   UNL A   1      37.422  29.568  28.146  1.00  0.00     0.198 A 
ATOM     84  F   UNL A   1      39.357  28.780  27.097  1.00  0.00    -0.203 F 
ATOM     85  F   UNL A   1      36.367  29.442  31.598  1.00  0.00    -0.200 F 
ATOM     86  C   UNL A   1      36.661  29.768  29.284  1.00  0.00     0.200 A 
ATOM     87  F   UNL A   1      37.048  30.128  26.987  1.00  0.00    -0.200 F 
ATOM     88  F   UNL A   1      35.554  30.520  29.231  1.00  0.00    -0.200 F 
ENDBRANCH  54  78
BRANCH  66  89
ATOM     89  C   UNL A   1      44.612  27.177  32.209  1.00  0.00     0.064 A 
ATOM     90  C   UNL A   1      44.411  25.813  31.931  1.00  0.00     0.173 A 
ATOM     91  C   UNL A   1      44.851  27.532  33.543  1.00  0.00     0.173 A 
ATOM     92  F   UNL A   1      44.261  25.378  30.675  1.00  0.00    -0.203 F 
ATOM     93  C   UNL A   1      44.416  24.860  32.950  1.00  0.00     0.198 A 
ATOM     94  C   UNL A   1      44.893  26.575  34.552  1.00  0.00     0.198 A 
ATOM     95  F   UNL A   1      45.094  28.813  33.861  1.00  0.00    -0.203 F 
ATOM     96  F   UNL A   1      44.209  23.565  32.664  1.00  0.00    -0.200 F 
ATOM     97  C   UNL A   1      44.664  25.241  34.258  1.00  0.00     0.200 A 
ATOM     98  F   UNL A   1      45.179  26.945  35.807  1.00  0.00    -0.200 F 
ATOM     99  F   UNL A   1      44.709  24.322  35.232  1.00  0.00    -0.200 F 
ENDBRANCH  66  89
ENDBRANCH  40  41
ENDBRANCH  32  35
ENDBRANCH  30  31
ENDBRANCH  29  30
ENDBRANCH  28  29
ENDBRANCH  27  28
ENDBRANCH   1  27
TORSDOF 18
ENDMDL
MODEL 2
REMARK VINA RESULT:     -11.4      1.243      1.716
REMARK SMILES O=C(CC[N@H+]1CCC[C@H](c2nccn2Cc2cscn2)C1)NCCCCCCNC(=O)c1ccc(-c2c3nc(c(-c4c(F)c(F)c(F)c(F)c4F)c4ccc([nH]4)c(-c4c(F)c(F)c(F)c(F)c4F)c4nc(c(-c5c(F)c(F)c(F)c(F)c5F)c5ccc2[nH]5)C=C4)C=C3)cc1
REMARK SMILES IDX 24 1 23 2 22 3 1 4 2 5 3 7 4 8 5 9 6 10 21 11 7 13 9 14 8 15
REMARK SMILES IDX 10 16 11 17 14 18 12 19 13 20 15 21 16 22 17 23 20 24 18 25
REMARK SMILES IDX 19 26 25 27 26 28 27 29 28 30 29 31 30 32 31 34 32 35 33 36
REMARK SMILES IDX 94 37 34 38 93 39 35 40 36 41 37 42 87 43 38 44 92 45 86 46
REMARK SMILES IDX 88 47 39 48 91 49 85 50 84 51 40 53 72 54 52 55 71 56 53 57
REMARK SMILES IDX 56 58 70 59 89 60 54 61 55 62 69 64 90 65 57 66 41 67 42 68
REMARK SMILES IDX 50 69 43 70 44 71 48 72 51 73 45 74 46 75 49 76 47 77 73 78
REMARK SMILES IDX 74 79 82 80 75 81 76 82 80 83 83 84 77 85 78 86 81 87 79 88
REMARK SMILES IDX 58 89 59 90 67 91 60 92 61 93 65 94 68 95 62 96 63 97 66 98
REMARK SMILES IDX 64 99
REMARK H PARENT 22 6 5 12 29 33 88 52 56 63
REMARK Flexibility Score: inf
ROOT
ATOM      1  C   UNL A   1      39.171  22.578  26.549  1.00  0.00     0.021 C 
ENDROOT
BRANCH   1   2
ATOM      2  C   UNL A   1      37.984  22.510  25.574  1.00  0.00     0.116 C 
BRANCH   2   3
ATOM      3  N   UNL A   1      36.701  22.440  26.242  1.00  0.00    -0.356 N 
ATOM      4  O   UNL A   1      35.940  20.557  25.201  1.00  0.00    -0.275 OA
ATOM      5  C   UNL A   1      35.732  21.515  25.945  1.00  0.00     0.225 C 
ATOM      6  H   UNL A   1      36.513  23.095  26.952  1.00  0.00     0.163 HD
BRANCH   5   7
ATOM      7  C   UNL A   1      34.326  21.815  26.450  1.00  0.00     0.161 C 
BRANCH   7   8
ATOM      8  C   UNL A   1      33.956  23.257  26.807  1.00  0.00     0.272 C 
BRANCH   8   9
ATOM      9  N   UNL A   1      33.516  24.188  25.762  1.00  0.00    -0.334 N 
ATOM     10  C   UNL A   1      34.108  23.912  24.456  1.00  0.00     0.262 C 
ATOM     11  C   UNL A   1      32.175  24.749  25.835  1.00  0.00     0.273 C 
ATOM     12  H   UNL A   1      33.953  25.071  26.027  1.00  0.00     0.348 HD
ATOM     13  C   UNL A   1      33.777  24.944  23.384  1.00  0.00     0.062 C 
ATOM     14  C   UNL A   1      31.786  25.715  24.716  1.00  0.00     0.111 C 
ATOM     15  C   UNL A   1      32.288  25.216  23.354  1.00  0.00     0.023 C 
BRANCH  14  16
ATOM     16  C   UNL A   1      32.067  27.187  24.872  1.00  0.00     0.117 A 
ATOM     17  N   UNL A   1      32.582  27.621  26.014  1.00  0.00    -0.241 NA
ATOM     18  N   UNL A   1      31.886  28.249  24.006  1.00  0.00    -0.328 N 
ATOM     19  C   UNL A   1      32.756  28.963  25.895  1.00  0.00     0.131 A 
ATOM     20  C   UNL A   1      32.365  29.374  24.651  1.00  0.00     0.108 A 
BRANCH  18  21
ATOM     21  C   UNL A   1      31.434  28.306  22.623  1.00  0.00     0.180 C 
BRANCH  21  22
ATOM     22  C   UNL A   1      30.046  28.842  22.482  1.00  0.00     0.071 A 
ATOM     23  C   UNL A   1      28.950  28.523  23.264  1.00  0.00     0.092 A 
ATOM     24  N   UNL A   1      29.801  29.841  21.547  1.00  0.00    -0.248 NA
ATOM     25  S   UNL A   1      27.584  29.441  22.788  1.00  0.00    -0.130 S 
ATOM     26  C   UNL A   1      28.543  30.214  21.600  1.00  0.00     0.175 A 
ENDBRANCH  21  22
ENDBRANCH  18  21
ENDBRANCH  14  16
ENDBRANCH   8   9
ENDBRANCH   7   8
ENDBRANCH   5   7
ENDBRANCH   2   3
ENDBRANCH   1   2
BRANCH   1  27
ATOM     27  C   UNL A   1      40.014  21.305  26.728  1.00  0.00     0.002 C 
BRANCH  27  28
ATOM     28  C   UNL A   1      41.219  21.394  27.670  1.00  0.00     0.002 C 
BRANCH  28  29
ATOM     29  C   UNL A   1      42.409  20.473  27.403  1.00  0.00     0.021 C 
BRANCH  29  30
ATOM     30  C   UNL A   1      42.510  19.990  25.968  1.00  0.00     0.116 C 
BRANCH  30  31
ATOM     31  N   UNL A   1      43.866  19.619  25.544  1.00  0.00    -0.352 N 
ATOM     32  C   UNL A   1      44.812  20.471  24.998  1.00  0.00     0.251 C 
ATOM     33  H   UNL A   1      44.128  18.677  25.661  1.00  0.00     0.163 HD
ATOM     34  O   UNL A   1      45.754  20.061  24.320  1.00  0.00    -0.269 OA
BRANCH  32  35
ATOM     35  C   UNL A   1      44.665  21.906  25.278  1.00  0.00     0.039 A 
ATOM     36  C   UNL A   1      43.625  22.681  24.763  1.00  0.00     0.014 A 
ATOM     37  C   UNL A   1      45.554  22.422  26.215  1.00  0.00     0.014 A 
ATOM     38  C   UNL A   1      43.435  23.960  25.282  1.00  0.00     0.010 A 
ATOM     39  C   UNL A   1      45.226  23.570  26.875  1.00  0.00     0.010 A 
ATOM     40  C   UNL A   1      44.226  24.385  26.363  1.00  0.00    -0.014 A 
BRANCH  40  41
ATOM     41  C   UNL A   1      43.963  25.632  27.072  1.00  0.00     0.031 A 
ATOM     42  C   UNL A   1      44.901  26.731  26.721  1.00  0.00     0.074 A 
ATOM     43  C   UNL A   1      42.837  25.829  27.798  1.00  0.00     0.049 A 
ATOM     44  N   UNL A   1      45.817  27.246  27.472  1.00  0.00    -0.248 NA
ATOM     45  C   UNL A   1      44.945  27.202  25.326  1.00  0.00     0.031 C 
ATOM     46  C   UNL A   1      41.681  24.932  27.948  1.00  0.00     0.029 A 
ATOM     47  N   UNL A   1      42.438  26.928  28.492  1.00  0.00    -0.354 N 
ATOM     48  C   UNL A   1      46.400  28.264  26.720  1.00  0.00     0.074 A 
ATOM     49  C   UNL A   1      45.975  28.052  25.363  1.00  0.00     0.031 C 
ATOM     50  C   UNL A   1      40.636  25.606  28.475  1.00  0.00     0.029 A 
ATOM     51  C   UNL A   1      41.099  26.918  28.879  1.00  0.00     0.049 A 
ATOM     52  H   UNL A   1      43.046  27.673  28.705  1.00  0.00     0.167 HD
ATOM     53  C   UNL A   1      46.942  29.349  27.341  1.00  0.00     0.037 A 
ATOM     54  C   UNL A   1      40.422  27.922  29.489  1.00  0.00     0.037 A 
ATOM     55  C   UNL A   1      47.136  29.077  28.746  1.00  0.00     0.049 A 
ATOM     56  C   UNL A   1      41.438  28.815  30.091  1.00  0.00     0.074 A 
ATOM     57  C   UNL A   1      47.897  28.195  29.485  1.00  0.00     0.029 A 
ATOM     58  N   UNL A   1      46.149  29.527  29.585  1.00  0.00    -0.354 N 
ATOM     59  N   UNL A   1      42.217  28.466  31.077  1.00  0.00    -0.248 NA
ATOM     60  C   UNL A   1      41.894  29.944  29.300  1.00  0.00     0.031 C 
ATOM     61  C   UNL A   1      47.079  27.838  30.600  1.00  0.00     0.029 A 
ATOM     62  C   UNL A   1      45.895  28.576  30.533  1.00  0.00     0.049 A 
ATOM     63  H   UNL A   1      45.696  30.398  29.516  1.00  0.00     0.167 HD
ATOM     64  C   UNL A   1      43.447  29.023  30.762  1.00  0.00     0.074 A 
ATOM     65  C   UNL A   1      43.157  30.013  29.727  1.00  0.00     0.031 C 
ATOM     66  C   UNL A   1      44.602  28.412  31.162  1.00  0.00     0.037 A 
BRANCH  53  67
ATOM     67  C   UNL A   1      46.858  30.773  26.823  1.00  0.00     0.064 A 
ATOM     68  C   UNL A   1      48.016  31.579  26.873  1.00  0.00     0.173 A 
ATOM     69  C   UNL A   1      45.652  31.471  26.597  1.00  0.00     0.173 A 
ATOM     70  F   UNL A   1      49.222  31.030  27.094  1.00  0.00    -0.203 F 
ATOM     71  C   UNL A   1      47.956  32.974  26.807  1.00  0.00     0.198 A 
ATOM     72  C   UNL A   1      45.601  32.861  26.480  1.00  0.00     0.198 A 
ATOM     73  F   UNL A   1      44.460  30.868  26.592  1.00  0.00    -0.203 F 
ATOM     74  F   UNL A   1      49.065  33.698  27.002  1.00  0.00    -0.200 F 
ATOM     75  C   UNL A   1      46.746  33.615  26.620  1.00  0.00     0.200 A 
ATOM     76  F   UNL A   1      44.415  33.464  26.318  1.00  0.00    -0.200 F 
ATOM     77  F   UNL A   1      46.673  34.952  26.625  1.00  0.00    -0.200 F 
ENDBRANCH  53  67
BRANCH  54  78
ATOM     78  C   UNL A   1      39.010  28.341  29.316  1.00  0.00     0.064 A 
ATOM     79  C   UNL A   1      38.163  28.506  30.424  1.00  0.00     0.173 A 
ATOM     80  C   UNL A   1      38.561  28.890  28.099  1.00  0.00     0.173 A 
ATOM     81  F   UNL A   1      38.536  28.054  31.630  1.00  0.00    -0.203 F 
ATOM     82  C   UNL A   1      36.955  29.208  30.330  1.00  0.00     0.198 A 
ATOM     83  C   UNL A   1      37.355  29.589  28.005  1.00  0.00     0.198 A 
ATOM     84  F   UNL A   1      39.332  28.846  27.003  1.00  0.00    -0.203 F 
ATOM     85  F   UNL A   1      36.207  29.404  31.425  1.00  0.00    -0.200 F 
ATOM     86  C   UNL A   1      36.560  29.762  29.123  1.00  0.00     0.200 A 
ATOM     87  F   UNL A   1      37.004  30.155  26.843  1.00  0.00    -0.200 F 
ATOM     88  F   UNL A   1      35.441  30.495  29.048  1.00  0.00    -0.200 F 
ENDBRANCH  54  78
BRANCH  66  89
ATOM     89  C   UNL A   1      44.495  27.350  32.222  1.00  0.00     0.064 A 
ATOM     90  C   UNL A   1      44.418  25.969  31.971  1.00  0.00     0.173 A 
ATOM     91  C   UNL A   1      44.598  27.754  33.560  1.00  0.00     0.173 A 
ATOM     92  F   UNL A   1      44.402  25.493  30.721  1.00  0.00    -0.203 F 
ATOM     93  C   UNL A   1      44.410  25.043  33.016  1.00  0.00     0.198 A 
ATOM     94  C   UNL A   1      44.629  26.828  34.598  1.00  0.00     0.198 A 
ATOM     95  F   UNL A   1      44.720  29.057  33.858  1.00  0.00    -0.203 F 
ATOM     96  F   UNL A   1      44.323  23.730  32.752  1.00  0.00    -0.200 F 
ATOM     97  C   UNL A   1      44.523  25.473  34.326  1.00  0.00     0.200 A 
ATOM     98  F   UNL A   1      44.785  27.248  35.860  1.00  0.00    -0.200 F 
ATOM     99  F   UNL A   1      44.557  24.584  35.328  1.00  0.00    -0.200 F 
ENDBRANCH  66  89
ENDBRANCH  40  41
ENDBRANCH  32  35
ENDBRANCH  30  31
ENDBRANCH  29  30
ENDBRANCH  28  29
ENDBRANCH  27  28
ENDBRANCH   1  27
TORSDOF 18
ENDMDL
MODEL 3
REMARK VINA RESULT:     -11.2      4.236      9.870
REMARK SMILES O=C(CC[N@H+]1CCC[C@H](c2nccn2Cc2cscn2)C1)NCCCCCCNC(=O)c1ccc(-c2c3nc(c(-c4c(F)c(F)c(F)c(F)c4F)c4ccc([nH]4)c(-c4c(F)c(F)c(F)c(F)c4F)c4nc(c(-c5c(F)c(F)c(F)c(F)c5F)c5ccc2[nH]5)C=C4)C=C3)cc1
REMARK SMILES IDX 24 1 23 2 22 3 1 4 2 5 3 7 4 8 5 9 6 10 21 11 7 13 9 14 8 15
REMARK SMILES IDX 10 16 11 17 14 18 12 19 13 20 15 21 16 22 17 23 20 24 18 25
REMARK SMILES IDX 19 26 25 27 26 28 27 29 28 30 29 31 30 32 31 34 32 35 33 36
REMARK SMILES IDX 94 37 34 38 93 39 35 40 36 41 37 42 87 43 38 44 92 45 86 46
REMARK SMILES IDX 88 47 39 48 91 49 85 50 84 51 40 53 72 54 52 55 71 56 53 57
REMARK SMILES IDX 56 58 70 59 89 60 54 61 55 62 69 64 90 65 57 66 41 67 42 68
REMARK SMILES IDX 50 69 43 70 44 71 48 72 51 73 45 74 46 75 49 76 47 77 73 78
REMARK SMILES IDX 74 79 82 80 75 81 76 82 80 83 83 84 77 85 78 86 81 87 79 88
REMARK SMILES IDX 58 89 59 90 67 91 60 92 61 93 65 94 68 95 62 96 63 97 66 98
REMARK SMILES IDX 64 99
REMARK H PARENT 22 6 5 12 29 33 88 52 56 63
REMARK Flexibility Score: inf
ROOT
ATOM      1  C   UNL A   1      34.825  30.499  27.695  1.00  0.00     0.021 C 
ENDROOT
BRANCH   1   2
ATOM      2  C   UNL A   1      34.080  29.267  27.157  1.00  0.00     0.116 C 
BRANCH   2   3
ATOM      3  N   UNL A   1      34.239  29.083  25.729  1.00  0.00    -0.356 N 
ATOM      4  O   UNL A   1      32.046  29.359  25.161  1.00  0.00    -0.275 OA
ATOM      5  C   UNL A   1      33.195  29.057  24.840  1.00  0.00     0.225 C 
ATOM      6  H   UNL A   1      35.151  28.971  25.376  1.00  0.00     0.163 HD
BRANCH   5   7
ATOM      7  C   UNL A   1      33.488  28.477  23.461  1.00  0.00     0.161 C 
BRANCH   7   8
ATOM      8  C   UNL A   1      32.641  27.307  22.952  1.00  0.00     0.272 C 
BRANCH   8   9
ATOM      9  N   UNL A   1      32.805  25.968  23.530  1.00  0.00    -0.334 N 
ATOM     10  C   UNL A   1      32.178  25.825  24.841  1.00  0.00     0.262 C 
ATOM     11  C   UNL A   1      32.871  24.819  22.639  1.00  0.00     0.273 C 
ATOM     12  H   UNL A   1      33.800  25.920  23.748  1.00  0.00     0.348 HD
ATOM     13  C   UNL A   1      32.447  24.490  25.525  1.00  0.00     0.062 C 
ATOM     14  C   UNL A   1      33.046  23.456  23.310  1.00  0.00     0.111 C 
ATOM     15  C   UNL A   1      32.180  23.344  24.572  1.00  0.00     0.023 C 
BRANCH  14  16
ATOM     16  C   UNL A   1      34.432  22.930  23.576  1.00  0.00     0.117 A 
ATOM     17  N   UNL A   1      35.463  23.515  22.981  1.00  0.00    -0.241 NA
ATOM     18  N   UNL A   1      34.879  21.891  24.372  1.00  0.00    -0.328 N 
ATOM     19  C   UNL A   1      36.586  22.875  23.396  1.00  0.00     0.131 A 
ATOM     20  C   UNL A   1      36.259  21.887  24.283  1.00  0.00     0.108 A 
BRANCH  18  21
ATOM     21  C   UNL A   1      34.178  20.997  25.282  1.00  0.00     0.180 C 
BRANCH  21  22
ATOM     22  C   UNL A   1      33.736  19.727  24.630  1.00  0.00     0.071 A 
ATOM     23  C   UNL A   1      32.584  19.531  23.890  1.00  0.00     0.092 A 
ATOM     24  N   UNL A   1      34.583  18.625  24.657  1.00  0.00    -0.248 NA
ATOM     25  S   UNL A   1      32.531  17.935  23.268  1.00  0.00    -0.130 S 
ATOM     26  C   UNL A   1      34.047  17.623  23.999  1.00  0.00     0.175 A 
ENDBRANCH  21  22
ENDBRANCH  18  21
ENDBRANCH  14  16
ENDBRANCH   8   9
ENDBRANCH   7   8
ENDBRANCH   5   7
ENDBRANCH   2   3
ENDBRANCH   1   2
BRANCH   1  27
ATOM     27  C   UNL A   1      33.976  31.645  28.268  1.00  0.00     0.002 C 
BRANCH  27  28
ATOM     28  C   UNL A   1      34.476  33.073  28.025  1.00  0.00     0.002 C 
BRANCH  28  29
ATOM     29  C   UNL A   1      33.552  34.231  28.398  1.00  0.00     0.021 C 
BRANCH  29  30
ATOM     30  C   UNL A   1      34.223  35.323  29.210  1.00  0.00     0.116 C 
BRANCH  30  31
ATOM     31  N   UNL A   1      33.497  35.713  30.425  1.00  0.00    -0.352 N 
ATOM     32  C   UNL A   1      33.476  35.016  31.623  1.00  0.00     0.251 C 
ATOM     33  H   UNL A   1      32.976  36.548  30.386  1.00  0.00     0.163 HD
ATOM     34  O   UNL A   1      32.579  35.159  32.453  1.00  0.00    -0.269 OA
BRANCH  32  35
ATOM     35  C   UNL A   1      34.594  34.099  31.885  1.00  0.00     0.039 A 
ATOM     36  C   UNL A   1      34.486  32.712  31.774  1.00  0.00     0.014 A 
ATOM     37  C   UNL A   1      35.822  34.711  32.116  1.00  0.00     0.014 A 
ATOM     38  C   UNL A   1      35.655  31.954  31.801  1.00  0.00     0.010 A 
ATOM     39  C   UNL A   1      36.965  33.996  31.911  1.00  0.00     0.010 A 
ATOM     40  C   UNL A   1      36.897  32.611  31.840  1.00  0.00    -0.014 A 
BRANCH  40  41
ATOM     41  C   UNL A   1      38.157  31.894  31.687  1.00  0.00     0.031 A 
ATOM     42  C   UNL A   1      38.853  31.623  32.973  1.00  0.00     0.074 A 
ATOM     43  C   UNL A   1      38.533  31.333  30.514  1.00  0.00     0.049 A 
ATOM     44  N   UNL A   1      39.949  32.158  33.397  1.00  0.00    -0.248 NA
ATOM     45  C   UNL A   1      38.173  30.789  33.980  1.00  0.00     0.031 C 
ATOM     46  C   UNL A   1      37.774  31.253  29.256  1.00  0.00     0.029 A 
ATOM     47  N   UNL A   1      39.654  30.622  30.217  1.00  0.00    -0.354 N 
ATOM     48  C   UNL A   1      40.218  31.557  34.625  1.00  0.00     0.074 A 
ATOM     49  C   UNL A   1      39.005  30.894  35.020  1.00  0.00     0.031 C 
ATOM     50  C   UNL A   1      38.341  30.348  28.429  1.00  0.00     0.029 A 
ATOM     51  C   UNL A   1      39.601  29.930  29.008  1.00  0.00     0.049 A 
ATOM     52  H   UNL A   1      40.441  30.598  30.808  1.00  0.00     0.167 HD
ATOM     53  C   UNL A   1      41.505  31.425  35.054  1.00  0.00     0.037 A 
ATOM     54  C   UNL A   1      40.531  29.072  28.521  1.00  0.00     0.037 A 
ATOM     55  C   UNL A   1      42.379  32.281  34.288  1.00  0.00     0.049 A 
ATOM     56  C   UNL A   1      41.793  29.361  29.241  1.00  0.00     0.074 A 
ATOM     57  C   UNL A   1      42.514  33.641  34.102  1.00  0.00     0.029 A 
ATOM     58  N   UNL A   1      43.036  31.684  33.243  1.00  0.00    -0.354 N 
ATOM     59  N   UNL A   1      42.459  30.476  29.117  1.00  0.00    -0.248 NA
ATOM     60  C   UNL A   1      42.077  28.590  30.438  1.00  0.00     0.031 C 
ATOM     61  C   UNL A   1      42.881  33.796  32.730  1.00  0.00     0.029 A 
ATOM     62  C   UNL A   1      43.030  32.527  32.166  1.00  0.00     0.049 A 
ATOM     63  H   UNL A   1      43.447  30.790  33.264  1.00  0.00     0.167 HD
ATOM     64  C   UNL A   1      42.895  30.764  30.401  1.00  0.00     0.074 A 
ATOM     65  C   UNL A   1      42.732  29.515  31.143  1.00  0.00     0.031 C 
ATOM     66  C   UNL A   1      43.061  32.061  30.797  1.00  0.00     0.037 A 
BRANCH  53  67
ATOM     67  C   UNL A   1      42.046  30.222  35.805  1.00  0.00     0.064 A 
ATOM     68  C   UNL A   1      42.994  30.436  36.829  1.00  0.00     0.173 A 
ATOM     69  C   UNL A   1      41.937  28.886  35.358  1.00  0.00     0.173 A 
ATOM     70  F   UNL A   1      43.196  31.666  37.327  1.00  0.00    -0.203 F 
ATOM     71  C   UNL A   1      43.833  29.417  37.291  1.00  0.00     0.198 A 
ATOM     72  C   UNL A   1      42.741  27.861  35.859  1.00  0.00     0.198 A 
ATOM     73  F   UNL A   1      41.139  28.527  34.349  1.00  0.00    -0.203 F 
ATOM     74  F   UNL A   1      44.810  29.703  38.161  1.00  0.00    -0.200 F 
ATOM     75  C   UNL A   1      43.712  28.132  36.799  1.00  0.00     0.200 A 
ATOM     76  F   UNL A   1      42.621  26.626  35.353  1.00  0.00    -0.200 F 
ATOM     77  F   UNL A   1      44.558  27.169  37.186  1.00  0.00    -0.200 F 
ENDBRANCH  53  67
BRANCH  54  78
ATOM     78  C   UNL A   1      40.341  27.828  27.738  1.00  0.00     0.064 A 
ATOM     79  C   UNL A   1      41.121  27.562  26.600  1.00  0.00     0.173 A 
ATOM     80  C   UNL A   1      39.617  26.741  28.266  1.00  0.00     0.173 A 
ATOM     81  F   UNL A   1      41.876  28.530  26.061  1.00  0.00    -0.203 F 
ATOM     82  C   UNL A   1      41.203  26.279  26.046  1.00  0.00     0.198 A 
ATOM     83  C   UNL A   1      39.697  25.462  27.712  1.00  0.00     0.198 A 
ATOM     84  F   UNL A   1      38.901  26.879  29.392  1.00  0.00    -0.203 F 
ATOM     85  F   UNL A   1      42.013  26.050  25.003  1.00  0.00    -0.200 F 
ATOM     86  C   UNL A   1      40.501  25.227  26.611  1.00  0.00     0.200 A 
ATOM     87  F   UNL A   1      39.047  24.444  28.292  1.00  0.00    -0.200 F 
ATOM     88  F   UNL A   1      40.634  23.984  26.127  1.00  0.00    -0.200 F 
ENDBRANCH  54  78
BRANCH  66  89
ATOM     89  C   UNL A   1      43.098  33.116  29.724  1.00  0.00     0.064 A 
ATOM     90  C   UNL A   1      42.022  33.954  29.383  1.00  0.00     0.173 A 
ATOM     91  C   UNL A   1      44.328  33.363  29.099  1.00  0.00     0.173 A 
ATOM     92  F   UNL A   1      40.837  33.841  29.994  1.00  0.00    -0.203 F 
ATOM     93  C   UNL A   1      42.167  34.967  28.435  1.00  0.00     0.198 A 
ATOM     94  C   UNL A   1      44.480  34.399  28.182  1.00  0.00     0.198 A 
ATOM     95  F   UNL A   1      45.402  32.625  29.418  1.00  0.00    -0.203 F 
ATOM     96  F   UNL A   1      41.122  35.747  28.116  1.00  0.00    -0.200 F 
ATOM     97  C   UNL A   1      43.398  35.193  27.842  1.00  0.00     0.200 A 
ATOM     98  F   UNL A   1      45.684  34.641  27.647  1.00  0.00    -0.200 F 
ATOM     99  F   UNL A   1      43.549  36.192  26.961  1.00  0.00    -0.200 F 
ENDBRANCH  66  89
ENDBRANCH  40  41
ENDBRANCH  32  35
ENDBRANCH  30  31
ENDBRANCH  29  30
ENDBRANCH  28  29
ENDBRANCH  27  28
ENDBRANCH   1  27
TORSDOF 18
ENDMDL
