MODEL 1
REMARK VINA RESULT:     -12.1      0.000      0.000
REMARK SMILES O=C(CC1(NC(=O)C2(c3ccccc3)CC2)CCC1)NCCCCCCNC(=O)c1ccc(-c2c3nc(c(-c4c(F)c(F)c(F)c(F)c4F)c4ccc([nH]4)c(-c4c(F)c(F)c(F)c(F)c4F)c4nc(c(-c5c(F)c(F)c(F)c(F)c5F)c5ccc2[nH]5)C=C4)C=C3)cc1
REMARK SMILES IDX 22 1 21 2 20 3 1 4 2 5 3 7 4 8 17 9 19 10 18 11 5 12 6 13
REMARK SMILES IDX 7 15 8 16 15 17 16 18 9 19 10 20 14 21 11 22 13 23 12 24
REMARK SMILES IDX 23 25 24 26 25 27 26 28 27 29 28 30 29 32 30 33 31 34 92 35
REMARK SMILES IDX 32 36 91 37 33 38 34 39 35 40 85 41 36 42 90 43 84 44 86 45
REMARK SMILES IDX 37 46 89 47 83 48 82 49 38 51 70 52 50 53 69 54 51 55 54 56
REMARK SMILES IDX 68 57 87 58 52 59 53 60 67 62 88 63 55 64 39 65 40 66 48 67
REMARK SMILES IDX 41 68 42 69 46 70 49 71 43 72 44 73 47 74 45 75 71 76 72 77
REMARK SMILES IDX 80 78 73 79 74 80 78 81 81 82 75 83 76 84 79 85 77 86 56 87
REMARK SMILES IDX 57 88 65 89 58 90 59 91 63 92 66 93 60 94 61 95 64 96 62 97
REMARK H PARENT 20 6 5 14 27 31 86 50 54 61
REMARK Flexibility Score: inf
ROOT
ATOM      1  C   UNL A   1      31.965  28.185  26.631  1.00  0.00     0.021 C 
ENDROOT
BRANCH   1   2
ATOM      2  C   UNL A   1      33.239  27.915  25.816  1.00  0.00     0.116 C 
BRANCH   2   3
ATOM      3  N   UNL A   1      33.768  26.582  26.032  1.00  0.00    -0.356 N 
ATOM      4  O   UNL A   1      34.029  26.007  23.836  1.00  0.00    -0.275 OA
ATOM      5  C   UNL A   1      34.077  25.700  25.026  1.00  0.00     0.222 C 
ATOM      6  H   UNL A   1      33.916  26.291  26.960  1.00  0.00     0.163 HD
BRANCH   5   7
ATOM      7  C   UNL A   1      34.324  24.261  25.452  1.00  0.00     0.128 C 
BRANCH   7   8
ATOM      8  C   UNL A   1      35.146  23.345  24.544  1.00  0.00     0.049 C 
ATOM      9  C   UNL A   1      36.711  23.334  24.674  1.00  0.00     0.029 C 
ATOM     10  C   UNL A   1      35.207  21.900  25.149  1.00  0.00     0.029 C 
ATOM     11  C   UNL A   1      36.666  21.798  24.686  1.00  0.00     0.005 C 
BRANCH   8  12
ATOM     12  N   UNL A   1      34.739  23.376  23.111  1.00  0.00    -0.349 N 
ATOM     13  C   UNL A   1      33.555  23.006  22.500  1.00  0.00     0.231 C 
ATOM     14  H   UNL A   1      35.429  23.716  22.496  1.00  0.00     0.164 HD
ATOM     15  O   UNL A   1      33.391  23.333  21.325  1.00  0.00    -0.274 OA
BRANCH  13  16
ATOM     16  C   UNL A   1      32.472  22.229  23.226  1.00  0.00     0.074 C 
ATOM     17  C   UNL A   1      31.778  21.145  22.376  1.00  0.00     0.023 C 
ATOM     18  C   UNL A   1      32.618  20.740  23.532  1.00  0.00     0.023 C 
BRANCH  16  19
ATOM     19  C   UNL A   1      31.558  23.084  24.093  1.00  0.00    -0.032 A 
ATOM     20  C   UNL A   1      31.039  24.285  23.580  1.00  0.00     0.005 A 
ATOM     21  C   UNL A   1      31.301  22.791  25.444  1.00  0.00     0.005 A 
ATOM     22  C   UNL A   1      30.380  25.199  24.401  1.00  0.00     0.000 A 
ATOM     23  C   UNL A   1      30.652  23.706  26.272  1.00  0.00     0.000 A 
ATOM     24  C   UNL A   1      30.212  24.920  25.754  1.00  0.00     0.000 A 
ENDBRANCH  16  19
ENDBRANCH  13  16
ENDBRANCH   8  12
ENDBRANCH   7   8
ENDBRANCH   5   7
ENDBRANCH   2   3
ENDBRANCH   1   2
BRANCH   1  25
ATOM     25  C   UNL A   1      31.815  29.606  27.188  1.00  0.00     0.002 C 
BRANCH  25  26
ATOM     26  C   UNL A   1      31.686  30.724  26.153  1.00  0.00     0.002 C 
BRANCH  26  27
ATOM     27  C   UNL A   1      31.404  32.101  26.749  1.00  0.00     0.021 C 
BRANCH  27  28
ATOM     28  C   UNL A   1      32.640  32.814  27.282  1.00  0.00     0.116 C 
BRANCH  28  29
ATOM     29  N   UNL A   1      32.375  34.203  27.626  1.00  0.00    -0.352 N 
ATOM     30  C   UNL A   1      32.958  34.959  28.619  1.00  0.00     0.251 C 
ATOM     31  H   UNL A   1      31.695  34.660  27.081  1.00  0.00     0.163 HD
ATOM     32  O   UNL A   1      32.528  36.063  28.911  1.00  0.00    -0.269 OA
BRANCH  30  33
ATOM     33  C   UNL A   1      34.107  34.390  29.356  1.00  0.00     0.039 A 
ATOM     34  C   UNL A   1      33.873  33.653  30.518  1.00  0.00     0.014 A 
ATOM     35  C   UNL A   1      35.404  34.536  28.855  1.00  0.00     0.014 A 
ATOM     36  C   UNL A   1      34.937  33.003  31.144  1.00  0.00     0.010 A 
ATOM     37  C   UNL A   1      36.449  33.828  29.438  1.00  0.00     0.010 A 
ATOM     38  C   UNL A   1      36.227  33.054  30.588  1.00  0.00    -0.014 A 
BRANCH  38  39
ATOM     39  C   UNL A   1      37.357  32.304  31.192  1.00  0.00     0.031 A 
ATOM     40  C   UNL A   1      37.855  32.672  32.562  1.00  0.00     0.074 A 
ATOM     41  C   UNL A   1      37.977  31.340  30.484  1.00  0.00     0.049 A 
ATOM     42  N   UNL A   1      38.870  32.190  33.232  1.00  0.00    -0.248 NA
ATOM     43  C   UNL A   1      37.131  33.748  33.260  1.00  0.00     0.031 C 
ATOM     44  C   UNL A   1      37.619  30.924  29.127  1.00  0.00     0.029 A 
ATOM     45  N   UNL A   1      39.047  30.542  30.804  1.00  0.00    -0.354 N 
ATOM     46  C   UNL A   1      38.914  32.909  34.419  1.00  0.00     0.074 A 
ATOM     47  C   UNL A   1      37.861  33.899  34.354  1.00  0.00     0.031 C 
ATOM     48  C   UNL A   1      38.437  29.933  28.740  1.00  0.00     0.029 A 
ATOM     49  C   UNL A   1      39.402  29.669  29.804  1.00  0.00     0.049 A 
ATOM     50  H   UNL A   1      39.517  30.590  31.667  1.00  0.00     0.167 HD
ATOM     51  C   UNL A   1      39.740  32.741  35.479  1.00  0.00     0.037 A 
ATOM     52  C   UNL A   1      40.398  28.763  29.750  1.00  0.00     0.037 A 
ATOM     53  C   UNL A   1      40.771  31.739  35.549  1.00  0.00     0.049 A 
ATOM     54  C   UNL A   1      41.311  28.606  30.937  1.00  0.00     0.074 A 
ATOM     55  C   UNL A   1      41.623  31.450  36.601  1.00  0.00     0.029 A 
ATOM     56  N   UNL A   1      41.092  30.863  34.521  1.00  0.00    -0.354 N 
ATOM     57  N   UNL A   1      41.298  29.242  32.082  1.00  0.00    -0.248 NA
ATOM     58  C   UNL A   1      42.375  27.597  30.824  1.00  0.00     0.031 C 
ATOM     59  C   UNL A   1      42.490  30.431  36.193  1.00  0.00     0.029 A 
ATOM     60  C   UNL A   1      42.144  30.048  34.907  1.00  0.00     0.049 A 
ATOM     61  H   UNL A   1      40.639  30.827  33.648  1.00  0.00     0.167 HD
ATOM     62  C   UNL A   1      42.327  28.695  32.836  1.00  0.00     0.074 A 
ATOM     63  C   UNL A   1      42.936  27.662  32.023  1.00  0.00     0.031 C 
ATOM     64  C   UNL A   1      42.732  29.018  34.089  1.00  0.00     0.037 A 
BRANCH  51  65
ATOM     65  C   UNL A   1      39.560  33.658  36.652  1.00  0.00     0.064 A 
ATOM     66  C   UNL A   1      38.750  33.307  37.744  1.00  0.00     0.173 A 
ATOM     67  C   UNL A   1      40.231  34.889  36.705  1.00  0.00     0.173 A 
ATOM     68  F   UNL A   1      38.077  32.146  37.737  1.00  0.00    -0.203 F 
ATOM     69  C   UNL A   1      38.597  34.165  38.829  1.00  0.00     0.198 A 
ATOM     70  C   UNL A   1      40.101  35.730  37.807  1.00  0.00     0.198 A 
ATOM     71  F   UNL A   1      41.023  35.273  35.692  1.00  0.00    -0.203 F 
ATOM     72  F   UNL A   1      37.778  33.828  39.836  1.00  0.00    -0.200 F 
ATOM     73  C   UNL A   1      39.277  35.371  38.865  1.00  0.00     0.200 A 
ATOM     74  F   UNL A   1      40.770  36.891  37.846  1.00  0.00    -0.200 F 
ATOM     75  F   UNL A   1      39.135  36.192  39.914  1.00  0.00    -0.200 F 
ENDBRANCH  51  65
BRANCH  52  76
ATOM     76  C   UNL A   1      40.571  27.918  28.539  1.00  0.00     0.064 A 
ATOM     77  C   UNL A   1      41.349  28.359  27.460  1.00  0.00     0.173 A 
ATOM     78  C   UNL A   1      39.958  26.662  28.430  1.00  0.00     0.173 A 
ATOM     79  F   UNL A   1      41.938  29.563  27.508  1.00  0.00    -0.203 F 
ATOM     80  C   UNL A   1      41.489  27.587  26.308  1.00  0.00     0.198 A 
ATOM     81  C   UNL A   1      40.122  25.877  27.290  1.00  0.00     0.198 A 
ATOM     82  F   UNL A   1      39.206  26.191  29.435  1.00  0.00    -0.203 F 
ATOM     83  F   UNL A   1      42.199  28.055  25.273  1.00  0.00    -0.200 F 
ATOM     84  C   UNL A   1      40.880  26.344  26.227  1.00  0.00     0.200 A 
ATOM     85  F   UNL A   1      39.544  24.670  27.221  1.00  0.00    -0.200 F 
ATOM     86  F   UNL A   1      41.017  25.599  25.121  1.00  0.00    -0.200 F 
ENDBRANCH  52  76
BRANCH  64  87
ATOM     87  C   UNL A   1      43.863  28.224  34.675  1.00  0.00     0.064 A 
ATOM     88  C   UNL A   1      45.196  28.645  34.560  1.00  0.00     0.173 A 
ATOM     89  C   UNL A   1      43.603  27.051  35.400  1.00  0.00     0.173 A 
ATOM     90  F   UNL A   1      45.498  29.751  33.864  1.00  0.00    -0.203 F 
ATOM     91  C   UNL A   1      46.230  27.906  35.131  1.00  0.00     0.198 A 
ATOM     92  C   UNL A   1      44.637  26.333  35.996  1.00  0.00     0.198 A 
ATOM     93  F   UNL A   1      42.345  26.610  35.545  1.00  0.00    -0.203 F 
ATOM     94  F   UNL A   1      47.500  28.302  34.969  1.00  0.00    -0.200 F 
ATOM     95  C   UNL A   1      45.949  26.757  35.854  1.00  0.00     0.200 A 
ATOM     96  F   UNL A   1      44.362  25.231  36.707  1.00  0.00    -0.200 F 
ATOM     97  F   UNL A   1      46.945  26.054  36.411  1.00  0.00    -0.200 F 
ENDBRANCH  64  87
ENDBRANCH  38  39
ENDBRANCH  30  33
ENDBRANCH  28  29
ENDBRANCH  27  28
ENDBRANCH  26  27
ENDBRANCH  25  26
ENDBRANCH   1  25
TORSDOF 17
ENDMDL
MODEL 2
REMARK VINA RESULT:     -12.0      0.464      7.206
REMARK SMILES O=C(CC1(NC(=O)C2(c3ccccc3)CC2)CCC1)NCCCCCCNC(=O)c1ccc(-c2c3nc(c(-c4c(F)c(F)c(F)c(F)c4F)c4ccc([nH]4)c(-c4c(F)c(F)c(F)c(F)c4F)c4nc(c(-c5c(F)c(F)c(F)c(F)c5F)c5ccc2[nH]5)C=C4)C=C3)cc1
REMARK SMILES IDX 22 1 21 2 20 3 1 4 2 5 3 7 4 8 17 9 19 10 18 11 5 12 6 13
REMARK SMILES IDX 7 15 8 16 15 17 16 18 9 19 10 20 14 21 11 22 13 23 12 24
REMARK SMILES IDX 23 25 24 26 25 27 26 28 27 29 28 30 29 32 30 33 31 34 92 35
REMARK SMILES IDX 32 36 91 37 33 38 34 39 35 40 85 41 36 42 90 43 84 44 86 45
REMARK SMILES IDX 37 46 89 47 83 48 82 49 38 51 70 52 50 53 69 54 51 55 54 56
REMARK SMILES IDX 68 57 87 58 52 59 53 60 67 62 88 63 55 64 39 65 40 66 48 67
REMARK SMILES IDX 41 68 42 69 46 70 49 71 43 72 44 73 47 74 45 75 71 76 72 77
REMARK SMILES IDX 80 78 73 79 74 80 78 81 81 82 75 83 76 84 79 85 77 86 56 87
REMARK SMILES IDX 57 88 65 89 58 90 59 91 63 92 66 93 60 94 61 95 64 96 62 97
REMARK H PARENT 20 6 5 14 27 31 86 50 54 61
REMARK Flexibility Score: inf
ROOT
ATOM      1  C   UNL A   1      32.034  27.934  26.772  1.00  0.00     0.021 C 
ENDROOT
BRANCH   1   2
ATOM      2  C   UNL A   1      33.318  27.748  25.949  1.00  0.00     0.116 C 
BRANCH   2   3
ATOM      3  N   UNL A   1      33.874  26.415  26.074  1.00  0.00    -0.356 N 
ATOM      4  O   UNL A   1      34.052  25.958  23.843  1.00  0.00    -0.275 OA
ATOM      5  C   UNL A   1      34.153  25.591  25.012  1.00  0.00     0.222 C 
ATOM      6  H   UNL A   1      34.065  26.079  26.979  1.00  0.00     0.163 HD
BRANCH   5   7
ATOM      7  C   UNL A   1      34.438  24.135  25.353  1.00  0.00     0.128 C 
BRANCH   7   8
ATOM      8  C   UNL A   1      35.231  23.280  24.365  1.00  0.00     0.049 C 
ATOM      9  C   UNL A   1      36.800  23.317  24.399  1.00  0.00     0.029 C 
ATOM     10  C   UNL A   1      35.375  21.818  24.912  1.00  0.00     0.029 C 
ATOM     11  C   UNL A   1      36.806  21.782  24.358  1.00  0.00     0.005 C 
BRANCH   8  12
ATOM     12  N   UNL A   1      34.735  23.345  22.960  1.00  0.00    -0.349 N 
ATOM     13  C   UNL A   1      33.515  22.990  22.416  1.00  0.00     0.231 C 
ATOM     14  H   UNL A   1      35.386  23.701  22.312  1.00  0.00     0.164 HD
ATOM     15  O   UNL A   1      33.279  23.346  21.262  1.00  0.00    -0.274 OA
BRANCH  13  16
ATOM     16  C   UNL A   1      32.479  22.196  23.188  1.00  0.00     0.074 C 
ATOM     17  C   UNL A   1      31.778  21.088  22.375  1.00  0.00     0.023 C 
ATOM     18  C   UNL A   1      32.670  20.713  23.502  1.00  0.00     0.023 C 
BRANCH  16  19
ATOM     19  C   UNL A   1      31.578  23.037  24.083  1.00  0.00    -0.032 A 
ATOM     20  C   UNL A   1      31.057  24.249  23.599  1.00  0.00     0.005 A 
ATOM     21  C   UNL A   1      31.339  22.721  25.432  1.00  0.00     0.005 A 
ATOM     22  C   UNL A   1      30.411  25.150  24.444  1.00  0.00     0.000 A 
ATOM     23  C   UNL A   1      30.704  23.624  26.285  1.00  0.00     0.000 A 
ATOM     24  C   UNL A   1      30.260  24.847  25.794  1.00  0.00     0.000 A 
ENDBRANCH  16  19
ENDBRANCH  13  16
ENDBRANCH   8  12
ENDBRANCH   7   8
ENDBRANCH   5   7
ENDBRANCH   2   3
ENDBRANCH   1   2
BRANCH   1  25
ATOM     25  C   UNL A   1      31.746  29.362  27.250  1.00  0.00     0.002 C 
BRANCH  25  26
ATOM     26  C   UNL A   1      32.027  30.479  26.244  1.00  0.00     0.002 C 
BRANCH  26  27
ATOM     27  C   UNL A   1      31.650  31.874  26.734  1.00  0.00     0.021 C 
BRANCH  27  28
ATOM     28  C   UNL A   1      32.799  32.641  27.377  1.00  0.00     0.116 C 
BRANCH  28  29
ATOM     29  N   UNL A   1      32.473  34.039  27.610  1.00  0.00    -0.352 N 
ATOM     30  C   UNL A   1      33.007  34.891  28.551  1.00  0.00     0.251 C 
ATOM     31  H   UNL A   1      31.785  34.425  27.022  1.00  0.00     0.163 HD
ATOM     32  O   UNL A   1      32.528  35.996  28.752  1.00  0.00    -0.269 OA
BRANCH  30  33
ATOM     33  C   UNL A   1      34.165  34.427  29.347  1.00  0.00     0.039 A 
ATOM     34  C   UNL A   1      33.942  33.837  30.592  1.00  0.00     0.014 A 
ATOM     35  C   UNL A   1      35.458  34.523  28.825  1.00  0.00     0.014 A 
ATOM     36  C   UNL A   1      35.015  33.279  31.287  1.00  0.00     0.010 A 
ATOM     37  C   UNL A   1      36.512  33.901  29.485  1.00  0.00     0.010 A 
ATOM     38  C   UNL A   1      36.302  33.272  30.722  1.00  0.00    -0.014 A 
BRANCH  38  39
ATOM     39  C   UNL A   1      37.442  32.613  31.407  1.00  0.00     0.031 A 
ATOM     40  C   UNL A   1      38.149  31.461  30.749  1.00  0.00     0.074 A 
ATOM     41  C   UNL A   1      37.798  33.005  32.646  1.00  0.00     0.049 A 
ATOM     42  N   UNL A   1      39.115  30.708  31.210  1.00  0.00    -0.248 NA
ATOM     43  C   UNL A   1      37.687  31.086  29.402  1.00  0.00     0.031 C 
ATOM     44  C   UNL A   1      37.158  34.077  33.410  1.00  0.00     0.029 A 
ATOM     45  N   UNL A   1      38.778  32.538  33.486  1.00  0.00    -0.354 N 
ATOM     46  C   UNL A   1      39.367  29.768  30.219  1.00  0.00     0.074 A 
ATOM     47  C   UNL A   1      38.414  30.008  29.157  1.00  0.00     0.031 C 
ATOM     48  C   UNL A   1      37.777  34.203  34.595  1.00  0.00     0.029 A 
ATOM     49  C   UNL A   1      38.831  33.196  34.691  1.00  0.00     0.049 A 
ATOM     50  H   UNL A   1      39.385  31.801  33.249  1.00  0.00     0.167 HD
ATOM     51  C   UNL A   1      40.323  28.810  30.187  1.00  0.00     0.037 A 
ATOM     52  C   UNL A   1      39.633  33.003  35.756  1.00  0.00     0.037 A 
ATOM     53  C   UNL A   1      41.284  28.592  31.235  1.00  0.00     0.049 A 
ATOM     54  C   UNL A   1      40.680  31.922  35.699  1.00  0.00     0.074 A 
ATOM     55  C   UNL A   1      42.329  27.685  31.273  1.00  0.00     0.029 A 
ATOM     56  N   UNL A   1      41.315  29.287  32.436  1.00  0.00    -0.354 N 
ATOM     57  N   UNL A   1      40.955  31.086  34.728  1.00  0.00    -0.248 NA
ATOM     58  C   UNL A   1      41.532  31.763  36.887  1.00  0.00     0.031 C 
ATOM     59  C   UNL A   1      42.963  27.799  32.515  1.00  0.00     0.029 A 
ATOM     60  C   UNL A   1      42.347  28.814  33.230  1.00  0.00     0.049 A 
ATOM     61  H   UNL A   1      40.694  30.010  32.686  1.00  0.00     0.167 HD
ATOM     62  C   UNL A   1      42.026  30.323  35.172  1.00  0.00     0.074 A 
ATOM     63  C   UNL A   1      42.362  30.806  36.496  1.00  0.00     0.031 C 
ATOM     64  C   UNL A   1      42.673  29.313  34.541  1.00  0.00     0.037 A 
BRANCH  51  65
ATOM     65  C   UNL A   1      40.380  27.928  28.974  1.00  0.00     0.064 A 
ATOM     66  C   UNL A   1      39.648  26.733  28.899  1.00  0.00     0.173 A 
ATOM     67  C   UNL A   1      41.148  28.297  27.860  1.00  0.00     0.173 A 
ATOM     68  F   UNL A   1      38.907  26.329  29.942  1.00  0.00    -0.203 F 
ATOM     69  C   UNL A   1      39.705  25.927  27.765  1.00  0.00     0.198 A 
ATOM     70  C   UNL A   1      41.177  27.505  26.715  1.00  0.00     0.198 A 
ATOM     71  F   UNL A   1      41.863  29.432  27.875  1.00  0.00    -0.203 F 
ATOM     72  F   UNL A   1      39.037  24.765  27.737  1.00  0.00    -0.200 F 
ATOM     73  C   UNL A   1      40.462  26.316  26.671  1.00  0.00     0.200 A 
ATOM     74  F   UNL A   1      41.900  27.889  25.653  1.00  0.00    -0.200 F 
ATOM     75  F   UNL A   1      40.510  25.544  25.578  1.00  0.00    -0.200 F 
ENDBRANCH  51  65
BRANCH  52  76
ATOM     76  C   UNL A   1      39.497  33.868  36.958  1.00  0.00     0.064 A 
ATOM     77  C   UNL A   1      40.145  35.110  37.026  1.00  0.00     0.173 A 
ATOM     78  C   UNL A   1      38.731  33.471  38.063  1.00  0.00     0.173 A 
ATOM     79  F   UNL A   1      40.906  35.524  36.003  1.00  0.00    -0.203 F 
ATOM     80  C   UNL A   1      40.049  35.911  38.162  1.00  0.00     0.198 A 
ATOM     81  C   UNL A   1      38.613  34.286  39.187  1.00  0.00     0.198 A 
ATOM     82  F   UNL A   1      38.089  32.294  38.048  1.00  0.00    -0.203 F 
ATOM     83  F   UNL A   1      40.717  37.071  38.219  1.00  0.00    -0.200 F 
ATOM     84  C   UNL A   1      39.278  35.501  39.239  1.00  0.00     0.200 A 
ATOM     85  F   UNL A   1      37.855  33.893  40.220  1.00  0.00    -0.200 F 
ATOM     86  F   UNL A   1      39.184  36.273  40.330  1.00  0.00    -0.200 F 
ENDBRANCH  52  76
BRANCH  64  87
ATOM     87  C   UNL A   1      43.836  28.685  35.256  1.00  0.00     0.064 A 
ATOM     88  C   UNL A   1      43.671  27.573  36.094  1.00  0.00     0.173 A 
ATOM     89  C   UNL A   1      45.135  29.177  35.061  1.00  0.00     0.173 A 
ATOM     90  F   UNL A   1      42.446  27.076  36.324  1.00  0.00    -0.203 F 
ATOM     91  C   UNL A   1      44.764  26.990  36.730  1.00  0.00     0.198 A 
ATOM     92  C   UNL A   1      46.229  28.571  35.674  1.00  0.00     0.198 A 
ATOM     93  F   UNL A   1      45.347  30.234  34.263  1.00  0.00    -0.203 F 
ATOM     94  F   UNL A   1      44.577  25.956  37.563  1.00  0.00    -0.200 F 
ATOM     95  C   UNL A   1      46.042  27.484  36.513  1.00  0.00     0.200 A 
ATOM     96  F   UNL A   1      47.465  29.040  35.451  1.00  0.00    -0.200 F 
ATOM     97  F   UNL A   1      47.093  26.914  37.118  1.00  0.00    -0.200 F 
ENDBRANCH  64  87
ENDBRANCH  38  39
ENDBRANCH  30  33
ENDBRANCH  28  29
ENDBRANCH  27  28
ENDBRANCH  26  27
ENDBRANCH  25  26
ENDBRANCH   1  25
TORSDOF 17
ENDMDL
MODEL 3
REMARK VINA RESULT:     -11.9      1.103      7.504
REMARK SMILES O=C(CC1(NC(=O)C2(c3ccccc3)CC2)CCC1)NCCCCCCNC(=O)c1ccc(-c2c3nc(c(-c4c(F)c(F)c(F)c(F)c4F)c4ccc([nH]4)c(-c4c(F)c(F)c(F)c(F)c4F)c4nc(c(-c5c(F)c(F)c(F)c(F)c5F)c5ccc2[nH]5)C=C4)C=C3)cc1
REMARK SMILES IDX 22 1 21 2 20 3 1 4 2 5 3 7 4 8 17 9 19 10 18 11 5 12 6 13
REMARK SMILES IDX 7 15 8 16 15 17 16 18 9 19 10 20 14 21 11 22 13 23 12 24
REMARK SMILES IDX 23 25 24 26 25 27 26 28 27 29 28 30 29 32 30 33 31 34 92 35
REMARK SMILES IDX 32 36 91 37 33 38 34 39 35 40 85 41 36 42 90 43 84 44 86 45
REMARK SMILES IDX 37 46 89 47 83 48 82 49 38 51 70 52 50 53 69 54 51 55 54 56
REMARK SMILES IDX 68 57 87 58 52 59 53 60 67 62 88 63 55 64 39 65 40 66 48 67
REMARK SMILES IDX 41 68 42 69 46 70 49 71 43 72 44 73 47 74 45 75 71 76 72 77
REMARK SMILES IDX 80 78 73 79 74 80 78 81 81 82 75 83 76 84 79 85 77 86 56 87
REMARK SMILES IDX 57 88 65 89 58 90 59 91 63 92 66 93 60 94 61 95 64 96 62 97
REMARK H PARENT 20 6 5 14 27 31 86 50 54 61
REMARK Flexibility Score: inf
ROOT
ATOM      1  C   UNL A   1      31.848  28.997  24.152  1.00  0.00     0.021 C 
ENDROOT
BRANCH   1   2
ATOM      2  C   UNL A   1      33.190  28.458  24.670  1.00  0.00     0.116 C 
BRANCH   2   3
ATOM      3  N   UNL A   1      33.437  27.089  24.262  1.00  0.00    -0.356 N 
ATOM      4  O   UNL A   1      33.902  26.242  26.332  1.00  0.00    -0.275 OA
ATOM      5  C   UNL A   1      33.828  26.086  25.115  1.00  0.00     0.222 C 
ATOM      6  H   UNL A   1      33.316  26.863  23.312  1.00  0.00     0.163 HD
BRANCH   5   7
ATOM      7  C   UNL A   1      34.330  24.809  24.458  1.00  0.00     0.128 C 
BRANCH   7   8
ATOM      8  C   UNL A   1      34.948  23.716  25.331  1.00  0.00     0.049 C 
ATOM      9  C   UNL A   1      35.402  22.366  24.668  1.00  0.00     0.029 C 
ATOM     10  C   UNL A   1      36.478  23.989  25.534  1.00  0.00     0.029 C 
ATOM     11  C   UNL A   1      36.734  22.480  25.426  1.00  0.00     0.005 C 
BRANCH   8  12
ATOM     12  N   UNL A   1      34.214  23.455  26.601  1.00  0.00    -0.349 N 
ATOM     13  C   UNL A   1      33.026  22.788  26.837  1.00  0.00     0.231 C 
ATOM     14  H   UNL A   1      34.647  23.818  27.408  1.00  0.00     0.164 HD
ATOM     15  O   UNL A   1      32.742  22.521  28.004  1.00  0.00    -0.274 OA
BRANCH  13  16
ATOM     16  C   UNL A   1      32.085  22.381  25.719  1.00  0.00     0.074 C 
ATOM     17  C   UNL A   1      30.589  22.604  26.021  1.00  0.00     0.023 C 
ATOM     18  C   UNL A   1      31.245  23.406  24.959  1.00  0.00     0.023 C 
BRANCH  16  19
ATOM     19  C   UNL A   1      32.439  21.061  25.046  1.00  0.00    -0.032 A 
ATOM     20  C   UNL A   1      32.229  20.908  23.666  1.00  0.00     0.005 A 
ATOM     21  C   UNL A   1      32.857  19.929  25.769  1.00  0.00     0.005 A 
ATOM     22  C   UNL A   1      32.334  19.662  23.050  1.00  0.00     0.000 A 
ATOM     23  C   UNL A   1      32.953  18.678  25.160  1.00  0.00     0.000 A 
ATOM     24  C   UNL A   1      32.670  18.542  23.804  1.00  0.00     0.000 A 
ENDBRANCH  16  19
ENDBRANCH  13  16
ENDBRANCH   8  12
ENDBRANCH   7   8
ENDBRANCH   5   7
ENDBRANCH   2   3
ENDBRANCH   1   2
BRANCH   1  25
ATOM     25  C   UNL A   1      31.182  30.077  25.013  1.00  0.00     0.002 C 
BRANCH  25  26
ATOM     26  C   UNL A   1      31.952  30.514  26.259  1.00  0.00     0.002 C 
BRANCH  26  27
ATOM     27  C   UNL A   1      31.585  31.904  26.770  1.00  0.00     0.021 C 
BRANCH  27  28
ATOM     28  C   UNL A   1      32.762  32.694  27.327  1.00  0.00     0.116 C 
BRANCH  28  29
ATOM     29  N   UNL A   1      32.427  34.087  27.582  1.00  0.00    -0.352 N 
ATOM     30  C   UNL A   1      32.961  34.930  28.531  1.00  0.00     0.251 C 
ATOM     31  H   UNL A   1      31.732  34.475  27.004  1.00  0.00     0.163 HD
ATOM     32  O   UNL A   1      32.475  36.028  28.750  1.00  0.00    -0.269 OA
BRANCH  30  33
ATOM     33  C   UNL A   1      34.128  34.465  29.312  1.00  0.00     0.039 A 
ATOM     34  C   UNL A   1      33.919  33.863  30.554  1.00  0.00     0.014 A 
ATOM     35  C   UNL A   1      35.416  34.571  28.779  1.00  0.00     0.014 A 
ATOM     36  C   UNL A   1      35.001  33.304  31.235  1.00  0.00     0.010 A 
ATOM     37  C   UNL A   1      36.479  33.948  29.424  1.00  0.00     0.010 A 
ATOM     38  C   UNL A   1      36.282  33.308  30.658  1.00  0.00    -0.014 A 
BRANCH  38  39
ATOM     39  C   UNL A   1      37.432  32.648  31.328  1.00  0.00     0.031 A 
ATOM     40  C   UNL A   1      38.122  31.489  30.664  1.00  0.00     0.074 A 
ATOM     41  C   UNL A   1      37.810  33.046  32.558  1.00  0.00     0.049 A 
ATOM     42  N   UNL A   1      39.093  30.736  31.113  1.00  0.00    -0.248 NA
ATOM     43  C   UNL A   1      37.636  31.109  29.328  1.00  0.00     0.031 C 
ATOM     44  C   UNL A   1      37.188  34.125  33.326  1.00  0.00     0.029 A 
ATOM     45  N   UNL A   1      38.803  32.580  33.384  1.00  0.00    -0.354 N 
ATOM     46  C   UNL A   1      39.324  29.789  30.124  1.00  0.00     0.074 A 
ATOM     47  C   UNL A   1      38.354  30.026  29.076  1.00  0.00     0.031 C 
ATOM     48  C   UNL A   1      37.828  34.256  34.499  1.00  0.00     0.029 A 
ATOM     49  C   UNL A   1      38.879  33.245  34.584  1.00  0.00     0.049 A 
ATOM     50  H   UNL A   1      39.403  31.839  33.140  1.00  0.00     0.167 HD
ATOM     51  C   UNL A   1      40.276  28.827  30.081  1.00  0.00     0.037 A 
ATOM     52  C   UNL A   1      39.699  33.055  35.636  1.00  0.00     0.037 A 
ATOM     53  C   UNL A   1      41.254  28.610  31.114  1.00  0.00     0.049 A 
ATOM     54  C   UNL A   1      40.740  31.969  35.567  1.00  0.00     0.074 A 
ATOM     55  C   UNL A   1      42.296  27.700  31.139  1.00  0.00     0.029 A 
ATOM     56  N   UNL A   1      41.308  29.313  32.310  1.00  0.00    -0.354 N 
ATOM     57  N   UNL A   1      40.995  31.126  34.597  1.00  0.00    -0.248 NA
ATOM     58  C   UNL A   1      41.612  31.814  36.741  1.00  0.00     0.031 C 
ATOM     59  C   UNL A   1      42.951  27.819  32.369  1.00  0.00     0.029 A 
ATOM     60  C   UNL A   1      42.352  28.840  33.088  1.00  0.00     0.049 A 
ATOM     61  H   UNL A   1      40.695  30.040  32.566  1.00  0.00     0.167 HD
ATOM     62  C   UNL A   1      42.070  30.362  35.027  1.00  0.00     0.074 A 
ATOM     63  C   UNL A   1      42.431  30.852  36.342  1.00  0.00     0.031 C 
ATOM     64  C   UNL A   1      42.703  29.346  34.391  1.00  0.00     0.037 A 
BRANCH  51  65
ATOM     65  C   UNL A   1      40.309  27.937  28.873  1.00  0.00     0.064 A 
ATOM     66  C   UNL A   1      41.038  28.282  27.724  1.00  0.00     0.173 A 
ATOM     67  C   UNL A   1      39.634  26.707  28.874  1.00  0.00     0.173 A 
ATOM     68  F   UNL A   1      41.691  29.453  27.667  1.00  0.00    -0.203 F 
ATOM     69  C   UNL A   1      41.066  27.444  26.613  1.00  0.00     0.198 A 
ATOM     70  C   UNL A   1      39.691  25.856  27.773  1.00  0.00     0.198 A 
ATOM     71  F   UNL A   1      38.926  26.324  29.948  1.00  0.00    -0.203 F 
ATOM     72  F   UNL A   1      41.727  27.820  25.509  1.00  0.00    -0.200 F 
ATOM     73  C   UNL A   1      40.400  26.229  26.640  1.00  0.00     0.200 A 
ATOM     74  F   UNL A   1      39.056  24.676  27.807  1.00  0.00    -0.200 F 
ATOM     75  F   UNL A   1      40.434  25.420  25.573  1.00  0.00    -0.200 F 
ENDBRANCH  51  65
BRANCH  52  76
ATOM     76  C   UNL A   1      39.587  33.927  36.834  1.00  0.00     0.064 A 
ATOM     77  C   UNL A   1      38.817  33.535  37.939  1.00  0.00     0.173 A 
ATOM     78  C   UNL A   1      40.234  35.170  36.899  1.00  0.00     0.173 A 
ATOM     79  F   UNL A   1      38.161  32.365  37.916  1.00  0.00    -0.203 F 
ATOM     80  C   UNL A   1      38.680  34.362  39.053  1.00  0.00     0.198 A 
ATOM     81  C   UNL A   1      40.120  35.983  38.025  1.00  0.00     0.198 A 
ATOM     82  F   UNL A   1      40.985  35.590  35.872  1.00  0.00    -0.203 F 
ATOM     83  F   UNL A   1      37.899  33.983  40.073  1.00  0.00    -0.200 F 
ATOM     84  C   UNL A   1      39.337  35.582  39.097  1.00  0.00     0.200 A 
ATOM     85  F   UNL A   1      40.768  37.155  38.071  1.00  0.00    -0.200 F 
ATOM     86  F   UNL A   1      39.208  36.376  40.170  1.00  0.00    -0.200 F 
ENDBRANCH  52  76
BRANCH  64  87
ATOM     87  C   UNL A   1      43.875  28.717  35.089  1.00  0.00     0.064 A 
ATOM     88  C   UNL A   1      45.158  29.280  35.024  1.00  0.00     0.173 A 
ATOM     89  C   UNL A   1      43.700  27.564  35.868  1.00  0.00     0.173 A 
ATOM     90  F   UNL A   1      45.380  30.373  34.280  1.00  0.00    -0.203 F 
ATOM     91  C   UNL A   1      46.228  28.696  35.698  1.00  0.00     0.198 A 
ATOM     92  C   UNL A   1      44.766  27.002  36.565  1.00  0.00     0.198 A 
ATOM     93  F   UNL A   1      42.491  26.992  35.969  1.00  0.00    -0.203 F 
ATOM     94  F   UNL A   1      47.455  29.224  35.585  1.00  0.00    -0.200 F 
ATOM     95  C   UNL A   1      46.029  27.563  36.474  1.00  0.00     0.200 A 
ATOM     96  F   UNL A   1      44.568  25.917  37.327  1.00  0.00    -0.200 F 
ATOM     97  F   UNL A   1      47.059  27.009  37.128  1.00  0.00    -0.200 F 
ENDBRANCH  64  87
ENDBRANCH  38  39
ENDBRANCH  30  33
ENDBRANCH  28  29
ENDBRANCH  27  28
ENDBRANCH  26  27
ENDBRANCH  25  26
ENDBRANCH   1  25
TORSDOF 17
ENDMDL
