MODEL 1
REMARK VINA RESULT:     -11.4      0.000      0.000
REMARK SMILES CC(C)C[C@H](C)NS(=O)(=O)c1cc(C(=O)NCCCCCCNC(=O)c2ccc(-c3c4nc(c(-c5c(F)c(F)c(F)c(F)c5F)c5ccc([nH]5)c(-c5c(F)c(F)c(F)c(F)c5F)c5nc(c(-c6c(F)c(F)c(F)c(F)c6F)c6ccc3[nH]6)C=C5)C=C4)cc2)ccc1Cl
REMARK SMILES IDX 18 1 17 2 16 3 14 4 15 5 13 7 11 8 12 9 91 10 90 11 92 12
REMARK SMILES IDX 89 13 8 14 9 15 10 16 7 17 5 19 6 20 4 21 2 22 1 23 3 24
REMARK SMILES IDX 19 25 20 26 21 27 22 28 23 29 24 30 25 32 26 33 27 34 88 35
REMARK SMILES IDX 28 36 87 37 29 38 30 39 31 40 81 41 32 42 86 43 80 44 82 45
REMARK SMILES IDX 33 46 85 47 79 48 78 49 34 51 66 52 46 53 65 54 47 55 50 56
REMARK SMILES IDX 64 57 83 58 48 59 49 60 63 62 84 63 51 64 35 65 36 66 44 67
REMARK SMILES IDX 37 68 38 69 42 70 45 71 39 72 40 73 43 74 41 75 67 76 68 77
REMARK SMILES IDX 76 78 69 79 70 80 74 81 77 82 71 83 72 84 75 85 73 86 52 87
REMARK SMILES IDX 53 88 61 89 54 90 55 91 59 92 62 93 56 94 57 95 60 96 58 97
REMARK H PARENT 16 6 7 18 23 31 82 50 50 61
REMARK Flexibility Score: inf
ROOT
ATOM      1  C   UNL A   1      34.896  31.114  27.826  1.00  0.00     0.021 C 
ENDROOT
BRANCH   1   2
ATOM      2  C   UNL A   1      33.842  30.514  26.891  1.00  0.00     0.116 C 
BRANCH   2   3
ATOM      3  N   UNL A   1      32.900  29.721  27.659  1.00  0.00    -0.352 N 
ATOM      4  C   UNL A   1      32.303  28.508  27.444  1.00  0.00     0.251 C 
ATOM      5  O   UNL A   1      31.527  28.094  28.304  1.00  0.00    -0.269 OA
ATOM      6  H   UNL A   1      32.634  30.143  28.507  1.00  0.00     0.163 HD
BRANCH   4   7
ATOM      7  C   UNL A   1      32.595  27.645  26.267  1.00  0.00     0.041 A 
ATOM      8  C   UNL A   1      31.718  26.612  24.230  1.00  0.00     0.101 A 
ATOM      9  C   UNL A   1      31.547  27.434  25.359  1.00  0.00     0.037 A 
ATOM     10  C   UNL A   1      32.917  25.930  24.045  1.00  0.00     0.061 A 
ATOM     11  C   UNL A   1      33.987  26.198  24.906  1.00  0.00     0.023 A 
ATOM     12  Cl  UNL A   1      33.193  24.772  22.798  1.00  0.00    -0.083 Cl
ATOM     13  C   UNL A   1      33.840  27.086  25.981  1.00  0.00     0.015 A 
BRANCH   8  14
ATOM     14  S   UNL A   1      30.416  26.592  23.033  1.00  0.00     0.242 S 
ATOM     15  O   UNL A   1      29.813  25.272  23.036  1.00  0.00    -0.207 OA
ATOM     16  O   UNL A   1      30.936  27.147  21.809  1.00  0.00    -0.207 OA
BRANCH  14  17
ATOM     17  N   UNL A   1      29.250  27.648  23.588  1.00  0.00    -0.208 NA
ATOM     18  H   UNL A   1      28.499  27.052  23.934  1.00  0.00     0.141 HD
BRANCH  17  19
ATOM     19  C   UNL A   1      28.578  28.698  22.813  1.00  0.00     0.067 C 
ATOM     20  C   UNL A   1      27.079  28.577  23.129  1.00  0.00     0.025 C 
BRANCH  19  21
ATOM     21  C   UNL A   1      29.075  30.108  23.155  1.00  0.00     0.022 C 
BRANCH  21  22
ATOM     22  C   UNL A   1      28.235  31.264  22.569  1.00  0.00    -0.016 C 
ATOM     23  C   UNL A   1      28.725  32.647  23.004  1.00  0.00     0.007 C 
ATOM     24  C   UNL A   1      28.243  31.179  21.041  1.00  0.00     0.007 C 
ENDBRANCH  21  22
ENDBRANCH  19  21
ENDBRANCH  17  19
ENDBRANCH  14  17
ENDBRANCH   8  14
ENDBRANCH   4   7
ENDBRANCH   2   3
ENDBRANCH   1   2
BRANCH   1  25
ATOM     25  C   UNL A   1      34.306  32.093  28.851  1.00  0.00     0.002 C 
BRANCH  25  26
ATOM     26  C   UNL A   1      34.529  33.578  28.530  1.00  0.00     0.002 C 
BRANCH  26  27
ATOM     27  C   UNL A   1      33.291  34.467  28.670  1.00  0.00     0.021 C 
BRANCH  27  28
ATOM     28  C   UNL A   1      33.590  35.888  29.133  1.00  0.00     0.116 C 
BRANCH  28  29
ATOM     29  N   UNL A   1      32.652  36.335  30.151  1.00  0.00    -0.352 N 
ATOM     30  C   UNL A   1      32.580  35.967  31.473  1.00  0.00     0.251 C 
ATOM     31  H   UNL A   1      31.979  36.989  29.854  1.00  0.00     0.163 HD
ATOM     32  O   UNL A   1      31.617  36.280  32.163  1.00  0.00    -0.269 OA
BRANCH  30  33
ATOM     33  C   UNL A   1      33.679  35.169  32.053  1.00  0.00     0.039 A 
ATOM     34  C   UNL A   1      33.422  33.868  32.497  1.00  0.00     0.014 A 
ATOM     35  C   UNL A   1      34.965  35.706  32.133  1.00  0.00     0.014 A 
ATOM     36  C   UNL A   1      34.477  33.078  32.961  1.00  0.00     0.010 A 
ATOM     37  C   UNL A   1      36.022  34.898  32.534  1.00  0.00     0.010 A 
ATOM     38  C   UNL A   1      35.788  33.577  32.951  1.00  0.00    -0.014 A 
BRANCH  38  39
ATOM     39  C   UNL A   1      36.947  32.759  33.384  1.00  0.00     0.031 A 
ATOM     40  C   UNL A   1      37.613  33.065  34.695  1.00  0.00     0.074 A 
ATOM     41  C   UNL A   1      37.468  31.832  32.558  1.00  0.00     0.049 A 
ATOM     42  N   UNL A   1      38.750  32.627  35.173  1.00  0.00    -0.248 NA
ATOM     43  C   UNL A   1      36.921  34.021  35.573  1.00  0.00     0.031 C 
ATOM     44  C   UNL A   1      36.923  31.460  31.251  1.00  0.00     0.029 A 
ATOM     45  N   UNL A   1      38.592  31.053  32.683  1.00  0.00    -0.354 N 
ATOM     46  C   UNL A   1      38.924  33.279  36.386  1.00  0.00     0.074 A 
ATOM     47  C   UNL A   1      37.796  34.170  36.555  1.00  0.00     0.031 C 
ATOM     48  C   UNL A   1      37.713  30.525  30.696  1.00  0.00     0.029 A 
ATOM     49  C   UNL A   1      38.844  30.269  31.584  1.00  0.00     0.049 A 
ATOM     50  H   UNL A   1      39.163  31.057  33.486  1.00  0.00     0.167 HD
ATOM     51  C   UNL A   1      39.928  33.136  37.282  1.00  0.00     0.037 A 
ATOM     52  C   UNL A   1      39.882  29.455  31.314  1.00  0.00     0.037 A 
ATOM     53  C   UNL A   1      41.028  32.222  37.122  1.00  0.00     0.049 A 
ATOM     54  C   UNL A   1      40.989  29.316  32.325  1.00  0.00     0.074 A 
ATOM     55  C   UNL A   1      42.070  31.966  37.994  1.00  0.00     0.029 A 
ATOM     56  N   UNL A   1      41.221  31.409  36.014  1.00  0.00    -0.354 N 
ATOM     57  N   UNL A   1      41.128  29.910  33.486  1.00  0.00    -0.248 NA
ATOM     58  C   UNL A   1      42.084  28.394  31.991  1.00  0.00     0.031 C 
ATOM     59  C   UNL A   1      42.916  31.026  37.398  1.00  0.00     0.029 A 
ATOM     60  C   UNL A   1      42.373  30.659  36.177  1.00  0.00     0.049 A 
ATOM     61  H   UNL A   1      40.627  31.372  35.231  1.00  0.00     0.167 HD
ATOM     62  C   UNL A   1      42.298  29.403  34.037  1.00  0.00     0.074 A 
ATOM     63  C   UNL A   1      42.834  28.457  33.083  1.00  0.00     0.031 C 
ATOM     64  C   UNL A   1      42.871  29.695  35.229  1.00  0.00     0.037 A 
BRANCH  51  65
ATOM     65  C   UNL A   1      39.886  33.991  38.515  1.00  0.00     0.064 A 
ATOM     66  C   UNL A   1      40.521  35.241  38.566  1.00  0.00     0.173 A 
ATOM     67  C   UNL A   1      39.170  33.571  39.647  1.00  0.00     0.173 A 
ATOM     68  F   UNL A   1      41.229  35.683  37.516  1.00  0.00    -0.203 F 
ATOM     69  C   UNL A   1      40.470  36.024  39.717  1.00  0.00     0.198 A 
ATOM     70  C   UNL A   1      39.095  34.370  40.784  1.00  0.00     0.198 A 
ATOM     71  F   UNL A   1      38.540  32.387  39.648  1.00  0.00    -0.203 F 
ATOM     72  F   UNL A   1      41.128  37.190  39.761  1.00  0.00    -0.200 F 
ATOM     73  C   UNL A   1      39.751  35.591  40.821  1.00  0.00     0.200 A 
ATOM     74  F   UNL A   1      38.389  33.957  41.845  1.00  0.00    -0.200 F 
ATOM     75  F   UNL A   1      39.695  36.349  41.926  1.00  0.00    -0.200 F 
ENDBRANCH  51  65
BRANCH  52  76
ATOM     76  C   UNL A   1      39.920  28.696  30.036  1.00  0.00     0.064 A 
ATOM     77  C   UNL A   1      39.356  27.416  29.945  1.00  0.00     0.173 A 
ATOM     78  C   UNL A   1      40.518  29.230  28.885  1.00  0.00     0.173 A 
ATOM     79  F   UNL A   1      38.790  26.856  31.025  1.00  0.00    -0.203 F 
ATOM     80  C   UNL A   1      39.406  26.690  28.758  1.00  0.00     0.198 A 
ATOM     81  C   UNL A   1      40.544  28.513  27.690  1.00  0.00     0.198 A 
ATOM     82  F   UNL A   1      41.068  30.452  28.918  1.00  0.00    -0.203 F 
ATOM     83  F   UNL A   1      38.898  25.451  28.711  1.00  0.00    -0.200 F 
ATOM     84  C   UNL A   1      39.994  27.241  27.630  1.00  0.00     0.200 A 
ATOM     85  F   UNL A   1      41.100  29.055  26.599  1.00  0.00    -0.200 F 
ATOM     86  F   UNL A   1      40.039  26.544  26.486  1.00  0.00    -0.200 F 
ENDBRANCH  52  76
BRANCH  64  87
ATOM     87  C   UNL A   1      44.108  28.937  35.610  1.00  0.00     0.064 A 
ATOM     88  C   UNL A   1      45.390  29.409  35.299  1.00  0.00     0.173 A 
ATOM     89  C   UNL A   1      44.004  27.760  36.368  1.00  0.00     0.173 A 
ATOM     90  F   UNL A   1      45.540  30.522  34.565  1.00  0.00    -0.203 F 
ATOM     91  C   UNL A   1      46.526  28.724  35.725  1.00  0.00     0.198 A 
ATOM     92  C   UNL A   1      45.140  27.093  36.815  1.00  0.00     0.198 A 
ATOM     93  F   UNL A   1      42.798  27.272  36.696  1.00  0.00    -0.203 F 
ATOM     94  F   UNL A   1      47.742  29.176  35.393  1.00  0.00    -0.200 F 
ATOM     95  C   UNL A   1      46.400  27.574  36.490  1.00  0.00     0.200 A 
ATOM     96  F   UNL A   1      45.017  25.990  37.566  1.00  0.00    -0.200 F 
ATOM     97  F   UNL A   1      47.494  26.927  36.915  1.00  0.00    -0.200 F 
ENDBRANCH  64  87
ENDBRANCH  38  39
ENDBRANCH  30  33
ENDBRANCH  28  29
ENDBRANCH  27  28
ENDBRANCH  26  27
ENDBRANCH  25  26
ENDBRANCH   1  25
TORSDOF 18
ENDMDL
MODEL 2
REMARK VINA RESULT:     -11.2      2.260      3.927
REMARK SMILES CC(C)C[C@H](C)NS(=O)(=O)c1cc(C(=O)NCCCCCCNC(=O)c2ccc(-c3c4nc(c(-c5c(F)c(F)c(F)c(F)c5F)c5ccc([nH]5)c(-c5c(F)c(F)c(F)c(F)c5F)c5nc(c(-c6c(F)c(F)c(F)c(F)c6F)c6ccc3[nH]6)C=C5)C=C4)cc2)ccc1Cl
REMARK SMILES IDX 18 1 17 2 16 3 14 4 15 5 13 7 11 8 12 9 91 10 90 11 92 12
REMARK SMILES IDX 89 13 8 14 9 15 10 16 7 17 5 19 6 20 4 21 2 22 1 23 3 24
REMARK SMILES IDX 19 25 20 26 21 27 22 28 23 29 24 30 25 32 26 33 27 34 88 35
REMARK SMILES IDX 28 36 87 37 29 38 30 39 31 40 81 41 32 42 86 43 80 44 82 45
REMARK SMILES IDX 33 46 85 47 79 48 78 49 34 51 66 52 46 53 65 54 47 55 50 56
REMARK SMILES IDX 64 57 83 58 48 59 49 60 63 62 84 63 51 64 35 65 36 66 44 67
REMARK SMILES IDX 37 68 38 69 42 70 45 71 39 72 40 73 43 74 41 75 67 76 68 77
REMARK SMILES IDX 76 78 69 79 70 80 74 81 77 82 71 83 72 84 75 85 73 86 52 87
REMARK SMILES IDX 53 88 61 89 54 90 55 91 59 92 62 93 56 94 57 95 60 96 58 97
REMARK H PARENT 16 6 7 18 23 31 82 50 50 61
REMARK Flexibility Score: inf
ROOT
ATOM      1  C   UNL A   1      35.110  30.822  28.062  1.00  0.00     0.021 C 
ENDROOT
BRANCH   1   2
ATOM      2  C   UNL A   1      34.683  29.464  27.501  1.00  0.00     0.116 C 
BRANCH   2   3
ATOM      3  N   UNL A   1      34.245  29.616  26.126  1.00  0.00    -0.352 N 
ATOM      4  C   UNL A   1      33.498  28.833  25.288  1.00  0.00     0.251 C 
ATOM      5  O   UNL A   1      33.297  29.247  24.147  1.00  0.00    -0.269 OA
ATOM      6  H   UNL A   1      34.549  30.455  25.709  1.00  0.00     0.163 HD
BRANCH   4   7
ATOM      7  C   UNL A   1      32.869  27.550  25.705  1.00  0.00     0.041 A 
ATOM      8  C   UNL A   1      33.140  25.130  25.946  1.00  0.00     0.101 A 
ATOM      9  C   UNL A   1      33.655  26.393  25.601  1.00  0.00     0.037 A 
ATOM     10  C   UNL A   1      31.806  25.006  26.322  1.00  0.00     0.061 A 
ATOM     11  C   UNL A   1      31.042  26.166  26.501  1.00  0.00     0.023 A 
ATOM     12  Cl  UNL A   1      31.014  23.502  26.611  1.00  0.00    -0.083 Cl
ATOM     13  C   UNL A   1      31.586  27.431  26.240  1.00  0.00     0.015 A 
BRANCH   8  14
ATOM     14  S   UNL A   1      34.274  23.774  25.997  1.00  0.00     0.242 S 
ATOM     15  O   UNL A   1      34.029  23.019  27.212  1.00  0.00    -0.207 OA
ATOM     16  O   UNL A   1      35.590  24.291  25.719  1.00  0.00    -0.207 OA
BRANCH  14  17
ATOM     17  N   UNL A   1      33.867  22.773  24.726  1.00  0.00    -0.208 NA
ATOM     18  H   UNL A   1      33.279  23.344  24.119  1.00  0.00     0.141 HD
BRANCH  17  19
ATOM     19  C   UNL A   1      33.178  21.479  24.815  1.00  0.00     0.067 C 
ATOM     20  C   UNL A   1      32.466  21.273  23.469  1.00  0.00     0.025 C 
BRANCH  19  21
ATOM     21  C   UNL A   1      34.132  20.310  25.089  1.00  0.00     0.022 C 
BRANCH  21  22
ATOM     22  C   UNL A   1      33.639  18.928  24.605  1.00  0.00    -0.016 C 
ATOM     23  C   UNL A   1      34.778  17.970  24.251  1.00  0.00     0.007 C 
ATOM     24  C   UNL A   1      32.757  18.292  25.683  1.00  0.00     0.007 C 
ENDBRANCH  21  22
ENDBRANCH  19  21
ENDBRANCH  17  19
ENDBRANCH  14  17
ENDBRANCH   8  14
ENDBRANCH   4   7
ENDBRANCH   2   3
ENDBRANCH   1   2
BRANCH   1  25
ATOM     25  C   UNL A   1      33.999  31.880  27.994  1.00  0.00     0.002 C 
BRANCH  25  26
ATOM     26  C   UNL A   1      34.313  33.195  28.721  1.00  0.00     0.002 C 
BRANCH  26  27
ATOM     27  C   UNL A   1      33.200  34.244  28.676  1.00  0.00     0.021 C 
BRANCH  27  28
ATOM     28  C   UNL A   1      33.648  35.649  29.060  1.00  0.00     0.116 C 
BRANCH  28  29
ATOM     29  N   UNL A   1      32.797  36.229  30.088  1.00  0.00    -0.352 N 
ATOM     30  C   UNL A   1      32.781  35.967  31.436  1.00  0.00     0.251 C 
ATOM     31  H   UNL A   1      32.146  36.898  29.776  1.00  0.00     0.163 HD
ATOM     32  O   UNL A   1      31.878  36.389  32.150  1.00  0.00    -0.269 OA
BRANCH  30  33
ATOM     33  C   UNL A   1      33.864  35.150  32.019  1.00  0.00     0.039 A 
ATOM     34  C   UNL A   1      33.587  33.850  32.452  1.00  0.00     0.014 A 
ATOM     35  C   UNL A   1      35.157  35.669  32.112  1.00  0.00     0.014 A 
ATOM     36  C   UNL A   1      34.627  33.042  32.918  1.00  0.00     0.010 A 
ATOM     37  C   UNL A   1      36.200  34.844  32.514  1.00  0.00     0.010 A 
ATOM     38  C   UNL A   1      35.946  33.524  32.920  1.00  0.00    -0.014 A 
BRANCH  38  39
ATOM     39  C   UNL A   1      37.090  32.687  33.356  1.00  0.00     0.031 A 
ATOM     40  C   UNL A   1      37.767  32.991  34.662  1.00  0.00     0.074 A 
ATOM     41  C   UNL A   1      37.590  31.743  32.536  1.00  0.00     0.049 A 
ATOM     42  N   UNL A   1      38.897  32.535  35.140  1.00  0.00    -0.248 NA
ATOM     43  C   UNL A   1      37.096  33.967  35.535  1.00  0.00     0.031 C 
ATOM     44  C   UNL A   1      37.033  31.371  31.235  1.00  0.00     0.029 A 
ATOM     45  N   UNL A   1      38.700  30.944  32.663  1.00  0.00    -0.354 N 
ATOM     46  C   UNL A   1      39.088  33.194  36.347  1.00  0.00     0.074 A 
ATOM     47  C   UNL A   1      37.978  34.107  36.513  1.00  0.00     0.031 C 
ATOM     48  C   UNL A   1      37.803  30.417  30.685  1.00  0.00     0.029 A 
ATOM     49  C   UNL A   1      38.932  30.146  31.570  1.00  0.00     0.049 A 
ATOM     50  H   UNL A   1      39.273  30.944  33.464  1.00  0.00     0.167 HD
ATOM     51  C   UNL A   1      40.092  33.038  37.241  1.00  0.00     0.037 A 
ATOM     52  C   UNL A   1      39.953  29.310  31.303  1.00  0.00     0.037 A 
ATOM     53  C   UNL A   1      41.173  32.102  37.084  1.00  0.00     0.049 A 
ATOM     54  C   UNL A   1      41.061  29.159  32.312  1.00  0.00     0.074 A 
ATOM     55  C   UNL A   1      42.214  31.833  37.954  1.00  0.00     0.029 A 
ATOM     56  N   UNL A   1      41.347  31.277  35.982  1.00  0.00    -0.354 N 
ATOM     57  N   UNL A   1      41.216  29.759  33.467  1.00  0.00    -0.248 NA
ATOM     58  C   UNL A   1      42.137  28.213  31.982  1.00  0.00     0.031 C 
ATOM     59  C   UNL A   1      43.040  30.872  37.363  1.00  0.00     0.029 A 
ATOM     60  C   UNL A   1      42.485  30.505  36.147  1.00  0.00     0.049 A 
ATOM     61  H   UNL A   1      40.749  31.244  35.201  1.00  0.00     0.167 HD
ATOM     62  C   UNL A   1      42.377  29.235  34.018  1.00  0.00     0.074 A 
ATOM     63  C   UNL A   1      42.892  28.270  33.070  1.00  0.00     0.031 C 
ATOM     64  C   UNL A   1      42.961  29.525  35.205  1.00  0.00     0.037 A 
BRANCH  51  65
ATOM     65  C   UNL A   1      40.071  33.904  38.466  1.00  0.00     0.064 A 
ATOM     66  C   UNL A   1      39.361  33.534  39.618  1.00  0.00     0.173 A 
ATOM     67  C   UNL A   1      40.800  35.103  38.502  1.00  0.00     0.173 A 
ATOM     68  F   UNL A   1      38.639  32.403  39.632  1.00  0.00    -0.203 F 
ATOM     69  C   UNL A   1      39.355  34.347  40.748  1.00  0.00     0.198 A 
ATOM     70  C   UNL A   1      40.816  35.899  39.644  1.00  0.00     0.198 A 
ATOM     71  F   UNL A   1      41.500  35.501  37.429  1.00  0.00    -0.203 F 
ATOM     72  F   UNL A   1      38.627  33.999  41.818  1.00  0.00    -0.200 F 
ATOM     73  C   UNL A   1      40.088  35.524  40.763  1.00  0.00     0.200 A 
ATOM     74  F   UNL A   1      41.536  37.029  39.661  1.00  0.00    -0.200 F 
ATOM     75  F   UNL A   1      40.087  36.303  41.854  1.00  0.00    -0.200 F 
ENDBRANCH  51  65
BRANCH  52  76
ATOM     76  C   UNL A   1      39.972  28.541  30.032  1.00  0.00     0.064 A 
ATOM     77  C   UNL A   1      39.392  27.267  29.956  1.00  0.00     0.173 A 
ATOM     78  C   UNL A   1      40.566  29.058  28.871  1.00  0.00     0.173 A 
ATOM     79  F   UNL A   1      38.829  26.722  31.045  1.00  0.00    -0.203 F 
ATOM     80  C   UNL A   1      39.425  26.530  28.774  1.00  0.00     0.198 A 
ATOM     81  C   UNL A   1      40.574  28.331  27.682  1.00  0.00     0.198 A 
ATOM     82  F   UNL A   1      41.131  30.274  28.889  1.00  0.00    -0.203 F 
ATOM     83  F   UNL A   1      38.902  25.297  28.742  1.00  0.00    -0.200 F 
ATOM     84  C   UNL A   1      40.009  27.064  27.637  1.00  0.00     0.200 A 
ATOM     85  F   UNL A   1      41.127  28.857  26.582  1.00  0.00    -0.200 F 
ATOM     86  F   UNL A   1      40.037  26.357  26.499  1.00  0.00    -0.200 F 
ENDBRANCH  52  76
BRANCH  64  87
ATOM     87  C   UNL A   1      44.185  28.747  35.589  1.00  0.00     0.064 A 
ATOM     88  C   UNL A   1      44.103  27.544  36.302  1.00  0.00     0.173 A 
ATOM     89  C   UNL A   1      45.452  29.177  35.164  1.00  0.00     0.173 A 
ATOM     90  F   UNL A   1      42.916  27.099  36.741  1.00  0.00    -0.203 F 
ATOM     91  C   UNL A   1      45.247  26.802  36.585  1.00  0.00     0.198 A 
ATOM     92  C   UNL A   1      46.590  28.420  35.426  1.00  0.00     0.198 A 
ATOM     93  F   UNL A   1      45.580  30.320  34.473  1.00  0.00    -0.203 F 
ATOM     94  F   UNL A   1      45.150  25.669  37.293  1.00  0.00    -0.200 F 
ATOM     95  C   UNL A   1      46.487  27.236  36.138  1.00  0.00     0.200 A 
ATOM     96  F   UNL A   1      47.784  28.834  34.981  1.00  0.00    -0.200 F 
ATOM     97  F   UNL A   1      47.584  26.511  36.395  1.00  0.00    -0.200 F 
ENDBRANCH  64  87
ENDBRANCH  38  39
ENDBRANCH  30  33
ENDBRANCH  28  29
ENDBRANCH  27  28
ENDBRANCH  26  27
ENDBRANCH  25  26
ENDBRANCH   1  25
TORSDOF 18
ENDMDL
MODEL 3
REMARK VINA RESULT:     -11.1      2.423      8.245
REMARK SMILES CC(C)C[C@H](C)NS(=O)(=O)c1cc(C(=O)NCCCCCCNC(=O)c2ccc(-c3c4nc(c(-c5c(F)c(F)c(F)c(F)c5F)c5ccc([nH]5)c(-c5c(F)c(F)c(F)c(F)c5F)c5nc(c(-c6c(F)c(F)c(F)c(F)c6F)c6ccc3[nH]6)C=C5)C=C4)cc2)ccc1Cl
REMARK SMILES IDX 18 1 17 2 16 3 14 4 15 5 13 7 11 8 12 9 91 10 90 11 92 12
REMARK SMILES IDX 89 13 8 14 9 15 10 16 7 17 5 19 6 20 4 21 2 22 1 23 3 24
REMARK SMILES IDX 19 25 20 26 21 27 22 28 23 29 24 30 25 32 26 33 27 34 88 35
REMARK SMILES IDX 28 36 87 37 29 38 30 39 31 40 81 41 32 42 86 43 80 44 82 45
REMARK SMILES IDX 33 46 85 47 79 48 78 49 34 51 66 52 46 53 65 54 47 55 50 56
REMARK SMILES IDX 64 57 83 58 48 59 49 60 63 62 84 63 51 64 35 65 36 66 44 67
REMARK SMILES IDX 37 68 38 69 42 70 45 71 39 72 40 73 43 74 41 75 67 76 68 77
REMARK SMILES IDX 76 78 69 79 70 80 74 81 77 82 71 83 72 84 75 85 73 86 52 87
REMARK SMILES IDX 53 88 61 89 54 90 55 91 59 92 62 93 56 94 57 95 60 96 58 97
REMARK H PARENT 16 6 7 18 23 31 82 50 50 61
REMARK Flexibility Score: inf
ROOT
ATOM      1  C   UNL A   1      31.359  28.267  24.637  1.00  0.00     0.021 C 
ENDROOT
BRANCH   1   2
ATOM      2  C   UNL A   1      31.848  27.447  25.833  1.00  0.00     0.116 C 
BRANCH   2   3
ATOM      3  N   UNL A   1      30.732  26.738  26.432  1.00  0.00    -0.352 N 
ATOM      4  C   UNL A   1      30.144  25.529  26.174  1.00  0.00     0.251 C 
ATOM      5  O   UNL A   1      29.187  25.200  26.874  1.00  0.00    -0.269 OA
ATOM      6  H   UNL A   1      30.312  27.227  27.175  1.00  0.00     0.163 HD
BRANCH   4   7
ATOM      7  C   UNL A   1      30.641  24.575  25.145  1.00  0.00     0.041 A 
ATOM      8  C   UNL A   1      31.919  22.536  24.703  1.00  0.00     0.101 A 
ATOM      9  C   UNL A   1      31.385  23.478  25.602  1.00  0.00     0.037 A 
ATOM     10  C   UNL A   1      31.779  22.731  23.332  1.00  0.00     0.061 A 
ATOM     11  C   UNL A   1      30.972  23.781  22.877  1.00  0.00     0.023 A 
ATOM     12  Cl  UNL A   1      32.521  21.743  22.130  1.00  0.00    -0.083 Cl
ATOM     13  C   UNL A   1      30.369  24.667  23.780  1.00  0.00     0.015 A 
BRANCH   8  14
ATOM     14  S   UNL A   1      32.644  21.076  25.389  1.00  0.00     0.242 S 
ATOM     15  O   UNL A   1      31.831  19.938  24.999  1.00  0.00    -0.207 OA
ATOM     16  O   UNL A   1      32.913  21.330  26.781  1.00  0.00    -0.207 OA
BRANCH  14  17
ATOM     17  N   UNL A   1      34.119  20.885  24.635  1.00  0.00    -0.208 NA
ATOM     18  H   UNL A   1      34.303  19.882  24.664  1.00  0.00     0.141 HD
BRANCH  17  19
ATOM     19  C   UNL A   1      35.388  21.516  25.019  1.00  0.00     0.067 C 
ATOM     20  C   UNL A   1      36.448  20.404  25.001  1.00  0.00     0.025 C 
BRANCH  19  21
ATOM     21  C   UNL A   1      35.803  22.653  24.078  1.00  0.00     0.022 C 
BRANCH  21  22
ATOM     22  C   UNL A   1      35.537  24.079  24.609  1.00  0.00    -0.016 C 
ATOM     23  C   UNL A   1      34.479  24.837  23.803  1.00  0.00     0.007 C 
ATOM     24  C   UNL A   1      35.104  24.007  26.075  1.00  0.00     0.007 C 
ENDBRANCH  21  22
ENDBRANCH  19  21
ENDBRANCH  17  19
ENDBRANCH  14  17
ENDBRANCH   8  14
ENDBRANCH   4   7
ENDBRANCH   2   3
ENDBRANCH   1   2
BRANCH   1  25
ATOM     25  C   UNL A   1      31.108  29.743  24.979  1.00  0.00     0.002 C 
BRANCH  25  26
ATOM     26  C   UNL A   1      32.031  30.322  26.061  1.00  0.00     0.002 C 
BRANCH  26  27
ATOM     27  C   UNL A   1      31.693  31.745  26.509  1.00  0.00     0.021 C 
BRANCH  27  28
ATOM     28  C   UNL A   1      32.805  32.436  27.290  1.00  0.00     0.116 C 
BRANCH  28  29
ATOM     29  N   UNL A   1      32.494  33.832  27.558  1.00  0.00    -0.352 N 
ATOM     30  C   UNL A   1      33.027  34.661  28.515  1.00  0.00     0.251 C 
ATOM     31  H   UNL A   1      31.810  34.236  26.976  1.00  0.00     0.163 HD
ATOM     32  O   UNL A   1      32.529  35.757  28.748  1.00  0.00    -0.269 OA
BRANCH  30  33
ATOM     33  C   UNL A   1      34.207  34.208  29.277  1.00  0.00     0.039 A 
ATOM     34  C   UNL A   1      34.026  33.424  30.420  1.00  0.00     0.014 A 
ATOM     35  C   UNL A   1      35.491  34.541  28.841  1.00  0.00     0.014 A 
ATOM     36  C   UNL A   1      35.141  32.916  31.092  1.00  0.00     0.010 A 
ATOM     37  C   UNL A   1      36.596  33.983  29.471  1.00  0.00     0.010 A 
ATOM     38  C   UNL A   1      36.432  33.165  30.601  1.00  0.00    -0.014 A 
BRANCH  38  39
ATOM     39  C   UNL A   1      37.644  32.605  31.248  1.00  0.00     0.031 A 
ATOM     40  C   UNL A   1      38.383  31.482  30.577  1.00  0.00     0.074 A 
ATOM     41  C   UNL A   1      38.008  33.019  32.476  1.00  0.00     0.049 A 
ATOM     42  N   UNL A   1      39.328  30.710  31.047  1.00  0.00    -0.248 NA
ATOM     43  C   UNL A   1      37.976  31.164  29.199  1.00  0.00     0.031 C 
ATOM     44  C   UNL A   1      37.358  34.086  33.238  1.00  0.00     0.029 A 
ATOM     45  N   UNL A   1      38.998  32.568  33.314  1.00  0.00    -0.354 N 
ATOM     46  C   UNL A   1      39.603  29.796  30.039  1.00  0.00     0.074 A 
ATOM     47  C   UNL A   1      38.701  30.085  28.946  1.00  0.00     0.031 C 
ATOM     48  C   UNL A   1      37.966  34.208  34.429  1.00  0.00     0.029 A 
ATOM     49  C   UNL A   1      39.015  33.198  34.535  1.00  0.00     0.049 A 
ATOM     50  H   UNL A   1      39.636  31.861  33.062  1.00  0.00     0.167 HD
ATOM     51  C   UNL A   1      40.535  28.814  30.025  1.00  0.00     0.037 A 
ATOM     52  C   UNL A   1      39.774  32.968  35.623  1.00  0.00     0.037 A 
ATOM     53  C   UNL A   1      41.452  28.556  31.104  1.00  0.00     0.049 A 
ATOM     54  C   UNL A   1      40.800  31.866  35.584  1.00  0.00     0.074 A 
ATOM     55  C   UNL A   1      42.465  27.617  31.169  1.00  0.00     0.029 A 
ATOM     56  N   UNL A   1      41.467  29.248  32.306  1.00  0.00    -0.354 N 
ATOM     57  N   UNL A   1      41.078  31.030  34.614  1.00  0.00    -0.248 NA
ATOM     58  C   UNL A   1      41.620  31.676  36.789  1.00  0.00     0.031 C 
ATOM     59  C   UNL A   1      43.070  27.715  32.425  1.00  0.00     0.029 A 
ATOM     60  C   UNL A   1      42.467  28.749  33.124  1.00  0.00     0.049 A 
ATOM     61  H   UNL A   1      40.859  29.985  32.541  1.00  0.00     0.167 HD
ATOM     62  C   UNL A   1      42.128  30.246  35.074  1.00  0.00     0.074 A 
ATOM     63  C   UNL A   1      42.437  30.703  36.411  1.00  0.00     0.031 C 
ATOM     64  C   UNL A   1      42.780  29.241  34.440  1.00  0.00     0.037 A 
BRANCH  51  65
ATOM     65  C   UNL A   1      40.605  27.941  28.806  1.00  0.00     0.064 A 
ATOM     66  C   UNL A   1      39.853  26.762  28.700  1.00  0.00     0.173 A 
ATOM     67  C   UNL A   1      41.408  28.309  27.715  1.00  0.00     0.173 A 
ATOM     68  F   UNL A   1      39.079  26.360  29.719  1.00  0.00    -0.203 F 
ATOM     69  C   UNL A   1      39.927  25.965  27.560  1.00  0.00     0.198 A 
ATOM     70  C   UNL A   1      41.456  27.526  26.565  1.00  0.00     0.198 A 
ATOM     71  F   UNL A   1      42.143  29.429  27.763  1.00  0.00    -0.203 F 
ATOM     72  F   UNL A   1      39.241  24.816  27.502  1.00  0.00    -0.200 F 
ATOM     73  C   UNL A   1      40.722  26.351  26.492  1.00  0.00     0.200 A 
ATOM     74  F   UNL A   1      42.214  27.907  25.528  1.00  0.00    -0.200 F 
ATOM     75  F   UNL A   1      40.787  25.588  25.391  1.00  0.00    -0.200 F 
ENDBRANCH  51  65
BRANCH  52  76
ATOM     76  C   UNL A   1      39.603  33.804  36.839  1.00  0.00     0.064 A 
ATOM     77  C   UNL A   1      38.777  33.382  37.890  1.00  0.00     0.173 A 
ATOM     78  C   UNL A   1      40.256  35.038  36.978  1.00  0.00     0.173 A 
ATOM     79  F   UNL A   1      38.116  32.219  37.795  1.00  0.00    -0.203 F 
ATOM     80  C   UNL A   1      38.594  34.170  39.024  1.00  0.00     0.198 A 
ATOM     81  C   UNL A   1      40.093  35.813  38.124  1.00  0.00     0.198 A 
ATOM     82  F   UNL A   1      41.060  35.486  36.003  1.00  0.00    -0.203 F 
ATOM     83  F   UNL A   1      37.764  33.762  39.994  1.00  0.00    -0.200 F 
ATOM     84  C   UNL A   1      39.257  35.382  39.144  1.00  0.00     0.200 A 
ATOM     85  F   UNL A   1      40.747  36.977  38.241  1.00  0.00    -0.200 F 
ATOM     86  F   UNL A   1      39.084  36.139  40.236  1.00  0.00    -0.200 F 
ENDBRANCH  52  76
BRANCH  64  87
ATOM     87  C   UNL A   1      43.939  28.607  35.150  1.00  0.00     0.064 A 
ATOM     88  C   UNL A   1      43.779  27.481  35.968  1.00  0.00     0.173 A 
ATOM     89  C   UNL A   1      45.240  29.092  34.942  1.00  0.00     0.173 A 
ATOM     90  F   UNL A   1      42.554  26.989  36.208  1.00  0.00    -0.203 F 
ATOM     91  C   UNL A   1      44.879  26.866  36.560  1.00  0.00     0.198 A 
ATOM     92  C   UNL A   1      46.339  28.460  35.514  1.00  0.00     0.198 A 
ATOM     93  F   UNL A   1      45.444  30.165  34.162  1.00  0.00    -0.203 F 
ATOM     94  F   UNL A   1      44.702  25.807  37.361  1.00  0.00    -0.200 F 
ATOM     95  C   UNL A   1      46.159  27.350  36.324  1.00  0.00     0.200 A 
ATOM     96  F   UNL A   1      47.575  28.920  35.273  1.00  0.00    -0.200 F 
ATOM     97  F   UNL A   1      47.218  26.746  36.880  1.00  0.00    -0.200 F 
ENDBRANCH  64  87
ENDBRANCH  38  39
ENDBRANCH  30  33
ENDBRANCH  28  29
ENDBRANCH  27  28
ENDBRANCH  26  27
ENDBRANCH  25  26
ENDBRANCH   1  25
TORSDOF 18
ENDMDL
