MODEL 1
REMARK VINA RESULT:     -12.8      0.000      0.000
REMARK SMILES C[C@]1(C(=O)NCCCCCCNC(=O)c2ccc(-c3c4nc(c(-c5c(F)c(F)c(F)c(F)c5F)c5ccc([nH]5)c(-c5c(F)c(F)c(F)c(F)c5F)c5nc(c(-c6c(F)c(F)c(F)c(F)c6F)c6ccc3[nH]6)C=C5)C=C4)cc2)CCN(c2ccc([N+](=O)[O-])c(N)n2)C1
REMARK SMILES IDX 8 1 7 2 6 3 5 4 3 5 4 6 2 8 1 9 78 10 91 11 79 12 80 13
REMARK SMILES IDX 81 14 82 15 90 16 83 17 88 18 84 19 89 20 85 23 86 24 87 25
REMARK SMILES IDX 9 26 10 27 11 28 12 29 13 30 14 32 15 33 16 34 77 35 17 36
REMARK SMILES IDX 76 37 18 38 19 39 20 40 70 41 21 42 75 43 69 44 71 45 22 46
REMARK SMILES IDX 74 47 68 48 67 49 23 51 55 52 35 53 54 54 36 55 39 56 53 57
REMARK SMILES IDX 72 58 37 59 38 60 52 62 73 63 40 64 24 65 25 66 33 67 26 68
REMARK SMILES IDX 27 69 31 70 34 71 28 72 29 73 32 74 30 75 56 76 57 77 65 78
REMARK SMILES IDX 58 79 59 80 63 81 66 82 60 83 61 84 64 85 62 86 41 87 42 88
REMARK SMILES IDX 50 89 43 90 44 91 48 92 51 93 45 94 46 95 49 96 47 97
REMARK H PARENT 5 7 89 21 89 22 12 31 71 50 39 61
REMARK Flexibility Score: inf
ROOT
ATOM      1  C   UNL A   1      32.467  29.729  26.923  1.00  0.00     0.002 C 
ENDROOT
BRANCH   1   2
ATOM      2  C   UNL A   1      31.781  28.451  27.407  1.00  0.00     0.021 C 
BRANCH   2   3
ATOM      3  C   UNL A   1      31.988  27.223  26.528  1.00  0.00     0.116 C 
BRANCH   3   4
ATOM      4  N   UNL A   1      31.084  26.136  26.848  1.00  0.00    -0.356 N 
ATOM      5  C   UNL A   1      31.068  24.841  26.414  1.00  0.00     0.227 C 
ATOM      6  O   UNL A   1      30.181  24.110  26.857  1.00  0.00    -0.274 OA
ATOM      7  H   UNL A   1      30.364  26.369  27.479  1.00  0.00     0.163 HD
BRANCH   5   8
ATOM      8  C   UNL A   1      32.074  24.348  25.370  1.00  0.00     0.066 C 
ATOM      9  C   UNL A   1      31.937  25.177  24.081  1.00  0.00     0.024 C 
ATOM     10  C   UNL A   1      33.517  24.298  25.907  1.00  0.00     0.040 C 
ATOM     11  C   UNL A   1      31.828  22.843  25.081  1.00  0.00     0.134 C 
ATOM     12  C   UNL A   1      34.212  23.210  25.097  1.00  0.00     0.119 C 
ATOM     13  N   UNL A   1      33.134  22.347  24.652  1.00  0.00    -0.355 N 
BRANCH  13  14
ATOM     14  C   UNL A   1      33.362  20.996  24.534  1.00  0.00     0.131 A 
ATOM     15  C   UNL A   1      32.359  20.154  24.070  1.00  0.00     0.054 A 
ATOM     16  N   UNL A   1      34.591  20.517  24.833  1.00  0.00    -0.207 NA
ATOM     17  C   UNL A   1      32.639  18.803  23.874  1.00  0.00     0.093 A 
ATOM     18  C   UNL A   1      34.864  19.202  24.693  1.00  0.00     0.204 A 
ATOM     19  C   UNL A   1      33.914  18.324  24.188  1.00  0.00     0.311 A 
BRANCH  18  20
ATOM     20  N   UNL A   1      36.166  18.873  25.007  1.00  0.00    -0.378 N 
ATOM     21  H   UNL A   1      36.351  18.211  25.712  1.00  0.00     0.158 HD
ATOM     22  H   UNL A   1      36.912  19.300  24.526  1.00  0.00     0.158 HD
ENDBRANCH  18  20
BRANCH  19  23
ATOM     23  N   UNL A   1      34.210  16.913  23.987  1.00  0.00     0.066 N 
ATOM     24  O   UNL A   1      34.638  16.276  24.962  1.00  0.00    -0.258 OA
ATOM     25  O   UNL A   1      34.055  16.428  22.855  1.00  0.00    -0.258 OA
ENDBRANCH  19  23
ENDBRANCH  13  14
ENDBRANCH   5   8
ENDBRANCH   3   4
ENDBRANCH   2   3
ENDBRANCH   1   2
BRANCH   1  26
ATOM     26  C   UNL A   1      31.607  30.664  26.070  1.00  0.00     0.002 C 
BRANCH  26  27
ATOM     27  C   UNL A   1      31.388  32.069  26.635  1.00  0.00     0.021 C 
BRANCH  27  28
ATOM     28  C   UNL A   1      32.622  32.731  27.238  1.00  0.00     0.116 C 
BRANCH  28  29
ATOM     29  N   UNL A   1      32.389  34.116  27.609  1.00  0.00    -0.352 N 
ATOM     30  C   UNL A   1      32.996  34.876  28.575  1.00  0.00     0.251 C 
ATOM     31  H   UNL A   1      31.691  34.578  27.091  1.00  0.00     0.163 HD
ATOM     32  O   UNL A   1      32.550  35.987  28.857  1.00  0.00    -0.269 OA
BRANCH  30  33
ATOM     33  C   UNL A   1      34.174  34.356  29.303  1.00  0.00     0.039 A 
ATOM     34  C   UNL A   1      33.977  33.704  30.523  1.00  0.00     0.014 A 
ATOM     35  C   UNL A   1      35.467  34.521  28.797  1.00  0.00     0.014 A 
ATOM     36  C   UNL A   1      35.069  33.159  31.203  1.00  0.00     0.010 A 
ATOM     37  C   UNL A   1      36.545  33.913  29.439  1.00  0.00     0.010 A 
ATOM     38  C   UNL A   1      36.358  33.228  30.649  1.00  0.00    -0.014 A 
BRANCH  38  39
ATOM     39  C   UNL A   1      37.518  32.586  31.321  1.00  0.00     0.031 A 
ATOM     40  C   UNL A   1      38.247  31.451  30.655  1.00  0.00     0.074 A 
ATOM     41  C   UNL A   1      37.882  32.990  32.555  1.00  0.00     0.049 A 
ATOM     42  N   UNL A   1      39.238  30.724  31.109  1.00  0.00    -0.248 NA
ATOM     43  C   UNL A   1      37.790  31.068  29.311  1.00  0.00     0.031 C 
ATOM     44  C   UNL A   1      37.230  34.054  33.321  1.00  0.00     0.029 A 
ATOM     45  N   UNL A   1      38.883  32.549  33.384  1.00  0.00    -0.354 N 
ATOM     46  C   UNL A   1      39.515  29.798  30.111  1.00  0.00     0.074 A 
ATOM     47  C   UNL A   1      38.552  30.014  29.054  1.00  0.00     0.031 C 
ATOM     48  C   UNL A   1      37.862  34.198  34.497  1.00  0.00     0.029 A 
ATOM     49  C   UNL A   1      38.934  33.211  34.588  1.00  0.00     0.049 A 
ATOM     50  H   UNL A   1      39.505  31.827  33.140  1.00  0.00     0.167 HD
ATOM     51  C   UNL A   1      40.500  28.869  30.070  1.00  0.00     0.037 A 
ATOM     52  C   UNL A   1      39.745  33.034  35.648  1.00  0.00     0.037 A 
ATOM     53  C   UNL A   1      41.468  28.666  31.116  1.00  0.00     0.049 A 
ATOM     54  C   UNL A   1      40.810  31.971  35.585  1.00  0.00     0.074 A 
ATOM     55  C   UNL A   1      42.531  27.780  31.149  1.00  0.00     0.029 A 
ATOM     56  N   UNL A   1      41.490  29.360  32.317  1.00  0.00    -0.354 N 
ATOM     57  N   UNL A   1      41.103  31.145  34.610  1.00  0.00    -0.248 NA
ATOM     58  C   UNL A   1      41.664  31.820  36.773  1.00  0.00     0.031 C 
ATOM     59  C   UNL A   1      43.163  27.900  32.390  1.00  0.00     0.029 A 
ATOM     60  C   UNL A   1      42.533  28.904  33.107  1.00  0.00     0.049 A 
ATOM     61  H   UNL A   1      40.858  30.071  32.571  1.00  0.00     0.167 HD
ATOM     62  C   UNL A   1      42.191  30.403  35.050  1.00  0.00     0.074 A 
ATOM     63  C   UNL A   1      42.519  30.889  36.374  1.00  0.00     0.031 C 
ATOM     64  C   UNL A   1      42.858  29.408  34.417  1.00  0.00     0.037 A 
BRANCH  51  65
ATOM     65  C   UNL A   1      40.590  28.001  28.847  1.00  0.00     0.064 A 
ATOM     66  C   UNL A   1      39.865  26.805  28.741  1.00  0.00     0.173 A 
ATOM     67  C   UNL A   1      41.364  28.397  27.746  1.00  0.00     0.173 A 
ATOM     68  F   UNL A   1      39.117  26.374  29.769  1.00  0.00    -0.203 F 
ATOM     69  C   UNL A   1      39.929  26.025  27.588  1.00  0.00     0.198 A 
ATOM     70  C   UNL A   1      41.401  27.632  26.583  1.00  0.00     0.198 A 
ATOM     71  F   UNL A   1      42.072  29.536  27.790  1.00  0.00    -0.203 F 
ATOM     72  F   UNL A   1      39.262  24.864  27.528  1.00  0.00    -0.200 F 
ATOM     73  C   UNL A   1      40.690  26.444  26.507  1.00  0.00     0.200 A 
ATOM     74  F   UNL A   1      42.125  28.046  25.533  1.00  0.00    -0.200 F 
ATOM     75  F   UNL A   1      40.740  25.700  25.394  1.00  0.00    -0.200 F 
ENDBRANCH  51  65
BRANCH  52  76
ATOM     76  C   UNL A   1      39.596  33.885  36.859  1.00  0.00     0.064 A 
ATOM     77  C   UNL A   1      38.816  33.463  37.945  1.00  0.00     0.173 A 
ATOM     78  C   UNL A   1      40.196  35.150  36.941  1.00  0.00     0.173 A 
ATOM     79  F   UNL A   1      38.204  32.271  37.906  1.00  0.00    -0.203 F 
ATOM     80  C   UNL A   1      38.616  34.286  39.051  1.00  0.00     0.198 A 
ATOM     81  C   UNL A   1      40.023  35.958  38.063  1.00  0.00     0.198 A 
ATOM     82  F   UNL A   1      40.956  35.602  35.933  1.00  0.00    -0.203 F 
ATOM     83  F   UNL A   1      37.814  33.882  40.047  1.00  0.00    -0.200 F 
ATOM     84  C   UNL A   1      39.222  35.531  39.112  1.00  0.00     0.200 A 
ATOM     85  F   UNL A   1      40.624  37.154  38.124  1.00  0.00    -0.200 F 
ATOM     86  F   UNL A   1      39.026  36.324  40.174  1.00  0.00    -0.200 F 
ENDBRANCH  52  76
BRANCH  64  87
ATOM     87  C   UNL A   1      44.038  28.806  35.127  1.00  0.00     0.064 A 
ATOM     88  C   UNL A   1      45.330  29.334  34.994  1.00  0.00     0.173 A 
ATOM     89  C   UNL A   1      43.862  27.705  35.981  1.00  0.00     0.173 A 
ATOM     90  F   UNL A   1      45.552  30.376  34.178  1.00  0.00    -0.203 F 
ATOM     91  C   UNL A   1      46.408  28.765  35.665  1.00  0.00     0.198 A 
ATOM     92  C   UNL A   1      44.937  27.161  36.678  1.00  0.00     0.198 A 
ATOM     93  F   UNL A   1      42.646  27.166  36.151  1.00  0.00    -0.203 F 
ATOM     94  F   UNL A   1      47.642  29.253  35.480  1.00  0.00    -0.200 F 
ATOM     95  C   UNL A   1      46.210  27.685  36.513  1.00  0.00     0.200 A 
ATOM     96  F   UNL A   1      44.741  26.128  37.509  1.00  0.00    -0.200 F 
ATOM     97  F   UNL A   1      47.248  27.144  37.165  1.00  0.00    -0.200 F 
ENDBRANCH  64  87
ENDBRANCH  38  39
ENDBRANCH  30  33
ENDBRANCH  28  29
ENDBRANCH  27  28
ENDBRANCH  26  27
ENDBRANCH   1  26
TORSDOF 16
ENDMDL
MODEL 2
REMARK VINA RESULT:     -12.8      5.619     11.408
REMARK SMILES C[C@]1(C(=O)NCCCCCCNC(=O)c2ccc(-c3c4nc(c(-c5c(F)c(F)c(F)c(F)c5F)c5ccc([nH]5)c(-c5c(F)c(F)c(F)c(F)c5F)c5nc(c(-c6c(F)c(F)c(F)c(F)c6F)c6ccc3[nH]6)C=C5)C=C4)cc2)CCN(c2ccc([N+](=O)[O-])c(N)n2)C1
REMARK SMILES IDX 8 1 7 2 6 3 5 4 3 5 4 6 2 8 1 9 78 10 91 11 79 12 80 13
REMARK SMILES IDX 81 14 82 15 90 16 83 17 88 18 84 19 89 20 85 23 86 24 87 25
REMARK SMILES IDX 9 26 10 27 11 28 12 29 13 30 14 32 15 33 16 34 77 35 17 36
REMARK SMILES IDX 76 37 18 38 19 39 20 40 70 41 21 42 75 43 69 44 71 45 22 46
REMARK SMILES IDX 74 47 68 48 67 49 23 51 55 52 35 53 54 54 36 55 39 56 53 57
REMARK SMILES IDX 72 58 37 59 38 60 52 62 73 63 40 64 24 65 25 66 33 67 26 68
REMARK SMILES IDX 27 69 31 70 34 71 28 72 29 73 32 74 30 75 56 76 57 77 65 78
REMARK SMILES IDX 58 79 59 80 63 81 66 82 60 83 61 84 64 85 62 86 41 87 42 88
REMARK SMILES IDX 50 89 43 90 44 91 48 92 51 93 45 94 46 95 49 96 47 97
REMARK H PARENT 5 7 89 21 89 22 12 31 71 50 39 61
REMARK Flexibility Score: inf
ROOT
ATOM      1  C   UNL A   1      36.106  21.367  25.090  1.00  0.00     0.002 C 
ENDROOT
BRANCH   1   2
ATOM      2  C   UNL A   1      34.801  21.453  25.883  1.00  0.00     0.021 C 
BRANCH   2   3
ATOM      3  C   UNL A   1      34.711  22.608  26.873  1.00  0.00     0.116 C 
BRANCH   3   4
ATOM      4  N   UNL A   1      33.350  22.906  27.277  1.00  0.00    -0.356 N 
ATOM      5  C   UNL A   1      32.435  23.765  26.740  1.00  0.00     0.227 C 
ATOM      6  O   UNL A   1      31.329  23.819  27.281  1.00  0.00    -0.274 OA
ATOM      7  H   UNL A   1      33.036  22.409  28.068  1.00  0.00     0.163 HD
BRANCH   5   8
ATOM      8  C   UNL A   1      32.799  24.666  25.557  1.00  0.00     0.066 C 
ATOM      9  C   UNL A   1      34.231  25.202  25.731  1.00  0.00     0.024 C 
ATOM     10  C   UNL A   1      32.570  23.984  24.194  1.00  0.00     0.040 C 
ATOM     11  C   UNL A   1      31.785  25.835  25.462  1.00  0.00     0.134 C 
ATOM     12  C   UNL A   1      32.297  25.121  23.216  1.00  0.00     0.119 C 
ATOM     13  N   UNL A   1      31.796  26.200  24.046  1.00  0.00    -0.355 N 
BRANCH  13  14
ATOM     14  C   UNL A   1      30.841  27.049  23.539  1.00  0.00     0.131 A 
ATOM     15  C   UNL A   1      29.495  26.827  23.798  1.00  0.00     0.054 A 
ATOM     16  N   UNL A   1      31.245  28.126  22.826  1.00  0.00    -0.207 NA
ATOM     17  C   UNL A   1      28.551  27.749  23.350  1.00  0.00     0.093 A 
ATOM     18  C   UNL A   1      30.339  29.004  22.344  1.00  0.00     0.204 A 
ATOM     19  C   UNL A   1      28.984  28.856  22.614  1.00  0.00     0.311 A 
BRANCH  18  20
ATOM     20  N   UNL A   1      30.905  30.064  21.666  1.00  0.00    -0.378 N 
ATOM     21  H   UNL A   1      31.883  30.121  21.570  1.00  0.00     0.158 HD
ATOM     22  H   UNL A   1      30.330  30.763  21.279  1.00  0.00     0.158 HD
ENDBRANCH  18  20
BRANCH  19  23
ATOM     23  N   UNL A   1      28.003  29.821  22.141  1.00  0.00     0.066 N 
ATOM     24  O   UNL A   1      28.021  30.106  20.934  1.00  0.00    -0.258 OA
ATOM     25  O   UNL A   1      27.227  30.331  22.964  1.00  0.00    -0.258 OA
ENDBRANCH  19  23
ENDBRANCH  13  14
ENDBRANCH   5   8
ENDBRANCH   3   4
ENDBRANCH   2   3
ENDBRANCH   1   2
BRANCH   1  26
ATOM     26  C   UNL A   1      36.718  19.969  24.966  1.00  0.00     0.002 C 
BRANCH  26  27
ATOM     27  C   UNL A   1      38.213  19.923  24.642  1.00  0.00     0.021 C 
BRANCH  27  28
ATOM     28  C   UNL A   1      39.147  20.143  25.827  1.00  0.00     0.116 C 
BRANCH  28  29
ATOM     29  N   UNL A   1      40.181  19.126  25.920  1.00  0.00    -0.352 N 
ATOM     30  C   UNL A   1      41.532  19.268  26.101  1.00  0.00     0.251 C 
ATOM     31  H   UNL A   1      39.864  18.197  25.840  1.00  0.00     0.163 HD
ATOM     32  O   UNL A   1      42.275  18.294  25.989  1.00  0.00    -0.269 OA
BRANCH  30  33
ATOM     33  C   UNL A   1      42.109  20.595  26.407  1.00  0.00     0.039 A 
ATOM     34  C   UNL A   1      42.488  21.424  25.349  1.00  0.00     0.014 A 
ATOM     35  C   UNL A   1      42.288  21.019  27.728  1.00  0.00     0.014 A 
ATOM     36  C   UNL A   1      42.987  22.702  25.612  1.00  0.00     0.010 A 
ATOM     37  C   UNL A   1      42.716  22.320  27.986  1.00  0.00     0.010 A 
ATOM     38  C   UNL A   1      43.071  23.174  26.932  1.00  0.00    -0.014 A 
BRANCH  38  39
ATOM     39  C   UNL A   1      43.525  24.559  27.224  1.00  0.00     0.031 A 
ATOM     40  C   UNL A   1      42.555  25.579  27.755  1.00  0.00     0.074 A 
ATOM     41  C   UNL A   1      44.801  24.912  26.964  1.00  0.00     0.049 A 
ATOM     42  N   UNL A   1      42.747  26.850  28.009  1.00  0.00    -0.248 NA
ATOM     43  C   UNL A   1      41.183  25.117  28.012  1.00  0.00     0.031 C 
ATOM     44  C   UNL A   1      45.827  24.025  26.413  1.00  0.00     0.029 A 
ATOM     45  N   UNL A   1      45.448  26.113  27.119  1.00  0.00    -0.354 N 
ATOM     46  C   UNL A   1      41.523  27.337  28.449  1.00  0.00     0.074 A 
ATOM     47  C   UNL A   1      40.580  26.242  28.370  1.00  0.00     0.031 C 
ATOM     48  C   UNL A   1      46.979  24.704  26.299  1.00  0.00     0.029 A 
ATOM     49  C   UNL A   1      46.765  26.083  26.725  1.00  0.00     0.049 A 
ATOM     50  H   UNL A   1      45.012  26.918  27.477  1.00  0.00     0.167 HD
ATOM     51  C   UNL A   1      41.218  28.576  28.901  1.00  0.00     0.037 A 
ATOM     52  C   UNL A   1      47.690  27.061  26.699  1.00  0.00     0.037 A 
ATOM     53  C   UNL A   1      42.161  29.660  28.993  1.00  0.00     0.049 A 
ATOM     54  C   UNL A   1      47.313  28.439  27.178  1.00  0.00     0.074 A 
ATOM     55  C   UNL A   1      41.961  30.940  29.479  1.00  0.00     0.029 A 
ATOM     56  N   UNL A   1      43.488  29.590  28.590  1.00  0.00    -0.354 N 
ATOM     57  N   UNL A   1      46.169  28.869  27.651  1.00  0.00    -0.248 NA
ATOM     58  C   UNL A   1      48.362  29.468  27.124  1.00  0.00     0.031 C 
ATOM     59  C   UNL A   1      43.148  31.661  29.320  1.00  0.00     0.029 A 
ATOM     60  C   UNL A   1      44.108  30.813  28.793  1.00  0.00     0.049 A 
ATOM     61  H   UNL A   1      43.922  28.791  28.214  1.00  0.00     0.167 HD
ATOM     62  C   UNL A   1      46.368  30.202  27.982  1.00  0.00     0.074 A 
ATOM     63  C   UNL A   1      47.750  30.506  27.673  1.00  0.00     0.031 C 
ATOM     64  C   UNL A   1      45.488  31.097  28.495  1.00  0.00     0.037 A 
BRANCH  51  65
ATOM     65  C   UNL A   1      39.805  28.832  29.342  1.00  0.00     0.064 A 
ATOM     66  C   UNL A   1      38.828  29.292  28.446  1.00  0.00     0.173 A 
ATOM     67  C   UNL A   1      39.408  28.558  30.659  1.00  0.00     0.173 A 
ATOM     68  F   UNL A   1      39.157  29.578  27.176  1.00  0.00    -0.203 F 
ATOM     69  C   UNL A   1      37.513  29.492  28.857  1.00  0.00     0.198 A 
ATOM     70  C   UNL A   1      38.085  28.729  31.059  1.00  0.00     0.198 A 
ATOM     71  F   UNL A   1      40.299  28.110  31.556  1.00  0.00    -0.203 F 
ATOM     72  F   UNL A   1      36.608  29.974  27.994  1.00  0.00    -0.200 F 
ATOM     73  C   UNL A   1      37.140  29.201  30.161  1.00  0.00     0.200 A 
ATOM     74  F   UNL A   1      37.723  28.433  32.316  1.00  0.00    -0.200 F 
ATOM     75  F   UNL A   1      35.871  29.382  30.552  1.00  0.00    -0.200 F 
ENDBRANCH  51  65
BRANCH  52  76
ATOM     76  C   UNL A   1      49.068  26.780  26.214  1.00  0.00     0.064 A 
ATOM     77  C   UNL A   1      49.417  26.991  24.872  1.00  0.00     0.173 A 
ATOM     78  C   UNL A   1      50.052  26.260  27.068  1.00  0.00     0.173 A 
ATOM     79  F   UNL A   1      48.507  27.466  24.011  1.00  0.00    -0.203 F 
ATOM     80  C   UNL A   1      50.685  26.663  24.397  1.00  0.00     0.198 A 
ATOM     81  C   UNL A   1      51.330  25.964  26.600  1.00  0.00     0.198 A 
ATOM     82  F   UNL A   1      49.774  26.043  28.362  1.00  0.00    -0.203 F 
ATOM     83  F   UNL A   1      50.971  26.816  23.097  1.00  0.00    -0.200 F 
ATOM     84  C   UNL A   1      51.643  26.153  25.262  1.00  0.00     0.200 A 
ATOM     85  F   UNL A   1      52.256  25.488  27.442  1.00  0.00    -0.200 F 
ATOM     86  F   UNL A   1      52.860  25.834  24.804  1.00  0.00    -0.200 F 
ENDBRANCH  52  76
BRANCH  64  87
ATOM     87  C   UNL A   1      46.001  32.477  28.795  1.00  0.00     0.064 A 
ATOM     88  C   UNL A   1      45.833  33.540  27.897  1.00  0.00     0.173 A 
ATOM     89  C   UNL A   1      46.638  32.743  30.018  1.00  0.00     0.173 A 
ATOM     90  F   UNL A   1      45.244  33.334  26.710  1.00  0.00    -0.203 F 
ATOM     91  C   UNL A   1      46.310  34.813  28.198  1.00  0.00     0.198 A 
ATOM     92  C   UNL A   1      47.082  34.025  30.330  1.00  0.00     0.198 A 
ATOM     93  F   UNL A   1      46.817  31.763  30.916  1.00  0.00    -0.203 F 
ATOM     94  F   UNL A   1      46.186  35.801  27.302  1.00  0.00    -0.200 F 
ATOM     95  C   UNL A   1      46.926  35.056  29.416  1.00  0.00     0.200 A 
ATOM     96  F   UNL A   1      47.663  34.261  31.514  1.00  0.00    -0.200 F 
ATOM     97  F   UNL A   1      47.377  36.284  29.707  1.00  0.00    -0.200 F 
ENDBRANCH  64  87
ENDBRANCH  38  39
ENDBRANCH  30  33
ENDBRANCH  28  29
ENDBRANCH  27  28
ENDBRANCH  26  27
ENDBRANCH   1  26
TORSDOF 16
ENDMDL
MODEL 3
REMARK VINA RESULT:     -12.7      5.382     10.288
REMARK SMILES C[C@]1(C(=O)NCCCCCCNC(=O)c2ccc(-c3c4nc(c(-c5c(F)c(F)c(F)c(F)c5F)c5ccc([nH]5)c(-c5c(F)c(F)c(F)c(F)c5F)c5nc(c(-c6c(F)c(F)c(F)c(F)c6F)c6ccc3[nH]6)C=C5)C=C4)cc2)CCN(c2ccc([N+](=O)[O-])c(N)n2)C1
REMARK SMILES IDX 8 1 7 2 6 3 5 4 3 5 4 6 2 8 1 9 78 10 91 11 79 12 80 13
REMARK SMILES IDX 81 14 82 15 90 16 83 17 88 18 84 19 89 20 85 23 86 24 87 25
REMARK SMILES IDX 9 26 10 27 11 28 12 29 13 30 14 32 15 33 16 34 77 35 17 36
REMARK SMILES IDX 76 37 18 38 19 39 20 40 70 41 21 42 75 43 69 44 71 45 22 46
REMARK SMILES IDX 74 47 68 48 67 49 23 51 55 52 35 53 54 54 36 55 39 56 53 57
REMARK SMILES IDX 72 58 37 59 38 60 52 62 73 63 40 64 24 65 25 66 33 67 26 68
REMARK SMILES IDX 27 69 31 70 34 71 28 72 29 73 32 74 30 75 56 76 57 77 65 78
REMARK SMILES IDX 58 79 59 80 63 81 66 82 60 83 61 84 64 85 62 86 41 87 42 88
REMARK SMILES IDX 50 89 43 90 44 91 48 92 51 93 45 94 46 95 49 96 47 97
REMARK H PARENT 5 7 89 21 89 22 12 31 71 50 39 61
REMARK Flexibility Score: inf
ROOT
ATOM      1  C   UNL A   1      37.212  22.225  25.045  1.00  0.00     0.002 C 
ENDROOT
BRANCH   1   2
ATOM      2  C   UNL A   1      36.202  23.115  25.771  1.00  0.00     0.021 C 
BRANCH   2   3
ATOM      3  C   UNL A   1      35.199  23.833  24.876  1.00  0.00     0.116 C 
BRANCH   3   4
ATOM      4  N   UNL A   1      34.504  24.911  25.552  1.00  0.00    -0.356 N 
ATOM      5  C   UNL A   1      33.168  25.141  25.710  1.00  0.00     0.227 C 
ATOM      6  O   UNL A   1      32.841  26.144  26.347  1.00  0.00    -0.274 OA
ATOM      7  H   UNL A   1      35.091  25.588  25.962  1.00  0.00     0.163 HD
BRANCH   5   8
ATOM      8  C   UNL A   1      32.128  24.223  25.062  1.00  0.00     0.066 C 
ATOM      9  C   UNL A   1      30.715  24.638  25.508  1.00  0.00     0.024 C 
ATOM     10  C   UNL A   1      32.278  24.137  23.531  1.00  0.00     0.040 C 
ATOM     11  C   UNL A   1      32.417  22.750  25.457  1.00  0.00     0.134 C 
ATOM     12  C   UNL A   1      31.723  22.771  23.147  1.00  0.00     0.119 C 
ATOM     13  N   UNL A   1      31.864  21.972  24.349  1.00  0.00    -0.355 N 
BRANCH  13  14
ATOM     14  C   UNL A   1      32.142  20.631  24.235  1.00  0.00     0.131 A 
ATOM     15  C   UNL A   1      32.259  20.043  22.982  1.00  0.00     0.054 A 
ATOM     16  N   UNL A   1      32.345  19.912  25.363  1.00  0.00    -0.207 NA
ATOM     17  C   UNL A   1      32.628  18.703  22.888  1.00  0.00     0.093 A 
ATOM     18  C   UNL A   1      32.658  18.600  25.290  1.00  0.00     0.204 A 
ATOM     19  C   UNL A   1      32.834  17.974  24.063  1.00  0.00     0.311 A 
BRANCH  18  20
ATOM     20  N   UNL A   1      32.865  18.013  26.521  1.00  0.00    -0.378 N 
ATOM     21  H   UNL A   1      33.569  18.357  27.119  1.00  0.00     0.158 HD
ATOM     22  H   UNL A   1      32.310  17.251  26.802  1.00  0.00     0.158 HD
ENDBRANCH  18  20
BRANCH  19  23
ATOM     23  N   UNL A   1      33.218  16.573  23.970  1.00  0.00     0.066 N 
ATOM     24  O   UNL A   1      32.744  15.795  24.813  1.00  0.00    -0.258 OA
ATOM     25  O   UNL A   1      34.018  16.233  23.084  1.00  0.00    -0.258 OA
ENDBRANCH  19  23
ENDBRANCH  13  14
ENDBRANCH   5   8
ENDBRANCH   3   4
ENDBRANCH   2   3
ENDBRANCH   1   2
BRANCH   1  26
ATOM     26  C   UNL A   1      36.843  20.742  24.948  1.00  0.00     0.002 C 
BRANCH  26  27
ATOM     27  C   UNL A   1      38.018  19.762  24.967  1.00  0.00     0.021 C 
BRANCH  27  28
ATOM     28  C   UNL A   1      39.215  20.192  25.807  1.00  0.00     0.116 C 
BRANCH  28  29
ATOM     29  N   UNL A   1      40.251  19.175  25.866  1.00  0.00    -0.352 N 
ATOM     30  C   UNL A   1      41.595  19.308  26.103  1.00  0.00     0.251 C 
ATOM     31  H   UNL A   1      39.943  18.252  25.713  1.00  0.00     0.163 HD
ATOM     32  O   UNL A   1      42.346  18.347  25.950  1.00  0.00    -0.269 OA
BRANCH  30  33
ATOM     33  C   UNL A   1      42.153  20.614  26.518  1.00  0.00     0.039 A 
ATOM     34  C   UNL A   1      42.659  21.471  25.538  1.00  0.00     0.014 A 
ATOM     35  C   UNL A   1      42.193  20.989  27.864  1.00  0.00     0.014 A 
ATOM     36  C   UNL A   1      43.144  22.730  25.900  1.00  0.00     0.010 A 
ATOM     37  C   UNL A   1      42.608  22.272  28.215  1.00  0.00     0.010 A 
ATOM     38  C   UNL A   1      43.089  23.155  27.237  1.00  0.00    -0.014 A 
BRANCH  38  39
ATOM     39  C   UNL A   1      43.528  24.521  27.627  1.00  0.00     0.031 A 
ATOM     40  C   UNL A   1      42.511  25.580  27.954  1.00  0.00     0.074 A 
ATOM     41  C   UNL A   1      44.843  24.822  27.637  1.00  0.00     0.049 A 
ATOM     42  N   UNL A   1      42.697  26.843  28.251  1.00  0.00    -0.248 NA
ATOM     43  C   UNL A   1      41.098  25.175  27.919  1.00  0.00     0.031 C 
ATOM     44  C   UNL A   1      45.924  23.893  27.303  1.00  0.00     0.029 A 
ATOM     45  N   UNL A   1      45.492  25.995  27.931  1.00  0.00    -0.354 N 
ATOM     46  C   UNL A   1      41.429  27.379  28.433  1.00  0.00     0.074 A 
ATOM     47  C   UNL A   1      40.479  26.323  28.154  1.00  0.00     0.031 C 
ATOM     48  C   UNL A   1      47.102  24.525  27.433  1.00  0.00     0.029 A 
ATOM     49  C   UNL A   1      46.860  25.912  27.816  1.00  0.00     0.049 A 
ATOM     50  H   UNL A   1      45.023  26.818  28.198  1.00  0.00     0.167 HD
ATOM     51  C   UNL A   1      41.087  28.630  28.822  1.00  0.00     0.037 A 
ATOM     52  C   UNL A   1      47.809  26.852  27.989  1.00  0.00     0.037 A 
ATOM     53  C   UNL A   1      42.034  29.675  29.114  1.00  0.00     0.049 A 
ATOM     54  C   UNL A   1      47.396  28.244  28.390  1.00  0.00     0.074 A 
ATOM     55  C   UNL A   1      41.789  30.963  29.557  1.00  0.00     0.029 A 
ATOM     56  N   UNL A   1      43.411  29.551  28.992  1.00  0.00    -0.354 N 
ATOM     57  N   UNL A   1      46.197  28.721  28.621  1.00  0.00    -0.248 NA
ATOM     58  C   UNL A   1      48.474  29.229  28.560  1.00  0.00     0.031 C 
ATOM     59  C   UNL A   1      43.011  31.634  29.652  1.00  0.00     0.029 A 
ATOM     60  C   UNL A   1      44.024  30.747  29.327  1.00  0.00     0.049 A 
ATOM     61  H   UNL A   1      43.881  28.735  28.708  1.00  0.00     0.167 HD
ATOM     62  C   UNL A   1      46.377  30.045  28.995  1.00  0.00     0.074 A 
ATOM     63  C   UNL A   1      47.804  30.292  28.979  1.00  0.00     0.031 C 
ATOM     64  C   UNL A   1      45.447  30.975  29.322  1.00  0.00     0.037 A 
BRANCH  51  65
ATOM     65  C   UNL A   1      39.625  28.943  28.964  1.00  0.00     0.064 A 
ATOM     66  C   UNL A   1      38.851  29.350  27.866  1.00  0.00     0.173 A 
ATOM     67  C   UNL A   1      38.976  28.779  30.197  1.00  0.00     0.173 A 
ATOM     68  F   UNL A   1      39.423  29.531  26.666  1.00  0.00    -0.203 F 
ATOM     69  C   UNL A   1      37.489  29.604  28.003  1.00  0.00     0.198 A 
ATOM     70  C   UNL A   1      37.608  29.003  30.323  1.00  0.00     0.198 A 
ATOM     71  F   UNL A   1      39.667  28.386  31.278  1.00  0.00    -0.203 F 
ATOM     72  F   UNL A   1      36.779  30.034  26.950  1.00  0.00    -0.200 F 
ATOM     73  C   UNL A   1      36.866  29.421  29.228  1.00  0.00     0.200 A 
ATOM     74  F   UNL A   1      37.005  28.811  31.505  1.00  0.00    -0.200 F 
ATOM     75  F   UNL A   1      35.552  29.653  29.355  1.00  0.00    -0.200 F 
ENDBRANCH  51  65
BRANCH  52  76
ATOM     76  C   UNL A   1      49.244  26.514  27.796  1.00  0.00     0.064 A 
ATOM     77  C   UNL A   1      50.079  26.257  28.894  1.00  0.00     0.173 A 
ATOM     78  C   UNL A   1      49.821  26.477  26.518  1.00  0.00     0.173 A 
ATOM     79  F   UNL A   1      49.580  26.301  30.138  1.00  0.00    -0.203 F 
ATOM     80  C   UNL A   1      51.439  26.010  28.723  1.00  0.00     0.198 A 
ATOM     81  C   UNL A   1      51.175  26.197  26.346  1.00  0.00     0.198 A 
ATOM     82  F   UNL A   1      49.069  26.711  25.433  1.00  0.00    -0.203 F 
ATOM     83  F   UNL A   1      52.225  25.830  29.794  1.00  0.00    -0.200 F 
ATOM     84  C   UNL A   1      51.986  25.975  27.449  1.00  0.00     0.200 A 
ATOM     85  F   UNL A   1      51.695  26.148  25.113  1.00  0.00    -0.200 F 
ATOM     86  F   UNL A   1      53.295  25.742  27.285  1.00  0.00    -0.200 F 
ENDBRANCH  52  76
BRANCH  64  87
ATOM     87  C   UNL A   1      45.941  32.333  29.732  1.00  0.00     0.064 A 
ATOM     88  C   UNL A   1      46.097  33.374  28.806  1.00  0.00     0.173 A 
ATOM     89  C   UNL A   1      46.228  32.604  31.079  1.00  0.00     0.173 A 
ATOM     90  F   UNL A   1      45.850  33.162  27.504  1.00  0.00    -0.203 F 
ATOM     91  C   UNL A   1      46.550  34.628  29.207  1.00  0.00     0.198 A 
ATOM     92  C   UNL A   1      46.647  33.868  31.483  1.00  0.00     0.198 A 
ATOM     93  F   UNL A   1      46.088  31.646  32.007  1.00  0.00    -0.203 F 
ATOM     94  F   UNL A   1      46.743  35.591  28.297  1.00  0.00    -0.200 F 
ATOM     95  C   UNL A   1      46.817  34.876  30.546  1.00  0.00     0.200 A 
ATOM     96  F   UNL A   1      46.889  34.111  32.778  1.00  0.00    -0.200 F 
ATOM     97  F   UNL A   1      47.246  36.085  30.932  1.00  0.00    -0.200 F 
ENDBRANCH  64  87
ENDBRANCH  38  39
ENDBRANCH  30  33
ENDBRANCH  28  29
ENDBRANCH  27  28
ENDBRANCH  26  27
ENDBRANCH   1  26
TORSDOF 16
ENDMDL
