MODEL 1
REMARK VINA RESULT:     -12.2      0.000      0.000
REMARK SMILES Nc1c(N2CCCC2)ncnc1N1CCC(C(=O)NCCCCCCNC(=O)c2ccc(-c3c4nc(c(-c5c(F)c(F)c(F)c(F)c5F)c5ccc([nH]5)c(-c5c(F)c(F)c(F)c(F)c5F)c5nc(c(-c6c(F)c(F)c(F)c(F)c6F)c6ccc3[nH]6)C=C5)C=C4)cc2)CC1
REMARK SMILES IDX 22 1 21 2 20 3 19 4 17 5 18 6 16 8 13 9 14 10 93 11 15 12
REMARK SMILES IDX 92 13 12 14 2 15 3 16 9 17 11 18 10 19 1 20 4 23 5 24 8 25
REMARK SMILES IDX 6 26 7 27 23 28 24 29 25 30 26 31 27 32 28 34 29 35 30 36
REMARK SMILES IDX 91 37 31 38 90 39 32 40 33 41 34 42 84 43 35 44 89 45 83 46
REMARK SMILES IDX 85 47 36 48 88 49 82 50 81 51 37 53 69 54 49 55 68 56 50 57
REMARK SMILES IDX 53 58 67 59 86 60 51 61 52 62 66 64 87 65 54 66 38 67 39 68
REMARK SMILES IDX 47 69 40 70 41 71 45 72 48 73 42 74 43 75 46 76 44 77 70 78
REMARK SMILES IDX 71 79 79 80 72 81 73 82 77 83 80 84 74 85 75 86 78 87 76 88
REMARK SMILES IDX 55 89 56 90 64 91 57 92 58 93 62 94 65 95 59 96 60 97 63 98
REMARK SMILES IDX 61 99
REMARK H PARENT 19 7 1 21 1 22 26 33 85 52 53 63
REMARK Flexibility Score: inf
ROOT
ATOM      1  C   UNL A   1      31.963  29.899  27.068  1.00  0.00     0.002 C 
ENDROOT
BRANCH   1   2
ATOM      2  C   UNL A   1      32.312  28.508  26.531  1.00  0.00     0.021 C 
BRANCH   2   3
ATOM      3  C   UNL A   1      33.684  28.424  25.865  1.00  0.00     0.116 C 
BRANCH   3   4
ATOM      4  N   UNL A   1      33.563  28.104  24.452  1.00  0.00    -0.356 N 
ATOM      5  C   UNL A   1      33.660  26.913  23.799  1.00  0.00     0.223 C 
ATOM      6  O   UNL A   1      33.554  26.914  22.571  1.00  0.00    -0.275 OA
ATOM      7  H   UNL A   1      33.380  28.877  23.870  1.00  0.00     0.163 HD
BRANCH   5   8
ATOM      8  C   UNL A   1      33.859  25.608  24.556  1.00  0.00     0.082 C 
ATOM      9  N   UNL A   1      33.389  22.830  24.441  1.00  0.00    -0.355 N 
ATOM     10  C   UNL A   1      32.590  23.548  25.410  1.00  0.00     0.119 C 
ATOM     11  C   UNL A   1      34.764  23.247  24.241  1.00  0.00     0.119 C 
ATOM     12  C   UNL A   1      32.520  25.021  25.032  1.00  0.00     0.035 C 
ATOM     13  C   UNL A   1      34.773  24.680  23.739  1.00  0.00     0.035 C 
BRANCH   9  14
ATOM     14  C   UNL A   1      32.922  21.630  23.939  1.00  0.00     0.157 A 
ATOM     15  C   UNL A   1      33.248  20.404  24.539  1.00  0.00     0.118 A 
ATOM     16  C   UNL A   1      32.833  19.242  23.864  1.00  0.00     0.157 A 
ATOM     17  N   UNL A   1      32.151  19.293  22.708  1.00  0.00    -0.217 NA
ATOM     18  N   UNL A   1      32.171  21.692  22.824  1.00  0.00    -0.217 NA
ATOM     19  C   UNL A   1      31.842  20.518  22.263  1.00  0.00     0.226 A 
BRANCH  15  20
ATOM     20  N   UNL A   1      34.051  20.321  25.692  1.00  0.00    -0.393 N 
ATOM     21  H   UNL A   1      33.838  19.666  26.396  1.00  0.00     0.156 HD
ATOM     22  H   UNL A   1      34.826  20.920  25.797  1.00  0.00     0.156 HD
ENDBRANCH  15  20
BRANCH  16  23
ATOM     23  N   UNL A   1      33.139  18.008  24.407  1.00  0.00    -0.355 N 
ATOM     24  C   UNL A   1      32.155  17.271  25.174  1.00  0.00     0.118 C 
ATOM     25  C   UNL A   1      34.062  17.101  23.750  1.00  0.00     0.118 C 
ATOM     26  C   UNL A   1      33.027  16.166  25.754  1.00  0.00     0.023 C 
ATOM     27  C   UNL A   1      33.963  15.818  24.595  1.00  0.00     0.023 C 
ENDBRANCH  16  23
ENDBRANCH   9  14
ENDBRANCH   5   8
ENDBRANCH   3   4
ENDBRANCH   2   3
ENDBRANCH   1   2
BRANCH   1  28
ATOM     28  C   UNL A   1      31.393  30.872  26.031  1.00  0.00     0.002 C 
BRANCH  28  29
ATOM     29  C   UNL A   1      31.338  32.337  26.473  1.00  0.00     0.021 C 
BRANCH  29  30
ATOM     30  C   UNL A   1      32.549  32.806  27.273  1.00  0.00     0.116 C 
BRANCH  30  31
ATOM     31  N   UNL A   1      32.449  34.210  27.638  1.00  0.00    -0.352 N 
ATOM     32  C   UNL A   1      33.109  34.900  28.619  1.00  0.00     0.251 C 
ATOM     33  H   UNL A   1      31.815  34.740  27.103  1.00  0.00     0.163 HD
ATOM     34  O   UNL A   1      32.755  36.042  28.917  1.00  0.00    -0.269 OA
BRANCH  32  35
ATOM     35  C   UNL A   1      34.242  34.278  29.331  1.00  0.00     0.039 A 
ATOM     36  C   UNL A   1      35.541  34.519  28.875  1.00  0.00     0.014 A 
ATOM     37  C   UNL A   1      34.025  33.431  30.423  1.00  0.00     0.014 A 
ATOM     38  C   UNL A   1      36.626  33.942  29.537  1.00  0.00     0.010 A 
ATOM     39  C   UNL A   1      35.111  32.907  31.120  1.00  0.00     0.010 A 
ATOM     40  C   UNL A   1      36.419  33.147  30.675  1.00  0.00    -0.014 A 
BRANCH  40  41
ATOM     41  C   UNL A   1      37.558  32.521  31.390  1.00  0.00     0.031 A 
ATOM     42  C   UNL A   1      38.291  31.370  30.761  1.00  0.00     0.074 A 
ATOM     43  C   UNL A   1      37.898  32.952  32.620  1.00  0.00     0.049 A 
ATOM     44  N   UNL A   1      39.251  30.630  31.255  1.00  0.00    -0.248 NA
ATOM     45  C   UNL A   1      37.877  30.985  29.402  1.00  0.00     0.031 C 
ATOM     46  C   UNL A   1      37.243  34.042  33.343  1.00  0.00     0.029 A 
ATOM     47  N   UNL A   1      38.873  32.517  33.482  1.00  0.00    -0.354 N 
ATOM     48  C   UNL A   1      39.544  29.689  30.277  1.00  0.00     0.074 A 
ATOM     49  C   UNL A   1      38.631  29.919  29.178  1.00  0.00     0.031 C 
ATOM     50  C   UNL A   1      37.845  34.201  34.534  1.00  0.00     0.029 A 
ATOM     51  C   UNL A   1      38.899  33.201  34.672  1.00  0.00     0.049 A 
ATOM     52  H   UNL A   1      39.494  31.783  33.268  1.00  0.00     0.167 HD
ATOM     53  C   UNL A   1      40.503  28.734  30.287  1.00  0.00     0.037 A 
ATOM     54  C   UNL A   1      39.679  33.031  35.757  1.00  0.00     0.037 A 
ATOM     55  C   UNL A   1      41.430  28.529  31.367  1.00  0.00     0.049 A 
ATOM     56  C   UNL A   1      40.729  31.952  35.746  1.00  0.00     0.074 A 
ATOM     57  C   UNL A   1      42.473  27.624  31.447  1.00  0.00     0.029 A 
ATOM     58  N   UNL A   1      41.427  29.244  32.557  1.00  0.00    -0.354 N 
ATOM     59  N   UNL A   1      41.026  31.097  34.799  1.00  0.00    -0.248 NA
ATOM     60  C   UNL A   1      41.554  31.816  36.955  1.00  0.00     0.031 C 
ATOM     61  C   UNL A   1      43.074  27.760  32.702  1.00  0.00     0.029 A 
ATOM     62  C   UNL A   1      42.437  28.783  33.385  1.00  0.00     0.049 A 
ATOM     63  H   UNL A   1      40.800  29.969  32.778  1.00  0.00     0.167 HD
ATOM     64  C   UNL A   1      42.076  30.333  35.288  1.00  0.00     0.074 A 
ATOM     65  C   UNL A   1      42.384  30.842  36.608  1.00  0.00     0.031 C 
ATOM     66  C   UNL A   1      42.725  29.298  34.699  1.00  0.00     0.037 A 
BRANCH  53  67
ATOM     67  C   UNL A   1      40.612  27.839  29.088  1.00  0.00     0.064 A 
ATOM     68  C   UNL A   1      39.773  26.725  28.926  1.00  0.00     0.173 A 
ATOM     69  C   UNL A   1      41.514  28.138  28.057  1.00  0.00     0.173 A 
ATOM     70  F   UNL A   1      38.902  26.390  29.890  1.00  0.00    -0.203 F 
ATOM     71  C   UNL A   1      39.844  25.937  27.781  1.00  0.00     0.198 A 
ATOM     72  C   UNL A   1      41.563  27.363  26.901  1.00  0.00     0.198 A 
ATOM     73  F   UNL A   1      42.335  29.193  28.161  1.00  0.00    -0.203 F 
ATOM     74  F   UNL A   1      39.055  24.860  27.662  1.00  0.00    -0.200 F 
ATOM     75  C   UNL A   1      40.730  26.262  26.765  1.00  0.00     0.200 A 
ATOM     76  F   UNL A   1      42.411  27.686  25.914  1.00  0.00    -0.200 F 
ATOM     77  F   UNL A   1      40.782  25.513  25.655  1.00  0.00    -0.200 F 
ENDBRANCH  53  67
BRANCH  54  78
ATOM     78  C   UNL A   1      39.507  33.916  36.938  1.00  0.00     0.064 A 
ATOM     79  C   UNL A   1      40.112  35.179  36.985  1.00  0.00     0.173 A 
ATOM     80  C   UNL A   1      38.732  33.522  38.039  1.00  0.00     0.173 A 
ATOM     81  F   UNL A   1      40.883  35.590  35.967  1.00  0.00    -0.203 F 
ATOM     82  C   UNL A   1      39.961  36.010  38.094  1.00  0.00     0.198 A 
ATOM     83  C   UNL A   1      38.558  34.365  39.135  1.00  0.00     0.198 A 
ATOM     84  F   UNL A   1      38.130  32.325  38.043  1.00  0.00    -0.203 F 
ATOM     85  F   UNL A   1      40.584  37.196  38.130  1.00  0.00    -0.200 F 
ATOM     86  C   UNL A   1      39.177  35.605  39.164  1.00  0.00     0.200 A 
ATOM     87  F   UNL A   1      37.790  33.976  40.162  1.00  0.00    -0.200 F 
ATOM     88  F   UNL A   1      39.026  36.408  40.226  1.00  0.00    -0.200 F 
ENDBRANCH  54  78
BRANCH  66  89
ATOM     89  C   UNL A   1      43.836  28.650  35.472  1.00  0.00     0.064 A 
ATOM     90  C   UNL A   1      45.159  29.105  35.369  1.00  0.00     0.173 A 
ATOM     91  C   UNL A   1      43.568  27.602  36.366  1.00  0.00     0.173 A 
ATOM     92  F   UNL A   1      45.468  30.095  34.518  1.00  0.00    -0.203 F 
ATOM     93  C   UNL A   1      46.176  28.520  36.119  1.00  0.00     0.198 A 
ATOM     94  C   UNL A   1      44.582  27.041  37.137  1.00  0.00     0.198 A 
ATOM     95  F   UNL A   1      42.318  27.137  36.508  1.00  0.00    -0.203 F 
ATOM     96  F   UNL A   1      47.440  28.943  35.974  1.00  0.00    -0.200 F 
ATOM     97  C   UNL A   1      45.886  27.496  37.008  1.00  0.00     0.200 A 
ATOM     98  F   UNL A   1      44.297  26.062  38.006  1.00  0.00    -0.200 F 
ATOM     99  F   UNL A   1      46.864  26.944  37.738  1.00  0.00    -0.200 F 
ENDBRANCH  66  89
ENDBRANCH  40  41
ENDBRANCH  32  35
ENDBRANCH  30  31
ENDBRANCH  29  30
ENDBRANCH  28  29
ENDBRANCH   1  28
TORSDOF 16
ENDMDL
MODEL 2
REMARK VINA RESULT:     -12.2      0.989      2.141
REMARK SMILES Nc1c(N2CCCC2)ncnc1N1CCC(C(=O)NCCCCCCNC(=O)c2ccc(-c3c4nc(c(-c5c(F)c(F)c(F)c(F)c5F)c5ccc([nH]5)c(-c5c(F)c(F)c(F)c(F)c5F)c5nc(c(-c6c(F)c(F)c(F)c(F)c6F)c6ccc3[nH]6)C=C5)C=C4)cc2)CC1
REMARK SMILES IDX 22 1 21 2 20 3 19 4 17 5 18 6 16 8 13 9 14 10 93 11 15 12
REMARK SMILES IDX 92 13 12 14 2 15 3 16 9 17 11 18 10 19 1 20 4 23 5 24 8 25
REMARK SMILES IDX 6 26 7 27 23 28 24 29 25 30 26 31 27 32 28 34 29 35 30 36
REMARK SMILES IDX 91 37 31 38 90 39 32 40 33 41 34 42 84 43 35 44 89 45 83 46
REMARK SMILES IDX 85 47 36 48 88 49 82 50 81 51 37 53 69 54 49 55 68 56 50 57
REMARK SMILES IDX 53 58 67 59 86 60 51 61 52 62 66 64 87 65 54 66 38 67 39 68
REMARK SMILES IDX 47 69 40 70 41 71 45 72 48 73 42 74 43 75 46 76 44 77 70 78
REMARK SMILES IDX 71 79 79 80 72 81 73 82 77 83 80 84 74 85 75 86 78 87 76 88
REMARK SMILES IDX 55 89 56 90 64 91 57 92 58 93 62 94 65 95 59 96 60 97 63 98
REMARK SMILES IDX 61 99
REMARK H PARENT 19 7 1 21 1 22 26 33 85 52 53 63
REMARK Flexibility Score: inf
ROOT
ATOM      1  C   UNL A   1      32.055  29.948  26.760  1.00  0.00     0.002 C 
ENDROOT
BRANCH   1   2
ATOM      2  C   UNL A   1      31.855  28.507  26.284  1.00  0.00     0.021 C 
BRANCH   2   3
ATOM      3  C   UNL A   1      31.293  28.391  24.869  1.00  0.00     0.116 C 
BRANCH   3   4
ATOM      4  N   UNL A   1      30.616  27.119  24.675  1.00  0.00    -0.356 N 
ATOM      5  C   UNL A   1      31.116  25.864  24.506  1.00  0.00     0.223 C 
ATOM      6  O   UNL A   1      30.319  24.942  24.320  1.00  0.00    -0.275 OA
ATOM      7  H   UNL A   1      29.633  27.174  24.666  1.00  0.00     0.163 HD
BRANCH   5   8
ATOM      8  C   UNL A   1      32.611  25.589  24.575  1.00  0.00     0.082 C 
ATOM      9  N   UNL A   1      34.534  23.527  24.635  1.00  0.00    -0.355 N 
ATOM     10  C   UNL A   1      34.365  24.245  25.880  1.00  0.00     0.119 C 
ATOM     11  C   UNL A   1      34.447  24.273  23.395  1.00  0.00     0.119 C 
ATOM     12  C   UNL A   1      33.002  24.923  25.905  1.00  0.00     0.035 C 
ATOM     13  C   UNL A   1      33.060  24.882  23.286  1.00  0.00     0.035 C 
BRANCH   9  14
ATOM     14  C   UNL A   1      35.027  22.236  24.664  1.00  0.00     0.157 A 
ATOM     15  C   UNL A   1      34.181  21.123  24.544  1.00  0.00     0.118 A 
ATOM     16  C   UNL A   1      34.772  19.860  24.724  1.00  0.00     0.157 A 
ATOM     17  N   UNL A   1      36.080  19.715  24.990  1.00  0.00    -0.217 NA
ATOM     18  N   UNL A   1      36.352  22.097  24.850  1.00  0.00    -0.217 NA
ATOM     19  C   UNL A   1      36.801  20.844  25.018  1.00  0.00     0.226 A 
BRANCH  15  20
ATOM     20  N   UNL A   1      32.789  21.251  24.371  1.00  0.00    -0.393 N 
ATOM     21  H   UNL A   1      32.424  22.007  23.856  1.00  0.00     0.156 HD
ATOM     22  H   UNL A   1      32.181  20.586  24.767  1.00  0.00     0.156 HD
ENDBRANCH  15  20
BRANCH  16  23
ATOM     23  N   UNL A   1      33.979  18.731  24.629  1.00  0.00    -0.355 N 
ATOM     24  C   UNL A   1      34.496  17.510  24.043  1.00  0.00     0.118 C 
ATOM     25  C   UNL A   1      32.963  18.433  25.621  1.00  0.00     0.118 C 
ATOM     26  C   UNL A   1      33.215  16.696  23.925  1.00  0.00     0.023 C 
ATOM     27  C   UNL A   1      32.469  17.033  25.218  1.00  0.00     0.023 C 
ENDBRANCH  16  23
ENDBRANCH   9  14
ENDBRANCH   5   8
ENDBRANCH   3   4
ENDBRANCH   2   3
ENDBRANCH   1   2
BRANCH   1  28
ATOM     28  C   UNL A   1      31.365  31.017  25.906  1.00  0.00     0.002 C 
BRANCH  28  29
ATOM     29  C   UNL A   1      31.223  32.390  26.569  1.00  0.00     0.021 C 
BRANCH  29  30
ATOM     30  C   UNL A   1      32.492  32.908  27.238  1.00  0.00     0.116 C 
BRANCH  30  31
ATOM     31  N   UNL A   1      32.363  34.298  27.646  1.00  0.00    -0.352 N 
ATOM     32  C   UNL A   1      33.025  34.977  28.632  1.00  0.00     0.251 C 
ATOM     33  H   UNL A   1      31.703  34.825  27.141  1.00  0.00     0.163 HD
ATOM     34  O   UNL A   1      32.649  36.100  28.972  1.00  0.00    -0.269 OA
BRANCH  32  35
ATOM     35  C   UNL A   1      34.190  34.366  29.301  1.00  0.00     0.039 A 
ATOM     36  C   UNL A   1      33.976  33.524  30.396  1.00  0.00     0.014 A 
ATOM     37  C   UNL A   1      35.492  34.649  28.876  1.00  0.00     0.014 A 
ATOM     38  C   UNL A   1      35.064  32.933  31.040  1.00  0.00     0.010 A 
ATOM     39  C   UNL A   1      36.573  34.010  29.479  1.00  0.00     0.010 A 
ATOM     40  C   UNL A   1      36.369  33.158  30.574  1.00  0.00    -0.014 A 
BRANCH  40  41
ATOM     41  C   UNL A   1      37.540  32.545  31.247  1.00  0.00     0.031 A 
ATOM     42  C   UNL A   1      38.277  31.417  30.581  1.00  0.00     0.074 A 
ATOM     43  C   UNL A   1      37.908  32.966  32.472  1.00  0.00     0.049 A 
ATOM     44  N   UNL A   1      39.266  30.690  31.036  1.00  0.00    -0.248 NA
ATOM     45  C   UNL A   1      37.830  31.042  29.229  1.00  0.00     0.031 C 
ATOM     46  C   UNL A   1      37.253  34.033  33.230  1.00  0.00     0.029 A 
ATOM     47  N   UNL A   1      38.915  32.539  33.299  1.00  0.00    -0.354 N 
ATOM     48  C   UNL A   1      39.547  29.768  30.037  1.00  0.00     0.074 A 
ATOM     49  C   UNL A   1      38.599  29.995  28.969  1.00  0.00     0.031 C 
ATOM     50  C   UNL A   1      37.886  34.188  34.404  1.00  0.00     0.029 A 
ATOM     51  C   UNL A   1      38.963  33.207  34.498  1.00  0.00     0.049 A 
ATOM     52  H   UNL A   1      39.544  31.821  33.057  1.00  0.00     0.167 HD
ATOM     53  C   UNL A   1      40.525  28.833  30.006  1.00  0.00     0.037 A 
ATOM     54  C   UNL A   1      39.778  33.038  35.558  1.00  0.00     0.037 A 
ATOM     55  C   UNL A   1      41.487  28.632  31.056  1.00  0.00     0.049 A 
ATOM     56  C   UNL A   1      40.848  31.981  35.501  1.00  0.00     0.074 A 
ATOM     57  C   UNL A   1      42.550  27.747  31.093  1.00  0.00     0.029 A 
ATOM     58  N   UNL A   1      41.505  29.330  32.256  1.00  0.00    -0.354 N 
ATOM     59  N   UNL A   1      41.133  31.145  34.533  1.00  0.00    -0.248 NA
ATOM     60  C   UNL A   1      41.710  31.846  36.684  1.00  0.00     0.031 C 
ATOM     61  C   UNL A   1      43.184  27.878  32.331  1.00  0.00     0.029 A 
ATOM     62  C   UNL A   1      42.548  28.878  33.047  1.00  0.00     0.049 A 
ATOM     63  H   UNL A   1      40.871  30.040  32.505  1.00  0.00     0.167 HD
ATOM     64  C   UNL A   1      42.213  30.395  34.981  1.00  0.00     0.074 A 
ATOM     65  C   UNL A   1      42.548  30.893  36.299  1.00  0.00     0.031 C 
ATOM     66  C   UNL A   1      42.864  29.382  34.359  1.00  0.00     0.037 A 
BRANCH  53  67
ATOM     67  C   UNL A   1      40.617  27.956  28.792  1.00  0.00     0.064 A 
ATOM     68  C   UNL A   1      39.897  26.755  28.700  1.00  0.00     0.173 A 
ATOM     69  C   UNL A   1      41.373  28.356  27.681  1.00  0.00     0.173 A 
ATOM     70  F   UNL A   1      39.169  26.322  29.740  1.00  0.00    -0.203 F 
ATOM     71  C   UNL A   1      39.944  25.980  27.545  1.00  0.00     0.198 A 
ATOM     72  C   UNL A   1      41.396  27.592  26.517  1.00  0.00     0.198 A 
ATOM     73  F   UNL A   1      42.076  29.498  27.717  1.00  0.00    -0.203 F 
ATOM     74  F   UNL A   1      39.274  24.820  27.490  1.00  0.00    -0.200 F 
ATOM     75  C   UNL A   1      40.684  26.404  26.451  1.00  0.00     0.200 A 
ATOM     76  F   UNL A   1      42.100  28.009  25.456  1.00  0.00    -0.200 F 
ATOM     77  F   UNL A   1      40.711  25.666  25.333  1.00  0.00    -0.200 F 
ENDBRANCH  53  67
BRANCH  54  78
ATOM     78  C   UNL A   1      39.623  33.904  36.755  1.00  0.00     0.064 A 
ATOM     79  C   UNL A   1      38.856  33.486  37.850  1.00  0.00     0.173 A 
ATOM     80  C   UNL A   1      40.241  35.161  36.832  1.00  0.00     0.173 A 
ATOM     81  F   UNL A   1      38.226  32.302  37.814  1.00  0.00    -0.203 F 
ATOM     82  C   UNL A   1      38.700  34.297  38.973  1.00  0.00     0.198 A 
ATOM     83  C   UNL A   1      40.108  35.960  37.966  1.00  0.00     0.198 A 
ATOM     84  F   UNL A   1      40.987  35.607  35.812  1.00  0.00    -0.203 F 
ATOM     85  F   UNL A   1      37.928  33.891  39.990  1.00  0.00    -0.200 F 
ATOM     86  C   UNL A   1      39.333  35.530  39.033  1.00  0.00     0.200 A 
ATOM     87  F   UNL A   1      40.730  37.145  38.026  1.00  0.00    -0.200 F 
ATOM     88  F   UNL A   1      39.189  36.307  40.115  1.00  0.00    -0.200 F 
ENDBRANCH  54  78
BRANCH  66  89
ATOM     89  C   UNL A   1      44.010  28.745  35.090  1.00  0.00     0.064 A 
ATOM     90  C   UNL A   1      43.811  27.657  35.953  1.00  0.00     0.173 A 
ATOM     91  C   UNL A   1      45.324  29.189  34.883  1.00  0.00     0.173 A 
ATOM     92  F   UNL A   1      42.571  27.205  36.194  1.00  0.00    -0.203 F 
ATOM     93  C   UNL A   1      44.885  27.050  36.597  1.00  0.00     0.198 A 
ATOM     94  C   UNL A   1      46.399  28.559  35.505  1.00  0.00     0.198 A 
ATOM     95  F   UNL A   1      45.569  30.221  34.061  1.00  0.00    -0.203 F 
ATOM     96  F   UNL A   1      44.668  26.038  37.448  1.00  0.00    -0.200 F 
ATOM     97  C   UNL A   1      46.179  27.495  36.365  1.00  0.00     0.200 A 
ATOM     98  F   UNL A   1      47.649  28.982  35.268  1.00  0.00    -0.200 F 
ATOM     99  F   UNL A   1      47.212  26.900  36.976  1.00  0.00    -0.200 F 
ENDBRANCH  66  89
ENDBRANCH  40  41
ENDBRANCH  32  35
ENDBRANCH  30  31
ENDBRANCH  29  30
ENDBRANCH  28  29
ENDBRANCH   1  28
TORSDOF 16
ENDMDL
MODEL 3
REMARK VINA RESULT:     -12.1      2.663      8.705
REMARK SMILES Nc1c(N2CCCC2)ncnc1N1CCC(C(=O)NCCCCCCNC(=O)c2ccc(-c3c4nc(c(-c5c(F)c(F)c(F)c(F)c5F)c5ccc([nH]5)c(-c5c(F)c(F)c(F)c(F)c5F)c5nc(c(-c6c(F)c(F)c(F)c(F)c6F)c6ccc3[nH]6)C=C5)C=C4)cc2)CC1
REMARK SMILES IDX 22 1 21 2 20 3 19 4 17 5 18 6 16 8 13 9 14 10 93 11 15 12
REMARK SMILES IDX 92 13 12 14 2 15 3 16 9 17 11 18 10 19 1 20 4 23 5 24 8 25
REMARK SMILES IDX 6 26 7 27 23 28 24 29 25 30 26 31 27 32 28 34 29 35 30 36
REMARK SMILES IDX 91 37 31 38 90 39 32 40 33 41 34 42 84 43 35 44 89 45 83 46
REMARK SMILES IDX 85 47 36 48 88 49 82 50 81 51 37 53 69 54 49 55 68 56 50 57
REMARK SMILES IDX 53 58 67 59 86 60 51 61 52 62 66 64 87 65 54 66 38 67 39 68
REMARK SMILES IDX 47 69 40 70 41 71 45 72 48 73 42 74 43 75 46 76 44 77 70 78
REMARK SMILES IDX 71 79 79 80 72 81 73 82 77 83 80 84 74 85 75 86 78 87 76 88
REMARK SMILES IDX 55 89 56 90 64 91 57 92 58 93 62 94 65 95 59 96 60 97 63 98
REMARK SMILES IDX 61 99
REMARK H PARENT 19 7 1 21 1 22 26 33 85 52 53 63
REMARK Flexibility Score: inf
ROOT
ATOM      1  C   UNL A   1      31.319  26.099  26.158  1.00  0.00     0.002 C 
ENDROOT
BRANCH   1   2
ATOM      2  C   UNL A   1      32.015  24.775  26.487  1.00  0.00     0.021 C 
BRANCH   2   3
ATOM      3  C   UNL A   1      32.194  23.850  25.285  1.00  0.00     0.116 C 
BRANCH   3   4
ATOM      4  N   UNL A   1      33.602  23.614  25.009  1.00  0.00    -0.356 N 
ATOM      5  C   UNL A   1      34.412  24.114  24.035  1.00  0.00     0.223 C 
ATOM      6  O   UNL A   1      35.580  23.721  23.993  1.00  0.00    -0.275 OA
ATOM      7  H   UNL A   1      34.044  22.991  25.630  1.00  0.00     0.163 HD
BRANCH   5   8
ATOM      8  C   UNL A   1      33.911  25.152  23.042  1.00  0.00     0.082 C 
ATOM      9  N   UNL A   1      31.779  26.913  22.488  1.00  0.00    -0.355 N 
ATOM     10  C   UNL A   1      31.873  25.768  21.610  1.00  0.00     0.119 C 
ATOM     11  C   UNL A   1      33.009  27.533  22.941  1.00  0.00     0.119 C 
ATOM     12  C   UNL A   1      32.665  24.659  22.288  1.00  0.00     0.035 C 
ATOM     13  C   UNL A   1      33.804  26.517  23.742  1.00  0.00     0.035 C 
BRANCH   9  14
ATOM     14  C   UNL A   1      30.556  27.535  22.655  1.00  0.00     0.157 A 
ATOM     15  C   UNL A   1      30.366  28.884  22.320  1.00  0.00     0.118 A 
ATOM     16  C   UNL A   1      29.123  29.449  22.660  1.00  0.00     0.157 A 
ATOM     17  N   UNL A   1      28.159  28.739  23.268  1.00  0.00    -0.217 NA
ATOM     18  N   UNL A   1      29.568  26.796  23.191  1.00  0.00    -0.217 NA
ATOM     19  C   UNL A   1      28.430  27.444  23.481  1.00  0.00     0.226 A 
BRANCH  15  20
ATOM     20  N   UNL A   1      31.396  29.678  21.781  1.00  0.00    -0.393 N 
ATOM     21  H   UNL A   1      32.133  29.987  22.356  1.00  0.00     0.156 HD
ATOM     22  H   UNL A   1      31.378  29.926  20.828  1.00  0.00     0.156 HD
ENDBRANCH  15  20
BRANCH  16  23
ATOM     23  N   UNL A   1      28.889  30.778  22.363  1.00  0.00    -0.355 N 
ATOM     24  C   UNL A   1      28.030  31.150  21.257  1.00  0.00     0.118 C 
ATOM     25  C   UNL A   1      28.854  31.792  23.402  1.00  0.00     0.118 C 
ATOM     26  C   UNL A   1      28.307  32.645  21.182  1.00  0.00     0.023 C 
ATOM     27  C   UNL A   1      28.398  33.055  22.652  1.00  0.00     0.023 C 
ENDBRANCH  16  23
ENDBRANCH   9  14
ENDBRANCH   5   8
ENDBRANCH   3   4
ENDBRANCH   2   3
ENDBRANCH   1   2
BRANCH   1  28
ATOM     28  C   UNL A   1      31.912  27.333  26.845  1.00  0.00     0.002 C 
BRANCH  28  29
ATOM     29  C   UNL A   1      31.651  28.663  26.133  1.00  0.00     0.021 C 
BRANCH  29  30
ATOM     30  C   UNL A   1      32.891  29.525  25.921  1.00  0.00     0.116 C 
BRANCH  30  31
ATOM     31  N   UNL A   1      32.633  30.928  26.200  1.00  0.00    -0.352 N 
ATOM     32  C   UNL A   1      33.221  31.751  27.123  1.00  0.00     0.251 C 
ATOM     33  H   UNL A   1      31.935  31.346  25.648  1.00  0.00     0.163 HD
ATOM     34  O   UNL A   1      32.741  32.861  27.358  1.00  0.00    -0.269 OA
BRANCH  32  35
ATOM     35  C   UNL A   1      34.429  31.311  27.848  1.00  0.00     0.039 A 
ATOM     36  C   UNL A   1      35.495  32.203  27.990  1.00  0.00     0.014 A 
ATOM     37  C   UNL A   1      34.526  30.011  28.357  1.00  0.00     0.014 A 
ATOM     38  C   UNL A   1      36.645  31.806  28.675  1.00  0.00     0.010 A 
ATOM     39  C   UNL A   1      35.647  29.638  29.094  1.00  0.00     0.010 A 
ATOM     40  C   UNL A   1      36.721  30.527  29.248  1.00  0.00    -0.014 A 
BRANCH  40  41
ATOM     41  C   UNL A   1      37.935  30.084  29.976  1.00  0.00     0.031 A 
ATOM     42  C   UNL A   1      38.192  30.583  31.370  1.00  0.00     0.074 A 
ATOM     43  C   UNL A   1      38.825  29.276  29.369  1.00  0.00     0.049 A 
ATOM     44  N   UNL A   1      39.231  30.387  32.141  1.00  0.00    -0.248 NA
ATOM     45  C   UNL A   1      37.152  31.433  31.971  1.00  0.00     0.031 C 
ATOM     46  C   UNL A   1      38.697  28.749  28.010  1.00  0.00     0.029 A 
ATOM     47  N   UNL A   1      40.019  28.768  29.813  1.00  0.00    -0.354 N 
ATOM     48  C   UNL A   1      38.976  31.097  33.306  1.00  0.00     0.074 A 
ATOM     49  C   UNL A   1      37.706  31.767  33.127  1.00  0.00     0.031 C 
ATOM     50  C   UNL A   1      39.763  27.979  27.737  1.00  0.00     0.029 A 
ATOM     51  C   UNL A   1      40.665  27.990  28.884  1.00  0.00     0.049 A 
ATOM     52  H   UNL A   1      40.379  28.945  30.712  1.00  0.00     0.167 HD
ATOM     53  C   UNL A   1      39.724  31.166  34.432  1.00  0.00     0.037 A 
ATOM     54  C   UNL A   1      41.857  27.365  28.948  1.00  0.00     0.037 A 
ATOM     55  C   UNL A   1      40.970  30.472  34.620  1.00  0.00     0.049 A 
ATOM     56  C   UNL A   1      42.674  27.470  30.208  1.00  0.00     0.074 A 
ATOM     57  C   UNL A   1      41.773  30.433  35.745  1.00  0.00     0.029 A 
ATOM     58  N   UNL A   1      41.592  29.691  33.655  1.00  0.00    -0.354 N 
ATOM     59  N   UNL A   1      42.402  28.108  31.319  1.00  0.00    -0.248 NA
ATOM     60  C   UNL A   1      43.964  26.764  30.223  1.00  0.00     0.031 C 
ATOM     61  C   UNL A   1      42.903  29.666  35.449  1.00  0.00     0.029 A 
ATOM     62  C   UNL A   1      42.781  29.186  34.155  1.00  0.00     0.049 A 
ATOM     63  H   UNL A   1      41.240  29.522  32.752  1.00  0.00     0.167 HD
ATOM     64  C   UNL A   1      43.475  27.872  32.169  1.00  0.00     0.074 A 
ATOM     65  C   UNL A   1      44.392  27.009  31.454  1.00  0.00     0.031 C 
ATOM     66  C   UNL A   1      43.684  28.332  33.426  1.00  0.00     0.037 A 
BRANCH  53  67
ATOM     67  C   UNL A   1      39.214  32.011  35.562  1.00  0.00     0.064 A 
ATOM     68  C   UNL A   1      38.370  31.480  36.550  1.00  0.00     0.173 A 
ATOM     69  C   UNL A   1      39.631  33.343  35.699  1.00  0.00     0.173 A 
ATOM     70  F   UNL A   1      37.933  30.215  36.457  1.00  0.00    -0.203 F 
ATOM     71  C   UNL A   1      37.951  32.258  37.626  1.00  0.00     0.198 A 
ATOM     72  C   UNL A   1      39.232  34.109  36.791  1.00  0.00     0.198 A 
ATOM     73  F   UNL A   1      40.441  33.896  34.784  1.00  0.00    -0.203 F 
ATOM     74  F   UNL A   1      37.120  31.741  38.541  1.00  0.00    -0.200 F 
ATOM     75  C   UNL A   1      38.391  33.567  37.751  1.00  0.00     0.200 A 
ATOM     76  F   UNL A   1      39.668  35.370  36.918  1.00  0.00    -0.200 F 
ATOM     77  F   UNL A   1      38.003  34.308  38.799  1.00  0.00    -0.200 F 
ENDBRANCH  53  67
BRANCH  54  78
ATOM     78  C   UNL A   1      42.340  26.572  27.788  1.00  0.00     0.064 A 
ATOM     79  C   UNL A   1      43.210  27.134  26.845  1.00  0.00     0.173 A 
ATOM     80  C   UNL A   1      41.948  25.238  27.601  1.00  0.00     0.173 A 
ATOM     81  F   UNL A   1      43.594  28.414  26.967  1.00  0.00    -0.203 F 
ATOM     82  C   UNL A   1      43.660  26.398  25.750  1.00  0.00     0.198 A 
ATOM     83  C   UNL A   1      42.419  24.494  26.523  1.00  0.00     0.198 A 
ATOM     84  F   UNL A   1      41.118  24.653  28.476  1.00  0.00    -0.203 F 
ATOM     85  F   UNL A   1      44.459  26.972  24.841  1.00  0.00    -0.200 F 
ATOM     86  C   UNL A   1      43.270  25.076  25.595  1.00  0.00     0.200 A 
ATOM     87  F   UNL A   1      42.051  23.213  26.382  1.00  0.00    -0.200 F 
ATOM     88  F   UNL A   1      43.708  24.365  24.546  1.00  0.00    -0.200 F 
ENDBRANCH  54  78
BRANCH  66  89
ATOM     89  C   UNL A   1      44.949  27.910  34.115  1.00  0.00     0.064 A 
ATOM     90  C   UNL A   1      46.109  28.697  34.059  1.00  0.00     0.173 A 
ATOM     91  C   UNL A   1      44.986  26.738  34.885  1.00  0.00     0.173 A 
ATOM     92  F   UNL A   1      46.127  29.820  33.326  1.00  0.00    -0.203 F 
ATOM     93  C   UNL A   1      47.265  28.315  34.733  1.00  0.00     0.198 A 
ATOM     94  C   UNL A   1      46.135  26.375  35.583  1.00  0.00     0.198 A 
ATOM     95  F   UNL A   1      43.901  25.954  34.978  1.00  0.00    -0.203 F 
ATOM     96  F   UNL A   1      48.374  29.061  34.633  1.00  0.00    -0.200 F 
ATOM     97  C   UNL A   1      47.274  27.160  35.502  1.00  0.00     0.200 A 
ATOM     98  F   UNL A   1      46.137  25.266  36.336  1.00  0.00    -0.200 F 
ATOM     99  F   UNL A   1      48.385  26.801  36.160  1.00  0.00    -0.200 F 
ENDBRANCH  66  89
ENDBRANCH  40  41
ENDBRANCH  32  35
ENDBRANCH  30  31
ENDBRANCH  29  30
ENDBRANCH  28  29
ENDBRANCH   1  28
TORSDOF 16
ENDMDL
