MODEL 1
REMARK VINA RESULT:     -12.2      0.000      0.000
REMARK SMILES C[C@@H](Sc1nc2ccccc2c(=O)n1N)C(=O)NCCCCCCNC(=O)c1ccc(-c2c3nc(c(-c4c(F)c(F)c(F)c(F)c4F)c4ccc([nH]4)c(-c4c(F)c(F)c(F)c(F)c4F)c4nc(c(-c5c(F)c(F)c(F)c(F)c5F)c5ccc2[nH]5)C=C4)C=C3)cc1
REMARK SMILES IDX 21 1 20 2 19 3 18 4 16 5 17 6 2 8 1 9 3 10 4 11 5 12 14 13
REMARK SMILES IDX 6 14 12 15 7 16 11 17 13 18 8 19 10 20 9 21 15 22 22 25
REMARK SMILES IDX 23 26 24 27 25 28 26 29 27 31 28 32 29 33 90 34 30 35 89 36
REMARK SMILES IDX 31 37 32 38 33 39 83 40 34 41 88 42 82 43 84 44 35 45 87 46
REMARK SMILES IDX 81 47 80 48 36 50 68 51 48 52 67 53 49 54 52 55 66 56 85 57
REMARK SMILES IDX 50 58 51 59 65 61 86 62 53 63 37 64 38 65 46 66 39 67 40 68
REMARK SMILES IDX 44 69 47 70 41 71 42 72 45 73 43 74 69 75 70 76 78 77 71 78
REMARK SMILES IDX 72 79 76 80 79 81 73 82 74 83 77 84 75 85 54 86 55 87 63 88
REMARK SMILES IDX 56 89 57 90 61 91 64 92 58 93 59 94 62 95 60 96
REMARK H PARENT 18 7 15 23 15 24 25 30 84 49 52 60
REMARK Flexibility Score: inf
ROOT
ATOM      1  C   UNL A   1      32.420  29.892  27.179  1.00  0.00     0.002 C 
ENDROOT
BRANCH   1   2
ATOM      2  C   UNL A   1      31.899  28.510  27.593  1.00  0.00     0.021 C 
BRANCH   2   3
ATOM      3  C   UNL A   1      31.441  27.644  26.421  1.00  0.00     0.116 C 
BRANCH   3   4
ATOM      4  N   UNL A   1      31.045  26.325  26.877  1.00  0.00    -0.355 N 
ATOM      5  C   UNL A   1      31.528  25.091  26.561  1.00  0.00     0.233 C 
ATOM      6  O   UNL A   1      30.998  24.122  27.115  1.00  0.00    -0.274 OA
ATOM      7  H   UNL A   1      30.304  26.322  27.525  1.00  0.00     0.163 HD
BRANCH   5   8
ATOM      8  C   UNL A   1      32.676  24.890  25.567  1.00  0.00     0.141 C 
ATOM      9  C   UNL A   1      33.761  23.961  26.100  1.00  0.00     0.030 C 
BRANCH   8  10
ATOM     10  S   UNL A   1      31.956  24.457  23.942  1.00  0.00    -0.073 SA
BRANCH  10  11
ATOM     11  C   UNL A   1      31.239  25.970  23.450  1.00  0.00     0.191 A 
ATOM     12  N   UNL A   1      29.956  26.077  23.586  1.00  0.00    -0.222 NA
ATOM     13  N   UNL A   1      32.064  27.003  23.021  1.00  0.00    -0.202 N 
ATOM     14  C   UNL A   1      29.364  27.317  23.309  1.00  0.00     0.079 A 
ATOM     15  C   UNL A   1      31.555  28.268  22.725  1.00  0.00     0.280 A 
ATOM     16  C   UNL A   1      27.988  27.459  23.500  1.00  0.00     0.029 A 
ATOM     17  C   UNL A   1      30.099  28.427  22.890  1.00  0.00     0.068 A 
ATOM     18  O   UNL A   1      32.256  29.215  22.372  1.00  0.00    -0.267 OA
ATOM     19  C   UNL A   1      27.361  28.690  23.280  1.00  0.00     0.002 A 
ATOM     20  C   UNL A   1      29.482  29.662  22.662  1.00  0.00     0.016 A 
ATOM     21  C   UNL A   1      28.108  29.791  22.861  1.00  0.00     0.001 A 
BRANCH  13  22
ATOM     22  N   UNL A   1      33.479  26.830  22.874  1.00  0.00    -0.334 N 
ATOM     23  H   UNL A   1      34.030  26.596  23.655  1.00  0.00     0.178 HD
ATOM     24  H   UNL A   1      33.900  26.943  21.990  1.00  0.00     0.178 HD
ENDBRANCH  13  22
ENDBRANCH  10  11
ENDBRANCH   8  10
ENDBRANCH   5   8
ENDBRANCH   3   4
ENDBRANCH   2   3
ENDBRANCH   1   2
BRANCH   1  25
ATOM     25  C   UNL A   1      31.500  30.680  26.240  1.00  0.00     0.002 C 
BRANCH  25  26
ATOM     26  C   UNL A   1      31.376  32.173  26.550  1.00  0.00     0.021 C 
BRANCH  26  27
ATOM     27  C   UNL A   1      32.597  32.791  27.222  1.00  0.00     0.116 C 
BRANCH  27  28
ATOM     28  N   UNL A   1      32.370  34.170  27.618  1.00  0.00    -0.352 N 
ATOM     29  C   UNL A   1      32.968  34.896  28.615  1.00  0.00     0.251 C 
ATOM     30  H   UNL A   1      31.690  34.653  27.095  1.00  0.00     0.163 HD
ATOM     31  O   UNL A   1      32.527  36.004  28.924  1.00  0.00    -0.269 OA
BRANCH  29  32
ATOM     32  C   UNL A   1      34.131  34.345  29.338  1.00  0.00     0.039 A 
ATOM     33  C   UNL A   1      33.915  33.638  30.524  1.00  0.00     0.014 A 
ATOM     34  C   UNL A   1      35.432  34.535  28.860  1.00  0.00     0.014 A 
ATOM     35  C   UNL A   1      34.997  33.074  31.202  1.00  0.00     0.010 A 
ATOM     36  C   UNL A   1      36.502  33.918  29.502  1.00  0.00     0.010 A 
ATOM     37  C   UNL A   1      36.296  33.185  30.681  1.00  0.00    -0.014 A 
BRANCH  37  38
ATOM     38  C   UNL A   1      37.450  32.542  31.357  1.00  0.00     0.031 A 
ATOM     39  C   UNL A   1      38.167  31.394  30.704  1.00  0.00     0.074 A 
ATOM     40  C   UNL A   1      37.811  32.950  32.589  1.00  0.00     0.049 A 
ATOM     41  N   UNL A   1      39.149  30.661  31.165  1.00  0.00    -0.248 NA
ATOM     42  C   UNL A   1      37.701  31.000  29.365  1.00  0.00     0.031 C 
ATOM     43  C   UNL A   1      37.160  34.019  33.349  1.00  0.00     0.029 A 
ATOM     44  N   UNL A   1      38.803  32.505  33.425  1.00  0.00    -0.354 N 
ATOM     45  C   UNL A   1      39.403  29.711  30.184  1.00  0.00     0.074 A 
ATOM     46  C   UNL A   1      38.444  29.931  29.122  1.00  0.00     0.031 C 
ATOM     47  C   UNL A   1      37.781  34.158  34.531  1.00  0.00     0.029 A 
ATOM     48  C   UNL A   1      38.850  33.167  34.627  1.00  0.00     0.049 A 
ATOM     49  H   UNL A   1      39.424  31.779  33.185  1.00  0.00     0.167 HD
ATOM     50  C   UNL A   1      40.363  28.755  30.163  1.00  0.00     0.037 A 
ATOM     51  C   UNL A   1      39.658  32.991  35.689  1.00  0.00     0.037 A 
ATOM     52  C   UNL A   1      41.336  28.561  31.207  1.00  0.00     0.049 A 
ATOM     53  C   UNL A   1      40.728  31.936  35.633  1.00  0.00     0.074 A 
ATOM     54  C   UNL A   1      42.391  27.667  31.246  1.00  0.00     0.029 A 
ATOM     55  N   UNL A   1      41.370  29.273  32.397  1.00  0.00    -0.354 N 
ATOM     56  N   UNL A   1      41.003  31.088  34.672  1.00  0.00    -0.248 NA
ATOM     57  C   UNL A   1      41.604  31.817  36.807  1.00  0.00     0.031 C 
ATOM     58  C   UNL A   1      43.039  27.808  32.478  1.00  0.00     0.029 A 
ATOM     59  C   UNL A   1      42.417  28.824  33.186  1.00  0.00     0.049 A 
ATOM     60  H   UNL A   1      40.744  29.991  32.644  1.00  0.00     0.167 HD
ATOM     61  C   UNL A   1      42.096  30.355  35.111  1.00  0.00     0.074 A 
ATOM     62  C   UNL A   1      42.444  30.867  36.420  1.00  0.00     0.031 C 
ATOM     63  C   UNL A   1      42.752  29.347  34.486  1.00  0.00     0.037 A 
BRANCH  50  64
ATOM     64  C   UNL A   1      40.413  27.845  28.971  1.00  0.00     0.064 A 
ATOM     65  C   UNL A   1      41.210  28.138  27.855  1.00  0.00     0.173 A 
ATOM     66  C   UNL A   1      39.690  26.643  28.963  1.00  0.00     0.173 A 
ATOM     67  F   UNL A   1      41.913  29.281  27.807  1.00  0.00    -0.203 F 
ATOM     68  C   UNL A   1      41.261  27.275  26.764  1.00  0.00     0.198 A 
ATOM     69  C   UNL A   1      39.766  25.767  27.883  1.00  0.00     0.198 A 
ATOM     70  F   UNL A   1      38.916  26.312  30.008  1.00  0.00    -0.203 F 
ATOM     71  F   UNL A   1      41.995  27.597  25.690  1.00  0.00    -0.200 F 
ATOM     72  C   UNL A   1      40.546  26.086  26.782  1.00  0.00     0.200 A 
ATOM     73  F   UNL A   1      39.084  24.614  27.909  1.00  0.00    -0.200 F 
ATOM     74  F   UNL A   1      40.604  25.251  25.736  1.00  0.00    -0.200 F 
ENDBRANCH  50  64
BRANCH  51  75
ATOM     75  C   UNL A   1      39.501  33.856  36.887  1.00  0.00     0.064 A 
ATOM     76  C   UNL A   1      38.729  33.439  37.980  1.00  0.00     0.173 A 
ATOM     77  C   UNL A   1      40.121  35.112  36.967  1.00  0.00     0.173 A 
ATOM     78  F   UNL A   1      38.101  32.255  37.941  1.00  0.00    -0.203 F 
ATOM     79  C   UNL A   1      38.570  34.251  39.100  1.00  0.00     0.198 A 
ATOM     80  C   UNL A   1      39.983  35.912  38.098  1.00  0.00     0.198 A 
ATOM     81  F   UNL A   1      40.875  35.555  35.949  1.00  0.00    -0.203 F 
ATOM     82  F   UNL A   1      37.793  33.845  40.113  1.00  0.00    -0.200 F 
ATOM     83  C   UNL A   1      39.201  35.485  39.161  1.00  0.00     0.200 A 
ATOM     84  F   UNL A   1      40.606  37.097  38.159  1.00  0.00    -0.200 F 
ATOM     85  F   UNL A   1      39.053  36.262  40.241  1.00  0.00    -0.200 F 
ENDBRANCH  51  75
BRANCH  63  86
ATOM     86  C   UNL A   1      43.932  28.750  35.196  1.00  0.00     0.064 A 
ATOM     87  C   UNL A   1      43.792  27.657  36.063  1.00  0.00     0.173 A 
ATOM     88  C   UNL A   1      45.223  29.251  34.970  1.00  0.00     0.173 A 
ATOM     89  F   UNL A   1      42.576  27.151  36.321  1.00  0.00    -0.203 F 
ATOM     90  C   UNL A   1      44.900  27.103  36.698  1.00  0.00     0.198 A 
ATOM     91  C   UNL A   1      46.331  28.676  35.585  1.00  0.00     0.198 A 
ATOM     92  F   UNL A   1      45.411  30.290  34.144  1.00  0.00    -0.203 F 
ATOM     93  F   UNL A   1      44.738  26.087  37.558  1.00  0.00    -0.200 F 
ATOM     94  C   UNL A   1      46.169  27.606  36.453  1.00  0.00     0.200 A 
ATOM     95  F   UNL A   1      47.558  29.155  35.337  1.00  0.00    -0.200 F 
ATOM     96  F   UNL A   1      47.234  27.067  37.060  1.00  0.00    -0.200 F 
ENDBRANCH  63  86
ENDBRANCH  37  38
ENDBRANCH  29  32
ENDBRANCH  27  28
ENDBRANCH  26  27
ENDBRANCH  25  26
ENDBRANCH   1  25
TORSDOF 16
ENDMDL
MODEL 2
REMARK VINA RESULT:     -12.2      5.608     10.955
REMARK SMILES C[C@@H](Sc1nc2ccccc2c(=O)n1N)C(=O)NCCCCCCNC(=O)c1ccc(-c2c3nc(c(-c4c(F)c(F)c(F)c(F)c4F)c4ccc([nH]4)c(-c4c(F)c(F)c(F)c(F)c4F)c4nc(c(-c5c(F)c(F)c(F)c(F)c5F)c5ccc2[nH]5)C=C4)C=C3)cc1
REMARK SMILES IDX 21 1 20 2 19 3 18 4 16 5 17 6 2 8 1 9 3 10 4 11 5 12 14 13
REMARK SMILES IDX 6 14 12 15 7 16 11 17 13 18 8 19 10 20 9 21 15 22 22 25
REMARK SMILES IDX 23 26 24 27 25 28 26 29 27 31 28 32 29 33 90 34 30 35 89 36
REMARK SMILES IDX 31 37 32 38 33 39 83 40 34 41 88 42 82 43 84 44 35 45 87 46
REMARK SMILES IDX 81 47 80 48 36 50 68 51 48 52 67 53 49 54 52 55 66 56 85 57
REMARK SMILES IDX 50 58 51 59 65 61 86 62 53 63 37 64 38 65 46 66 39 67 40 68
REMARK SMILES IDX 44 69 47 70 41 71 42 72 45 73 43 74 69 75 70 76 78 77 71 78
REMARK SMILES IDX 72 79 76 80 79 81 73 82 74 83 77 84 75 85 54 86 55 87 63 88
REMARK SMILES IDX 56 89 57 90 61 91 64 92 58 93 59 94 62 95 60 96
REMARK H PARENT 18 7 15 23 15 24 25 30 84 49 52 60
REMARK Flexibility Score: inf
ROOT
ATOM      1  C   UNL A   1      37.071  21.956  24.710  1.00  0.00     0.002 C 
ENDROOT
BRANCH   1   2
ATOM      2  C   UNL A   1      35.898  22.778  24.160  1.00  0.00     0.021 C 
BRANCH   2   3
ATOM      3  C   UNL A   1      35.430  23.891  25.096  1.00  0.00     0.116 C 
BRANCH   3   4
ATOM      4  N   UNL A   1      34.920  23.341  26.338  1.00  0.00    -0.355 N 
ATOM      5  C   UNL A   1      33.710  22.791  26.639  1.00  0.00     0.233 C 
ATOM      6  O   UNL A   1      33.548  22.390  27.796  1.00  0.00    -0.274 OA
ATOM      7  H   UNL A   1      35.556  23.370  27.089  1.00  0.00     0.163 HD
BRANCH   5   8
ATOM      8  C   UNL A   1      32.588  22.663  25.605  1.00  0.00     0.141 C 
ATOM      9  C   UNL A   1      32.549  21.291  24.943  1.00  0.00     0.030 C 
BRANCH   8  10
ATOM     10  S   UNL A   1      31.033  23.243  26.375  1.00  0.00    -0.073 SA
BRANCH  10  11
ATOM     11  C   UNL A   1      31.006  24.925  25.912  1.00  0.00     0.191 A 
ATOM     12  N   UNL A   1      31.367  25.783  26.812  1.00  0.00    -0.222 NA
ATOM     13  N   UNL A   1      30.685  25.262  24.602  1.00  0.00    -0.202 N 
ATOM     14  C   UNL A   1      31.466  27.130  26.438  1.00  0.00     0.079 A 
ATOM     15  C   UNL A   1      30.759  26.580  24.148  1.00  0.00     0.280 A 
ATOM     16  C   UNL A   1      31.903  28.057  27.387  1.00  0.00     0.029 A 
ATOM     17  C   UNL A   1      31.187  27.577  25.146  1.00  0.00     0.068 A 
ATOM     18  O   UNL A   1      30.513  26.913  22.990  1.00  0.00    -0.267 OA
ATOM     19  C   UNL A   1      32.061  29.404  27.047  1.00  0.00     0.002 A 
ATOM     20  C   UNL A   1      31.337  28.923  24.796  1.00  0.00     0.016 A 
ATOM     21  C   UNL A   1      31.778  29.837  25.752  1.00  0.00     0.001 A 
BRANCH  13  22
ATOM     22  N   UNL A   1      30.278  24.276  23.645  1.00  0.00    -0.334 N 
ATOM     23  H   UNL A   1      30.724  24.226  22.769  1.00  0.00     0.178 HD
ATOM     24  H   UNL A   1      29.552  23.647  23.865  1.00  0.00     0.178 HD
ENDBRANCH  13  22
ENDBRANCH  10  11
ENDBRANCH   8  10
ENDBRANCH   5   8
ENDBRANCH   3   4
ENDBRANCH   2   3
ENDBRANCH   1   2
BRANCH   1  25
ATOM     25  C   UNL A   1      36.755  20.485  25.001  1.00  0.00     0.002 C 
BRANCH  25  26
ATOM     26  C   UNL A   1      37.963  19.545  24.999  1.00  0.00     0.021 C 
BRANCH  26  27
ATOM     27  C   UNL A   1      39.179  20.067  25.757  1.00  0.00     0.116 C 
BRANCH  27  28
ATOM     28  N   UNL A   1      40.206  19.051  25.916  1.00  0.00    -0.352 N 
ATOM     29  C   UNL A   1      41.552  19.203  26.125  1.00  0.00     0.251 C 
ATOM     30  H   UNL A   1      39.890  18.119  25.867  1.00  0.00     0.163 HD
ATOM     31  O   UNL A   1      42.303  18.228  26.063  1.00  0.00    -0.269 OA
BRANCH  29  32
ATOM     32  C   UNL A   1      42.112  20.540  26.407  1.00  0.00     0.039 A 
ATOM     33  C   UNL A   1      42.543  21.329  25.336  1.00  0.00     0.014 A 
ATOM     34  C   UNL A   1      42.227  21.011  27.718  1.00  0.00     0.014 A 
ATOM     35  C   UNL A   1      43.038  22.612  25.577  1.00  0.00     0.010 A 
ATOM     36  C   UNL A   1      42.660  22.313  27.951  1.00  0.00     0.010 A 
ATOM     37  C   UNL A   1      43.073  23.125  26.883  1.00  0.00    -0.014 A 
BRANCH  37  38
ATOM     38  C   UNL A   1      43.541  24.508  27.151  1.00  0.00     0.031 A 
ATOM     39  C   UNL A   1      42.583  25.546  27.663  1.00  0.00     0.074 A 
ATOM     40  C   UNL A   1      44.814  24.845  26.869  1.00  0.00     0.049 A 
ATOM     41  N   UNL A   1      42.786  26.820  27.890  1.00  0.00    -0.248 NA
ATOM     42  C   UNL A   1      41.207  25.100  27.929  1.00  0.00     0.031 C 
ATOM     43  C   UNL A   1      45.826  23.940  26.320  1.00  0.00     0.029 A 
ATOM     44  N   UNL A   1      45.473  26.043  26.993  1.00  0.00    -0.354 N 
ATOM     45  C   UNL A   1      41.562  27.327  28.307  1.00  0.00     0.074 A 
ATOM     46  C   UNL A   1      40.612  26.237  28.258  1.00  0.00     0.031 C 
ATOM     47  C   UNL A   1      46.979  24.610  26.170  1.00  0.00     0.029 A 
ATOM     48  C   UNL A   1      46.781  25.998  26.580  1.00  0.00     0.049 A 
ATOM     49  H   UNL A   1      45.046  26.858  27.345  1.00  0.00     0.167 HD
ATOM     50  C   UNL A   1      41.264  28.585  28.712  1.00  0.00     0.037 A 
ATOM     51  C   UNL A   1      47.714  26.968  26.530  1.00  0.00     0.037 A 
ATOM     52  C   UNL A   1      42.221  29.659  28.791  1.00  0.00     0.049 A 
ATOM     53  C   UNL A   1      47.363  28.351  27.003  1.00  0.00     0.074 A 
ATOM     54  C   UNL A   1      42.032  30.948  29.256  1.00  0.00     0.029 A 
ATOM     55  N   UNL A   1      43.546  29.567  28.393  1.00  0.00    -0.354 N 
ATOM     56  N   UNL A   1      46.220  28.804  27.460  1.00  0.00    -0.248 NA
ATOM     57  C   UNL A   1      48.433  29.358  26.962  1.00  0.00     0.031 C 
ATOM     58  C   UNL A   1      43.232  31.649  29.099  1.00  0.00     0.029 A 
ATOM     59  C   UNL A   1      44.181  30.783  28.582  1.00  0.00     0.049 A 
ATOM     60  H   UNL A   1      43.971  28.757  28.029  1.00  0.00     0.167 HD
ATOM     61  C   UNL A   1      46.439  30.135  27.784  1.00  0.00     0.074 A 
ATOM     62  C   UNL A   1      47.828  30.415  27.485  1.00  0.00     0.031 C 
ATOM     63  C   UNL A   1      45.566  31.045  28.283  1.00  0.00     0.037 A 
BRANCH  50  64
ATOM     64  C   UNL A   1      39.845  28.871  29.108  1.00  0.00     0.064 A 
ATOM     65  C   UNL A   1      38.897  29.318  28.177  1.00  0.00     0.173 A 
ATOM     66  C   UNL A   1      39.417  28.652  30.427  1.00  0.00     0.173 A 
ATOM     67  F   UNL A   1      39.257  29.553  26.906  1.00  0.00    -0.203 F 
ATOM     68  C   UNL A   1      37.579  29.561  28.556  1.00  0.00     0.198 A 
ATOM     69  C   UNL A   1      38.092  28.868  30.796  1.00  0.00     0.198 A 
ATOM     70  F   UNL A   1      40.283  28.220  31.356  1.00  0.00    -0.203 F 
ATOM     71  F   UNL A   1      36.702  30.031  27.658  1.00  0.00    -0.200 F 
ATOM     72  C   UNL A   1      37.176  29.328  29.862  1.00  0.00     0.200 A 
ATOM     73  F   UNL A   1      37.702  28.631  32.056  1.00  0.00    -0.200 F 
ATOM     74  F   UNL A   1      35.905  29.553  30.223  1.00  0.00    -0.200 F 
ENDBRANCH  50  64
BRANCH  51  75
ATOM     75  C   UNL A   1      49.079  26.654  26.035  1.00  0.00     0.064 A 
ATOM     76  C   UNL A   1      50.033  26.066  26.877  1.00  0.00     0.173 A 
ATOM     77  C   UNL A   1      49.456  26.928  24.712  1.00  0.00     0.173 A 
ATOM     78  F   UNL A   1      49.725  25.805  28.155  1.00  0.00    -0.203 F 
ATOM     79  C   UNL A   1      51.317  25.780  26.420  1.00  0.00     0.198 A 
ATOM     80  C   UNL A   1      50.732  26.617  24.248  1.00  0.00     0.198 A 
ATOM     81  F   UNL A   1      48.578  27.485  23.865  1.00  0.00    -0.203 F 
ATOM     82  F   UNL A   1      52.222  25.256  27.258  1.00  0.00    -0.200 F 
ATOM     83  C   UNL A   1      51.665  26.050  25.105  1.00  0.00     0.200 A 
ATOM     84  F   UNL A   1      51.060  26.866  22.974  1.00  0.00    -0.200 F 
ATOM     85  F   UNL A   1      52.898  25.769  24.665  1.00  0.00    -0.200 F 
ENDBRANCH  51  75
BRANCH  63  86
ATOM     86  C   UNL A   1      46.094  32.420  28.566  1.00  0.00     0.064 A 
ATOM     87  C   UNL A   1      46.037  33.441  27.607  1.00  0.00     0.173 A 
ATOM     88  C   UNL A   1      46.624  32.731  29.828  1.00  0.00     0.173 A 
ATOM     89  F   UNL A   1      45.553  33.190  26.381  1.00  0.00    -0.203 F 
ATOM     90  C   UNL A   1      46.514  34.718  27.894  1.00  0.00     0.198 A 
ATOM     91  C   UNL A   1      47.073  34.015  30.120  1.00  0.00     0.198 A 
ATOM     92  F   UNL A   1      46.694  31.791  30.783  1.00  0.00    -0.203 F 
ATOM     93  F   UNL A   1      46.491  35.668  26.947  1.00  0.00    -0.200 F 
ATOM     94  C   UNL A   1      47.023  35.006  29.151  1.00  0.00     0.200 A 
ATOM     95  F   UNL A   1      47.553  34.295  31.339  1.00  0.00    -0.200 F 
ATOM     96  F   UNL A   1      47.475  36.237  29.426  1.00  0.00    -0.200 F 
ENDBRANCH  63  86
ENDBRANCH  37  38
ENDBRANCH  29  32
ENDBRANCH  27  28
ENDBRANCH  26  27
ENDBRANCH  25  26
ENDBRANCH   1  25
TORSDOF 16
ENDMDL
MODEL 3
REMARK VINA RESULT:     -12.1      0.862      2.000
REMARK SMILES C[C@@H](Sc1nc2ccccc2c(=O)n1N)C(=O)NCCCCCCNC(=O)c1ccc(-c2c3nc(c(-c4c(F)c(F)c(F)c(F)c4F)c4ccc([nH]4)c(-c4c(F)c(F)c(F)c(F)c4F)c4nc(c(-c5c(F)c(F)c(F)c(F)c5F)c5ccc2[nH]5)C=C4)C=C3)cc1
REMARK SMILES IDX 21 1 20 2 19 3 18 4 16 5 17 6 2 8 1 9 3 10 4 11 5 12 14 13
REMARK SMILES IDX 6 14 12 15 7 16 11 17 13 18 8 19 10 20 9 21 15 22 22 25
REMARK SMILES IDX 23 26 24 27 25 28 26 29 27 31 28 32 29 33 90 34 30 35 89 36
REMARK SMILES IDX 31 37 32 38 33 39 83 40 34 41 88 42 82 43 84 44 35 45 87 46
REMARK SMILES IDX 81 47 80 48 36 50 68 51 48 52 67 53 49 54 52 55 66 56 85 57
REMARK SMILES IDX 50 58 51 59 65 61 86 62 53 63 37 64 38 65 46 66 39 67 40 68
REMARK SMILES IDX 44 69 47 70 41 71 42 72 45 73 43 74 69 75 70 76 78 77 71 78
REMARK SMILES IDX 72 79 76 80 79 81 73 82 74 83 77 84 75 85 54 86 55 87 63 88
REMARK SMILES IDX 56 89 57 90 61 91 64 92 58 93 59 94 62 95 60 96
REMARK H PARENT 18 7 15 23 15 24 25 30 84 49 52 60
REMARK Flexibility Score: inf
ROOT
ATOM      1  C   UNL A   1      31.776  29.639  26.796  1.00  0.00     0.002 C 
ENDROOT
BRANCH   1   2
ATOM      2  C   UNL A   1      33.248  29.235  26.948  1.00  0.00     0.021 C 
BRANCH   2   3
ATOM      3  C   UNL A   1      33.679  28.102  26.019  1.00  0.00     0.116 C 
BRANCH   3   4
ATOM      4  N   UNL A   1      33.057  26.851  26.408  1.00  0.00    -0.355 N 
ATOM      5  C   UNL A   1      33.132  25.608  25.853  1.00  0.00     0.233 C 
ATOM      6  O   UNL A   1      32.493  24.707  26.406  1.00  0.00    -0.274 OA
ATOM      7  H   UNL A   1      32.485  26.909  27.207  1.00  0.00     0.163 HD
BRANCH   5   8
ATOM      8  C   UNL A   1      33.966  25.318  24.602  1.00  0.00     0.141 C 
ATOM      9  C   UNL A   1      35.187  24.452  24.894  1.00  0.00     0.030 C 
BRANCH   8  10
ATOM     10  S   UNL A   1      32.840  24.725  23.288  1.00  0.00    -0.073 SA
BRANCH  10  11
ATOM     11  C   UNL A   1      31.556  25.905  23.353  1.00  0.00     0.191 A 
ATOM     12  N   UNL A   1      31.789  27.050  22.795  1.00  0.00    -0.222 NA
ATOM     13  N   UNL A   1      30.336  25.548  23.914  1.00  0.00    -0.202 N 
ATOM     14  C   UNL A   1      30.740  27.977  22.729  1.00  0.00     0.079 A 
ATOM     15  C   UNL A   1      29.240  26.412  23.890  1.00  0.00     0.280 A 
ATOM     16  C   UNL A   1      30.964  29.196  22.085  1.00  0.00     0.029 A 
ATOM     17  C   UNL A   1      29.469  27.716  23.242  1.00  0.00     0.068 A 
ATOM     18  O   UNL A   1      28.137  26.121  24.348  1.00  0.00    -0.267 OA
ATOM     19  C   UNL A   1      29.935  30.133  21.954  1.00  0.00     0.002 A 
ATOM     20  C   UNL A   1      28.432  28.648  23.122  1.00  0.00     0.016 A 
ATOM     21  C   UNL A   1      28.669  29.859  22.473  1.00  0.00     0.001 A 
BRANCH  13  22
ATOM     22  N   UNL A   1      30.132  24.271  24.532  1.00  0.00    -0.334 N 
ATOM     23  H   UNL A   1      29.250  24.037  24.900  1.00  0.00     0.178 HD
ATOM     24  H   UNL A   1      30.876  23.627  24.588  1.00  0.00     0.178 HD
ENDBRANCH  13  22
ENDBRANCH  10  11
ENDBRANCH   8  10
ENDBRANCH   5   8
ENDBRANCH   3   4
ENDBRANCH   2   3
ENDBRANCH   1   2
BRANCH   1  25
ATOM     25  C   UNL A   1      31.520  30.827  25.862  1.00  0.00     0.002 C 
BRANCH  25  26
ATOM     26  C   UNL A   1      31.281  32.167  26.563  1.00  0.00     0.021 C 
BRANCH  26  27
ATOM     27  C   UNL A   1      32.519  32.784  27.202  1.00  0.00     0.116 C 
BRANCH  27  28
ATOM     28  N   UNL A   1      32.314  34.175  27.573  1.00  0.00    -0.352 N 
ATOM     29  C   UNL A   1      32.943  34.918  28.537  1.00  0.00     0.251 C 
ATOM     30  H   UNL A   1      31.623  34.651  27.058  1.00  0.00     0.163 HD
ATOM     31  O   UNL A   1      32.519  36.036  28.832  1.00  0.00    -0.269 OA
BRANCH  29  32
ATOM     32  C   UNL A   1      34.122  34.374  29.240  1.00  0.00     0.039 A 
ATOM     33  C   UNL A   1      33.928  33.649  30.419  1.00  0.00     0.014 A 
ATOM     34  C   UNL A   1      35.415  34.588  28.751  1.00  0.00     0.014 A 
ATOM     35  C   UNL A   1      35.026  33.091  31.078  1.00  0.00     0.010 A 
ATOM     36  C   UNL A   1      36.500  33.979  29.373  1.00  0.00     0.010 A 
ATOM     37  C   UNL A   1      36.317  33.228  30.544  1.00  0.00    -0.014 A 
BRANCH  37  38
ATOM     38  C   UNL A   1      37.488  32.592  31.200  1.00  0.00     0.031 A 
ATOM     39  C   UNL A   1      38.212  31.462  30.525  1.00  0.00     0.074 A 
ATOM     40  C   UNL A   1      37.856  32.990  32.433  1.00  0.00     0.049 A 
ATOM     41  N   UNL A   1      39.209  30.736  30.966  1.00  0.00    -0.248 NA
ATOM     42  C   UNL A   1      37.736  31.077  29.187  1.00  0.00     0.031 C 
ATOM     43  C   UNL A   1      37.200  34.041  33.213  1.00  0.00     0.029 A 
ATOM     44  N   UNL A   1      38.864  32.548  33.253  1.00  0.00    -0.354 N 
ATOM     45  C   UNL A   1      39.465  29.802  29.971  1.00  0.00     0.074 A 
ATOM     46  C   UNL A   1      38.492  30.021  28.923  1.00  0.00     0.031 C 
ATOM     47  C   UNL A   1      37.832  34.173  34.389  1.00  0.00     0.029 A 
ATOM     48  C   UNL A   1      38.915  33.197  34.462  1.00  0.00     0.049 A 
ATOM     49  H   UNL A   1      39.492  31.834  32.997  1.00  0.00     0.167 HD
ATOM     50  C   UNL A   1      40.437  28.860  29.928  1.00  0.00     0.037 A 
ATOM     51  C   UNL A   1      39.738  33.019  35.513  1.00  0.00     0.037 A 
ATOM     52  C   UNL A   1      41.424  28.666  30.959  1.00  0.00     0.049 A 
ATOM     53  C   UNL A   1      40.820  31.978  35.432  1.00  0.00     0.074 A 
ATOM     54  C   UNL A   1      42.492  27.786  30.975  1.00  0.00     0.029 A 
ATOM     55  N   UNL A   1      41.463  29.364  32.157  1.00  0.00    -0.354 N 
ATOM     56  N   UNL A   1      41.096  31.146  34.458  1.00  0.00    -0.248 NA
ATOM     57  C   UNL A   1      41.711  31.857  36.594  1.00  0.00     0.031 C 
ATOM     58  C   UNL A   1      43.151  27.921  32.201  1.00  0.00     0.029 A 
ATOM     59  C   UNL A   1      42.523  28.920  32.928  1.00  0.00     0.049 A 
ATOM     60  H   UNL A   1      40.829  30.071  32.420  1.00  0.00     0.167 HD
ATOM     61  C   UNL A   1      42.203  30.423  34.876  1.00  0.00     0.074 A 
ATOM     62  C   UNL A   1      42.560  30.924  36.187  1.00  0.00     0.031 C 
ATOM     63  C   UNL A   1      42.867  29.431  34.231  1.00  0.00     0.037 A 
BRANCH  50  64
ATOM     64  C   UNL A   1      40.486  27.965  28.725  1.00  0.00     0.064 A 
ATOM     65  C   UNL A   1      41.240  28.299  27.590  1.00  0.00     0.173 A 
ATOM     66  C   UNL A   1      39.808  26.736  28.723  1.00  0.00     0.173 A 
ATOM     67  F   UNL A   1      41.898  29.467  27.536  1.00  0.00    -0.203 F 
ATOM     68  C   UNL A   1      41.291  27.449  26.488  1.00  0.00     0.198 A 
ATOM     69  C   UNL A   1      39.885  25.876  27.631  1.00  0.00     0.198 A 
ATOM     70  F   UNL A   1      39.077  26.366  29.786  1.00  0.00    -0.203 F 
ATOM     71  F   UNL A   1      41.981  27.810  25.397  1.00  0.00    -0.200 F 
ATOM     72  C   UNL A   1      40.621  26.235  26.512  1.00  0.00     0.200 A 
ATOM     73  F   UNL A   1      39.246  24.698  27.663  1.00  0.00    -0.200 F 
ATOM     74  F   UNL A   1      40.679  25.414  25.455  1.00  0.00    -0.200 F 
ENDBRANCH  50  64
BRANCH  51  75
ATOM     75  C   UNL A   1      39.582  33.867  36.723  1.00  0.00     0.064 A 
ATOM     76  C   UNL A   1      40.194  35.125  36.804  1.00  0.00     0.173 A 
ATOM     77  C   UNL A   1      38.815  33.441  37.818  1.00  0.00     0.173 A 
ATOM     78  F   UNL A   1      40.953  35.565  35.790  1.00  0.00    -0.203 F 
ATOM     79  C   UNL A   1      40.060  35.919  37.941  1.00  0.00     0.198 A 
ATOM     80  C   UNL A   1      38.660  34.246  38.944  1.00  0.00     0.198 A 
ATOM     81  F   UNL A   1      38.205  32.247  37.787  1.00  0.00    -0.203 F 
ATOM     82  F   UNL A   1      40.689  37.099  38.009  1.00  0.00    -0.200 F 
ATOM     83  C   UNL A   1      39.288  35.482  39.008  1.00  0.00     0.200 A 
ATOM     84  F   UNL A   1      37.902  33.828  39.966  1.00  0.00    -0.200 F 
ATOM     85  F   UNL A   1      39.155  36.248  40.098  1.00  0.00    -0.200 F 
ENDBRANCH  51  75
BRANCH  63  86
ATOM     86  C   UNL A   1      44.062  28.842  34.920  1.00  0.00     0.064 A 
ATOM     87  C   UNL A   1      45.346  29.378  34.751  1.00  0.00     0.173 A 
ATOM     88  C   UNL A   1      43.912  27.755  35.795  1.00  0.00     0.173 A 
ATOM     89  F   UNL A   1      45.543  30.409  33.914  1.00  0.00    -0.203 F 
ATOM     90  C   UNL A   1      46.442  28.831  35.414  1.00  0.00     0.198 A 
ATOM     91  C   UNL A   1      45.005  27.229  36.477  1.00  0.00     0.198 A 
ATOM     92  F   UNL A   1      42.703  27.210  35.997  1.00  0.00    -0.203 F 
ATOM     93  F   UNL A   1      47.668  29.331  35.203  1.00  0.00    -0.200 F 
ATOM     94  C   UNL A   1      46.270  27.764  36.282  1.00  0.00     0.200 A 
ATOM     95  F   UNL A   1      44.835  26.206  37.326  1.00  0.00    -0.200 F 
ATOM     96  F   UNL A   1      47.325  27.244  36.924  1.00  0.00    -0.200 F 
ENDBRANCH  63  86
ENDBRANCH  37  38
ENDBRANCH  29  32
ENDBRANCH  27  28
ENDBRANCH  26  27
ENDBRANCH  25  26
ENDBRANCH   1  25
TORSDOF 16
ENDMDL
