MODEL 1
REMARK VINA RESULT:     -11.3      0.000      0.000
REMARK SMILES O=C(NCCCCCCNC(=O)c1ccc(-c2c3nc(c(-c4c(F)c(F)c(F)c(F)c4F)c4ccc([nH]4)c(-c4c(F)c(F)c(F)c(F)c4F)c4nc(c(-c5c(F)c(F)c(F)c(F)c5F)c5ccc2[nH]5)C=C4)C=C3)cc1)/C(=C/c1ccsc1)c1ccccc1
REMARK SMILES IDX 7 1 6 2 5 3 4 4 3 5 1 6 2 7 76 9 77 10 83 11 84 12 88 13
REMARK SMILES IDX 85 14 87 15 86 16 78 17 79 18 82 19 80 20 81 21 8 22 9 23
REMARK SMILES IDX 10 24 11 25 12 27 13 28 14 29 75 30 15 31 74 32 16 33 17 34
REMARK SMILES IDX 18 35 68 36 19 37 73 38 67 39 69 40 20 41 72 42 66 43 65 44
REMARK SMILES IDX 21 46 53 47 33 48 52 49 34 50 37 51 51 52 70 53 35 54 36 55
REMARK SMILES IDX 50 57 71 58 38 59 22 60 23 61 31 62 24 63 25 64 29 65 32 66
REMARK SMILES IDX 26 67 27 68 30 69 28 70 54 71 55 72 63 73 56 74 57 75 61 76
REMARK SMILES IDX 64 77 58 78 59 79 62 80 60 81 39 82 40 83 48 84 41 85 42 86
REMARK SMILES IDX 46 87 49 88 43 89 44 90 47 91 45 92
REMARK H PARENT 3 8 10 26 69 45 37 56
REMARK Flexibility Score: inf
ROOT
ATOM      1  C   UNL A   1      33.317  28.071  24.724  1.00  0.00     0.002 C 
ENDROOT
BRANCH   1   2
ATOM      2  C   UNL A   1      32.378  27.000  24.161  1.00  0.00     0.002 C 
BRANCH   2   3
ATOM      3  C   UNL A   1      30.975  26.943  24.762  1.00  0.00     0.021 C 
BRANCH   3   4
ATOM      4  C   UNL A   1      30.195  25.654  24.536  1.00  0.00     0.116 C 
BRANCH   4   5
ATOM      5  N   UNL A   1      29.985  24.870  25.736  1.00  0.00    -0.352 N 
ATOM      6  O   UNL A   1      30.316  23.425  27.380  1.00  0.00    -0.269 OA
ATOM      7  C   UNL A   1      30.749  23.907  26.330  1.00  0.00     0.251 C 
ATOM      8  H   UNL A   1      29.142  25.065  26.205  1.00  0.00     0.163 HD
BRANCH   7   9
ATOM      9  C   UNL A   1      32.051  23.417  25.738  1.00  0.00     0.047 C 
ATOM     10  C   UNL A   1      33.162  24.059  26.174  1.00  0.00     0.023 C 
BRANCH   9  11
ATOM     11  C   UNL A   1      32.142  22.310  24.766  1.00  0.00    -0.013 A 
ATOM     12  C   UNL A   1      32.301  20.986  25.213  1.00  0.00     0.009 A 
ATOM     13  C   UNL A   1      32.039  22.557  23.391  1.00  0.00     0.009 A 
ATOM     14  C   UNL A   1      32.335  19.930  24.304  1.00  0.00     0.001 A 
ATOM     15  C   UNL A   1      32.057  21.495  22.484  1.00  0.00     0.001 A 
ATOM     16  C   UNL A   1      32.202  20.185  22.941  1.00  0.00     0.000 A 
ENDBRANCH   9  11
BRANCH  10  17
ATOM     17  C   UNL A   1      34.525  23.782  25.812  1.00  0.00    -0.014 A 
ATOM     18  C   UNL A   1      35.245  24.341  24.712  1.00  0.00     0.020 A 
ATOM     19  C   UNL A   1      35.298  22.884  26.519  1.00  0.00     0.073 A 
ATOM     20  C   UNL A   1      36.494  23.778  24.565  1.00  0.00     0.065 A 
ATOM     21  S   UNL A   1      36.833  22.642  25.797  1.00  0.00    -0.152 S 
ENDBRANCH  10  17
ENDBRANCH   7   9
ENDBRANCH   4   5
ENDBRANCH   3   4
ENDBRANCH   2   3
ENDBRANCH   1   2
BRANCH   1  22
ATOM     22  C   UNL A   1      34.014  27.740  26.046  1.00  0.00     0.021 C 
BRANCH  22  23
ATOM     23  C   UNL A   1      33.365  28.308  27.304  1.00  0.00     0.116 C 
BRANCH  23  24
ATOM     24  N   UNL A   1      33.369  29.759  27.339  1.00  0.00    -0.352 N 
ATOM     25  C   UNL A   1      34.339  30.623  27.786  1.00  0.00     0.251 C 
ATOM     26  H   UNL A   1      32.554  30.188  26.991  1.00  0.00     0.163 HD
ATOM     27  O   UNL A   1      34.105  31.824  27.859  1.00  0.00    -0.269 OA
BRANCH  25  28
ATOM     28  C   UNL A   1      35.659  30.106  28.212  1.00  0.00     0.039 A 
ATOM     29  C   UNL A   1      36.708  30.110  27.288  1.00  0.00     0.014 A 
ATOM     30  C   UNL A   1      35.866  29.608  29.501  1.00  0.00     0.014 A 
ATOM     31  C   UNL A   1      37.977  29.674  27.675  1.00  0.00     0.010 A 
ATOM     32  C   UNL A   1      37.148  29.244  29.908  1.00  0.00     0.010 A 
ATOM     33  C   UNL A   1      38.217  29.272  28.999  1.00  0.00    -0.014 A 
BRANCH  33  34
ATOM     34  C   UNL A   1      39.580  28.881  29.447  1.00  0.00     0.031 A 
ATOM     35  C   UNL A   1      40.349  29.762  30.394  1.00  0.00     0.074 A 
ATOM     36  C   UNL A   1      40.147  27.762  28.957  1.00  0.00     0.049 A 
ATOM     37  N   UNL A   1      41.568  29.621  30.851  1.00  0.00    -0.248 NA
ATOM     38  C   UNL A   1      39.667  30.975  30.872  1.00  0.00     0.031 C 
ATOM     39  C   UNL A   1      39.520  26.845  28.003  1.00  0.00     0.029 A 
ATOM     40  N   UNL A   1      41.382  27.207  29.185  1.00  0.00    -0.354 N 
ATOM     41  C   UNL A   1      41.802  30.731  31.653  1.00  0.00     0.074 A 
ATOM     42  C   UNL A   1      40.619  31.560  31.583  1.00  0.00     0.031 C 
ATOM     43  C   UNL A   1      40.362  25.829  27.749  1.00  0.00     0.029 A 
ATOM     44  C   UNL A   1      41.603  26.045  28.486  1.00  0.00     0.049 A 
ATOM     45  H   UNL A   1      42.047  27.604  29.793  1.00  0.00     0.167 HD
ATOM     46  C   UNL A   1      42.899  31.019  32.395  1.00  0.00     0.037 A 
ATOM     47  C   UNL A   1      42.688  25.248  28.438  1.00  0.00     0.037 A 
ATOM     48  C   UNL A   1      44.061  30.175  32.485  1.00  0.00     0.049 A 
ATOM     49  C   UNL A   1      43.897  25.606  29.261  1.00  0.00     0.074 A 
ATOM     50  C   UNL A   1      45.191  30.346  33.266  1.00  0.00     0.029 A 
ATOM     51  N   UNL A   1      44.246  29.004  31.766  1.00  0.00    -0.354 N 
ATOM     52  N   UNL A   1      44.077  26.616  30.076  1.00  0.00    -0.248 NA
ATOM     53  C   UNL A   1      45.055  24.705  29.159  1.00  0.00     0.031 C 
ATOM     54  C   UNL A   1      46.085  29.311  32.975  1.00  0.00     0.029 A 
ATOM     55  C   UNL A   1      45.487  28.460  32.061  1.00  0.00     0.049 A 
ATOM     56  H   UNL A   1      43.593  28.617  31.139  1.00  0.00     0.167 HD
ATOM     57  C   UNL A   1      45.348  26.455  30.611  1.00  0.00     0.074 A 
ATOM     58  C   UNL A   1      45.891  25.240  30.039  1.00  0.00     0.031 C 
ATOM     59  C   UNL A   1      46.007  27.240  31.497  1.00  0.00     0.037 A 
BRANCH  46  60
ATOM     60  C   UNL A   1      42.900  32.304  33.172  1.00  0.00     0.064 A 
ATOM     61  C   UNL A   1      42.443  32.368  34.497  1.00  0.00     0.173 A 
ATOM     62  C   UNL A   1      43.424  33.476  32.603  1.00  0.00     0.173 A 
ATOM     63  F   UNL A   1      41.925  31.281  35.086  1.00  0.00    -0.203 F 
ATOM     64  C   UNL A   1      42.488  33.562  35.214  1.00  0.00     0.198 A 
ATOM     65  C   UNL A   1      43.496  34.659  33.333  1.00  0.00     0.198 A 
ATOM     66  F   UNL A   1      43.881  33.470  31.341  1.00  0.00    -0.203 F 
ATOM     67  F   UNL A   1      42.005  33.608  36.464  1.00  0.00    -0.200 F 
ATOM     68  C   UNL A   1      43.022  34.703  34.635  1.00  0.00     0.200 A 
ATOM     69  F   UNL A   1      44.027  35.757  32.778  1.00  0.00    -0.200 F 
ATOM     70  F   UNL A   1      43.077  35.847  35.332  1.00  0.00    -0.200 F 
ENDBRANCH  46  60
BRANCH  47  71
ATOM     71  C   UNL A   1      42.681  24.021  27.597  1.00  0.00     0.064 A 
ATOM     72  C   UNL A   1      42.367  22.771  28.150  1.00  0.00     0.173 A 
ATOM     73  C   UNL A   1      43.019  24.063  26.236  1.00  0.00     0.173 A 
ATOM     74  F   UNL A   1      42.059  22.674  29.451  1.00  0.00    -0.203 F 
ATOM     75  C   UNL A   1      42.422  21.608  27.384  1.00  0.00     0.198 A 
ATOM     76  C   UNL A   1      43.040  22.905  25.462  1.00  0.00     0.198 A 
ATOM     77  F   UNL A   1      43.324  25.233  25.655  1.00  0.00    -0.203 F 
ATOM     78  F   UNL A   1      42.175  20.421  27.954  1.00  0.00    -0.200 F 
ATOM     79  C   UNL A   1      42.753  21.676  26.040  1.00  0.00     0.200 A 
ATOM     80  F   UNL A   1      43.347  22.976  24.160  1.00  0.00    -0.200 F 
ATOM     81  F   UNL A   1      42.807  20.559  25.304  1.00  0.00    -0.200 F 
ENDBRANCH  47  71
BRANCH  59  82
ATOM     82  C   UNL A   1      47.369  26.789  31.941  1.00  0.00     0.064 A 
ATOM     83  C   UNL A   1      48.541  27.265  31.337  1.00  0.00     0.173 A 
ATOM     84  C   UNL A   1      47.501  25.895  33.016  1.00  0.00     0.173 A 
ATOM     85  F   UNL A   1      48.470  28.111  30.297  1.00  0.00    -0.203 F 
ATOM     86  C   UNL A   1      49.794  26.841  31.772  1.00  0.00     0.198 A 
ATOM     87  C   UNL A   1      48.756  25.500  33.471  1.00  0.00     0.198 A 
ATOM     88  F   UNL A   1      46.412  25.415  33.634  1.00  0.00    -0.203 F 
ATOM     89  F   UNL A   1      50.899  27.268  31.145  1.00  0.00    -0.200 F 
ATOM     90  C   UNL A   1      49.901  25.966  32.843  1.00  0.00     0.200 A 
ATOM     91  F   UNL A   1      48.857  24.668  34.516  1.00  0.00    -0.200 F 
ATOM     92  F   UNL A   1      51.108  25.566  33.265  1.00  0.00    -0.200 F 
ENDBRANCH  59  82
ENDBRANCH  33  34
ENDBRANCH  25  28
ENDBRANCH  23  24
ENDBRANCH  22  23
ENDBRANCH   1  22
TORSDOF 15
ENDMDL
MODEL 2
REMARK VINA RESULT:     -11.3      1.677      2.638
REMARK SMILES O=C(NCCCCCCNC(=O)c1ccc(-c2c3nc(c(-c4c(F)c(F)c(F)c(F)c4F)c4ccc([nH]4)c(-c4c(F)c(F)c(F)c(F)c4F)c4nc(c(-c5c(F)c(F)c(F)c(F)c5F)c5ccc2[nH]5)C=C4)C=C3)cc1)/C(=C/c1ccsc1)c1ccccc1
REMARK SMILES IDX 7 1 6 2 5 3 4 4 3 5 1 6 2 7 76 9 77 10 83 11 84 12 88 13
REMARK SMILES IDX 85 14 87 15 86 16 78 17 79 18 82 19 80 20 81 21 8 22 9 23
REMARK SMILES IDX 10 24 11 25 12 27 13 28 14 29 75 30 15 31 74 32 16 33 17 34
REMARK SMILES IDX 18 35 68 36 19 37 73 38 67 39 69 40 20 41 72 42 66 43 65 44
REMARK SMILES IDX 21 46 53 47 33 48 52 49 34 50 37 51 51 52 70 53 35 54 36 55
REMARK SMILES IDX 50 57 71 58 38 59 22 60 23 61 31 62 24 63 25 64 29 65 32 66
REMARK SMILES IDX 26 67 27 68 30 69 28 70 54 71 55 72 63 73 56 74 57 75 61 76
REMARK SMILES IDX 64 77 58 78 59 79 62 80 60 81 39 82 40 83 48 84 41 85 42 86
REMARK SMILES IDX 46 87 49 88 43 89 44 90 47 91 45 92
REMARK H PARENT 3 8 10 26 69 45 37 56
REMARK Flexibility Score: inf
ROOT
ATOM      1  C   UNL A   1      31.541  28.554  26.008  1.00  0.00     0.002 C 
ENDROOT
BRANCH   1   2
ATOM      2  C   UNL A   1      31.302  28.237  24.529  1.00  0.00     0.002 C 
BRANCH   2   3
ATOM      3  C   UNL A   1      32.203  28.954  23.526  1.00  0.00     0.021 C 
BRANCH   3   4
ATOM      4  C   UNL A   1      33.498  28.245  23.153  1.00  0.00     0.116 C 
BRANCH   4   5
ATOM      5  N   UNL A   1      33.399  27.410  21.974  1.00  0.00    -0.352 N 
ATOM      6  O   UNL A   1      33.136  25.632  20.680  1.00  0.00    -0.269 OA
ATOM      7  C   UNL A   1      33.206  26.065  21.833  1.00  0.00     0.251 C 
ATOM      8  H   UNL A   1      33.485  27.897  21.123  1.00  0.00     0.163 HD
BRANCH   7   9
ATOM      9  C   UNL A   1      33.108  25.127  23.014  1.00  0.00     0.047 C 
ATOM     10  C   UNL A   1      31.851  24.879  23.454  1.00  0.00     0.023 C 
BRANCH   9  11
ATOM     11  C   UNL A   1      34.278  24.494  23.656  1.00  0.00    -0.013 A 
ATOM     12  C   UNL A   1      34.717  24.932  24.917  1.00  0.00     0.009 A 
ATOM     13  C   UNL A   1      34.943  23.430  23.033  1.00  0.00     0.009 A 
ATOM     14  C   UNL A   1      35.788  24.305  25.553  1.00  0.00     0.001 A 
ATOM     15  C   UNL A   1      36.005  22.793  23.680  1.00  0.00     0.001 A 
ATOM     16  C   UNL A   1      36.424  23.228  24.938  1.00  0.00     0.000 A 
ENDBRANCH   9  11
BRANCH  10  17
ATOM     17  C   UNL A   1      31.460  24.006  24.526  1.00  0.00    -0.014 A 
ATOM     18  C   UNL A   1      31.643  22.591  24.583  1.00  0.00     0.020 A 
ATOM     19  C   UNL A   1      30.817  24.479  25.652  1.00  0.00     0.073 A 
ATOM     20  C   UNL A   1      31.049  22.032  25.693  1.00  0.00     0.065 A 
ATOM     21  S   UNL A   1      30.347  23.215  26.708  1.00  0.00    -0.152 S 
ENDBRANCH  10  17
ENDBRANCH   7   9
ENDBRANCH   4   5
ENDBRANCH   3   4
ENDBRANCH   2   3
ENDBRANCH   1   2
BRANCH   1  22
ATOM     22  C   UNL A   1      32.621  27.733  26.716  1.00  0.00     0.021 C 
BRANCH  22  23
ATOM     23  C   UNL A   1      33.965  28.426  26.914  1.00  0.00     0.116 C 
BRANCH  23  24
ATOM     24  N   UNL A   1      33.835  29.783  27.413  1.00  0.00    -0.352 N 
ATOM     25  C   UNL A   1      34.721  30.537  28.143  1.00  0.00     0.251 C 
ATOM     26  H   UNL A   1      32.984  30.229  27.197  1.00  0.00     0.163 HD
ATOM     27  O   UNL A   1      34.378  31.625  28.590  1.00  0.00    -0.269 OA
BRANCH  25  28
ATOM     28  C   UNL A   1      36.083  30.027  28.420  1.00  0.00     0.039 A 
ATOM     29  C   UNL A   1      37.067  30.184  27.440  1.00  0.00     0.014 A 
ATOM     30  C   UNL A   1      36.391  29.388  29.623  1.00  0.00     0.014 A 
ATOM     31  C   UNL A   1      38.373  29.758  27.692  1.00  0.00     0.010 A 
ATOM     32  C   UNL A   1      37.709  29.030  29.903  1.00  0.00     0.010 A 
ATOM     33  C   UNL A   1      38.714  29.210  28.939  1.00  0.00    -0.014 A 
BRANCH  33  34
ATOM     34  C   UNL A   1      40.115  28.824  29.252  1.00  0.00     0.031 A 
ATOM     35  C   UNL A   1      40.995  29.745  30.053  1.00  0.00     0.074 A 
ATOM     36  C   UNL A   1      40.613  27.671  28.765  1.00  0.00     0.049 A 
ATOM     37  N   UNL A   1      42.257  29.610  30.376  1.00  0.00    -0.248 NA
ATOM     38  C   UNL A   1      40.383  30.993  30.535  1.00  0.00     0.031 C 
ATOM     39  C   UNL A   1      39.873  26.712  27.943  1.00  0.00     0.029 A 
ATOM     40  N   UNL A   1      41.861  27.110  28.883  1.00  0.00    -0.354 N 
ATOM     41  C   UNL A   1      42.591  30.760  31.082  1.00  0.00     0.074 A 
ATOM     42  C   UNL A   1      41.416  31.601  31.100  1.00  0.00     0.031 C 
ATOM     43  C   UNL A   1      40.671  25.671  27.654  1.00  0.00     0.029 A 
ATOM     44  C   UNL A   1      41.990  25.908  28.231  1.00  0.00     0.049 A 
ATOM     45  H   UNL A   1      42.594  27.530  29.388  1.00  0.00     0.167 HD
ATOM     46  C   UNL A   1      43.768  31.072  31.677  1.00  0.00     0.037 A 
ATOM     47  C   UNL A   1      43.056  25.093  28.105  1.00  0.00     0.037 A 
ATOM     48  C   UNL A   1      44.926  30.217  31.682  1.00  0.00     0.049 A 
ATOM     49  C   UNL A   1      44.354  25.478  28.764  1.00  0.00     0.074 A 
ATOM     50  C   UNL A   1      46.139  30.414  32.319  1.00  0.00     0.029 A 
ATOM     51  N   UNL A   1      45.017  29.005  31.015  1.00  0.00    -0.354 N 
ATOM     52  N   UNL A   1      44.635  26.530  29.494  1.00  0.00    -0.248 NA
ATOM     53  C   UNL A   1      45.485  24.556  28.583  1.00  0.00     0.031 C 
ATOM     54  C   UNL A   1      46.985  29.351  31.987  1.00  0.00     0.029 A 
ATOM     55  C   UNL A   1      46.278  28.459  31.198  1.00  0.00     0.049 A 
ATOM     56  H   UNL A   1      44.293  28.593  30.489  1.00  0.00     0.167 HD
ATOM     57  C   UNL A   1      45.957  26.378  29.890  1.00  0.00     0.074 A 
ATOM     58  C   UNL A   1      46.420  25.126  29.330  1.00  0.00     0.031 C 
ATOM     59  C   UNL A   1      46.720  27.202  30.648  1.00  0.00     0.037 A 
BRANCH  46  60
ATOM     60  C   UNL A   1      43.870  32.399  32.374  1.00  0.00     0.064 A 
ATOM     61  C   UNL A   1      43.550  32.547  33.732  1.00  0.00     0.173 A 
ATOM     62  C   UNL A   1      44.352  33.525  31.688  1.00  0.00     0.173 A 
ATOM     63  F   UNL A   1      43.077  31.506  34.432  1.00  0.00    -0.203 F 
ATOM     64  C   UNL A   1      43.687  33.778  34.370  1.00  0.00     0.198 A 
ATOM     65  C   UNL A   1      44.517  34.745  32.337  1.00  0.00     0.198 A 
ATOM     66  F   UNL A   1      44.678  33.437  30.389  1.00  0.00    -0.203 F 
ATOM     67  F   UNL A   1      43.335  33.905  35.658  1.00  0.00    -0.200 F 
ATOM     68  C   UNL A   1      44.178  34.872  33.676  1.00  0.00     0.200 A 
ATOM     69  F   UNL A   1      45.007  35.798  31.669  1.00  0.00    -0.200 F 
ATOM     70  F   UNL A   1      44.323  36.052  34.296  1.00  0.00    -0.200 F 
ENDBRANCH  46  60
BRANCH  47  71
ATOM     71  C   UNL A   1      42.942  23.821  27.342  1.00  0.00     0.064 A 
ATOM     72  C   UNL A   1      42.461  22.655  27.954  1.00  0.00     0.173 A 
ATOM     73  C   UNL A   1      43.341  23.734  26.000  1.00  0.00     0.173 A 
ATOM     74  F   UNL A   1      42.088  22.681  29.242  1.00  0.00    -0.203 F 
ATOM     75  C   UNL A   1      42.412  21.445  27.265  1.00  0.00     0.198 A 
ATOM     76  C   UNL A   1      43.260  22.531  25.301  1.00  0.00     0.198 A 
ATOM     77  F   UNL A   1      43.805  24.820  25.364  1.00  0.00    -0.203 F 
ATOM     78  F   UNL A   1      42.005  20.334  27.894  1.00  0.00    -0.200 F 
ATOM     79  C   UNL A   1      42.807  21.385  25.938  1.00  0.00     0.200 A 
ATOM     80  F   UNL A   1      43.629  22.481  24.014  1.00  0.00    -0.200 F 
ATOM     81  F   UNL A   1      42.762  20.222  25.276  1.00  0.00    -0.200 F 
ENDBRANCH  47  71
BRANCH  59  82
ATOM     82  C   UNL A   1      48.120  26.755  30.961  1.00  0.00     0.064 A 
ATOM     83  C   UNL A   1      48.405  25.921  32.051  1.00  0.00     0.173 A 
ATOM     84  C   UNL A   1      49.185  27.138  30.131  1.00  0.00     0.173 A 
ATOM     85  F   UNL A   1      47.425  25.538  32.884  1.00  0.00    -0.203 F 
ATOM     86  C   UNL A   1      49.709  25.511  32.317  1.00  0.00     0.198 A 
ATOM     87  C   UNL A   1      50.482  26.697  30.379  1.00  0.00     0.198 A 
ATOM     88  F   UNL A   1      48.966  27.929  29.070  1.00  0.00    -0.203 F 
ATOM     89  F   UNL A   1      49.966  24.758  33.395  1.00  0.00    -0.200 F 
ATOM     90  C   UNL A   1      50.744  25.892  31.475  1.00  0.00     0.200 A 
ATOM     91  F   UNL A   1      51.478  27.054  29.556  1.00  0.00    -0.200 F 
ATOM     92  F   UNL A   1      51.997  25.489  31.728  1.00  0.00    -0.200 F 
ENDBRANCH  59  82
ENDBRANCH  33  34
ENDBRANCH  25  28
ENDBRANCH  23  24
ENDBRANCH  22  23
ENDBRANCH   1  22
TORSDOF 15
ENDMDL
MODEL 3
REMARK VINA RESULT:     -11.3      3.325      8.533
REMARK SMILES O=C(NCCCCCCNC(=O)c1ccc(-c2c3nc(c(-c4c(F)c(F)c(F)c(F)c4F)c4ccc([nH]4)c(-c4c(F)c(F)c(F)c(F)c4F)c4nc(c(-c5c(F)c(F)c(F)c(F)c5F)c5ccc2[nH]5)C=C4)C=C3)cc1)/C(=C/c1ccsc1)c1ccccc1
REMARK SMILES IDX 7 1 6 2 5 3 4 4 3 5 1 6 2 7 76 9 77 10 83 11 84 12 88 13
REMARK SMILES IDX 85 14 87 15 86 16 78 17 79 18 82 19 80 20 81 21 8 22 9 23
REMARK SMILES IDX 10 24 11 25 12 27 13 28 14 29 75 30 15 31 74 32 16 33 17 34
REMARK SMILES IDX 18 35 68 36 19 37 73 38 67 39 69 40 20 41 72 42 66 43 65 44
REMARK SMILES IDX 21 46 53 47 33 48 52 49 34 50 37 51 51 52 70 53 35 54 36 55
REMARK SMILES IDX 50 57 71 58 38 59 22 60 23 61 31 62 24 63 25 64 29 65 32 66
REMARK SMILES IDX 26 67 27 68 30 69 28 70 54 71 55 72 63 73 56 74 57 75 61 76
REMARK SMILES IDX 64 77 58 78 59 79 62 80 60 81 39 82 40 83 48 84 41 85 42 86
REMARK SMILES IDX 46 87 49 88 43 89 44 90 47 91 45 92
REMARK H PARENT 3 8 10 26 69 45 37 56
REMARK Flexibility Score: inf
ROOT
ATOM      1  C   UNL A   1      34.565  23.930  25.898  1.00  0.00     0.002 C 
ENDROOT
BRANCH   1   2
ATOM      2  C   UNL A   1      33.203  23.498  25.351  1.00  0.00     0.002 C 
BRANCH   2   3
ATOM      3  C   UNL A   1      33.209  22.774  24.006  1.00  0.00     0.021 C 
BRANCH   3   4
ATOM      4  C   UNL A   1      32.164  23.222  22.992  1.00  0.00     0.116 C 
BRANCH   4   5
ATOM      5  N   UNL A   1      32.680  24.091  21.954  1.00  0.00    -0.352 N 
ATOM      6  O   UNL A   1      33.335  25.911  20.877  1.00  0.00    -0.269 OA
ATOM      7  C   UNL A   1      32.832  25.447  21.904  1.00  0.00     0.251 C 
ATOM      8  H   UNL A   1      32.972  23.620  21.140  1.00  0.00     0.163 HD
BRANCH   7   9
ATOM      9  C   UNL A   1      32.391  26.359  23.026  1.00  0.00     0.047 C 
ATOM     10  C   UNL A   1      33.366  26.721  23.894  1.00  0.00     0.023 C 
BRANCH   9  11
ATOM     11  C   UNL A   1      31.009  26.854  23.182  1.00  0.00    -0.013 A 
ATOM     12  C   UNL A   1      30.629  28.085  22.617  1.00  0.00     0.009 A 
ATOM     13  C   UNL A   1      30.051  26.092  23.863  1.00  0.00     0.009 A 
ATOM     14  C   UNL A   1      29.313  28.534  22.715  1.00  0.00     0.001 A 
ATOM     15  C   UNL A   1      28.730  26.537  23.945  1.00  0.00     0.001 A 
ATOM     16  C   UNL A   1      28.362  27.754  23.369  1.00  0.00     0.000 A 
ENDBRANCH   9  11
BRANCH  10  17
ATOM     17  C   UNL A   1      33.241  27.601  25.024  1.00  0.00    -0.014 A 
ATOM     18  C   UNL A   1      32.854  27.236  26.350  1.00  0.00     0.020 A 
ATOM     19  C   UNL A   1      33.476  28.956  24.920  1.00  0.00     0.073 A 
ATOM     20  C   UNL A   1      32.713  28.332  27.172  1.00  0.00     0.065 A 
ATOM     21  S   UNL A   1      33.127  29.788  26.377  1.00  0.00    -0.152 S 
ENDBRANCH  10  17
ENDBRANCH   7   9
ENDBRANCH   4   5
ENDBRANCH   3   4
ENDBRANCH   2   3
ENDBRANCH   1   2
BRANCH   1  22
ATOM     22  C   UNL A   1      35.759  23.045  25.532  1.00  0.00     0.021 C 
BRANCH  22  23
ATOM     23  C   UNL A   1      37.104  23.755  25.409  1.00  0.00     0.116 C 
BRANCH  23  24
ATOM     24  N   UNL A   1      38.234  22.863  25.591  1.00  0.00    -0.352 N 
ATOM     25  C   UNL A   1      39.457  23.103  26.170  1.00  0.00     0.251 C 
ATOM     26  H   UNL A   1      38.106  21.949  25.247  1.00  0.00     0.163 HD
ATOM     27  O   UNL A   1      40.341  22.256  26.112  1.00  0.00    -0.269 OA
BRANCH  25  28
ATOM     28  C   UNL A   1      39.723  24.396  26.840  1.00  0.00     0.039 A 
ATOM     29  C   UNL A   1      39.310  24.560  28.165  1.00  0.00     0.014 A 
ATOM     30  C   UNL A   1      40.360  25.445  26.171  1.00  0.00     0.014 A 
ATOM     31  C   UNL A   1      39.592  25.751  28.838  1.00  0.00     0.010 A 
ATOM     32  C   UNL A   1      40.705  26.604  26.865  1.00  0.00     0.010 A 
ATOM     33  C   UNL A   1      40.324  26.770  28.206  1.00  0.00    -0.014 A 
BRANCH  33  34
ATOM     34  C   UNL A   1      40.701  28.010  28.934  1.00  0.00     0.031 A 
ATOM     35  C   UNL A   1      42.093  28.177  29.479  1.00  0.00     0.074 A 
ATOM     36  C   UNL A   1      39.772  28.961  29.153  1.00  0.00     0.049 A 
ATOM     37  N   UNL A   1      42.591  29.158  30.189  1.00  0.00    -0.248 NA
ATOM     38  C   UNL A   1      43.044  27.087  29.212  1.00  0.00     0.031 C 
ATOM     39  C   UNL A   1      38.378  28.899  28.710  1.00  0.00     0.029 A 
ATOM     40  N   UNL A   1      39.856  30.163  29.811  1.00  0.00    -0.354 N 
ATOM     41  C   UNL A   1      43.904  28.795  30.466  1.00  0.00     0.074 A 
ATOM     42  C   UNL A   1      44.111  27.485  29.889  1.00  0.00     0.031 C 
ATOM     43  C   UNL A   1      37.746  30.024  29.084  1.00  0.00     0.029 A 
ATOM     44  C   UNL A   1      38.675  30.865  29.831  1.00  0.00     0.049 A 
ATOM     45  H   UNL A   1      40.684  30.491  30.230  1.00  0.00     0.167 HD
ATOM     46  C   UNL A   1      44.853  29.503  31.125  1.00  0.00     0.037 A 
ATOM     47  C   UNL A   1      38.374  32.051  30.396  1.00  0.00     0.037 A 
ATOM     48  C   UNL A   1      44.651  30.819  31.670  1.00  0.00     0.049 A 
ATOM     49  C   UNL A   1      39.448  32.804  31.136  1.00  0.00     0.074 A 
ATOM     50  C   UNL A   1      45.572  31.645  32.291  1.00  0.00     0.029 A 
ATOM     51  N   UNL A   1      43.443  31.499  31.666  1.00  0.00    -0.354 N 
ATOM     52  N   UNL A   1      40.705  32.487  31.323  1.00  0.00    -0.248 NA
ATOM     53  C   UNL A   1      39.057  34.086  31.741  1.00  0.00     0.031 C 
ATOM     54  C   UNL A   1      44.908  32.800  32.716  1.00  0.00     0.029 A 
ATOM     55  C   UNL A   1      43.588  32.722  32.303  1.00  0.00     0.049 A 
ATOM     56  H   UNL A   1      42.606  31.164  31.270  1.00  0.00     0.167 HD
ATOM     57  C   UNL A   1      41.265  33.541  32.031  1.00  0.00     0.074 A 
ATOM     58  C   UNL A   1      40.212  34.517  32.229  1.00  0.00     0.031 C 
ATOM     59  C   UNL A   1      42.535  33.691  32.478  1.00  0.00     0.037 A 
BRANCH  46  60
ATOM     60  C   UNL A   1      46.204  28.869  31.298  1.00  0.00     0.064 A 
ATOM     61  C   UNL A   1      46.509  28.071  32.410  1.00  0.00     0.173 A 
ATOM     62  C   UNL A   1      47.187  29.013  30.305  1.00  0.00     0.173 A 
ATOM     63  F   UNL A   1      45.610  27.906  33.391  1.00  0.00    -0.203 F 
ATOM     64  C   UNL A   1      47.756  27.460  32.534  1.00  0.00     0.198 A 
ATOM     65  C   UNL A   1      48.420  28.376  30.418  1.00  0.00     0.198 A 
ATOM     66  F   UNL A   1      46.946  29.761  29.218  1.00  0.00    -0.203 F 
ATOM     67  F   UNL A   1      48.039  26.737  33.627  1.00  0.00    -0.200 F 
ATOM     68  C   UNL A   1      48.706  27.606  31.535  1.00  0.00     0.200 A 
ATOM     69  F   UNL A   1      49.331  28.505  29.444  1.00  0.00    -0.200 F 
ATOM     70  F   UNL A   1      49.899  27.006  31.649  1.00  0.00    -0.200 F 
ENDBRANCH  46  60
BRANCH  47  71
ATOM     71  C   UNL A   1      37.003  32.615  30.271  1.00  0.00     0.064 A 
ATOM     72  C   UNL A   1      36.646  33.400  29.165  1.00  0.00     0.173 A 
ATOM     73  C   UNL A   1      36.034  32.412  31.264  1.00  0.00     0.173 A 
ATOM     74  F   UNL A   1      37.544  33.643  28.199  1.00  0.00    -0.203 F 
ATOM     75  C   UNL A   1      35.385  33.986  29.073  1.00  0.00     0.198 A 
ATOM     76  C   UNL A   1      34.761  32.969  31.154  1.00  0.00     0.198 A 
ATOM     77  F   UNL A   1      36.321  31.665  32.341  1.00  0.00    -0.203 F 
ATOM     78  F   UNL A   1      35.092  34.780  28.034  1.00  0.00    -0.200 F 
ATOM     79  C   UNL A   1      34.442  33.766  30.064  1.00  0.00     0.200 A 
ATOM     80  F   UNL A   1      33.848  32.742  32.108  1.00  0.00    -0.200 F 
ATOM     81  F   UNL A   1      33.230  34.330  29.976  1.00  0.00    -0.200 F 
ENDBRANCH  47  71
BRANCH  59  82
ATOM     82  C   UNL A   1      42.875  34.974  33.183  1.00  0.00     0.064 A 
ATOM     83  C   UNL A   1      43.369  36.089  32.492  1.00  0.00     0.173 A 
ATOM     84  C   UNL A   1      42.663  35.098  34.565  1.00  0.00     0.173 A 
ATOM     85  F   UNL A   1      43.602  36.019  31.172  1.00  0.00    -0.203 F 
ATOM     86  C   UNL A   1      43.668  37.272  33.163  1.00  0.00     0.198 A 
ATOM     87  C   UNL A   1      42.929  36.293  35.227  1.00  0.00     0.198 A 
ATOM     88  F   UNL A   1      42.184  34.063  35.272  1.00  0.00    -0.203 F 
ATOM     89  F   UNL A   1      44.189  38.308  32.492  1.00  0.00    -0.200 F 
ATOM     90  C   UNL A   1      43.439  37.376  34.528  1.00  0.00     0.200 A 
ATOM     91  F   UNL A   1      42.693  36.396  36.542  1.00  0.00    -0.200 F 
ATOM     92  F   UNL A   1      43.719  38.518  35.170  1.00  0.00    -0.200 F 
ENDBRANCH  59  82
ENDBRANCH  33  34
ENDBRANCH  25  28
ENDBRANCH  23  24
ENDBRANCH  22  23
ENDBRANCH   1  22
TORSDOF 15
ENDMDL
