MODEL 1
REMARK VINA RESULT:     -12.1      0.000      0.000
REMARK SMILES CC1(C)C(CNC(=O)[C@H]2C[C@H]2C(=O)NCCCCCCNC(=O)c2ccc(-c3c4nc(c(-c5c(F)c(F)c(F)c(F)c5F)c5ccc([nH]5)c(-c5c(F)c(F)c(F)c(F)c5F)c5nc(c(-c6c(F)c(F)c(F)c(F)c6F)c6ccc3[nH]6)C=C5)C=C4)cc2)C1(C)C
REMARK SMILES IDX 17 1 16 2 15 3 14 4 12 5 13 6 11 8 9 9 10 10 7 11 6 12 8 14
REMARK SMILES IDX 5 15 4 16 1 17 2 18 3 19 87 20 88 21 89 22 18 23 19 24 20 25
REMARK SMILES IDX 21 26 22 27 23 29 24 30 25 31 86 32 26 33 85 34 27 35 28 36
REMARK SMILES IDX 29 37 79 38 30 39 84 40 78 41 80 42 31 43 83 44 77 45 76 46
REMARK SMILES IDX 32 48 64 49 44 50 63 51 45 52 48 53 62 54 81 55 46 56 47 57
REMARK SMILES IDX 61 59 82 60 49 61 33 62 34 63 42 64 35 65 36 66 40 67 43 68
REMARK SMILES IDX 37 69 38 70 41 71 39 72 65 73 66 74 74 75 67 76 68 77 72 78
REMARK SMILES IDX 75 79 69 80 70 81 73 82 71 83 50 84 51 85 59 86 52 87 53 88
REMARK SMILES IDX 57 89 60 90 54 91 55 92 58 93 56 94
REMARK H PARENT 14 7 6 13 21 28 80 47 48 58
REMARK Flexibility Score: inf
ROOT
ATOM      1  C   UNL A   1      36.894  21.960  24.625  1.00  0.00     0.002 C 
ENDROOT
BRANCH   1   2
ATOM      2  C   UNL A   1      36.755  22.987  25.756  1.00  0.00     0.021 C 
BRANCH   2   3
ATOM      3  C   UNL A   1      35.380  23.653  25.838  1.00  0.00     0.116 C 
BRANCH   3   4
ATOM      4  N   UNL A   1      34.616  23.125  26.947  1.00  0.00    -0.356 N 
ATOM      5  C   UNL A   1      33.353  22.626  27.083  1.00  0.00     0.223 C 
ATOM      6  O   UNL A   1      32.969  22.409  28.233  1.00  0.00    -0.275 OA
ATOM      7  H   UNL A   1      35.120  23.127  27.794  1.00  0.00     0.163 HD
BRANCH   5   8
ATOM      8  C   UNL A   1      32.452  22.210  25.978  1.00  0.00     0.091 C 
ATOM      9  C   UNL A   1      31.008  22.588  25.733  1.00  0.00     0.091 C 
ATOM     10  C   UNL A   1      32.102  23.086  24.814  1.00  0.00     0.028 C 
BRANCH   9  11
ATOM     11  C   UNL A   1      30.238  23.399  26.696  1.00  0.00     0.223 C 
ATOM     12  N   UNL A   1      29.881  24.678  26.368  1.00  0.00    -0.356 N 
ATOM     13  H   UNL A   1      29.324  25.144  27.032  1.00  0.00     0.163 HD
ATOM     14  O   UNL A   1      29.862  22.906  27.753  1.00  0.00    -0.275 OA
BRANCH  12  15
ATOM     15  C   UNL A   1      30.204  25.441  25.185  1.00  0.00     0.120 C 
BRANCH  15  16
ATOM     16  C   UNL A   1      30.528  26.850  25.556  1.00  0.00     0.021 C 
ATOM     17  C   UNL A   1      31.889  28.391  27.149  1.00  0.00     0.012 C 
ATOM     18  C   UNL A   1      31.888  27.330  26.064  1.00  0.00    -0.025 C 
ATOM     19  C   UNL A   1      33.042  26.366  26.224  1.00  0.00     0.012 C 
ATOM     20  C   UNL A   1      31.393  27.722  24.653  1.00  0.00    -0.025 C 
ATOM     21  C   UNL A   1      30.899  29.132  24.396  1.00  0.00     0.012 C 
ATOM     22  C   UNL A   1      32.041  27.129  23.419  1.00  0.00     0.012 C 
ENDBRANCH  15  16
ENDBRANCH  12  15
ENDBRANCH   9  11
ENDBRANCH   5   8
ENDBRANCH   3   4
ENDBRANCH   2   3
ENDBRANCH   1   2
BRANCH   1  23
ATOM     23  C   UNL A   1      36.758  20.493  25.050  1.00  0.00     0.002 C 
BRANCH  23  24
ATOM     24  C   UNL A   1      38.027  19.649  24.912  1.00  0.00     0.021 C 
BRANCH  24  25
ATOM     25  C   UNL A   1      39.196  20.091  25.788  1.00  0.00     0.116 C 
BRANCH  25  26
ATOM     26  N   UNL A   1      40.240  19.085  25.872  1.00  0.00    -0.352 N 
ATOM     27  C   UNL A   1      41.589  19.240  26.066  1.00  0.00     0.251 C 
ATOM     28  H   UNL A   1      39.934  18.154  25.775  1.00  0.00     0.163 HD
ATOM     29  O   UNL A   1      42.346  18.281  25.951  1.00  0.00    -0.269 OA
BRANCH  27  30
ATOM     30  C   UNL A   1      42.144  20.573  26.390  1.00  0.00     0.039 A 
ATOM     31  C   UNL A   1      42.557  21.401  25.342  1.00  0.00     0.014 A 
ATOM     32  C   UNL A   1      42.275  21.001  27.714  1.00  0.00     0.014 A 
ATOM     33  C   UNL A   1      43.045  22.680  25.619  1.00  0.00     0.010 A 
ATOM     34  C   UNL A   1      42.700  22.299  27.985  1.00  0.00     0.010 A 
ATOM     35  C   UNL A   1      43.093  23.150  26.941  1.00  0.00    -0.014 A 
BRANCH  35  36
ATOM     36  C   UNL A   1      43.543  24.531  27.246  1.00  0.00     0.031 A 
ATOM     37  C   UNL A   1      42.570  25.551  27.763  1.00  0.00     0.074 A 
ATOM     38  C   UNL A   1      44.816  24.887  26.985  1.00  0.00     0.049 A 
ATOM     39  N   UNL A   1      42.762  26.819  28.031  1.00  0.00    -0.248 NA
ATOM     40  C   UNL A   1      41.190  25.094  27.981  1.00  0.00     0.031 C 
ATOM     41  C   UNL A   1      45.840  24.006  26.422  1.00  0.00     0.029 A 
ATOM     42  N   UNL A   1      45.459  26.088  27.144  1.00  0.00    -0.354 N 
ATOM     43  C   UNL A   1      41.527  27.313  28.426  1.00  0.00     0.074 A 
ATOM     44  C   UNL A   1      40.582  26.221  28.320  1.00  0.00     0.031 C 
ATOM     45  C   UNL A   1      46.986  24.692  26.295  1.00  0.00     0.029 A 
ATOM     46  C   UNL A   1      46.771  26.067  26.740  1.00  0.00     0.049 A 
ATOM     47  H   UNL A   1      45.022  26.890  27.514  1.00  0.00     0.167 HD
ATOM     48  C   UNL A   1      41.212  28.558  28.859  1.00  0.00     0.037 A 
ATOM     49  C   UNL A   1      47.696  27.046  26.723  1.00  0.00     0.037 A 
ATOM     50  C   UNL A   1      42.161  29.631  28.996  1.00  0.00     0.049 A 
ATOM     51  C   UNL A   1      47.333  28.411  27.235  1.00  0.00     0.074 A 
ATOM     52  C   UNL A   1      41.962  30.899  29.515  1.00  0.00     0.029 A 
ATOM     53  N   UNL A   1      43.491  29.564  28.606  1.00  0.00    -0.354 N 
ATOM     54  N   UNL A   1      46.182  28.845  27.689  1.00  0.00    -0.248 NA
ATOM     55  C   UNL A   1      48.400  29.421  27.240  1.00  0.00     0.031 C 
ATOM     56  C   UNL A   1      43.161  31.614  29.395  1.00  0.00     0.029 A 
ATOM     57  C   UNL A   1      44.118  30.778  28.844  1.00  0.00     0.049 A 
ATOM     58  H   UNL A   1      43.926  28.771  28.216  1.00  0.00     0.167 HD
ATOM     59  C   UNL A   1      46.388  30.169  28.047  1.00  0.00     0.074 A 
ATOM     60  C   UNL A   1      47.778  30.464  27.775  1.00  0.00     0.031 C 
ATOM     61  C   UNL A   1      45.501  31.060  28.556  1.00  0.00     0.037 A 
BRANCH  48  62
ATOM     62  C   UNL A   1      39.778  28.823  29.210  1.00  0.00     0.064 A 
ATOM     63  C   UNL A   1      39.280  28.601  30.503  1.00  0.00     0.173 A 
ATOM     64  C   UNL A   1      38.891  29.320  28.243  1.00  0.00     0.173 A 
ATOM     65  F   UNL A   1      40.085  28.116  31.462  1.00  0.00    -0.203 F 
ATOM     66  C   UNL A   1      37.940  28.827  30.805  1.00  0.00     0.198 A 
ATOM     67  C   UNL A   1      37.557  29.575  28.556  1.00  0.00     0.198 A 
ATOM     68  F   UNL A   1      39.315  29.558  26.994  1.00  0.00    -0.203 F 
ATOM     69  F   UNL A   1      37.475  28.551  32.032  1.00  0.00    -0.200 F 
ATOM     70  C   UNL A   1      37.081  29.318  29.833  1.00  0.00     0.200 A 
ATOM     71  F   UNL A   1      36.731  30.060  27.620  1.00  0.00    -0.200 F 
ATOM     72  F   UNL A   1      35.790  29.535  30.125  1.00  0.00    -0.200 F 
ENDBRANCH  48  62
BRANCH  49  73
ATOM     73  C   UNL A   1      49.063  26.749  26.227  1.00  0.00     0.064 A 
ATOM     74  C   UNL A   1      50.027  26.183  27.071  1.00  0.00     0.173 A 
ATOM     75  C   UNL A   1      49.421  26.995  24.894  1.00  0.00     0.173 A 
ATOM     76  F   UNL A   1      49.734  25.948  28.358  1.00  0.00    -0.203 F 
ATOM     77  C   UNL A   1      51.303  25.879  26.603  1.00  0.00     0.198 A 
ATOM     78  C   UNL A   1      50.690  26.668  24.420  1.00  0.00     0.198 A 
ATOM     79  F   UNL A   1      48.531  27.529  24.046  1.00  0.00    -0.203 F 
ATOM     80  F   UNL A   1      52.216  25.364  27.437  1.00  0.00    -0.200 F 
ATOM     81  C   UNL A   1      51.631  26.115  25.275  1.00  0.00     0.200 A 
ATOM     82  F   UNL A   1      50.998  26.885  23.134  1.00  0.00    -0.200 F 
ATOM     83  F   UNL A   1      52.854  25.810  24.821  1.00  0.00    -0.200 F 
ENDBRANCH  49  73
BRANCH  61  84
ATOM     84  C   UNL A   1      46.012  32.439  28.857  1.00  0.00     0.064 A 
ATOM     85  C   UNL A   1      46.639  32.737  30.076  1.00  0.00     0.173 A 
ATOM     86  C   UNL A   1      45.902  33.463  27.906  1.00  0.00     0.173 A 
ATOM     87  F   UNL A   1      46.752  31.795  31.025  1.00  0.00    -0.203 F 
ATOM     88  C   UNL A   1      47.119  34.017  30.339  1.00  0.00     0.198 A 
ATOM     89  C   UNL A   1      46.408  34.735  28.162  1.00  0.00     0.198 A 
ATOM     90  F   UNL A   1      45.315  33.229  26.724  1.00  0.00    -0.203 F 
ATOM     91  F   UNL A   1      47.676  34.291  31.527  1.00  0.00    -0.200 F 
ATOM     92  C   UNL A   1      47.010  35.013  29.380  1.00  0.00     0.200 A 
ATOM     93  F   UNL A   1      46.311  35.694  27.230  1.00  0.00    -0.200 F 
ATOM     94  F   UNL A   1      47.478  36.243  29.633  1.00  0.00    -0.200 F 
ENDBRANCH  61  84
ENDBRANCH  35  36
ENDBRANCH  27  30
ENDBRANCH  25  26
ENDBRANCH  24  25
ENDBRANCH  23  24
ENDBRANCH   1  23
TORSDOF 16
ENDMDL
MODEL 2
REMARK VINA RESULT:     -12.0      5.558     11.050
REMARK SMILES CC1(C)C(CNC(=O)[C@H]2C[C@H]2C(=O)NCCCCCCNC(=O)c2ccc(-c3c4nc(c(-c5c(F)c(F)c(F)c(F)c5F)c5ccc([nH]5)c(-c5c(F)c(F)c(F)c(F)c5F)c5nc(c(-c6c(F)c(F)c(F)c(F)c6F)c6ccc3[nH]6)C=C5)C=C4)cc2)C1(C)C
REMARK SMILES IDX 17 1 16 2 15 3 14 4 12 5 13 6 11 8 9 9 10 10 7 11 6 12 8 14
REMARK SMILES IDX 5 15 4 16 1 17 2 18 3 19 87 20 88 21 89 22 18 23 19 24 20 25
REMARK SMILES IDX 21 26 22 27 23 29 24 30 25 31 86 32 26 33 85 34 27 35 28 36
REMARK SMILES IDX 29 37 79 38 30 39 84 40 78 41 80 42 31 43 83 44 77 45 76 46
REMARK SMILES IDX 32 48 64 49 44 50 63 51 45 52 48 53 62 54 81 55 46 56 47 57
REMARK SMILES IDX 61 59 82 60 49 61 33 62 34 63 42 64 35 65 36 66 40 67 43 68
REMARK SMILES IDX 37 69 38 70 41 71 39 72 65 73 66 74 74 75 67 76 68 77 72 78
REMARK SMILES IDX 75 79 69 80 70 81 73 82 71 83 50 84 51 85 59 86 52 87 53 88
REMARK SMILES IDX 57 89 60 90 54 91 55 92 58 93 56 94
REMARK H PARENT 14 7 6 13 21 28 80 47 48 58
REMARK Flexibility Score: inf
ROOT
ATOM      1  C   UNL A   1      32.960  30.038  26.293  1.00  0.00     0.002 C 
ENDROOT
BRANCH   1   2
ATOM      2  C   UNL A   1      32.948  28.855  27.268  1.00  0.00     0.021 C 
BRANCH   2   3
ATOM      3  C   UNL A   1      31.586  28.174  27.418  1.00  0.00     0.116 C 
BRANCH   3   4
ATOM      4  N   UNL A   1      31.682  26.758  27.138  1.00  0.00    -0.356 N 
ATOM      5  C   UNL A   1      31.821  26.018  26.000  1.00  0.00     0.223 C 
ATOM      6  O   UNL A   1      31.707  24.798  26.121  1.00  0.00    -0.275 OA
ATOM      7  H   UNL A   1      31.636  26.205  27.952  1.00  0.00     0.163 HD
BRANCH   5   8
ATOM      8  C   UNL A   1      32.214  26.532  24.663  1.00  0.00     0.091 C 
ATOM      9  C   UNL A   1      31.982  25.918  23.300  1.00  0.00     0.091 C 
ATOM     10  C   UNL A   1      31.260  27.183  23.708  1.00  0.00     0.028 C 
BRANCH   9  11
ATOM     11  C   UNL A   1      31.380  24.580  23.139  1.00  0.00     0.223 C 
ATOM     12  N   UNL A   1      32.188  23.478  23.086  1.00  0.00    -0.356 N 
ATOM     13  H   UNL A   1      31.720  22.614  23.032  1.00  0.00     0.163 HD
ATOM     14  O   UNL A   1      30.161  24.451  23.124  1.00  0.00    -0.275 OA
BRANCH  12  15
ATOM     15  C   UNL A   1      33.631  23.402  23.100  1.00  0.00     0.120 C 
BRANCH  15  16
ATOM     16  C   UNL A   1      34.088  22.545  24.233  1.00  0.00     0.021 C 
ATOM     17  C   UNL A   1      35.774  20.718  24.996  1.00  0.00     0.012 C 
ATOM     18  C   UNL A   1      35.537  22.126  24.482  1.00  0.00    -0.025 C 
ATOM     19  C   UNL A   1      36.647  22.579  23.561  1.00  0.00     0.012 C 
ATOM     20  C   UNL A   1      34.840  23.141  25.417  1.00  0.00    -0.025 C 
ATOM     21  C   UNL A   1      34.389  22.706  26.797  1.00  0.00     0.012 C 
ATOM     22  C   UNL A   1      35.243  24.602  25.402  1.00  0.00     0.012 C 
ENDBRANCH  15  16
ENDBRANCH  12  15
ENDBRANCH   9  11
ENDBRANCH   5   8
ENDBRANCH   3   4
ENDBRANCH   2   3
ENDBRANCH   1   2
BRANCH   1  23
ATOM     23  C   UNL A   1      31.591  30.661  25.998  1.00  0.00     0.002 C 
BRANCH  23  24
ATOM     24  C   UNL A   1      31.398  32.093  26.503  1.00  0.00     0.021 C 
BRANCH  24  25
ATOM     25  C   UNL A   1      32.589  32.678  27.257  1.00  0.00     0.116 C 
BRANCH  25  26
ATOM     26  N   UNL A   1      32.395  34.076  27.602  1.00  0.00    -0.352 N 
ATOM     27  C   UNL A   1      33.033  34.837  28.549  1.00  0.00     0.251 C 
ATOM     28  H   UNL A   1      31.706  34.546  27.080  1.00  0.00     0.163 HD
ATOM     29  O   UNL A   1      32.628  35.965  28.812  1.00  0.00    -0.269 OA
BRANCH  27  30
ATOM     30  C   UNL A   1      34.198  34.291  29.280  1.00  0.00     0.039 A 
ATOM     31  C   UNL A   1      33.977  33.594  30.472  1.00  0.00     0.014 A 
ATOM     32  C   UNL A   1      35.500  34.477  28.809  1.00  0.00     0.014 A 
ATOM     33  C   UNL A   1      35.056  33.033  31.159  1.00  0.00     0.010 A 
ATOM     34  C   UNL A   1      36.568  33.862  29.459  1.00  0.00     0.010 A 
ATOM     35  C   UNL A   1      36.357  33.138  30.642  1.00  0.00    -0.014 A 
BRANCH  35  36
ATOM     36  C   UNL A   1      37.505  32.488  31.322  1.00  0.00     0.031 A 
ATOM     37  C   UNL A   1      38.213  31.330  30.680  1.00  0.00     0.074 A 
ATOM     38  C   UNL A   1      37.862  32.895  32.555  1.00  0.00     0.049 A 
ATOM     39  N   UNL A   1      39.195  30.599  31.144  1.00  0.00    -0.248 NA
ATOM     40  C   UNL A   1      37.735  30.920  29.351  1.00  0.00     0.031 C 
ATOM     41  C   UNL A   1      37.212  33.966  33.312  1.00  0.00     0.029 A 
ATOM     42  N   UNL A   1      38.849  32.444  33.395  1.00  0.00    -0.354 N 
ATOM     43  C   UNL A   1      39.437  29.633  30.177  1.00  0.00     0.074 A 
ATOM     44  C   UNL A   1      38.468  29.841  29.121  1.00  0.00     0.031 C 
ATOM     45  C   UNL A   1      37.825  34.098  34.498  1.00  0.00     0.029 A 
ATOM     46  C   UNL A   1      38.891  33.104  34.598  1.00  0.00     0.049 A 
ATOM     47  H   UNL A   1      39.468  31.716  33.158  1.00  0.00     0.167 HD
ATOM     48  C   UNL A   1      40.392  28.672  30.161  1.00  0.00     0.037 A 
ATOM     49  C   UNL A   1      39.694  32.927  35.664  1.00  0.00     0.037 A 
ATOM     50  C   UNL A   1      41.375  28.489  31.196  1.00  0.00     0.049 A 
ATOM     51  C   UNL A   1      40.766  31.875  35.612  1.00  0.00     0.074 A 
ATOM     52  C   UNL A   1      42.441  27.608  31.229  1.00  0.00     0.029 A 
ATOM     53  N   UNL A   1      41.407  29.199  32.388  1.00  0.00    -0.354 N 
ATOM     54  N   UNL A   1      41.041  31.022  34.656  1.00  0.00    -0.248 NA
ATOM     55  C   UNL A   1      41.643  31.765  36.786  1.00  0.00     0.031 C 
ATOM     56  C   UNL A   1      43.091  27.752  32.462  1.00  0.00     0.029 A 
ATOM     57  C   UNL A   1      42.457  28.755  33.177  1.00  0.00     0.049 A 
ATOM     58  H   UNL A   1      40.776  29.912  32.638  1.00  0.00     0.167 HD
ATOM     59  C   UNL A   1      42.130  30.286  35.102  1.00  0.00     0.074 A 
ATOM     60  C   UNL A   1      42.476  30.805  36.408  1.00  0.00     0.031 C 
ATOM     61  C   UNL A   1      42.782  29.272  34.482  1.00  0.00     0.037 A 
BRANCH  48  62
ATOM     62  C   UNL A   1      40.413  27.741  28.984  1.00  0.00     0.064 A 
ATOM     63  C   UNL A   1      41.192  28.006  27.847  1.00  0.00     0.173 A 
ATOM     64  C   UNL A   1      39.654  26.561  28.998  1.00  0.00     0.173 A 
ATOM     65  F   UNL A   1      41.927  29.126  27.778  1.00  0.00    -0.203 F 
ATOM     66  C   UNL A   1      41.179  27.145  26.752  1.00  0.00     0.198 A 
ATOM     67  C   UNL A   1      39.668  25.686  27.914  1.00  0.00     0.198 A 
ATOM     68  F   UNL A   1      38.898  26.255  30.063  1.00  0.00    -0.203 F 
ATOM     69  F   UNL A   1      41.885  27.449  25.654  1.00  0.00    -0.200 F 
ATOM     70  C   UNL A   1      40.421  25.984  26.789  1.00  0.00     0.200 A 
ATOM     71  F   UNL A   1      38.944  24.560  27.955  1.00  0.00    -0.200 F 
ATOM     72  F   UNL A   1      40.409  25.156  25.734  1.00  0.00    -0.200 F 
ENDBRANCH  48  62
BRANCH  49  73
ATOM     73  C   UNL A   1      39.524  33.794  36.858  1.00  0.00     0.064 A 
ATOM     74  C   UNL A   1      40.122  35.059  36.918  1.00  0.00     0.173 A 
ATOM     75  C   UNL A   1      38.736  33.387  37.944  1.00  0.00     0.173 A 
ATOM     76  F   UNL A   1      40.898  35.481  35.911  1.00  0.00    -0.203 F 
ATOM     77  C   UNL A   1      39.943  35.885  38.026  1.00  0.00     0.198 A 
ATOM     78  C   UNL A   1      38.539  34.224  39.040  1.00  0.00     0.198 A 
ATOM     79  F   UNL A   1      38.139  32.187  37.929  1.00  0.00    -0.203 F 
ATOM     80  F   UNL A   1      40.547  37.080  38.072  1.00  0.00    -0.200 F 
ATOM     81  C   UNL A   1      39.146  35.470  39.082  1.00  0.00     0.200 A 
ATOM     82  F   UNL A   1      37.757  33.825  40.053  1.00  0.00    -0.200 F 
ATOM     83  F   UNL A   1      38.963  36.271  40.141  1.00  0.00    -0.200 F 
ENDBRANCH  49  73
BRANCH  61  84
ATOM     84  C   UNL A   1      43.943  28.659  35.210  1.00  0.00     0.064 A 
ATOM     85  C   UNL A   1      43.775  27.550  36.052  1.00  0.00     0.173 A 
ATOM     86  C   UNL A   1      45.240  29.164  35.037  1.00  0.00     0.173 A 
ATOM     87  F   UNL A   1      42.551  27.040  36.262  1.00  0.00    -0.203 F 
ATOM     88  C   UNL A   1      44.862  26.982  36.711  1.00  0.00     0.198 A 
ATOM     89  C   UNL A   1      46.328  28.576  35.677  1.00  0.00     0.198 A 
ATOM     90  F   UNL A   1      45.454  30.220  34.239  1.00  0.00    -0.203 F 
ATOM     91  F   UNL A   1      44.673  25.949  37.545  1.00  0.00    -0.200 F 
ATOM     92  C   UNL A   1      46.138  27.491  36.518  1.00  0.00     0.200 A 
ATOM     93  F   UNL A   1      47.561  29.063  35.481  1.00  0.00    -0.200 F 
ATOM     94  F   UNL A   1      47.183  26.939  37.150  1.00  0.00    -0.200 F 
ENDBRANCH  61  84
ENDBRANCH  35  36
ENDBRANCH  27  30
ENDBRANCH  25  26
ENDBRANCH  24  25
ENDBRANCH  23  24
ENDBRANCH   1  23
TORSDOF 16
ENDMDL
MODEL 3
REMARK VINA RESULT:     -11.9      5.718     11.159
REMARK SMILES CC1(C)C(CNC(=O)[C@H]2C[C@H]2C(=O)NCCCCCCNC(=O)c2ccc(-c3c4nc(c(-c5c(F)c(F)c(F)c(F)c5F)c5ccc([nH]5)c(-c5c(F)c(F)c(F)c(F)c5F)c5nc(c(-c6c(F)c(F)c(F)c(F)c6F)c6ccc3[nH]6)C=C5)C=C4)cc2)C1(C)C
REMARK SMILES IDX 17 1 16 2 15 3 14 4 12 5 13 6 11 8 9 9 10 10 7 11 6 12 8 14
REMARK SMILES IDX 5 15 4 16 1 17 2 18 3 19 87 20 88 21 89 22 18 23 19 24 20 25
REMARK SMILES IDX 21 26 22 27 23 29 24 30 25 31 86 32 26 33 85 34 27 35 28 36
REMARK SMILES IDX 29 37 79 38 30 39 84 40 78 41 80 42 31 43 83 44 77 45 76 46
REMARK SMILES IDX 32 48 64 49 44 50 63 51 45 52 48 53 62 54 81 55 46 56 47 57
REMARK SMILES IDX 61 59 82 60 49 61 33 62 34 63 42 64 35 65 36 66 40 67 43 68
REMARK SMILES IDX 37 69 38 70 41 71 39 72 65 73 66 74 74 75 67 76 68 77 72 78
REMARK SMILES IDX 75 79 69 80 70 81 73 82 71 83 50 84 51 85 59 86 52 87 53 88
REMARK SMILES IDX 57 89 60 90 54 91 55 92 58 93 56 94
REMARK H PARENT 14 7 6 13 21 28 80 47 48 58
REMARK Flexibility Score: inf
ROOT
ATOM      1  C   UNL A   1      32.049  29.699  26.986  1.00  0.00     0.002 C 
ENDROOT
BRANCH   1   2
ATOM      2  C   UNL A   1      33.559  29.433  27.021  1.00  0.00     0.021 C 
BRANCH   2   3
ATOM      3  C   UNL A   1      34.021  28.293  26.111  1.00  0.00     0.116 C 
BRANCH   3   4
ATOM      4  N   UNL A   1      34.069  28.721  24.730  1.00  0.00    -0.356 N 
ATOM      5  C   UNL A   1      33.404  28.357  23.596  1.00  0.00     0.223 C 
ATOM      6  O   UNL A   1      33.820  28.832  22.538  1.00  0.00    -0.275 OA
ATOM      7  H   UNL A   1      34.730  29.434  24.574  1.00  0.00     0.163 HD
BRANCH   5   8
ATOM      8  C   UNL A   1      32.161  27.546  23.530  1.00  0.00     0.091 C 
ATOM      9  C   UNL A   1      31.935  26.200  22.877  1.00  0.00     0.091 C 
ATOM     10  C   UNL A   1      31.907  26.340  24.384  1.00  0.00     0.028 C 
BRANCH   9  11
ATOM     11  C   UNL A   1      32.982  25.533  22.079  1.00  0.00     0.223 C 
ATOM     12  N   UNL A   1      33.111  24.173  22.136  1.00  0.00    -0.356 N 
ATOM     13  H   UNL A   1      33.792  23.789  21.540  1.00  0.00     0.163 HD
ATOM     14  O   UNL A   1      33.686  26.187  21.317  1.00  0.00    -0.275 OA
BRANCH  12  15
ATOM     15  C   UNL A   1      32.387  23.221  22.947  1.00  0.00     0.120 C 
BRANCH  15  16
ATOM     16  C   UNL A   1      33.183  22.870  24.160  1.00  0.00     0.021 C 
ATOM     17  C   UNL A   1      33.333  23.040  26.750  1.00  0.00     0.012 C 
ATOM     18  C   UNL A   1      32.589  22.534  25.528  1.00  0.00    -0.025 C 
ATOM     19  C   UNL A   1      31.093  22.531  25.746  1.00  0.00     0.012 C 
ATOM     20  C   UNL A   1      33.252  21.434  24.667  1.00  0.00    -0.025 C 
ATOM     21  C   UNL A   1      34.624  20.912  25.042  1.00  0.00     0.012 C 
ATOM     22  C   UNL A   1      32.409  20.358  24.015  1.00  0.00     0.012 C 
ENDBRANCH  15  16
ENDBRANCH  12  15
ENDBRANCH   9  11
ENDBRANCH   5   8
ENDBRANCH   3   4
ENDBRANCH   2   3
ENDBRANCH   1   2
BRANCH   1  23
ATOM     23  C   UNL A   1      31.602  30.827  26.049  1.00  0.00     0.002 C 
BRANCH  23  24
ATOM     24  C   UNL A   1      31.382  32.186  26.717  1.00  0.00     0.021 C 
BRANCH  24  25
ATOM     25  C   UNL A   1      32.654  32.896  27.173  1.00  0.00     0.116 C 
BRANCH  25  26
ATOM     26  N   UNL A   1      32.405  34.261  27.603  1.00  0.00    -0.352 N 
ATOM     27  C   UNL A   1      33.000  34.982  28.607  1.00  0.00     0.251 C 
ATOM     28  H   UNL A   1      31.707  34.739  27.099  1.00  0.00     0.163 HD
ATOM     29  O   UNL A   1      32.551  36.076  28.933  1.00  0.00    -0.269 OA
BRANCH  27  30
ATOM     30  C   UNL A   1      34.173  34.431  29.322  1.00  0.00     0.039 A 
ATOM     31  C   UNL A   1      33.965  33.739  30.519  1.00  0.00     0.014 A 
ATOM     32  C   UNL A   1      35.469  34.608  28.831  1.00  0.00     0.014 A 
ATOM     33  C   UNL A   1      35.051  33.174  31.192  1.00  0.00     0.010 A 
ATOM     34  C   UNL A   1      36.543  33.990  29.467  1.00  0.00     0.010 A 
ATOM     35  C   UNL A   1      36.345  33.270  30.655  1.00  0.00    -0.014 A 
BRANCH  35  36
ATOM     36  C   UNL A   1      37.499  32.615  31.320  1.00  0.00     0.031 A 
ATOM     37  C   UNL A   1      38.201  31.462  30.663  1.00  0.00     0.074 A 
ATOM     38  C   UNL A   1      37.868  33.014  32.552  1.00  0.00     0.049 A 
ATOM     39  N   UNL A   1      39.188  30.727  31.114  1.00  0.00    -0.248 NA
ATOM     40  C   UNL A   1      37.710  31.061  29.337  1.00  0.00     0.031 C 
ATOM     41  C   UNL A   1      37.225  34.080  33.322  1.00  0.00     0.029 A 
ATOM     42  N   UNL A   1      38.863  32.558  33.380  1.00  0.00    -0.354 N 
ATOM     43  C   UNL A   1      39.419  29.768  30.138  1.00  0.00     0.074 A 
ATOM     44  C   UNL A   1      38.441  29.983  29.093  1.00  0.00     0.031 C 
ATOM     45  C   UNL A   1      37.850  34.205  34.503  1.00  0.00     0.029 A 
ATOM     46  C   UNL A   1      38.916  33.210  34.587  1.00  0.00     0.049 A 
ATOM     47  H   UNL A   1      39.480  31.831  33.132  1.00  0.00     0.167 HD
ATOM     48  C   UNL A   1      40.374  28.806  30.107  1.00  0.00     0.037 A 
ATOM     49  C   UNL A   1      39.729  33.026  35.644  1.00  0.00     0.037 A 
ATOM     50  C   UNL A   1      41.367  28.617  31.132  1.00  0.00     0.049 A 
ATOM     51  C   UNL A   1      40.800  31.974  35.575  1.00  0.00     0.074 A 
ATOM     52  C   UNL A   1      42.434  27.735  31.149  1.00  0.00     0.029 A 
ATOM     53  N   UNL A   1      41.410  29.319  32.328  1.00  0.00    -0.354 N 
ATOM     54  N   UNL A   1      41.067  31.127  34.611  1.00  0.00    -0.248 NA
ATOM     55  C   UNL A   1      41.688  31.856  36.740  1.00  0.00     0.031 C 
ATOM     56  C   UNL A   1      43.095  27.872  32.376  1.00  0.00     0.029 A 
ATOM     57  C   UNL A   1      42.468  28.869  33.104  1.00  0.00     0.049 A 
ATOM     58  H   UNL A   1      40.782  30.031  32.588  1.00  0.00     0.167 HD
ATOM     59  C   UNL A   1      42.159  30.389  35.041  1.00  0.00     0.074 A 
ATOM     60  C   UNL A   1      42.518  30.898  36.348  1.00  0.00     0.031 C 
ATOM     61  C   UNL A   1      42.805  29.378  34.409  1.00  0.00     0.037 A 
BRANCH  48  62
ATOM     62  C   UNL A   1      40.384  27.884  28.924  1.00  0.00     0.064 A 
ATOM     63  C   UNL A   1      41.135  28.166  27.772  1.00  0.00     0.173 A 
ATOM     64  C   UNL A   1      39.643  26.693  28.946  1.00  0.00     0.173 A 
ATOM     65  F   UNL A   1      41.853  29.298  27.695  1.00  0.00    -0.203 F 
ATOM     66  C   UNL A   1      41.112  27.312  26.673  1.00  0.00     0.198 A 
ATOM     67  C   UNL A   1      39.646  25.825  27.857  1.00  0.00     0.198 A 
ATOM     68  F   UNL A   1      38.913  26.369  30.024  1.00  0.00    -0.203 F 
ATOM     69  F   UNL A   1      41.790  27.633  25.562  1.00  0.00    -0.200 F 
ATOM     70  C   UNL A   1      40.371  26.140  26.717  1.00  0.00     0.200 A 
ATOM     71  F   UNL A   1      38.940  24.688  27.905  1.00  0.00    -0.200 F 
ATOM     72  F   UNL A   1      40.349  25.319  25.658  1.00  0.00    -0.200 F 
ENDBRANCH  48  62
BRANCH  49  73
ATOM     73  C   UNL A   1      39.571  33.885  36.845  1.00  0.00     0.064 A 
ATOM     74  C   UNL A   1      40.184  35.142  36.915  1.00  0.00     0.173 A 
ATOM     75  C   UNL A   1      38.779  33.478  37.928  1.00  0.00     0.173 A 
ATOM     76  F   UNL A   1      40.965  35.563  35.910  1.00  0.00    -0.203 F 
ATOM     77  C   UNL A   1      40.016  35.962  38.029  1.00  0.00     0.198 A 
ATOM     78  C   UNL A   1      38.593  34.309  39.032  1.00  0.00     0.198 A 
ATOM     79  F   UNL A   1      38.168  32.286  37.905  1.00  0.00    -0.203 F 
ATOM     80  F   UNL A   1      40.635  37.148  38.084  1.00  0.00    -0.200 F 
ATOM     81  C   UNL A   1      39.215  35.547  39.083  1.00  0.00     0.200 A 
ATOM     82  F   UNL A   1      37.807  33.911  40.042  1.00  0.00    -0.200 F 
ATOM     83  F   UNL A   1      39.043  36.341  40.149  1.00  0.00    -0.200 F 
ENDBRANCH  49  73
BRANCH  61  84
ATOM     84  C   UNL A   1      43.973  28.760  35.121  1.00  0.00     0.064 A 
ATOM     85  C   UNL A   1      45.273  29.262  34.967  1.00  0.00     0.173 A 
ATOM     86  C   UNL A   1      43.785  27.677  35.992  1.00  0.00     0.173 A 
ATOM     87  F   UNL A   1      45.507  30.287  34.132  1.00  0.00    -0.203 F 
ATOM     88  C   UNL A   1      46.347  28.687  35.643  1.00  0.00     0.198 A 
ATOM     89  C   UNL A   1      44.857  27.122  36.686  1.00  0.00     0.198 A 
ATOM     90  F   UNL A   1      42.560  27.162  36.177  1.00  0.00    -0.203 F 
ATOM     91  F   UNL A   1      47.587  29.155  35.448  1.00  0.00    -0.200 F 
ATOM     92  C   UNL A   1      46.137  27.622  36.506  1.00  0.00     0.200 A 
ATOM     93  F   UNL A   1      44.650  26.100  37.529  1.00  0.00    -0.200 F 
ATOM     94  F   UNL A   1      47.170  27.075  37.160  1.00  0.00    -0.200 F 
ENDBRANCH  61  84
ENDBRANCH  35  36
ENDBRANCH  27  30
ENDBRANCH  25  26
ENDBRANCH  24  25
ENDBRANCH  23  24
ENDBRANCH   1  23
TORSDOF 16
ENDMDL
