MODEL 1
REMARK VINA RESULT:     -12.4      0.000      0.000
REMARK SMILES CC(C)c1cccc2c1N[C@H](c1ccc(C(=O)NCCCCCCNC(=O)c3ccc(-c4c5nc(c(-c6c(F)c(F)c(F)c(F)c6F)c6ccc([nH]6)c(-c6c(F)c(F)c(F)c(F)c6F)c6nc(c(-c7c(F)c(F)c(F)c(F)c7F)c7ccc4[nH]7)C=C6)C=C5)cc3)cc1)[C@H]1CC=C[C@H]21
REMARK SMILES IDX 21 1 20 2 19 3 18 4 16 5 17 6 15 8 12 9 13 10 92 11 14 12
REMARK SMILES IDX 91 13 11 14 4 15 5 16 9 17 6 18 8 19 10 20 7 21 97 22 93 24
REMARK SMILES IDX 96 25 94 26 95 27 2 28 1 29 3 30 22 31 23 32 24 33 25 34
REMARK SMILES IDX 26 35 27 37 28 38 29 39 90 40 30 41 89 42 31 43 32 44 33 45
REMARK SMILES IDX 83 46 34 47 88 48 82 49 84 50 35 51 87 52 81 53 80 54 36 56
REMARK SMILES IDX 68 57 48 58 67 59 49 60 52 61 66 62 85 63 50 64 51 65 65 67
REMARK SMILES IDX 86 68 53 69 37 70 38 71 46 72 39 73 40 74 44 75 47 76 41 77
REMARK SMILES IDX 42 78 45 79 43 80 69 81 70 82 78 83 71 84 72 85 76 86 79 87
REMARK SMILES IDX 73 88 74 89 77 90 75 91 54 92 55 93 63 94 56 95 57 96 61 97
REMARK SMILES IDX 64 98 58 99 59 100 62 101 60 102
REMARK H PARENT 18 7 10 23 25 36 84 55 52 66
REMARK Flexibility Score: inf
ROOT
ATOM      1  C   UNL A   1      34.157  23.087  22.796  1.00  0.00     0.002 C 
ENDROOT
BRANCH   1   2
ATOM      2  C   UNL A   1      32.879  22.278  22.576  1.00  0.00     0.021 C 
BRANCH   2   3
ATOM      3  C   UNL A   1      31.892  22.238  23.735  1.00  0.00     0.116 C 
BRANCH   3   4
ATOM      4  N   UNL A   1      32.360  21.548  24.928  1.00  0.00    -0.352 N 
ATOM      5  C   UNL A   1      32.821  22.092  26.116  1.00  0.00     0.251 C 
ATOM      6  O   UNL A   1      33.221  21.361  27.017  1.00  0.00    -0.269 OA
ATOM      7  H   UNL A   1      32.347  20.565  24.886  1.00  0.00     0.163 HD
BRANCH   5   8
ATOM      8  C   UNL A   1      32.893  23.568  26.271  1.00  0.00     0.039 A 
ATOM      9  C   UNL A   1      32.899  26.378  25.923  1.00  0.00    -0.025 A 
ATOM     10  C   UNL A   1      34.100  25.639  25.936  1.00  0.00     0.006 A 
ATOM     11  C   UNL A   1      31.751  25.685  26.327  1.00  0.00     0.006 A 
ATOM     12  C   UNL A   1      34.098  24.240  26.075  1.00  0.00     0.014 A 
ATOM     13  C   UNL A   1      31.750  24.307  26.537  1.00  0.00     0.014 A 
BRANCH   9  14
ATOM     14  C   UNL A   1      32.867  27.866  25.511  1.00  0.00     0.114 C 
ATOM     15  C   UNL A   1      29.839  29.613  23.898  1.00  0.00    -0.022 A 
ATOM     16  C   UNL A   1      29.228  30.891  23.910  1.00  0.00     0.006 A 
ATOM     17  C   UNL A   1      30.977  29.392  24.712  1.00  0.00     0.042 A 
ATOM     18  C   UNL A   1      29.749  31.946  24.647  1.00  0.00     0.001 A 
ATOM     19  C   UNL A   1      31.529  30.496  25.406  1.00  0.00    -0.017 A 
ATOM     20  N   UNL A   1      31.590  28.141  24.800  1.00  0.00    -0.377 N 
ATOM     21  C   UNL A   1      30.913  31.757  25.371  1.00  0.00     0.006 A 
ATOM     22  C   UNL A   1      32.862  30.304  26.058  1.00  0.00     0.049 C 
ATOM     23  H   UNL A   1      31.144  27.385  24.357  1.00  0.00     0.161 HD
ATOM     24  C   UNL A   1      32.979  28.894  26.660  1.00  0.00     0.031 C 
ATOM     25  C   UNL A   1      33.274  31.143  27.233  1.00  0.00    -0.023 C 
ATOM     26  C   UNL A   1      34.253  29.040  27.507  1.00  0.00     0.034 C 
ATOM     27  C   UNL A   1      34.105  30.443  28.015  1.00  0.00    -0.030 C 
BRANCH  15  28
ATOM     28  C   UNL A   1      29.183  28.595  22.968  1.00  0.00     0.015 C 
ATOM     29  C   UNL A   1      28.797  27.254  23.595  1.00  0.00     0.012 C 
ATOM     30  C   UNL A   1      28.015  29.220  22.204  1.00  0.00     0.012 C 
ENDBRANCH  15  28
ENDBRANCH   9  14
ENDBRANCH   5   8
ENDBRANCH   3   4
ENDBRANCH   2   3
ENDBRANCH   1   2
BRANCH   1  31
ATOM     31  C   UNL A   1      35.330  22.359  23.457  1.00  0.00     0.002 C 
BRANCH  31  32
ATOM     32  C   UNL A   1      36.679  23.081  23.457  1.00  0.00     0.021 C 
BRANCH  32  33
ATOM     33  C   UNL A   1      37.233  23.481  24.820  1.00  0.00     0.116 C 
BRANCH  33  34
ATOM     34  N   UNL A   1      38.219  22.552  25.345  1.00  0.00    -0.352 N 
ATOM     35  C   UNL A   1      39.289  22.773  26.184  1.00  0.00     0.251 C 
ATOM     36  H   UNL A   1      38.105  21.618  25.056  1.00  0.00     0.163 HD
ATOM     37  O   UNL A   1      40.067  21.863  26.438  1.00  0.00    -0.269 OA
BRANCH  35  38
ATOM     38  C   UNL A   1      39.533  24.124  26.746  1.00  0.00     0.039 A 
ATOM     39  C   UNL A   1      40.148  25.124  25.992  1.00  0.00     0.014 A 
ATOM     40  C   UNL A   1      39.138  24.388  28.061  1.00  0.00     0.014 A 
ATOM     41  C   UNL A   1      40.528  26.315  26.604  1.00  0.00     0.010 A 
ATOM     42  C   UNL A   1      39.443  25.621  28.649  1.00  0.00     0.010 A 
ATOM     43  C   UNL A   1      40.189  26.575  27.942  1.00  0.00    -0.014 A 
BRANCH  43  44
ATOM     44  C   UNL A   1      40.637  27.842  28.579  1.00  0.00     0.031 A 
ATOM     45  C   UNL A   1      42.097  28.097  28.844  1.00  0.00     0.074 A 
ATOM     46  C   UNL A   1      39.729  28.799  28.857  1.00  0.00     0.049 A 
ATOM     47  N   UNL A   1      42.673  29.161  29.349  1.00  0.00    -0.248 NA
ATOM     48  C   UNL A   1      43.038  27.019  28.499  1.00  0.00     0.031 C 
ATOM     49  C   UNL A   1      38.288  28.677  28.634  1.00  0.00     0.029 A 
ATOM     50  N   UNL A   1      39.884  30.067  29.356  1.00  0.00    -0.354 N 
ATOM     51  C   UNL A   1      44.032  28.878  29.390  1.00  0.00     0.074 A 
ATOM     52  C   UNL A   1      44.197  27.528  28.896  1.00  0.00     0.031 C 
ATOM     53  C   UNL A   1      37.698  29.843  28.935  1.00  0.00     0.029 A 
ATOM     54  C   UNL A   1      38.708  30.774  29.430  1.00  0.00     0.049 A 
ATOM     55  H   UNL A   1      40.753  30.437  29.635  1.00  0.00     0.167 HD
ATOM     56  C   UNL A   1      45.052  29.677  29.787  1.00  0.00     0.037 A 
ATOM     57  C   UNL A   1      38.466  32.029  29.854  1.00  0.00     0.037 A 
ATOM     58  C   UNL A   1      44.890  31.026  30.264  1.00  0.00     0.049 A 
ATOM     59  C   UNL A   1      39.608  32.873  30.344  1.00  0.00     0.074 A 
ATOM     60  C   UNL A   1      45.865  31.917  30.677  1.00  0.00     0.029 A 
ATOM     61  N   UNL A   1      43.673  31.681  30.388  1.00  0.00    -0.354 N 
ATOM     62  N   UNL A   1      40.888  32.594  30.370  1.00  0.00    -0.248 NA
ATOM     63  C   UNL A   1      39.272  34.202  30.873  1.00  0.00     0.031 C 
ATOM     64  C   UNL A   1      45.236  33.094  31.093  1.00  0.00     0.029 A 
ATOM     65  C   UNL A   1      43.872  32.956  30.892  1.00  0.00     0.049 A 
ATOM     66  H   UNL A   1      42.797  31.295  30.154  1.00  0.00     0.167 HD
ATOM     67  C   UNL A   1      41.512  33.715  30.900  1.00  0.00     0.074 A 
ATOM     68  C   UNL A   1      40.471  34.686  31.168  1.00  0.00     0.031 C 
ATOM     69  C   UNL A   1      42.828  33.915  31.148  1.00  0.00     0.037 A 
BRANCH  56  70
ATOM     70  C   UNL A   1      46.445  29.122  29.722  1.00  0.00     0.064 A 
ATOM     71  C   UNL A   1      47.009  28.430  30.806  1.00  0.00     0.173 A 
ATOM     72  C   UNL A   1      47.198  29.214  28.541  1.00  0.00     0.173 A 
ATOM     73  F   UNL A   1      46.335  28.320  31.960  1.00  0.00    -0.203 F 
ATOM     74  C   UNL A   1      48.278  27.866  30.713  1.00  0.00     0.198 A 
ATOM     75  C   UNL A   1      48.455  28.625  28.443  1.00  0.00     0.198 A 
ATOM     76  F   UNL A   1      46.702  29.857  27.473  1.00  0.00    -0.203 F 
ATOM     77  F   UNL A   1      48.809  27.238  31.772  1.00  0.00    -0.200 F 
ATOM     78  C   UNL A   1      48.997  27.956  29.530  1.00  0.00     0.200 A 
ATOM     79  F   UNL A   1      49.142  28.700  27.295  1.00  0.00    -0.200 F 
ATOM     80  F   UNL A   1      50.212  27.398  29.438  1.00  0.00    -0.200 F 
ENDBRANCH  56  70
BRANCH  57  81
ATOM     81  C   UNL A   1      37.080  32.562  29.812  1.00  0.00     0.064 A 
ATOM     82  C   UNL A   1      36.209  32.381  30.894  1.00  0.00     0.173 A 
ATOM     83  C   UNL A   1      36.610  33.291  28.709  1.00  0.00     0.173 A 
ATOM     84  F   UNL A   1      36.605  31.674  31.962  1.00  0.00    -0.203 F 
ATOM     85  C   UNL A   1      34.918  32.908  30.874  1.00  0.00     0.198 A 
ATOM     86  C   UNL A   1      35.330  33.842  28.702  1.00  0.00     0.198 A 
ATOM     87  F   UNL A   1      37.406  33.494  27.649  1.00  0.00    -0.203 F 
ATOM     88  F   UNL A   1      34.096  32.698  31.910  1.00  0.00    -0.200 F 
ATOM     89  C   UNL A   1      34.485  33.647  29.783  1.00  0.00     0.200 A 
ATOM     90  F   UNL A   1      34.921  34.569  27.653  1.00  0.00    -0.200 F 
ATOM     91  F   UNL A   1      33.251  34.169  29.773  1.00  0.00    -0.200 F 
ENDBRANCH  57  81
BRANCH  69  92
ATOM     92  C   UNL A   1      43.234  35.241  31.721  1.00  0.00     0.064 A 
ATOM     93  C   UNL A   1      43.639  36.301  30.897  1.00  0.00     0.173 A 
ATOM     94  C   UNL A   1      43.140  35.478  33.101  1.00  0.00     0.173 A 
ATOM     95  F   UNL A   1      43.758  36.119  29.573  1.00  0.00    -0.203 F 
ATOM     96  C   UNL A   1      43.944  37.548  31.436  1.00  0.00     0.198 A 
ATOM     97  C   UNL A   1      43.420  36.734  33.632  1.00  0.00     0.198 A 
ATOM     98  F   UNL A   1      42.750  34.498  33.930  1.00  0.00    -0.203 F 
ATOM     99  F   UNL A   1      44.358  38.539  30.633  1.00  0.00    -0.200 F 
ATOM    100  C   UNL A   1      43.825  37.766  32.800  1.00  0.00     0.200 A 
ATOM    101  F   UNL A   1      43.288  36.946  34.949  1.00  0.00    -0.200 F 
ATOM    102  F   UNL A   1      44.100  38.973  33.314  1.00  0.00    -0.200 F 
ENDBRANCH  69  92
ENDBRANCH  43  44
ENDBRANCH  35  38
ENDBRANCH  33  34
ENDBRANCH  32  33
ENDBRANCH  31  32
ENDBRANCH   1  31
TORSDOF 15
ENDMDL
MODEL 2
REMARK VINA RESULT:     -12.3      4.695      9.963
REMARK SMILES CC(C)c1cccc2c1N[C@H](c1ccc(C(=O)NCCCCCCNC(=O)c3ccc(-c4c5nc(c(-c6c(F)c(F)c(F)c(F)c6F)c6ccc([nH]6)c(-c6c(F)c(F)c(F)c(F)c6F)c6nc(c(-c7c(F)c(F)c(F)c(F)c7F)c7ccc4[nH]7)C=C6)C=C5)cc3)cc1)[C@H]1CC=C[C@H]21
REMARK SMILES IDX 21 1 20 2 19 3 18 4 16 5 17 6 15 8 12 9 13 10 92 11 14 12
REMARK SMILES IDX 91 13 11 14 4 15 5 16 9 17 6 18 8 19 10 20 7 21 97 22 93 24
REMARK SMILES IDX 96 25 94 26 95 27 2 28 1 29 3 30 22 31 23 32 24 33 25 34
REMARK SMILES IDX 26 35 27 37 28 38 29 39 90 40 30 41 89 42 31 43 32 44 33 45
REMARK SMILES IDX 83 46 34 47 88 48 82 49 84 50 35 51 87 52 81 53 80 54 36 56
REMARK SMILES IDX 68 57 48 58 67 59 49 60 52 61 66 62 85 63 50 64 51 65 65 67
REMARK SMILES IDX 86 68 53 69 37 70 38 71 46 72 39 73 40 74 44 75 47 76 41 77
REMARK SMILES IDX 42 78 45 79 43 80 69 81 70 82 78 83 71 84 72 85 76 86 79 87
REMARK SMILES IDX 73 88 74 89 77 90 75 91 54 92 55 93 63 94 56 95 57 96 61 97
REMARK SMILES IDX 64 98 58 99 59 100 62 101 60 102
REMARK H PARENT 18 7 10 23 25 36 84 55 52 66
REMARK Flexibility Score: inf
ROOT
ATOM      1  C   UNL A   1      35.652  33.380  28.136  1.00  0.00     0.002 C 
ENDROOT
BRANCH   1   2
ATOM      2  C   UNL A   1      35.931  31.923  27.768  1.00  0.00     0.021 C 
BRANCH   2   3
ATOM      3  C   UNL A   1      34.833  30.918  28.089  1.00  0.00     0.116 C 
BRANCH   3   4
ATOM      4  N   UNL A   1      33.521  31.235  27.544  1.00  0.00    -0.352 N 
ATOM      5  C   UNL A   1      32.792  30.545  26.589  1.00  0.00     0.251 C 
ATOM      6  O   UNL A   1      31.708  30.976  26.208  1.00  0.00    -0.269 OA
ATOM      7  H   UNL A   1      33.094  32.046  27.903  1.00  0.00     0.163 HD
BRANCH   5   8
ATOM      8  C   UNL A   1      33.358  29.317  25.977  1.00  0.00     0.039 A 
ATOM      9  C   UNL A   1      33.805  26.820  24.717  1.00  0.00    -0.025 A 
ATOM     10  C   UNL A   1      33.828  26.946  26.122  1.00  0.00     0.006 A 
ATOM     11  C   UNL A   1      33.792  28.021  23.996  1.00  0.00     0.006 A 
ATOM     12  C   UNL A   1      33.574  28.177  26.751  1.00  0.00     0.014 A 
ATOM     13  C   UNL A   1      33.610  29.256  24.614  1.00  0.00     0.014 A 
BRANCH   9  14
ATOM     14  C   UNL A   1      33.821  25.438  24.028  1.00  0.00     0.114 C 
ATOM     15  C   UNL A   1      36.077  22.503  25.087  1.00  0.00    -0.022 A 
ATOM     16  C   UNL A   1      36.014  21.090  25.141  1.00  0.00     0.006 A 
ATOM     17  C   UNL A   1      34.942  23.222  24.638  1.00  0.00     0.042 A 
ATOM     18  C   UNL A   1      34.896  20.388  24.708  1.00  0.00     0.001 A 
ATOM     19  C   UNL A   1      33.838  22.487  24.142  1.00  0.00    -0.017 A 
ATOM     20  N   UNL A   1      34.910  24.617  24.621  1.00  0.00    -0.377 N 
ATOM     21  C   UNL A   1      33.822  21.085  24.183  1.00  0.00     0.006 A 
ATOM     22  C   UNL A   1      32.756  23.253  23.447  1.00  0.00     0.049 C 
ATOM     23  H   UNL A   1      35.667  25.094  25.031  1.00  0.00     0.161 HD
ATOM     24  C   UNL A   1      32.520  24.610  24.131  1.00  0.00     0.031 C 
ATOM     25  C   UNL A   1      31.353  22.724  23.387  1.00  0.00    -0.023 C 
ATOM     26  C   UNL A   1      31.210  25.054  23.460  1.00  0.00     0.034 C 
ATOM     27  C   UNL A   1      30.489  23.746  23.335  1.00  0.00    -0.030 C 
BRANCH  15  28
ATOM     28  C   UNL A   1      37.411  23.105  25.524  1.00  0.00     0.015 C 
ATOM     29  C   UNL A   1      37.373  24.024  26.746  1.00  0.00     0.012 C 
ATOM     30  C   UNL A   1      38.483  22.024  25.662  1.00  0.00     0.012 C 
ENDBRANCH  15  28
ENDBRANCH   9  14
ENDBRANCH   5   8
ENDBRANCH   3   4
ENDBRANCH   2   3
ENDBRANCH   1   2
BRANCH   1  31
ATOM     31  C   UNL A   1      34.669  33.626  29.283  1.00  0.00     0.002 C 
BRANCH  31  32
ATOM     32  C   UNL A   1      33.426  34.458  28.962  1.00  0.00     0.021 C 
BRANCH  32  33
ATOM     33  C   UNL A   1      33.374  35.858  29.564  1.00  0.00     0.116 C 
BRANCH  33  34
ATOM     34  N   UNL A   1      32.410  35.993  30.643  1.00  0.00    -0.352 N 
ATOM     35  C   UNL A   1      32.496  35.612  31.964  1.00  0.00     0.251 C 
ATOM     36  H   UNL A   1      31.562  36.425  30.391  1.00  0.00     0.163 HD
ATOM     37  O   UNL A   1      31.527  35.732  32.701  1.00  0.00    -0.269 OA
BRANCH  35  38
ATOM     38  C   UNL A   1      33.747  35.013  32.489  1.00  0.00     0.039 A 
ATOM     39  C   UNL A   1      34.935  35.743  32.542  1.00  0.00     0.014 A 
ATOM     40  C   UNL A   1      33.725  33.687  32.934  1.00  0.00     0.014 A 
ATOM     41  C   UNL A   1      36.127  35.099  32.865  1.00  0.00     0.010 A 
ATOM     42  C   UNL A   1      34.910  33.066  33.343  1.00  0.00     0.010 A 
ATOM     43  C   UNL A   1      36.131  33.751  33.260  1.00  0.00    -0.014 A 
BRANCH  43  44
ATOM     44  C   UNL A   1      37.423  33.081  33.567  1.00  0.00     0.031 A 
ATOM     45  C   UNL A   1      38.133  33.339  34.869  1.00  0.00     0.074 A 
ATOM     46  C   UNL A   1      37.925  32.183  32.697  1.00  0.00     0.049 A 
ATOM     47  N   UNL A   1      39.243  32.810  35.325  1.00  0.00    -0.248 NA
ATOM     48  C   UNL A   1      37.522  34.317  35.783  1.00  0.00     0.031 C 
ATOM     49  C   UNL A   1      37.323  31.836  31.409  1.00  0.00     0.029 A 
ATOM     50  N   UNL A   1      39.032  31.377  32.775  1.00  0.00    -0.354 N 
ATOM     51  C   UNL A   1      39.465  33.395  36.565  1.00  0.00     0.074 A 
ATOM     52  C   UNL A   1      38.397  34.347  36.779  1.00  0.00     0.031 C 
ATOM     53  C   UNL A   1      38.031  30.846  30.846  1.00  0.00     0.029 A 
ATOM     54  C   UNL A   1      39.171  30.530  31.702  1.00  0.00     0.049 A 
ATOM     55  H   UNL A   1      39.667  31.402  33.527  1.00  0.00     0.167 HD
ATOM     56  C   UNL A   1      40.458  33.146  37.453  1.00  0.00     0.037 A 
ATOM     57  C   UNL A   1      40.112  29.605  31.432  1.00  0.00     0.037 A 
ATOM     58  C   UNL A   1      41.511  32.186  37.247  1.00  0.00     0.049 A 
ATOM     59  C   UNL A   1      41.235  29.392  32.407  1.00  0.00     0.074 A 
ATOM     60  C   UNL A   1      42.555  31.857  38.095  1.00  0.00     0.029 A 
ATOM     61  N   UNL A   1      41.653  31.398  36.115  1.00  0.00    -0.354 N 
ATOM     62  N   UNL A   1      41.427  29.947  33.578  1.00  0.00    -0.248 NA
ATOM     63  C   UNL A   1      42.277  28.432  32.019  1.00  0.00     0.031 C 
ATOM     64  C   UNL A   1      43.353  30.902  37.458  1.00  0.00     0.029 A 
ATOM     65  C   UNL A   1      42.780  30.599  36.233  1.00  0.00     0.049 A 
ATOM     66  H   UNL A   1      41.044  31.405  35.341  1.00  0.00     0.167 HD
ATOM     67  C   UNL A   1      42.599  29.394  34.074  1.00  0.00     0.074 A 
ATOM     68  C   UNL A   1      43.066  28.446  33.084  1.00  0.00     0.031 C 
ATOM     69  C   UNL A   1      43.231  29.655  35.243  1.00  0.00     0.037 A 
BRANCH  56  70
ATOM     70  C   UNL A   1      40.460  33.920  38.739  1.00  0.00     0.064 A 
ATOM     71  C   UNL A   1      39.748  33.475  39.864  1.00  0.00     0.173 A 
ATOM     72  C   UNL A   1      41.240  35.079  38.874  1.00  0.00     0.173 A 
ATOM     73  F   UNL A   1      38.980  32.379  39.786  1.00  0.00    -0.203 F 
ATOM     74  C   UNL A   1      39.806  34.170  41.069  1.00  0.00     0.198 A 
ATOM     75  C   UNL A   1      41.318  35.755  40.089  1.00  0.00     0.198 A 
ATOM     76  F   UNL A   1      41.947  35.543  37.832  1.00  0.00    -0.203 F 
ATOM     77  F   UNL A   1      39.092  33.743  42.120  1.00  0.00    -0.200 F 
ATOM     78  C   UNL A   1      40.597  35.303  41.184  1.00  0.00     0.200 A 
ATOM     79  F   UNL A   1      42.094  36.841  40.202  1.00  0.00    -0.200 F 
ATOM     80  F   UNL A   1      40.664  35.960  42.350  1.00  0.00    -0.200 F 
ENDBRANCH  56  70
BRANCH  57  81
ATOM     81  C   UNL A   1      40.013  28.802  30.187  1.00  0.00     0.064 A 
ATOM     82  C   UNL A   1      40.578  29.261  28.990  1.00  0.00     0.173 A 
ATOM     83  C   UNL A   1      39.385  27.547  30.174  1.00  0.00     0.173 A 
ATOM     84  F   UNL A   1      41.172  30.462  28.947  1.00  0.00    -0.203 F 
ATOM     85  C   UNL A   1      40.519  28.495  27.826  1.00  0.00     0.198 A 
ATOM     86  C   UNL A   1      39.351  26.770  29.017  1.00  0.00     0.198 A 
ATOM     87  F   UNL A   1      38.830  27.063  31.294  1.00  0.00    -0.203 F 
ATOM     88  F   UNL A   1      41.044  28.969  26.689  1.00  0.00    -0.200 F 
ATOM     89  C   UNL A   1      39.915  27.247  27.844  1.00  0.00     0.200 A 
ATOM     90  F   UNL A   1      38.780  25.558  29.043  1.00  0.00    -0.200 F 
ATOM     91  F   UNL A   1      39.874  26.505  26.730  1.00  0.00    -0.200 F 
ENDBRANCH  57  81
BRANCH  69  92
ATOM     92  C   UNL A   1      44.490  28.895  35.537  1.00  0.00     0.064 A 
ATOM     93  C   UNL A   1      44.462  27.660  36.200  1.00  0.00     0.173 A 
ATOM     94  C   UNL A   1      45.730  29.370  35.081  1.00  0.00     0.173 A 
ATOM     95  F   UNL A   1      43.304  27.171  36.667  1.00  0.00    -0.203 F 
ATOM     96  C   UNL A   1      45.632  26.931  36.403  1.00  0.00     0.198 A 
ATOM     97  C   UNL A   1      46.892  28.626  35.262  1.00  0.00     0.198 A 
ATOM     98  F   UNL A   1      45.809  30.543  34.435  1.00  0.00    -0.203 F 
ATOM     99  F   UNL A   1      45.586  25.767  37.065  1.00  0.00    -0.200 F 
ATOM    100  C   UNL A   1      46.843  27.409  35.925  1.00  0.00     0.200 A 
ATOM    101  F   UNL A   1      48.059  29.083  34.785  1.00  0.00    -0.200 F 
ATOM    102  F   UNL A   1      47.964  26.697  36.104  1.00  0.00    -0.200 F 
ENDBRANCH  69  92
ENDBRANCH  43  44
ENDBRANCH  35  38
ENDBRANCH  33  34
ENDBRANCH  32  33
ENDBRANCH  31  32
ENDBRANCH   1  31
TORSDOF 15
ENDMDL
MODEL 3
REMARK VINA RESULT:     -12.1      2.109      3.187
REMARK SMILES CC(C)c1cccc2c1N[C@H](c1ccc(C(=O)NCCCCCCNC(=O)c3ccc(-c4c5nc(c(-c6c(F)c(F)c(F)c(F)c6F)c6ccc([nH]6)c(-c6c(F)c(F)c(F)c(F)c6F)c6nc(c(-c7c(F)c(F)c(F)c(F)c7F)c7ccc4[nH]7)C=C6)C=C5)cc3)cc1)[C@H]1CC=C[C@H]21
REMARK SMILES IDX 21 1 20 2 19 3 18 4 16 5 17 6 15 8 12 9 13 10 92 11 14 12
REMARK SMILES IDX 91 13 11 14 4 15 5 16 9 17 6 18 8 19 10 20 7 21 97 22 93 24
REMARK SMILES IDX 96 25 94 26 95 27 2 28 1 29 3 30 22 31 23 32 24 33 25 34
REMARK SMILES IDX 26 35 27 37 28 38 29 39 90 40 30 41 89 42 31 43 32 44 33 45
REMARK SMILES IDX 83 46 34 47 88 48 82 49 84 50 35 51 87 52 81 53 80 54 36 56
REMARK SMILES IDX 68 57 48 58 67 59 49 60 52 61 66 62 85 63 50 64 51 65 65 67
REMARK SMILES IDX 86 68 53 69 37 70 38 71 46 72 39 73 40 74 44 75 47 76 41 77
REMARK SMILES IDX 42 78 45 79 43 80 69 81 70 82 78 83 71 84 72 85 76 86 79 87
REMARK SMILES IDX 73 88 74 89 77 90 75 91 54 92 55 93 63 94 56 95 57 96 61 97
REMARK SMILES IDX 64 98 58 99 59 100 62 101 60 102
REMARK H PARENT 18 7 10 23 25 36 84 55 52 66
REMARK Flexibility Score: inf
ROOT
ATOM      1  C   UNL A   1      34.482  23.379  23.012  1.00  0.00     0.002 C 
ENDROOT
BRANCH   1   2
ATOM      2  C   UNL A   1      33.377  22.393  22.634  1.00  0.00     0.021 C 
BRANCH   2   3
ATOM      3  C   UNL A   1      32.248  22.218  23.641  1.00  0.00     0.116 C 
BRANCH   3   4
ATOM      4  N   UNL A   1      32.614  21.534  24.872  1.00  0.00    -0.352 N 
ATOM      5  C   UNL A   1      32.956  22.082  26.098  1.00  0.00     0.251 C 
ATOM      6  O   UNL A   1      33.282  21.356  27.032  1.00  0.00    -0.269 OA
ATOM      7  H   UNL A   1      32.620  20.550  24.830  1.00  0.00     0.163 HD
BRANCH   5   8
ATOM      8  C   UNL A   1      32.992  23.558  26.259  1.00  0.00     0.039 A 
ATOM      9  C   UNL A   1      32.959  26.369  25.917  1.00  0.00    -0.025 A 
ATOM     10  C   UNL A   1      34.172  25.653  25.984  1.00  0.00     0.006 A 
ATOM     11  C   UNL A   1      31.808  25.653  26.267  1.00  0.00     0.006 A 
ATOM     12  C   UNL A   1      34.191  24.255  26.120  1.00  0.00     0.014 A 
ATOM     13  C   UNL A   1      31.824  24.275  26.474  1.00  0.00     0.014 A 
BRANCH   9  14
ATOM     14  C   UNL A   1      32.918  27.857  25.507  1.00  0.00     0.114 C 
ATOM     15  C   UNL A   1      29.888  29.580  23.870  1.00  0.00    -0.022 A 
ATOM     16  C   UNL A   1      29.266  30.851  23.878  1.00  0.00     0.006 A 
ATOM     17  C   UNL A   1      31.020  29.367  24.694  1.00  0.00     0.042 A 
ATOM     18  C   UNL A   1      29.770  31.911  24.622  1.00  0.00     0.001 A 
ATOM     19  C   UNL A   1      31.556  30.475  25.394  1.00  0.00    -0.017 A 
ATOM     20  N   UNL A   1      31.644  28.122  24.785  1.00  0.00    -0.377 N 
ATOM     21  C   UNL A   1      30.930  31.731  25.355  1.00  0.00     0.006 A 
ATOM     22  C   UNL A   1      32.886  30.295  26.058  1.00  0.00     0.049 C 
ATOM     23  H   UNL A   1      31.209  27.362  24.337  1.00  0.00     0.161 HD
ATOM     24  C   UNL A   1      33.010  28.885  26.659  1.00  0.00     0.031 C 
ATOM     25  C   UNL A   1      33.279  31.135  27.238  1.00  0.00    -0.023 C 
ATOM     26  C   UNL A   1      34.275  29.041  27.517  1.00  0.00     0.034 C 
ATOM     27  C   UNL A   1      34.110  30.442  28.026  1.00  0.00    -0.030 C 
BRANCH  15  28
ATOM     28  C   UNL A   1      29.250  28.557  22.932  1.00  0.00     0.015 C 
ATOM     29  C   UNL A   1      28.930  27.189  23.538  1.00  0.00     0.012 C 
ATOM     30  C   UNL A   1      28.041  29.152  22.210  1.00  0.00     0.012 C 
ENDBRANCH  15  28
ENDBRANCH   9  14
ENDBRANCH   5   8
ENDBRANCH   3   4
ENDBRANCH   2   3
ENDBRANCH   1   2
BRANCH   1  31
ATOM     31  C   UNL A   1      35.889  22.802  23.193  1.00  0.00     0.002 C 
BRANCH  31  32
ATOM     32  C   UNL A   1      36.051  21.688  24.228  1.00  0.00     0.021 C 
BRANCH  32  33
ATOM     33  C   UNL A   1      36.976  21.984  25.403  1.00  0.00     0.116 C 
BRANCH  33  34
ATOM     34  N   UNL A   1      38.001  20.975  25.607  1.00  0.00    -0.352 N 
ATOM     35  C   UNL A   1      39.273  21.092  26.123  1.00  0.00     0.251 C 
ATOM     36  H   UNL A   1      37.748  20.064  25.335  1.00  0.00     0.163 HD
ATOM     37  O   UNL A   1      40.025  20.128  26.127  1.00  0.00    -0.269 OA
BRANCH  35  38
ATOM     38  C   UNL A   1      39.755  22.398  26.635  1.00  0.00     0.039 A 
ATOM     39  C   UNL A   1      39.250  23.602  26.142  1.00  0.00     0.014 A 
ATOM     40  C   UNL A   1      40.738  22.413  27.629  1.00  0.00     0.014 A 
ATOM     41  C   UNL A   1      39.850  24.804  26.507  1.00  0.00     0.010 A 
ATOM     42  C   UNL A   1      41.281  23.628  28.060  1.00  0.00     0.010 A 
ATOM     43  C   UNL A   1      40.880  24.832  27.462  1.00  0.00    -0.014 A 
BRANCH  43  44
ATOM     44  C   UNL A   1      41.525  26.127  27.808  1.00  0.00     0.031 A 
ATOM     45  C   UNL A   1      42.906  26.456  27.308  1.00  0.00     0.074 A 
ATOM     46  C   UNL A   1      40.834  27.040  28.519  1.00  0.00     0.049 A 
ATOM     47  N   UNL A   1      43.605  27.554  27.473  1.00  0.00    -0.248 NA
ATOM     48  C   UNL A   1      43.598  25.423  26.521  1.00  0.00     0.031 C 
ATOM     49  C   UNL A   1      39.483  26.845  29.047  1.00  0.00     0.029 A 
ATOM     50  N   UNL A   1      41.156  28.320  28.892  1.00  0.00    -0.354 N 
ATOM     51  C   UNL A   1      44.813  27.339  26.822  1.00  0.00     0.074 A 
ATOM     52  C   UNL A   1      44.772  25.994  26.291  1.00  0.00     0.031 C 
ATOM     53  C   UNL A   1      39.068  27.983  29.621  1.00  0.00     0.029 A 
ATOM     54  C   UNL A   1      40.143  28.969  29.558  1.00  0.00     0.049 A 
ATOM     55  H   UNL A   1      42.028  28.735  28.703  1.00  0.00     0.167 HD
ATOM     56  C   UNL A   1      45.854  28.192  26.665  1.00  0.00     0.037 A 
ATOM     57  C   UNL A   1      40.087  30.215  30.065  1.00  0.00     0.037 A 
ATOM     58  C   UNL A   1      45.888  29.537  27.180  1.00  0.00     0.049 A 
ATOM     59  C   UNL A   1      41.278  31.119  29.929  1.00  0.00     0.074 A 
ATOM     60  C   UNL A   1      46.895  30.479  27.063  1.00  0.00     0.029 A 
ATOM     61  N   UNL A   1      44.868  30.131  27.909  1.00  0.00    -0.354 N 
ATOM     62  N   UNL A   1      42.410  30.905  29.304  1.00  0.00    -0.248 NA
ATOM     63  C   UNL A   1      41.189  32.436  30.575  1.00  0.00     0.031 C 
ATOM     64  C   UNL A   1      46.503  31.628  27.756  1.00  0.00     0.029 A 
ATOM     65  C   UNL A   1      45.231  31.420  28.265  1.00  0.00     0.049 A 
ATOM     66  H   UNL A   1      44.013  29.700  28.139  1.00  0.00     0.167 HD
ATOM     67  C   UNL A   1      43.160  32.061  29.468  1.00  0.00     0.074 A 
ATOM     68  C   UNL A   1      42.348  32.981  30.237  1.00  0.00     0.031 C 
ATOM     69  C   UNL A   1      44.411  32.329  29.024  1.00  0.00     0.037 A 
BRANCH  56  70
ATOM     70  C   UNL A   1      47.052  27.706  25.902  1.00  0.00     0.064 A 
ATOM     71  C   UNL A   1      47.106  27.775  24.501  1.00  0.00     0.173 A 
ATOM     72  C   UNL A   1      48.188  27.235  26.579  1.00  0.00     0.173 A 
ATOM     73  F   UNL A   1      46.044  28.209  23.806  1.00  0.00    -0.203 F 
ATOM     74  C   UNL A   1      48.246  27.378  23.808  1.00  0.00     0.198 A 
ATOM     75  C   UNL A   1      49.336  26.865  25.884  1.00  0.00     0.198 A 
ATOM     76  F   UNL A   1      48.192  27.157  27.919  1.00  0.00    -0.203 F 
ATOM     77  F   UNL A   1      48.262  27.423  22.468  1.00  0.00    -0.200 F 
ATOM     78  C   UNL A   1      49.363  26.932  24.499  1.00  0.00     0.200 A 
ATOM     79  F   UNL A   1      50.419  26.448  26.553  1.00  0.00    -0.200 F 
ATOM     80  F   UNL A   1      50.464  26.565  23.829  1.00  0.00    -0.200 F 
ENDBRANCH  56  70
BRANCH  57  81
ATOM     81  C   UNL A   1      38.843  30.677  30.732  1.00  0.00     0.064 A 
ATOM     82  C   UNL A   1      38.674  30.532  32.115  1.00  0.00     0.173 A 
ATOM     83  C   UNL A   1      37.815  31.304  30.010  1.00  0.00     0.173 A 
ATOM     84  F   UNL A   1      39.619  29.923  32.845  1.00  0.00    -0.203 F 
ATOM     85  C   UNL A   1      37.524  30.996  32.752  1.00  0.00     0.198 A 
ATOM     86  C   UNL A   1      36.679  31.792  30.652  1.00  0.00     0.198 A 
ATOM     87  F   UNL A   1      37.930  31.468  28.685  1.00  0.00    -0.203 F 
ATOM     88  F   UNL A   1      37.376  30.821  34.072  1.00  0.00    -0.200 F 
ATOM     89  C   UNL A   1      36.533  31.634  32.022  1.00  0.00     0.200 A 
ATOM     90  F   UNL A   1      35.731  32.423  29.945  1.00  0.00    -0.200 F 
ATOM     91  F   UNL A   1      35.436  32.095  32.637  1.00  0.00    -0.200 F 
ENDBRANCH  57  81
BRANCH  69  92
ATOM     92  C   UNL A   1      44.985  33.679  29.337  1.00  0.00     0.064 A 
ATOM     93  C   UNL A   1      45.682  33.920  30.529  1.00  0.00     0.173 A 
ATOM     94  C   UNL A   1      44.906  34.721  28.398  1.00  0.00     0.173 A 
ATOM     95  F   UNL A   1      45.773  32.961  31.463  1.00  0.00    -0.203 F 
ATOM     96  C   UNL A   1      46.272  35.157  30.775  1.00  0.00     0.198 A 
ATOM     97  C   UNL A   1      45.520  35.946  28.636  1.00  0.00     0.198 A 
ATOM     98  F   UNL A   1      44.256  34.538  27.239  1.00  0.00    -0.203 F 
ATOM     99  F   UNL A   1      46.909  35.375  31.934  1.00  0.00    -0.200 F 
ATOM    100  C   UNL A   1      46.199  36.165  29.825  1.00  0.00     0.200 A 
ATOM    101  F   UNL A   1      45.461  36.913  27.710  1.00  0.00    -0.200 F 
ATOM    102  F   UNL A   1      46.785  37.349  30.055  1.00  0.00    -0.200 F 
ENDBRANCH  69  92
ENDBRANCH  43  44
ENDBRANCH  35  38
ENDBRANCH  33  34
ENDBRANCH  32  33
ENDBRANCH  31  32
ENDBRANCH   1  31
TORSDOF 15
ENDMDL
