MODEL 1
REMARK VINA RESULT:     -11.7      0.000      0.000
REMARK SMILES C[C@@](NC(=O)c1ccc(C[NH3+])o1)(C(=O)NCCCCCCNC(=O)c1ccc(-c2c3nc(c(-c4c(F)c(F)c(F)c(F)c4F)c4ccc([nH]4)c(-c4c(F)c(F)c(F)c(F)c4F)c4nc(c(-c5c(F)c(F)c(F)c(F)c5F)c5ccc2[nH]5)C=C4)C=C3)cc1)C1CC1
REMARK SMILES IDX 17 1 16 2 15 3 13 4 14 5 2 7 1 8 3 9 4 10 5 12 6 13 7 14
REMARK SMILES IDX 12 15 8 16 9 17 10 18 11 19 88 23 89 24 90 25 18 26 19 27
REMARK SMILES IDX 20 28 21 29 22 30 23 31 24 33 25 34 26 35 87 36 27 37 86 38
REMARK SMILES IDX 28 39 29 40 30 41 80 42 31 43 85 44 79 45 81 46 32 47 84 48
REMARK SMILES IDX 78 49 77 50 33 52 65 53 45 54 64 55 46 56 49 57 63 58 82 59
REMARK SMILES IDX 47 60 48 61 62 63 83 64 50 65 34 66 35 67 43 68 36 69 37 70
REMARK SMILES IDX 41 71 44 72 38 73 39 74 42 75 40 76 66 77 67 78 75 79 68 80
REMARK SMILES IDX 69 81 73 82 76 83 70 84 71 85 74 86 72 87 51 88 52 89 60 90
REMARK SMILES IDX 53 91 54 92 58 93 61 94 55 95 56 96 59 97 57 98
REMARK H PARENT 15 6 3 11 11 20 11 21 11 22 22 32 81 51 49 62
REMARK Flexibility Score: inf
ROOT
ATOM      1  C   UNL A   1      36.267  23.586  24.233  1.00  0.00     0.021 C 
ENDROOT
BRANCH   1   2
ATOM      2  C   UNL A   1      34.876  23.769  23.627  1.00  0.00     0.116 C 
BRANCH   2   3
ATOM      3  N   UNL A   1      33.977  24.430  24.558  1.00  0.00    -0.354 N 
ATOM      4  C   UNL A   1      32.617  24.549  24.564  1.00  0.00     0.245 C 
ATOM      5  O   UNL A   1      32.133  25.220  25.484  1.00  0.00    -0.272 OA
ATOM      6  H   UNL A   1      34.427  24.867  25.317  1.00  0.00     0.163 HD
BRANCH   4   7
ATOM      7  C   UNL A   1      31.723  24.014  23.389  1.00  0.00     0.119 C 
ATOM      8  C   UNL A   1      30.347  24.714  23.585  1.00  0.00     0.046 C 
BRANCH   7   9
ATOM      9  N   UNL A   1      32.222  24.352  22.049  1.00  0.00    -0.335 N 
ATOM     10  C   UNL A   1      32.627  25.544  21.493  1.00  0.00     0.287 C 
ATOM     11  H   UNL A   1      32.277  23.584  21.435  1.00  0.00     0.165 HD
ATOM     12  O   UNL A   1      33.177  25.465  20.392  1.00  0.00    -0.266 OA
BRANCH  10  13
ATOM     13  C   UNL A   1      32.322  26.809  22.129  1.00  0.00     0.191 A 
ATOM     14  C   UNL A   1      32.989  27.633  23.015  1.00  0.00     0.057 A 
ATOM     15  O   UNL A   1      31.108  27.376  21.828  1.00  0.00    -0.450 OA
ATOM     16  C   UNL A   1      32.139  28.736  23.278  1.00  0.00     0.052 A 
ATOM     17  C   UNL A   1      30.993  28.532  22.542  1.00  0.00     0.159 A 
BRANCH  17  18
ATOM     18  C   UNL A   1      29.718  29.293  22.431  1.00  0.00     0.335 C 
BRANCH  18  19
ATOM     19  N   UNL A   1      29.892  30.581  21.771  1.00  0.00    -0.351 N 
ATOM     20  H   UNL A   1      30.884  30.747  21.604  1.00  0.00     0.344 HD
ATOM     21  H   UNL A   1      29.519  31.321  22.366  1.00  0.00     0.344 HD
ATOM     22  H   UNL A   1      29.393  30.578  20.880  1.00  0.00     0.344 HD
ENDBRANCH  18  19
ENDBRANCH  17  18
ENDBRANCH  10  13
ENDBRANCH   7   9
BRANCH   7  23
ATOM     23  C   UNL A   1      31.440  22.509  23.509  1.00  0.00     0.024 C 
ATOM     24  C   UNL A   1      32.277  21.502  22.740  1.00  0.00     0.007 C 
ATOM     25  C   UNL A   1      32.285  21.482  24.237  1.00  0.00     0.007 C 
ENDBRANCH   7  23
ENDBRANCH   4   7
ENDBRANCH   2   3
ENDBRANCH   1   2
BRANCH   1  26
ATOM     26  C   UNL A   1      36.912  22.229  23.925  1.00  0.00     0.002 C 
BRANCH  26  27
ATOM     27  C   UNL A   1      36.775  21.174  25.026  1.00  0.00     0.002 C 
BRANCH  27  28
ATOM     28  C   UNL A   1      37.833  20.070  25.034  1.00  0.00     0.021 C 
BRANCH  28  29
ATOM     29  C   UNL A   1      39.110  20.386  25.801  1.00  0.00     0.116 C 
BRANCH  29  30
ATOM     30  N   UNL A   1      40.053  19.281  25.833  1.00  0.00    -0.352 N 
ATOM     31  C   UNL A   1      41.406  19.311  26.070  1.00  0.00     0.251 C 
ATOM     32  H   UNL A   1      39.672  18.390  25.662  1.00  0.00     0.163 HD
ATOM     33  O   UNL A   1      42.082  18.292  25.977  1.00  0.00    -0.269 OA
BRANCH  31  34
ATOM     34  C   UNL A   1      42.057  20.597  26.398  1.00  0.00     0.039 A 
ATOM     35  C   UNL A   1      42.457  21.431  25.351  1.00  0.00     0.014 A 
ATOM     36  C   UNL A   1      42.244  20.989  27.727  1.00  0.00     0.014 A 
ATOM     37  C   UNL A   1      42.977  22.695  25.635  1.00  0.00     0.010 A 
ATOM     38  C   UNL A   1      42.713  22.269  28.008  1.00  0.00     0.010 A 
ATOM     39  C   UNL A   1      43.075  23.136  26.964  1.00  0.00    -0.014 A 
BRANCH  39  40
ATOM     40  C   UNL A   1      43.532  24.508  27.285  1.00  0.00     0.031 A 
ATOM     41  C   UNL A   1      42.565  25.518  27.826  1.00  0.00     0.074 A 
ATOM     42  C   UNL A   1      44.800  24.864  27.009  1.00  0.00     0.049 A 
ATOM     43  N   UNL A   1      42.751  26.789  28.078  1.00  0.00    -0.248 NA
ATOM     44  C   UNL A   1      41.199  25.042  28.094  1.00  0.00     0.031 C 
ATOM     45  C   UNL A   1      45.818  23.988  26.426  1.00  0.00     0.029 A 
ATOM     46  N   UNL A   1      45.443  26.067  27.162  1.00  0.00    -0.354 N 
ATOM     47  C   UNL A   1      41.523  27.270  28.509  1.00  0.00     0.074 A 
ATOM     48  C   UNL A   1      40.592  26.163  28.456  1.00  0.00     0.031 C 
ATOM     49  C   UNL A   1      46.959  24.680  26.277  1.00  0.00     0.029 A 
ATOM     50  C   UNL A   1      46.746  26.052  26.731  1.00  0.00     0.049 A 
ATOM     51  H   UNL A   1      45.011  26.865  27.545  1.00  0.00     0.167 HD
ATOM     52  C   UNL A   1      41.206  28.519  28.926  1.00  0.00     0.037 A 
ATOM     53  C   UNL A   1      47.663  27.036  26.697  1.00  0.00     0.037 A 
ATOM     54  C   UNL A   1      42.140  29.608  29.015  1.00  0.00     0.049 A 
ATOM     55  C   UNL A   1      47.300  28.402  27.203  1.00  0.00     0.074 A 
ATOM     56  C   UNL A   1      41.934  30.887  29.501  1.00  0.00     0.029 A 
ATOM     57  N   UNL A   1      43.464  29.544  28.608  1.00  0.00    -0.354 N 
ATOM     58  N   UNL A   1      46.150  28.831  27.665  1.00  0.00    -0.248 NA
ATOM     59  C   UNL A   1      48.360  29.420  27.187  1.00  0.00     0.031 C 
ATOM     60  C   UNL A   1      43.129  31.604  29.367  1.00  0.00     0.029 A 
ATOM     61  C   UNL A   1      44.084  30.765  28.818  1.00  0.00     0.049 A 
ATOM     62  H   UNL A   1      43.899  28.747  28.225  1.00  0.00     0.167 HD
ATOM     63  C   UNL A   1      46.349  30.162  28.000  1.00  0.00     0.074 A 
ATOM     64  C   UNL A   1      47.733  30.468  27.703  1.00  0.00     0.031 C 
ATOM     65  C   UNL A   1      45.460  31.051  28.507  1.00  0.00     0.037 A 
BRANCH  52  66
ATOM     66  C   UNL A   1      39.783  28.765  29.322  1.00  0.00     0.064 A 
ATOM     67  C   UNL A   1      39.340  28.541  30.633  1.00  0.00     0.173 A 
ATOM     68  C   UNL A   1      38.855  29.239  28.384  1.00  0.00     0.173 A 
ATOM     69  F   UNL A   1      40.188  28.073  31.562  1.00  0.00    -0.203 F 
ATOM     70  C   UNL A   1      38.010  28.756  30.986  1.00  0.00     0.198 A 
ATOM     71  C   UNL A   1      37.531  29.474  28.744  1.00  0.00     0.198 A 
ATOM     72  F   UNL A   1      39.231  29.469  27.117  1.00  0.00    -0.203 F 
ATOM     73  F   UNL A   1      37.597  28.493  32.233  1.00  0.00    -0.200 F 
ATOM     74  C   UNL A   1      37.108  29.226  30.042  1.00  0.00     0.200 A 
ATOM     75  F   UNL A   1      36.661  29.932  27.834  1.00  0.00    -0.200 F 
ATOM     76  F   UNL A   1      35.827  29.429  30.381  1.00  0.00    -0.200 F 
ENDBRANCH  52  66
BRANCH  53  77
ATOM     77  C   UNL A   1      49.023  26.750  26.180  1.00  0.00     0.064 A 
ATOM     78  C   UNL A   1      49.999  26.186  27.011  1.00  0.00     0.173 A 
ATOM     79  C   UNL A   1      49.362  27.007  24.845  1.00  0.00     0.173 A 
ATOM     80  F   UNL A   1      49.723  25.942  28.300  1.00  0.00    -0.203 F 
ATOM     81  C   UNL A   1      51.272  25.893  26.525  1.00  0.00     0.198 A 
ATOM     82  C   UNL A   1      50.628  26.698  24.356  1.00  0.00     0.198 A 
ATOM     83  F   UNL A   1      48.457  27.543  24.014  1.00  0.00    -0.203 F 
ATOM     84  F   UNL A   1      52.197  25.375  27.344  1.00  0.00    -0.200 F 
ATOM     85  C   UNL A   1      51.584  26.144  25.196  1.00  0.00     0.200 A 
ATOM     86  F   UNL A   1      50.925  26.935  23.071  1.00  0.00    -0.200 F 
ATOM     87  F   UNL A   1      52.805  25.856  24.728  1.00  0.00    -0.200 F 
ENDBRANCH  53  77
BRANCH  65  88
ATOM     88  C   UNL A   1      45.960  32.438  28.769  1.00  0.00     0.064 A 
ATOM     89  C   UNL A   1      46.585  32.767  29.979  1.00  0.00     0.173 A 
ATOM     90  C   UNL A   1      45.849  33.433  27.788  1.00  0.00     0.173 A 
ATOM     91  F   UNL A   1      46.698  31.850  30.952  1.00  0.00    -0.203 F 
ATOM     92  C   UNL A   1      47.071  34.052  30.204  1.00  0.00     0.198 A 
ATOM     93  C   UNL A   1      46.351  34.712  28.010  1.00  0.00     0.198 A 
ATOM     94  F   UNL A   1      45.259  33.163  26.614  1.00  0.00    -0.203 F 
ATOM     95  F   UNL A   1      47.639  34.356  31.380  1.00  0.00    -0.200 F 
ATOM     96  C   UNL A   1      46.958  35.021  29.218  1.00  0.00     0.200 A 
ATOM     97  F   UNL A   1      46.247  35.647  27.055  1.00  0.00    -0.200 F 
ATOM     98  F   UNL A   1      47.430  36.257  29.435  1.00  0.00    -0.200 F 
ENDBRANCH  65  88
ENDBRANCH  39  40
ENDBRANCH  31  34
ENDBRANCH  29  30
ENDBRANCH  28  29
ENDBRANCH  27  28
ENDBRANCH  26  27
ENDBRANCH   1  26
TORSDOF 18
ENDMDL
MODEL 2
REMARK VINA RESULT:     -11.6      0.797      2.156
REMARK SMILES C[C@@](NC(=O)c1ccc(C[NH3+])o1)(C(=O)NCCCCCCNC(=O)c1ccc(-c2c3nc(c(-c4c(F)c(F)c(F)c(F)c4F)c4ccc([nH]4)c(-c4c(F)c(F)c(F)c(F)c4F)c4nc(c(-c5c(F)c(F)c(F)c(F)c5F)c5ccc2[nH]5)C=C4)C=C3)cc1)C1CC1
REMARK SMILES IDX 17 1 16 2 15 3 13 4 14 5 2 7 1 8 3 9 4 10 5 12 6 13 7 14
REMARK SMILES IDX 12 15 8 16 9 17 10 18 11 19 88 23 89 24 90 25 18 26 19 27
REMARK SMILES IDX 20 28 21 29 22 30 23 31 24 33 25 34 26 35 87 36 27 37 86 38
REMARK SMILES IDX 28 39 29 40 30 41 80 42 31 43 85 44 79 45 81 46 32 47 84 48
REMARK SMILES IDX 78 49 77 50 33 52 65 53 45 54 64 55 46 56 49 57 63 58 82 59
REMARK SMILES IDX 47 60 48 61 62 63 83 64 50 65 34 66 35 67 43 68 36 69 37 70
REMARK SMILES IDX 41 71 44 72 38 73 39 74 42 75 40 76 66 77 67 78 75 79 68 80
REMARK SMILES IDX 69 81 73 82 76 83 70 84 71 85 74 86 72 87 51 88 52 89 60 90
REMARK SMILES IDX 53 91 54 92 58 93 61 94 55 95 56 96 59 97 57 98
REMARK H PARENT 15 6 3 11 11 20 11 21 11 22 22 32 81 51 49 62
REMARK Flexibility Score: inf
ROOT
ATOM      1  C   UNL A   1      36.219  23.495  25.774  1.00  0.00     0.021 C 
ENDROOT
BRANCH   1   2
ATOM      2  C   UNL A   1      35.290  24.272  24.842  1.00  0.00     0.116 C 
BRANCH   2   3
ATOM      3  N   UNL A   1      33.971  24.437  25.429  1.00  0.00    -0.354 N 
ATOM      4  C   UNL A   1      32.730  24.115  24.958  1.00  0.00     0.245 C 
ATOM      5  O   UNL A   1      31.776  24.423  25.683  1.00  0.00    -0.272 OA
ATOM      6  H   UNL A   1      33.972  24.852  26.322  1.00  0.00     0.163 HD
BRANCH   4   7
ATOM      7  C   UNL A   1      32.504  23.542  23.513  1.00  0.00     0.119 C 
ATOM      8  C   UNL A   1      30.958  23.452  23.359  1.00  0.00     0.046 C 
BRANCH   7   9
ATOM      9  N   UNL A   1      33.024  24.396  22.437  1.00  0.00    -0.335 N 
ATOM     10  C   UNL A   1      32.945  25.753  22.222  1.00  0.00     0.287 C 
ATOM     11  H   UNL A   1      33.521  23.907  21.742  1.00  0.00     0.165 HD
ATOM     12  O   UNL A   1      33.653  26.195  21.315  1.00  0.00    -0.266 OA
BRANCH  10  13
ATOM     13  C   UNL A   1      32.003  26.573  22.954  1.00  0.00     0.191 A 
ATOM     14  C   UNL A   1      30.659  26.861  22.817  1.00  0.00     0.057 A 
ATOM     15  O   UNL A   1      32.489  27.248  24.047  1.00  0.00    -0.450 OA
ATOM     16  C   UNL A   1      30.317  27.763  23.856  1.00  0.00     0.052 A 
ATOM     17  C   UNL A   1      31.469  27.983  24.577  1.00  0.00     0.159 A 
BRANCH  17  18
ATOM     18  C   UNL A   1      31.778  28.861  25.740  1.00  0.00     0.335 C 
BRANCH  18  19
ATOM     19  N   UNL A   1      31.827  30.272  25.378  1.00  0.00    -0.351 N 
ATOM     20  H   UNL A   1      32.708  30.471  24.905  1.00  0.00     0.344 HD
ATOM     21  H   UNL A   1      31.758  30.842  26.221  1.00  0.00     0.344 HD
ATOM     22  H   UNL A   1      31.049  30.491  24.755  1.00  0.00     0.344 HD
ENDBRANCH  18  19
ENDBRANCH  17  18
ENDBRANCH  10  13
ENDBRANCH   7   9
BRANCH   7  23
ATOM     23  C   UNL A   1      33.016  22.100  23.371  1.00  0.00     0.024 C 
ATOM     24  C   UNL A   1      32.975  21.146  24.553  1.00  0.00     0.007 C 
ATOM     25  C   UNL A   1      32.176  20.839  23.324  1.00  0.00     0.007 C 
ENDBRANCH   7  23
ENDBRANCH   4   7
ENDBRANCH   2   3
ENDBRANCH   1   2
BRANCH   1  26
ATOM     26  C   UNL A   1      37.149  22.511  25.054  1.00  0.00     0.002 C 
BRANCH  26  27
ATOM     27  C   UNL A   1      36.705  21.046  25.089  1.00  0.00     0.002 C 
BRANCH  27  28
ATOM     28  C   UNL A   1      37.821  20.003  25.001  1.00  0.00     0.021 C 
BRANCH  28  29
ATOM     29  C   UNL A   1      39.095  20.336  25.767  1.00  0.00     0.116 C 
BRANCH  29  30
ATOM     30  N   UNL A   1      40.021  19.220  25.860  1.00  0.00    -0.352 N 
ATOM     31  C   UNL A   1      41.368  19.239  26.126  1.00  0.00     0.251 C 
ATOM     32  H   UNL A   1      39.630  18.329  25.712  1.00  0.00     0.163 HD
ATOM     33  O   UNL A   1      42.031  18.208  26.086  1.00  0.00    -0.269 OA
BRANCH  31  34
ATOM     34  C   UNL A   1      42.030  20.527  26.423  1.00  0.00     0.039 A 
ATOM     35  C   UNL A   1      42.470  21.316  25.357  1.00  0.00     0.014 A 
ATOM     36  C   UNL A   1      42.190  20.966  27.741  1.00  0.00     0.014 A 
ATOM     37  C   UNL A   1      43.002  22.582  25.607  1.00  0.00     0.010 A 
ATOM     38  C   UNL A   1      42.672  22.248  27.987  1.00  0.00     0.010 A 
ATOM     39  C   UNL A   1      43.073  23.071  26.921  1.00  0.00    -0.014 A 
BRANCH  39  40
ATOM     40  C   UNL A   1      43.543  24.447  27.203  1.00  0.00     0.031 A 
ATOM     41  C   UNL A   1      42.585  25.483  27.708  1.00  0.00     0.074 A 
ATOM     42  C   UNL A   1      44.817  24.781  26.923  1.00  0.00     0.049 A 
ATOM     43  N   UNL A   1      42.782  26.759  27.921  1.00  0.00    -0.248 NA
ATOM     44  C   UNL A   1      41.212  25.030  27.982  1.00  0.00     0.031 C 
ATOM     45  C   UNL A   1      45.827  23.877  26.373  1.00  0.00     0.029 A 
ATOM     46  N   UNL A   1      45.472  25.981  27.043  1.00  0.00    -0.354 N 
ATOM     47  C   UNL A   1      41.557  27.266  28.331  1.00  0.00     0.074 A 
ATOM     48  C   UNL A   1      40.615  26.168  28.306  1.00  0.00     0.031 C 
ATOM     49  C   UNL A   1      46.977  24.552  26.209  1.00  0.00     0.029 A 
ATOM     50  C   UNL A   1      46.776  25.939  26.619  1.00  0.00     0.049 A 
ATOM     51  H   UNL A   1      45.046  26.795  27.399  1.00  0.00     0.167 HD
ATOM     52  C   UNL A   1      41.252  28.530  28.708  1.00  0.00     0.037 A 
ATOM     53  C   UNL A   1      47.704  26.912  26.560  1.00  0.00     0.037 A 
ATOM     54  C   UNL A   1      42.197  29.611  28.768  1.00  0.00     0.049 A 
ATOM     55  C   UNL A   1      47.352  28.297  27.023  1.00  0.00     0.074 A 
ATOM     56  C   UNL A   1      42.001  30.907  29.215  1.00  0.00     0.029 A 
ATOM     57  N   UNL A   1      43.522  29.521  28.371  1.00  0.00    -0.354 N 
ATOM     58  N   UNL A   1      46.206  28.751  27.465  1.00  0.00    -0.248 NA
ATOM     59  C   UNL A   1      48.424  29.302  26.981  1.00  0.00     0.031 C 
ATOM     60  C   UNL A   1      43.205  31.607  29.065  1.00  0.00     0.029 A 
ATOM     61  C   UNL A   1      44.154  30.741  28.548  1.00  0.00     0.049 A 
ATOM     62  H   UNL A   1      43.951  28.709  28.014  1.00  0.00     0.167 HD
ATOM     63  C   UNL A   1      46.416  30.090  27.761  1.00  0.00     0.074 A 
ATOM     64  C   UNL A   1      47.805  30.372  27.462  1.00  0.00     0.031 C 
ATOM     65  C   UNL A   1      45.535  31.004  28.235  1.00  0.00     0.037 A 
BRANCH  52  66
ATOM     66  C   UNL A   1      39.829  28.803  29.088  1.00  0.00     0.064 A 
ATOM     67  C   UNL A   1      38.889  29.235  28.142  1.00  0.00     0.173 A 
ATOM     68  C   UNL A   1      39.399  28.623  30.411  1.00  0.00     0.173 A 
ATOM     69  F   UNL A   1      39.258  29.436  26.868  1.00  0.00    -0.203 F 
ATOM     70  C   UNL A   1      37.574  29.504  28.511  1.00  0.00     0.198 A 
ATOM     71  C   UNL A   1      38.078  28.872  30.773  1.00  0.00     0.198 A 
ATOM     72  F   UNL A   1      40.261  28.210  31.352  1.00  0.00    -0.203 F 
ATOM     73  F   UNL A   1      36.702  29.958  27.600  1.00  0.00    -0.200 F 
ATOM     74  C   UNL A   1      37.169  29.318  29.825  1.00  0.00     0.200 A 
ATOM     75  F   UNL A   1      37.685  28.688  32.041  1.00  0.00    -0.200 F 
ATOM     76  F   UNL A   1      35.903  29.580  30.180  1.00  0.00    -0.200 F 
ENDBRANCH  52  66
BRANCH  53  77
ATOM     77  C   UNL A   1      49.063  26.596  26.060  1.00  0.00     0.064 A 
ATOM     78  C   UNL A   1      49.428  26.898  24.743  1.00  0.00     0.173 A 
ATOM     79  C   UNL A   1      50.028  26.014  26.895  1.00  0.00     0.173 A 
ATOM     80  F   UNL A   1      48.530  27.438  23.905  1.00  0.00    -0.203 F 
ATOM     81  C   UNL A   1      50.712  26.625  24.274  1.00  0.00     0.198 A 
ATOM     82  C   UNL A   1      51.314  25.757  26.430  1.00  0.00     0.198 A 
ATOM     83  F   UNL A   1      49.722  25.711  28.164  1.00  0.00    -0.203 F 
ATOM     84  F   UNL A   1      51.031  26.902  23.002  1.00  0.00    -0.200 F 
ATOM     85  C   UNL A   1      51.656  26.060  25.119  1.00  0.00     0.200 A 
ATOM     86  F   UNL A   1      52.226  25.217  27.250  1.00  0.00    -0.200 F 
ATOM     87  F   UNL A   1      52.891  25.804  24.669  1.00  0.00    -0.200 F 
ENDBRANCH  53  77
BRANCH  65  88
ATOM     88  C   UNL A   1      46.048  32.393  28.457  1.00  0.00     0.064 A 
ATOM     89  C   UNL A   1      45.969  33.365  27.451  1.00  0.00     0.173 A 
ATOM     90  C   UNL A   1      46.586  32.763  29.697  1.00  0.00     0.173 A 
ATOM     91  F   UNL A   1      45.478  33.049  26.243  1.00  0.00    -0.203 F 
ATOM     92  C   UNL A   1      46.425  34.661  27.675  1.00  0.00     0.198 A 
ATOM     93  C   UNL A   1      47.024  34.065  29.923  1.00  0.00     0.198 A 
ATOM     94  F   UNL A   1      46.679  31.866  30.689  1.00  0.00    -0.203 F 
ATOM     95  F   UNL A   1      46.369  35.569  26.691  1.00  0.00    -0.200 F 
ATOM     96  C   UNL A   1      46.947  35.011  28.912  1.00  0.00     0.200 A 
ATOM     97  F   UNL A   1      47.523  34.405  31.121  1.00  0.00    -0.200 F 
ATOM     98  F   UNL A   1      47.381  36.260  29.127  1.00  0.00    -0.200 F 
ENDBRANCH  65  88
ENDBRANCH  39  40
ENDBRANCH  31  34
ENDBRANCH  29  30
ENDBRANCH  28  29
ENDBRANCH  27  28
ENDBRANCH  26  27
ENDBRANCH   1  26
TORSDOF 18
ENDMDL
MODEL 3
REMARK VINA RESULT:     -11.6      5.593     11.131
REMARK SMILES C[C@@](NC(=O)c1ccc(C[NH3+])o1)(C(=O)NCCCCCCNC(=O)c1ccc(-c2c3nc(c(-c4c(F)c(F)c(F)c(F)c4F)c4ccc([nH]4)c(-c4c(F)c(F)c(F)c(F)c4F)c4nc(c(-c5c(F)c(F)c(F)c(F)c5F)c5ccc2[nH]5)C=C4)C=C3)cc1)C1CC1
REMARK SMILES IDX 17 1 16 2 15 3 13 4 14 5 2 7 1 8 3 9 4 10 5 12 6 13 7 14
REMARK SMILES IDX 12 15 8 16 9 17 10 18 11 19 88 23 89 24 90 25 18 26 19 27
REMARK SMILES IDX 20 28 21 29 22 30 23 31 24 33 25 34 26 35 87 36 27 37 86 38
REMARK SMILES IDX 28 39 29 40 30 41 80 42 31 43 85 44 79 45 81 46 32 47 84 48
REMARK SMILES IDX 78 49 77 50 33 52 65 53 45 54 64 55 46 56 49 57 63 58 82 59
REMARK SMILES IDX 47 60 48 61 62 63 83 64 50 65 34 66 35 67 43 68 36 69 37 70
REMARK SMILES IDX 41 71 44 72 38 73 39 74 42 75 40 76 66 77 67 78 75 79 68 80
REMARK SMILES IDX 69 81 73 82 76 83 70 84 71 85 74 86 72 87 51 88 52 89 60 90
REMARK SMILES IDX 53 91 54 92 58 93 61 94 55 95 56 96 59 97 57 98
REMARK H PARENT 15 6 3 11 11 20 11 21 11 22 22 32 81 51 49 62
REMARK Flexibility Score: inf
ROOT
ATOM      1  C   UNL A   1      33.598  28.609  26.923  1.00  0.00     0.021 C 
ENDROOT
BRANCH   1   2
ATOM      2  C   UNL A   1      32.612  27.670  26.231  1.00  0.00     0.116 C 
BRANCH   2   3
ATOM      3  N   UNL A   1      33.289  26.793  25.290  1.00  0.00    -0.354 N 
ATOM      4  C   UNL A   1      32.836  26.149  24.174  1.00  0.00     0.245 C 
ATOM      5  O   UNL A   1      33.654  25.425  23.593  1.00  0.00    -0.272 OA
ATOM      6  H   UNL A   1      34.240  26.636  25.492  1.00  0.00     0.163 HD
BRANCH   4   7
ATOM      7  C   UNL A   1      31.327  26.185  23.739  1.00  0.00     0.119 C 
ATOM      8  C   UNL A   1      31.172  25.001  22.743  1.00  0.00     0.046 C 
BRANCH   7   9
ATOM      9  N   UNL A   1      30.377  25.984  24.842  1.00  0.00    -0.335 N 
ATOM     10  C   UNL A   1      30.353  25.082  25.881  1.00  0.00     0.287 C 
ATOM     11  H   UNL A   1      29.617  26.611  24.837  1.00  0.00     0.165 HD
ATOM     12  O   UNL A   1      29.513  25.294  26.758  1.00  0.00    -0.266 OA
BRANCH  10  13
ATOM     13  C   UNL A   1      31.197  23.905  25.871  1.00  0.00     0.191 A 
ATOM     14  C   UNL A   1      31.046  22.609  25.417  1.00  0.00     0.057 A 
ATOM     15  O   UNL A   1      32.448  24.037  26.422  1.00  0.00    -0.450 OA
ATOM     16  C   UNL A   1      32.246  21.918  25.722  1.00  0.00     0.052 A 
ATOM     17  C   UNL A   1      33.071  22.825  26.348  1.00  0.00     0.159 A 
BRANCH  17  18
ATOM     18  C   UNL A   1      34.427  22.705  26.952  1.00  0.00     0.335 C 
BRANCH  18  19
ATOM     19  N   UNL A   1      34.626  21.429  27.629  1.00  0.00    -0.351 N 
ATOM     20  H   UNL A   1      33.956  21.341  28.392  1.00  0.00     0.344 HD
ATOM     21  H   UNL A   1      35.574  21.386  28.002  1.00  0.00     0.344 HD
ATOM     22  H   UNL A   1      34.487  20.666  26.965  1.00  0.00     0.344 HD
ENDBRANCH  18  19
ENDBRANCH  17  18
ENDBRANCH  10  13
ENDBRANCH   7   9
BRANCH   7  23
ATOM     23  C   UNL A   1      30.981  27.447  22.936  1.00  0.00     0.024 C 
ATOM     24  C   UNL A   1      30.681  28.757  23.645  1.00  0.00     0.007 C 
ATOM     25  C   UNL A   1      31.863  28.664  22.730  1.00  0.00     0.007 C 
ENDBRANCH   7  23
ENDBRANCH   4   7
ENDBRANCH   2   3
ENDBRANCH   1   2
BRANCH   1  26
ATOM     26  C   UNL A   1      33.348  30.096  26.645  1.00  0.00     0.002 C 
BRANCH  26  27
ATOM     27  C   UNL A   1      31.876  30.517  26.606  1.00  0.00     0.002 C 
BRANCH  27  28
ATOM     28  C   UNL A   1      31.596  32.005  26.824  1.00  0.00     0.021 C 
BRANCH  28  29
ATOM     29  C   UNL A   1      32.767  32.825  27.352  1.00  0.00     0.116 C 
BRANCH  29  30
ATOM     30  N   UNL A   1      32.405  34.188  27.702  1.00  0.00    -0.352 N 
ATOM     31  C   UNL A   1      32.975  35.016  28.638  1.00  0.00     0.251 C 
ATOM     32  H   UNL A   1      31.649  34.570  27.201  1.00  0.00     0.163 HD
ATOM     33  O   UNL A   1      32.495  36.119  28.875  1.00  0.00    -0.269 OA
BRANCH  31  34
ATOM     34  C   UNL A   1      34.156  34.550  29.395  1.00  0.00     0.039 A 
ATOM     35  C   UNL A   1      33.961  33.971  30.652  1.00  0.00     0.014 A 
ATOM     36  C   UNL A   1      35.442  34.657  28.858  1.00  0.00     0.014 A 
ATOM     37  C   UNL A   1      35.047  33.428  31.339  1.00  0.00     0.010 A 
ATOM     38  C   UNL A   1      36.517  34.070  29.520  1.00  0.00     0.010 A 
ATOM     39  C   UNL A   1      36.327  33.442  30.762  1.00  0.00    -0.014 A 
BRANCH  39  40
ATOM     40  C   UNL A   1      37.476  32.788  31.428  1.00  0.00     0.031 A 
ATOM     41  C   UNL A   1      38.170  31.632  30.772  1.00  0.00     0.074 A 
ATOM     42  C   UNL A   1      37.838  33.183  32.663  1.00  0.00     0.049 A 
ATOM     43  N   UNL A   1      39.128  30.870  31.237  1.00  0.00    -0.248 NA
ATOM     44  C   UNL A   1      37.705  31.265  29.426  1.00  0.00     0.031 C 
ATOM     45  C   UNL A   1      37.201  34.256  33.428  1.00  0.00     0.029 A 
ATOM     46  N   UNL A   1      38.819  32.713  33.499  1.00  0.00    -0.354 N 
ATOM     47  C   UNL A   1      39.365  29.922  30.252  1.00  0.00     0.074 A 
ATOM     48  C   UNL A   1      38.429  30.182  29.179  1.00  0.00     0.031 C 
ATOM     49  C   UNL A   1      37.811  34.366  34.620  1.00  0.00     0.029 A 
ATOM     50  C   UNL A   1      38.864  33.357  34.709  1.00  0.00     0.049 A 
ATOM     51  H   UNL A   1      39.431  31.981  33.255  1.00  0.00     0.167 HD
ATOM     52  C   UNL A   1      40.289  28.932  30.240  1.00  0.00     0.037 A 
ATOM     53  C   UNL A   1      39.659  33.153  35.776  1.00  0.00     0.037 A 
ATOM     54  C   UNL A   1      41.243  28.698  31.289  1.00  0.00     0.049 A 
ATOM     55  C   UNL A   1      40.705  32.076  35.722  1.00  0.00     0.074 A 
ATOM     56  C   UNL A   1      42.272  27.772  31.332  1.00  0.00     0.029 A 
ATOM     57  N   UNL A   1      41.286  29.400  32.484  1.00  0.00    -0.354 N 
ATOM     58  N   UNL A   1      40.959  31.222  34.761  1.00  0.00    -0.248 NA
ATOM     59  C   UNL A   1      41.574  31.936  36.898  1.00  0.00     0.031 C 
ATOM     60  C   UNL A   1      42.923  27.899  32.565  1.00  0.00     0.029 A 
ATOM     61  C   UNL A   1      42.315  28.919  33.279  1.00  0.00     0.049 A 
ATOM     62  H   UNL A   1      40.675  30.132  32.732  1.00  0.00     0.167 HD
ATOM     63  C   UNL A   1      42.020  30.450  35.210  1.00  0.00     0.074 A 
ATOM     64  C   UNL A   1      42.372  30.945  36.525  1.00  0.00     0.031 C 
ATOM     65  C   UNL A   1      42.643  29.419  34.588  1.00  0.00     0.037 A 
BRANCH  52  66
ATOM     66  C   UNL A   1      40.310  28.033  29.043  1.00  0.00     0.064 A 
ATOM     67  C   UNL A   1      41.049  28.358  27.896  1.00  0.00     0.173 A 
ATOM     68  C   UNL A   1      39.590  26.829  29.044  1.00  0.00     0.173 A 
ATOM     69  F   UNL A   1      41.740  29.506  27.842  1.00  0.00    -0.203 F 
ATOM     70  C   UNL A   1      41.046  27.523  26.782  1.00  0.00     0.198 A 
ATOM     71  C   UNL A   1      39.606  25.985  27.937  1.00  0.00     0.198 A 
ATOM     72  F   UNL A   1      38.869  26.474  30.118  1.00  0.00    -0.203 F 
ATOM     73  F   UNL A   1      41.723  27.873  25.680  1.00  0.00    -0.200 F 
ATOM     74  C   UNL A   1      40.328  26.336  26.806  1.00  0.00     0.200 A 
ATOM     75  F   UNL A   1      38.917  24.836  27.961  1.00  0.00    -0.200 F 
ATOM     76  F   UNL A   1      40.322  25.534  25.731  1.00  0.00    -0.200 F 
ENDBRANCH  52  66
BRANCH  53  77
ATOM     77  C   UNL A   1      39.504  34.008  36.977  1.00  0.00     0.064 A 
ATOM     78  C   UNL A   1      38.756  33.568  38.076  1.00  0.00     0.173 A 
ATOM     79  C   UNL A   1      40.123  35.263  37.060  1.00  0.00     0.173 A 
ATOM     80  F   UNL A   1      38.132  32.381  38.030  1.00  0.00    -0.203 F 
ATOM     81  C   UNL A   1      38.627  34.357  39.217  1.00  0.00     0.198 A 
ATOM     82  C   UNL A   1      40.006  36.043  38.208  1.00  0.00     0.198 A 
ATOM     83  F   UNL A   1      40.850  35.722  36.033  1.00  0.00    -0.203 F 
ATOM     84  F   UNL A   1      37.887  33.925  40.247  1.00  0.00    -0.200 F 
ATOM     85  C   UNL A   1      39.256  35.591  39.285  1.00  0.00     0.200 A 
ATOM     86  F   UNL A   1      40.620  37.232  38.273  1.00  0.00    -0.200 F 
ATOM     87  F   UNL A   1      39.136  36.346  40.385  1.00  0.00    -0.200 F 
ENDBRANCH  53  77
BRANCH  65  88
ATOM     88  C   UNL A   1      43.768  28.760  35.325  1.00  0.00     0.064 A 
ATOM     89  C   UNL A   1      43.542  27.651  36.151  1.00  0.00     0.173 A 
ATOM     90  C   UNL A   1      45.084  29.217  35.172  1.00  0.00     0.173 A 
ATOM     91  F   UNL A   1      42.296  27.191  36.339  1.00  0.00    -0.203 F 
ATOM     92  C   UNL A   1      44.597  27.028  36.811  1.00  0.00     0.198 A 
ATOM     93  C   UNL A   1      46.139  28.581  35.821  1.00  0.00     0.198 A 
ATOM     94  F   UNL A   1      45.346  30.274  34.391  1.00  0.00    -0.203 F 
ATOM     95  F   UNL A   1      44.358  25.987  37.621  1.00  0.00    -0.200 F 
ATOM     96  C   UNL A   1      45.894  27.490  36.642  1.00  0.00     0.200 A 
ATOM     97  F   UNL A   1      47.393  29.024  35.652  1.00  0.00    -0.200 F 
ATOM     98  F   UNL A   1      46.909  26.887  37.275  1.00  0.00    -0.200 F 
ENDBRANCH  65  88
ENDBRANCH  39  40
ENDBRANCH  31  34
ENDBRANCH  29  30
ENDBRANCH  28  29
ENDBRANCH  27  28
ENDBRANCH  26  27
ENDBRANCH   1  26
TORSDOF 18
ENDMDL
