MODEL 1
REMARK VINA RESULT:     -11.9      0.000      0.000
REMARK SMILES C[NH2+][C@@]1(C(=O)NCCCCCCNC(=O)c2ccc(-c3c4nc(c(-c5c(F)c(F)c(F)c(F)c5F)c5ccc([nH]5)c(-c5c(F)c(F)c(F)c(F)c5F)c5nc(c(-c6c(F)c(F)c(F)c(F)c6F)c6ccc3[nH]6)C=C5)C=C4)cc2)CC[C@H](Oc2cccc(C)c2)C1
REMARK SMILES IDX 9 1 8 2 7 3 6 4 4 5 5 6 3 8 79 9 90 10 80 11 81 12 2 13 1 14
REMARK SMILES IDX 82 17 83 18 84 19 89 20 85 21 87 22 86 23 88 24 10 25 11 26
REMARK SMILES IDX 12 27 13 28 14 29 15 31 16 32 17 33 78 34 18 35 77 36 19 37
REMARK SMILES IDX 20 38 21 39 71 40 22 41 76 42 70 43 72 44 23 45 75 46 69 47
REMARK SMILES IDX 68 48 24 50 56 51 36 52 55 53 37 54 40 55 54 56 73 57 38 58
REMARK SMILES IDX 39 59 53 61 74 62 41 63 25 64 26 65 34 66 27 67 28 68 32 69
REMARK SMILES IDX 35 70 29 71 30 72 33 73 31 74 57 75 58 76 66 77 59 78 60 79
REMARK SMILES IDX 64 80 67 81 61 82 62 83 65 84 63 85 42 86 43 87 51 88 44 89
REMARK SMILES IDX 45 90 49 91 52 92 46 93 47 94 50 95 48 96
REMARK H PARENT 6 7 2 15 2 16 13 30 72 49 40 60
REMARK Flexibility Score: inf
ROOT
ATOM      1  C   UNL A   1      32.182  29.997  27.258  1.00  0.00     0.002 C 
ENDROOT
BRANCH   1   2
ATOM      2  C   UNL A   1      33.674  29.728  27.063  1.00  0.00     0.021 C 
BRANCH   2   3
ATOM      3  C   UNL A   1      34.058  28.437  26.348  1.00  0.00     0.116 C 
BRANCH   3   4
ATOM      4  N   UNL A   1      34.288  28.574  24.929  1.00  0.00    -0.351 N 
ATOM      5  C   UNL A   1      33.565  28.172  23.849  1.00  0.00     0.281 C 
ATOM      6  O   UNL A   1      33.918  28.692  22.776  1.00  0.00    -0.268 OA
ATOM      7  H   UNL A   1      35.122  29.046  24.702  1.00  0.00     0.163 HD
BRANCH   5   8
ATOM      8  C   UNL A   1      32.325  27.172  23.867  1.00  0.00     0.179 C 
ATOM      9  C   UNL A   1      31.899  26.789  22.438  1.00  0.00     0.083 C 
ATOM     10  C   UNL A   1      31.039  27.680  24.528  1.00  0.00     0.124 C 
ATOM     11  C   UNL A   1      30.670  27.630  22.110  1.00  0.00     0.052 C 
ATOM     12  C   UNL A   1      29.949  27.816  23.445  1.00  0.00     0.180 C 
BRANCH   8  13
ATOM     13  N   UNL A   1      32.799  25.902  24.515  1.00  0.00    -0.336 N 
ATOM     14  C   UNL A   1      33.940  25.268  23.850  1.00  0.00     0.331 C 
ATOM     15  H   UNL A   1      33.070  26.116  25.476  1.00  0.00     0.346 HD
ATOM     16  H   UNL A   1      32.025  25.240  24.456  1.00  0.00     0.346 HD
ENDBRANCH   8  13
BRANCH  12  17
ATOM     17  O   UNL A   1      29.265  29.014  23.784  1.00  0.00    -0.490 OA
BRANCH  17  18
ATOM     18  C   UNL A   1      28.871  30.004  22.956  1.00  0.00     0.119 A 
ATOM     19  C   UNL A   1      28.224  29.889  21.737  1.00  0.00     0.046 A 
ATOM     20  C   UNL A   1      29.161  31.276  23.461  1.00  0.00     0.049 A 
ATOM     21  C   UNL A   1      27.916  31.044  21.006  1.00  0.00     0.004 A 
ATOM     22  C   UNL A   1      28.854  32.436  22.748  1.00  0.00    -0.047 A 
ATOM     23  C   UNL A   1      28.232  32.311  21.504  1.00  0.00     0.003 A 
ATOM     24  C   UNL A   1      29.183  33.775  23.329  1.00  0.00     0.044 C 
ENDBRANCH  17  18
ENDBRANCH  12  17
ENDBRANCH   5   8
ENDBRANCH   3   4
ENDBRANCH   2   3
ENDBRANCH   1   2
BRANCH   1  25
ATOM     25  C   UNL A   1      31.500  30.918  26.239  1.00  0.00     0.002 C 
BRANCH  25  26
ATOM     26  C   UNL A   1      31.374  32.407  26.595  1.00  0.00     0.021 C 
BRANCH  26  27
ATOM     27  C   UNL A   1      32.625  33.100  27.143  1.00  0.00     0.116 C 
BRANCH  27  28
ATOM     28  N   UNL A   1      32.362  34.420  27.695  1.00  0.00    -0.352 N 
ATOM     29  C   UNL A   1      32.967  35.085  28.738  1.00  0.00     0.251 C 
ATOM     30  H   UNL A   1      31.637  34.917  27.252  1.00  0.00     0.163 HD
ATOM     31  O   UNL A   1      32.534  36.175  29.100  1.00  0.00    -0.269 OA
BRANCH  29  32
ATOM     32  C   UNL A   1      34.123  34.496  29.458  1.00  0.00     0.039 A 
ATOM     33  C   UNL A   1      33.915  33.884  30.694  1.00  0.00     0.014 A 
ATOM     34  C   UNL A   1      35.421  34.599  28.960  1.00  0.00     0.014 A 
ATOM     35  C   UNL A   1      34.992  33.316  31.387  1.00  0.00     0.010 A 
ATOM     36  C   UNL A   1      36.488  33.967  29.613  1.00  0.00     0.010 A 
ATOM     37  C   UNL A   1      36.289  33.309  30.836  1.00  0.00    -0.014 A 
BRANCH  37  38
ATOM     38  C   UNL A   1      37.404  32.591  31.526  1.00  0.00     0.031 A 
ATOM     39  C   UNL A   1      38.133  31.442  30.875  1.00  0.00     0.074 A 
ATOM     40  C   UNL A   1      37.758  32.955  32.776  1.00  0.00     0.049 A 
ATOM     41  N   UNL A   1      39.128  30.721  31.341  1.00  0.00    -0.248 NA
ATOM     42  C   UNL A   1      37.674  31.028  29.541  1.00  0.00     0.031 C 
ATOM     43  C   UNL A   1      37.109  34.002  33.566  1.00  0.00     0.029 A 
ATOM     44  N   UNL A   1      38.756  32.491  33.602  1.00  0.00    -0.354 N 
ATOM     45  C   UNL A   1      39.397  29.764  30.370  1.00  0.00     0.074 A 
ATOM     46  C   UNL A   1      38.433  29.966  29.308  1.00  0.00     0.031 C 
ATOM     47  C   UNL A   1      37.750  34.133  34.738  1.00  0.00     0.029 A 
ATOM     48  C   UNL A   1      38.835  33.158  34.802  1.00  0.00     0.049 A 
ATOM     49  H   UNL A   1      39.357  31.752  33.357  1.00  0.00     0.167 HD
ATOM     50  C   UNL A   1      40.368  28.817  30.351  1.00  0.00     0.037 A 
ATOM     51  C   UNL A   1      39.684  33.011  35.838  1.00  0.00     0.037 A 
ATOM     52  C   UNL A   1      41.365  28.635  31.377  1.00  0.00     0.049 A 
ATOM     53  C   UNL A   1      40.775  31.979  35.776  1.00  0.00     0.074 A 
ATOM     54  C   UNL A   1      42.435  27.754  31.391  1.00  0.00     0.029 A 
ATOM     55  N   UNL A   1      41.418  29.343  32.566  1.00  0.00    -0.354 N 
ATOM     56  N   UNL A   1      41.061  31.135  34.817  1.00  0.00    -0.248 NA
ATOM     57  C   UNL A   1      41.665  31.883  36.943  1.00  0.00     0.031 C 
ATOM     58  C   UNL A   1      43.114  27.904  32.606  1.00  0.00     0.029 A 
ATOM     59  C   UNL A   1      42.492  28.906  33.329  1.00  0.00     0.049 A 
ATOM     60  H   UNL A   1      40.787  30.050  32.831  1.00  0.00     0.167 HD
ATOM     61  C   UNL A   1      42.174  30.427  35.252  1.00  0.00     0.074 A 
ATOM     62  C   UNL A   1      42.522  30.950  36.556  1.00  0.00     0.031 C 
ATOM     63  C   UNL A   1      42.843  29.431  34.622  1.00  0.00     0.037 A 
BRANCH  50  64
ATOM     64  C   UNL A   1      40.423  27.898  29.164  1.00  0.00     0.064 A 
ATOM     65  C   UNL A   1      39.637  26.738  29.098  1.00  0.00     0.173 A 
ATOM     66  C   UNL A   1      41.218  28.216  28.052  1.00  0.00     0.173 A 
ATOM     67  F   UNL A   1      38.862  26.388  30.135  1.00  0.00    -0.203 F 
ATOM     68  C   UNL A   1      39.663  25.917  27.974  1.00  0.00     0.198 A 
ATOM     69  C   UNL A   1      41.222  27.407  26.918  1.00  0.00     0.198 A 
ATOM     70  F   UNL A   1      41.979  29.321  28.058  1.00  0.00    -0.203 F 
ATOM     71  F   UNL A   1      38.934  24.793  27.949  1.00  0.00    -0.200 F 
ATOM     72  C   UNL A   1      40.450  26.256  26.883  1.00  0.00     0.200 A 
ATOM     73  F   UNL A   1      41.970  27.744  25.859  1.00  0.00    -0.200 F 
ATOM     74  F   UNL A   1      40.467  25.470  25.798  1.00  0.00    -0.200 F 
ENDBRANCH  50  64
BRANCH  51  75
ATOM     75  C   UNL A   1      39.558  33.898  37.024  1.00  0.00     0.064 A 
ATOM     76  C   UNL A   1      38.817  33.497  38.144  1.00  0.00     0.173 A 
ATOM     77  C   UNL A   1      40.171  35.158  37.060  1.00  0.00     0.173 A 
ATOM     78  F   UNL A   1      38.195  32.309  38.142  1.00  0.00    -0.203 F 
ATOM     79  C   UNL A   1      38.678  34.330  39.250  1.00  0.00     0.198 A 
ATOM     80  C   UNL A   1      40.052  35.981  38.178  1.00  0.00     0.198 A 
ATOM     81  F   UNL A   1      40.893  35.585  36.014  1.00  0.00    -0.203 F 
ATOM     82  F   UNL A   1      37.929  33.941  40.290  1.00  0.00    -0.200 F 
ATOM     83  C   UNL A   1      39.300  35.570  39.269  1.00  0.00     0.200 A 
ATOM     84  F   UNL A   1      40.665  37.172  38.198  1.00  0.00    -0.200 F 
ATOM     85  F   UNL A   1      39.170  36.371  40.334  1.00  0.00    -0.200 F 
ENDBRANCH  51  75
BRANCH  63  86
ATOM     86  C   UNL A   1      44.041  28.855  35.318  1.00  0.00     0.064 A 
ATOM     87  C   UNL A   1      45.324  29.393  35.140  1.00  0.00     0.173 A 
ATOM     88  C   UNL A   1      43.900  27.772  36.199  1.00  0.00     0.173 A 
ATOM     89  F   UNL A   1      45.514  30.418  34.296  1.00  0.00    -0.203 F 
ATOM     90  C   UNL A   1      46.425  28.854  35.801  1.00  0.00     0.198 A 
ATOM     91  C   UNL A   1      44.999  27.252  36.878  1.00  0.00     0.198 A 
ATOM     92  F   UNL A   1      42.694  27.223  36.408  1.00  0.00    -0.203 F 
ATOM     93  F   UNL A   1      47.648  29.357  35.583  1.00  0.00    -0.200 F 
ATOM     94  C   UNL A   1      46.261  27.789  36.674  1.00  0.00     0.200 A 
ATOM     95  F   UNL A   1      44.837  26.228  37.728  1.00  0.00    -0.200 F 
ATOM     96  F   UNL A   1      47.321  27.274  37.313  1.00  0.00    -0.200 F 
ENDBRANCH  63  86
ENDBRANCH  37  38
ENDBRANCH  29  32
ENDBRANCH  27  28
ENDBRANCH  26  27
ENDBRANCH  25  26
ENDBRANCH   1  25
TORSDOF 16
ENDMDL
MODEL 2
REMARK VINA RESULT:     -11.7      2.418      7.982
REMARK SMILES C[NH2+][C@@]1(C(=O)NCCCCCCNC(=O)c2ccc(-c3c4nc(c(-c5c(F)c(F)c(F)c(F)c5F)c5ccc([nH]5)c(-c5c(F)c(F)c(F)c(F)c5F)c5nc(c(-c6c(F)c(F)c(F)c(F)c6F)c6ccc3[nH]6)C=C5)C=C4)cc2)CC[C@H](Oc2cccc(C)c2)C1
REMARK SMILES IDX 9 1 8 2 7 3 6 4 4 5 5 6 3 8 79 9 90 10 80 11 81 12 2 13 1 14
REMARK SMILES IDX 82 17 83 18 84 19 89 20 85 21 87 22 86 23 88 24 10 25 11 26
REMARK SMILES IDX 12 27 13 28 14 29 15 31 16 32 17 33 78 34 18 35 77 36 19 37
REMARK SMILES IDX 20 38 21 39 71 40 22 41 76 42 70 43 72 44 23 45 75 46 69 47
REMARK SMILES IDX 68 48 24 50 56 51 36 52 55 53 37 54 40 55 54 56 73 57 38 58
REMARK SMILES IDX 39 59 53 61 74 62 41 63 25 64 26 65 34 66 27 67 28 68 32 69
REMARK SMILES IDX 35 70 29 71 30 72 33 73 31 74 57 75 58 76 66 77 59 78 60 79
REMARK SMILES IDX 64 80 67 81 61 82 62 83 65 84 63 85 42 86 43 87 51 88 44 89
REMARK SMILES IDX 45 90 49 91 52 92 46 93 47 94 50 95 48 96
REMARK H PARENT 6 7 2 15 2 16 13 30 72 49 40 60
REMARK Flexibility Score: inf
ROOT
ATOM      1  C   UNL A   1      31.490  26.438  26.437  1.00  0.00     0.002 C 
ENDROOT
BRANCH   1   2
ATOM      2  C   UNL A   1      32.390  25.215  26.271  1.00  0.00     0.021 C 
BRANCH   2   3
ATOM      3  C   UNL A   1      31.708  23.891  25.948  1.00  0.00     0.116 C 
BRANCH   3   4
ATOM      4  N   UNL A   1      32.259  22.742  26.627  1.00  0.00    -0.351 N 
ATOM      5  C   UNL A   1      33.217  21.845  26.265  1.00  0.00     0.281 C 
ATOM      6  O   UNL A   1      33.638  21.143  27.200  1.00  0.00    -0.268 OA
ATOM      7  H   UNL A   1      31.870  22.576  27.516  1.00  0.00     0.163 HD
BRANCH   5   8
ATOM      8  C   UNL A   1      33.844  21.677  24.810  1.00  0.00     0.179 C 
ATOM      9  C   UNL A   1      35.144  22.488  24.668  1.00  0.00     0.083 C 
ATOM     10  C   UNL A   1      32.978  22.129  23.629  1.00  0.00     0.124 C 
ATOM     11  C   UNL A   1      34.785  23.756  23.901  1.00  0.00     0.052 C 
ATOM     12  C   UNL A   1      33.655  23.342  22.958  1.00  0.00     0.180 C 
BRANCH   8  13
ATOM     13  N   UNL A   1      34.235  20.233  24.669  1.00  0.00    -0.336 N 
ATOM     14  C   UNL A   1      33.109  19.309  24.515  1.00  0.00     0.331 C 
ATOM     15  H   UNL A   1      34.833  20.143  23.848  1.00  0.00     0.346 HD
ATOM     16  H   UNL A   1      34.706  19.974  25.536  1.00  0.00     0.346 HD
ENDBRANCH   8  13
BRANCH  12  17
ATOM     17  O   UNL A   1      32.577  24.208  22.630  1.00  0.00    -0.490 OA
BRANCH  17  18
ATOM     18  C   UNL A   1      32.573  25.557  22.628  1.00  0.00     0.119 A 
ATOM     19  C   UNL A   1      33.637  26.413  22.404  1.00  0.00     0.046 A 
ATOM     20  C   UNL A   1      31.301  26.091  22.864  1.00  0.00     0.049 A 
ATOM     21  C   UNL A   1      33.436  27.799  22.467  1.00  0.00     0.004 A 
ATOM     22  C   UNL A   1      31.083  27.469  22.924  1.00  0.00    -0.047 A 
ATOM     23  C   UNL A   1      32.168  28.325  22.730  1.00  0.00     0.003 A 
ATOM     24  C   UNL A   1      29.706  27.993  23.179  1.00  0.00     0.044 C 
ENDBRANCH  17  18
ENDBRANCH  12  17
ENDBRANCH   5   8
ENDBRANCH   3   4
ENDBRANCH   2   3
ENDBRANCH   1   2
BRANCH   1  25
ATOM     25  C   UNL A   1      32.132  27.704  27.021  1.00  0.00     0.002 C 
BRANCH  25  26
ATOM     26  C   UNL A   1      31.599  29.061  26.540  1.00  0.00     0.021 C 
BRANCH  26  27
ATOM     27  C   UNL A   1      32.616  30.036  25.941  1.00  0.00     0.116 C 
BRANCH  27  28
ATOM     28  N   UNL A   1      32.425  31.412  26.373  1.00  0.00    -0.352 N 
ATOM     29  C   UNL A   1      33.151  32.175  27.260  1.00  0.00     0.251 C 
ATOM     30  H   UNL A   1      31.655  31.871  25.966  1.00  0.00     0.163 HD
ATOM     31  O   UNL A   1      32.768  33.305  27.549  1.00  0.00    -0.269 OA
BRANCH  29  32
ATOM     32  C   UNL A   1      34.382  31.648  27.899  1.00  0.00     0.039 A 
ATOM     33  C   UNL A   1      35.474  32.499  28.075  1.00  0.00     0.014 A 
ATOM     34  C   UNL A   1      34.497  30.309  28.268  1.00  0.00     0.014 A 
ATOM     35  C   UNL A   1      36.644  32.023  28.682  1.00  0.00     0.010 A 
ATOM     36  C   UNL A   1      35.636  29.850  28.943  1.00  0.00     0.010 A 
ATOM     37  C   UNL A   1      36.727  30.703  29.167  1.00  0.00    -0.014 A 
BRANCH  37  38
ATOM     38  C   UNL A   1      37.932  30.246  29.924  1.00  0.00     0.031 A 
ATOM     39  C   UNL A   1      38.183  30.670  31.351  1.00  0.00     0.074 A 
ATOM     40  C   UNL A   1      38.841  29.455  29.316  1.00  0.00     0.049 A 
ATOM     41  N   UNL A   1      39.178  30.352  32.146  1.00  0.00    -0.248 NA
ATOM     42  C   UNL A   1      37.208  31.587  31.957  1.00  0.00     0.031 C 
ATOM     43  C   UNL A   1      38.776  29.012  27.923  1.00  0.00     0.029 A 
ATOM     44  N   UNL A   1      39.994  28.876  29.793  1.00  0.00    -0.354 N 
ATOM     45  C   UNL A   1      38.959  31.042  33.332  1.00  0.00     0.074 A 
ATOM     46  C   UNL A   1      37.760  31.831  33.139  1.00  0.00     0.031 C 
ATOM     47  C   UNL A   1      39.812  28.196  27.670  1.00  0.00     0.029 A 
ATOM     48  C   UNL A   1      40.636  28.084  28.870  1.00  0.00     0.049 A 
ATOM     49  H   UNL A   1      40.328  29.014  30.708  1.00  0.00     0.167 HD
ATOM     50  C   UNL A   1      39.674  31.009  34.484  1.00  0.00     0.037 A 
ATOM     51  C   UNL A   1      41.757  27.344  28.972  1.00  0.00     0.037 A 
ATOM     52  C   UNL A   1      40.841  30.193  34.710  1.00  0.00     0.049 A 
ATOM     53  C   UNL A   1      42.511  27.295  30.272  1.00  0.00     0.074 A 
ATOM     54  C   UNL A   1      41.571  30.038  35.878  1.00  0.00     0.029 A 
ATOM     55  N   UNL A   1      41.447  29.393  33.754  1.00  0.00    -0.354 N 
ATOM     56  N   UNL A   1      42.245  27.894  31.405  1.00  0.00    -0.248 NA
ATOM     57  C   UNL A   1      43.722  26.460  30.306  1.00  0.00     0.031 C 
ATOM     58  C   UNL A   1      42.641  29.173  35.618  1.00  0.00     0.029 A 
ATOM     59  C   UNL A   1      42.552  28.758  34.301  1.00  0.00     0.049 A 
ATOM     60  H   UNL A   1      41.139  29.292  32.825  1.00  0.00     0.167 HD
ATOM     61  C   UNL A   1      43.237  27.492  32.290  1.00  0.00     0.074 A 
ATOM     62  C   UNL A   1      44.103  26.585  31.569  1.00  0.00     0.031 C 
ATOM     63  C   UNL A   1      43.409  27.849  33.586  1.00  0.00     0.037 A 
BRANCH  50  64
ATOM     64  C   UNL A   1      39.208  31.875  35.620  1.00  0.00     0.064 A 
ATOM     65  C   UNL A   1      38.301  31.402  36.580  1.00  0.00     0.173 A 
ATOM     66  C   UNL A   1      39.726  33.170  35.788  1.00  0.00     0.173 A 
ATOM     67  F   UNL A   1      37.775  30.174  36.463  1.00  0.00    -0.203 F 
ATOM     68  C   UNL A   1      37.910  32.200  37.651  1.00  0.00     0.198 A 
ATOM     69  C   UNL A   1      39.353  33.955  36.876  1.00  0.00     0.198 A 
ATOM     70  F   UNL A   1      40.607  33.666  34.906  1.00  0.00    -0.203 F 
ATOM     71  F   UNL A   1      37.013  31.741  38.534  1.00  0.00    -0.200 F 
ATOM     72  C   UNL A   1      38.442  33.472  37.802  1.00  0.00     0.200 A 
ATOM     73  F   UNL A   1      39.880  35.177  37.029  1.00  0.00    -0.200 F 
ATOM     74  F   UNL A   1      38.072  34.235  38.840  1.00  0.00    -0.200 F 
ENDBRANCH  50  64
BRANCH  51  75
ATOM     75  C   UNL A   1      42.224  26.549  27.806  1.00  0.00     0.064 A 
ATOM     76  C   UNL A   1      41.716  25.265  27.564  1.00  0.00     0.173 A 
ATOM     77  C   UNL A   1      43.184  27.053  26.918  1.00  0.00     0.173 A 
ATOM     78  F   UNL A   1      40.813  24.735  28.401  1.00  0.00    -0.203 F 
ATOM     79  C   UNL A   1      42.163  24.507  26.486  1.00  0.00     0.198 A 
ATOM     80  C   UNL A   1      43.612  26.303  25.824  1.00  0.00     0.198 A 
ATOM     81  F   UNL A   1      43.697  28.277  27.105  1.00  0.00    -0.203 F 
ATOM     82  F   UNL A   1      41.692  23.267  26.300  1.00  0.00    -0.200 F 
ATOM     83  C   UNL A   1      43.106  25.028  25.613  1.00  0.00     0.200 A 
ATOM     84  F   UNL A   1      44.514  26.815  24.976  1.00  0.00    -0.200 F 
ATOM     85  F   UNL A   1      43.534  24.301  24.572  1.00  0.00    -0.200 F 
ENDBRANCH  51  75
BRANCH  63  86
ATOM     86  C   UNL A   1      44.564  27.237  34.324  1.00  0.00     0.064 A 
ATOM     87  C   UNL A   1      45.814  27.870  34.389  1.00  0.00     0.173 A 
ATOM     88  C   UNL A   1      44.410  26.017  35.001  1.00  0.00     0.173 A 
ATOM     89  F   UNL A   1      46.017  29.028  33.745  1.00  0.00    -0.203 F 
ATOM     90  C   UNL A   1      46.873  27.294  35.087  1.00  0.00     0.198 A 
ATOM     91  C   UNL A   1      45.463  25.457  35.719  1.00  0.00     0.198 A 
ATOM     92  F   UNL A   1      43.234  25.373  34.973  1.00  0.00    -0.203 F 
ATOM     93  F   UNL A   1      48.070  27.896  35.100  1.00  0.00    -0.200 F 
ATOM     94  C   UNL A   1      46.695  26.092  35.756  1.00  0.00     0.200 A 
ATOM     95  F   UNL A   1      45.287  24.301  36.372  1.00  0.00    -0.200 F 
ATOM     96  F   UNL A   1      47.714  25.542  36.431  1.00  0.00    -0.200 F 
ENDBRANCH  63  86
ENDBRANCH  37  38
ENDBRANCH  29  32
ENDBRANCH  27  28
ENDBRANCH  26  27
ENDBRANCH  25  26
ENDBRANCH   1  25
TORSDOF 16
ENDMDL
MODEL 3
REMARK VINA RESULT:     -11.6      2.070      8.267
REMARK SMILES C[NH2+][C@@]1(C(=O)NCCCCCCNC(=O)c2ccc(-c3c4nc(c(-c5c(F)c(F)c(F)c(F)c5F)c5ccc([nH]5)c(-c5c(F)c(F)c(F)c(F)c5F)c5nc(c(-c6c(F)c(F)c(F)c(F)c6F)c6ccc3[nH]6)C=C5)C=C4)cc2)CC[C@H](Oc2cccc(C)c2)C1
REMARK SMILES IDX 9 1 8 2 7 3 6 4 4 5 5 6 3 8 79 9 90 10 80 11 81 12 2 13 1 14
REMARK SMILES IDX 82 17 83 18 84 19 89 20 85 21 87 22 86 23 88 24 10 25 11 26
REMARK SMILES IDX 12 27 13 28 14 29 15 31 16 32 17 33 78 34 18 35 77 36 19 37
REMARK SMILES IDX 20 38 21 39 71 40 22 41 76 42 70 43 72 44 23 45 75 46 69 47
REMARK SMILES IDX 68 48 24 50 56 51 36 52 55 53 37 54 40 55 54 56 73 57 38 58
REMARK SMILES IDX 39 59 53 61 74 62 41 63 25 64 26 65 34 66 27 67 28 68 32 69
REMARK SMILES IDX 35 70 29 71 30 72 33 73 31 74 57 75 58 76 66 77 59 78 60 79
REMARK SMILES IDX 64 80 67 81 61 82 62 83 65 84 63 85 42 86 43 87 51 88 44 89
REMARK SMILES IDX 45 90 49 91 52 92 46 93 47 94 50 95 48 96
REMARK H PARENT 6 7 2 15 2 16 13 30 72 49 40 60
REMARK Flexibility Score: inf
ROOT
ATOM      1  C   UNL A   1      34.037  31.959  28.394  1.00  0.00     0.002 C 
ENDROOT
BRANCH   1   2
ATOM      2  C   UNL A   1      35.070  31.116  27.648  1.00  0.00     0.021 C 
BRANCH   2   3
ATOM      3  C   UNL A   1      34.687  29.675  27.326  1.00  0.00     0.116 C 
BRANCH   3   4
ATOM      4  N   UNL A   1      33.389  29.269  27.812  1.00  0.00    -0.351 N 
ATOM      5  C   UNL A   1      32.433  28.458  27.281  1.00  0.00     0.281 C 
ATOM      6  O   UNL A   1      31.554  28.110  28.088  1.00  0.00    -0.268 OA
ATOM      7  H   UNL A   1      33.152  29.648  28.689  1.00  0.00     0.163 HD
BRANCH   5   8
ATOM      8  C   UNL A   1      32.392  27.909  25.787  1.00  0.00     0.179 C 
ATOM      9  C   UNL A   1      31.082  27.148  25.511  1.00  0.00     0.083 C 
ATOM     10  C   UNL A   1      33.498  26.929  25.381  1.00  0.00     0.124 C 
ATOM     11  C   UNL A   1      31.416  25.662  25.595  1.00  0.00     0.052 C 
ATOM     12  C   UNL A   1      32.859  25.552  25.105  1.00  0.00     0.180 C 
BRANCH   8  13
ATOM     13  N   UNL A   1      32.376  29.108  24.881  1.00  0.00    -0.336 N 
ATOM     14  C   UNL A   1      31.279  30.046  25.133  1.00  0.00     0.331 C 
ATOM     15  H   UNL A   1      33.256  29.610  25.001  1.00  0.00     0.346 HD
ATOM     16  H   UNL A   1      32.242  28.755  23.934  1.00  0.00     0.346 HD
ENDBRANCH   8  13
BRANCH  12  17
ATOM     17  O   UNL A   1      33.783  24.621  25.652  1.00  0.00    -0.490 OA
BRANCH  17  18
ATOM     18  C   UNL A   1      34.814  24.015  25.026  1.00  0.00     0.119 A 
ATOM     19  C   UNL A   1      34.838  23.472  23.753  1.00  0.00     0.046 A 
ATOM     20  C   UNL A   1      35.975  23.989  25.806  1.00  0.00     0.049 A 
ATOM     21  C   UNL A   1      36.008  22.859  23.284  1.00  0.00     0.004 A 
ATOM     22  C   UNL A   1      37.151  23.388  25.351  1.00  0.00    -0.047 A 
ATOM     23  C   UNL A   1      37.157  22.812  24.079  1.00  0.00     0.003 A 
ATOM     24  C   UNL A   1      38.368  23.383  26.220  1.00  0.00     0.044 C 
ENDBRANCH  17  18
ENDBRANCH  12  17
ENDBRANCH   5   8
ENDBRANCH   3   4
ENDBRANCH   2   3
ENDBRANCH   1   2
BRANCH   1  25
ATOM     25  C   UNL A   1      34.386  33.432  28.641  1.00  0.00     0.002 C 
BRANCH  25  26
ATOM     26  C   UNL A   1      33.266  34.469  28.468  1.00  0.00     0.021 C 
BRANCH  26  27
ATOM     27  C   UNL A   1      33.415  35.789  29.230  1.00  0.00     0.116 C 
BRANCH  27  28
ATOM     28  N   UNL A   1      32.515  35.907  30.368  1.00  0.00    -0.352 N 
ATOM     29  C   UNL A   1      32.665  35.480  31.668  1.00  0.00     0.251 C 
ATOM     30  H   UNL A   1      31.665  36.364  30.177  1.00  0.00     0.163 HD
ATOM     31  O   UNL A   1      31.738  35.610  32.463  1.00  0.00    -0.269 OA
BRANCH  29  32
ATOM     32  C   UNL A   1      33.921  34.838  32.128  1.00  0.00     0.039 A 
ATOM     33  C   UNL A   1      33.901  33.494  32.500  1.00  0.00     0.014 A 
ATOM     34  C   UNL A   1      35.105  35.563  32.259  1.00  0.00     0.014 A 
ATOM     35  C   UNL A   1      35.078  32.867  32.931  1.00  0.00     0.010 A 
ATOM     36  C   UNL A   1      36.298  34.921  32.616  1.00  0.00     0.010 A 
ATOM     37  C   UNL A   1      36.305  33.560  32.953  1.00  0.00    -0.014 A 
BRANCH  37  38
ATOM     38  C   UNL A   1      37.574  32.846  33.293  1.00  0.00     0.031 A 
ATOM     39  C   UNL A   1      38.322  33.121  34.575  1.00  0.00     0.074 A 
ATOM     40  C   UNL A   1      38.088  31.949  32.426  1.00  0.00     0.049 A 
ATOM     41  N   UNL A   1      39.433  32.579  35.018  1.00  0.00    -0.248 NA
ATOM     42  C   UNL A   1      37.769  34.154  35.463  1.00  0.00     0.031 C 
ATOM     43  C   UNL A   1      37.520  31.620  31.118  1.00  0.00     0.029 A 
ATOM     44  N   UNL A   1      39.200  31.144  32.514  1.00  0.00    -0.354 N 
ATOM     45  C   UNL A   1      39.719  33.216  36.220  1.00  0.00     0.074 A 
ATOM     46  C   UNL A   1      38.690  34.216  36.416  1.00  0.00     0.031 C 
ATOM     47  C   UNL A   1      38.256  30.653  30.548  1.00  0.00     0.029 A 
ATOM     48  C   UNL A   1      39.369  30.316  31.430  1.00  0.00     0.049 A 
ATOM     49  H   UNL A   1      39.816  31.159  33.281  1.00  0.00     0.167 HD
ATOM     50  C   UNL A   1      40.730  32.978  37.092  1.00  0.00     0.037 A 
ATOM     51  C   UNL A   1      40.307  29.383  31.171  1.00  0.00     0.037 A 
ATOM     52  C   UNL A   1      41.733  31.955  36.936  1.00  0.00     0.049 A 
ATOM     53  C   UNL A   1      41.396  29.114  32.172  1.00  0.00     0.074 A 
ATOM     54  C   UNL A   1      42.741  31.595  37.817  1.00  0.00     0.029 A 
ATOM     55  N   UNL A   1      41.858  31.128  35.832  1.00  0.00    -0.354 N 
ATOM     56  N   UNL A   1      41.606  29.673  33.337  1.00  0.00    -0.248 NA
ATOM     57  C   UNL A   1      42.379  28.078  31.819  1.00  0.00     0.031 C 
ATOM     58  C   UNL A   1      43.497  30.574  37.229  1.00  0.00     0.029 A 
ATOM     59  C   UNL A   1      42.935  30.271  36.002  1.00  0.00     0.049 A 
ATOM     60  H   UNL A   1      41.269  31.145  35.043  1.00  0.00     0.167 HD
ATOM     61  C   UNL A   1      42.725  29.043  33.866  1.00  0.00     0.074 A 
ATOM     62  C   UNL A   1      43.143  28.048  32.902  1.00  0.00     0.031 C 
ATOM     63  C   UNL A   1      43.347  29.276  35.047  1.00  0.00     0.037 A 
BRANCH  50  64
ATOM     64  C   UNL A   1      40.804  33.835  38.324  1.00  0.00     0.064 A 
ATOM     65  C   UNL A   1      41.584  35.000  38.363  1.00  0.00     0.173 A 
ATOM     66  C   UNL A   1      40.032  33.525  39.456  1.00  0.00     0.173 A 
ATOM     67  F   UNL A   1      42.342  35.339  37.309  1.00  0.00    -0.203 F 
ATOM     68  C   UNL A   1      41.610  35.808  39.495  1.00  0.00     0.198 A 
ATOM     69  C   UNL A   1      40.039  34.350  40.577  1.00  0.00     0.198 A 
ATOM     70  F   UNL A   1      39.257  32.430  39.466  1.00  0.00    -0.203 F 
ATOM     71  F   UNL A   1      42.393  36.895  39.523  1.00  0.00    -0.200 F 
ATOM     72  C   UNL A   1      40.833  35.487  40.598  1.00  0.00     0.200 A 
ATOM     73  F   UNL A   1      39.275  34.047  41.635  1.00  0.00    -0.200 F 
ATOM     74  F   UNL A   1      40.850  36.273  41.684  1.00  0.00    -0.200 F 
ENDBRANCH  50  64
BRANCH  51  75
ATOM     75  C   UNL A   1      40.238  28.599  29.911  1.00  0.00     0.064 A 
ATOM     76  C   UNL A   1      39.560  27.373  29.865  1.00  0.00     0.173 A 
ATOM     77  C   UNL A   1      40.848  29.056  28.734  1.00  0.00     0.173 A 
ATOM     78  F   UNL A   1      38.982  26.888  30.973  1.00  0.00    -0.203 F 
ATOM     79  C   UNL A   1      39.508  26.624  28.693  1.00  0.00     0.198 A 
ATOM     80  C   UNL A   1      40.774  28.317  27.555  1.00  0.00     0.198 A 
ATOM     81  F   UNL A   1      41.505  30.224  28.727  1.00  0.00    -0.203 F 
ATOM     82  F   UNL A   1      38.890  25.435  28.687  1.00  0.00    -0.200 F 
ATOM     83  C   UNL A   1      40.110  27.099  27.537  1.00  0.00     0.200 A 
ATOM     84  F   UNL A   1      41.345  28.785  26.438  1.00  0.00    -0.200 F 
ATOM     85  F   UNL A   1      40.058  26.380  26.408  1.00  0.00    -0.200 F 
ENDBRANCH  51  75
BRANCH  63  86
ATOM     86  C   UNL A   1      44.533  28.420  35.383  1.00  0.00     0.064 A 
ATOM     87  C   UNL A   1      44.394  27.212  36.084  1.00  0.00     0.173 A 
ATOM     88  C   UNL A   1      45.821  28.795  34.972  1.00  0.00     0.173 A 
ATOM     89  F   UNL A   1      43.186  26.818  36.514  1.00  0.00    -0.203 F 
ATOM     90  C   UNL A   1      45.503  26.424  36.380  1.00  0.00     0.198 A 
ATOM     91  C   UNL A   1      46.925  27.992  35.248  1.00  0.00     0.198 A 
ATOM     92  F   UNL A   1      46.009  29.938  34.296  1.00  0.00    -0.203 F 
ATOM     93  F   UNL A   1      45.351  25.296  37.087  1.00  0.00    -0.200 F 
ATOM     94  C   UNL A   1      46.766  26.810  35.956  1.00  0.00     0.200 A 
ATOM     95  F   UNL A   1      48.143  28.362  34.829  1.00  0.00    -0.200 F 
ATOM     96  F   UNL A   1      47.831  26.048  36.238  1.00  0.00    -0.200 F 
ENDBRANCH  63  86
ENDBRANCH  37  38
ENDBRANCH  29  32
ENDBRANCH  27  28
ENDBRANCH  26  27
ENDBRANCH  25  26
ENDBRANCH   1  25
TORSDOF 16
ENDMDL
