MODEL 1
REMARK VINA RESULT:     -13.1      0.000      0.000
REMARK SMILES COc1ccc(-c2nc3ccc(C)cc3[nH]2)c(C(=O)NCCCCCCNC(=O)c2ccc(-c3c4nc(c(-c5c(F)c(F)c(F)c(F)c5F)c5ccc([nH]5)c(-c5c(F)c(F)c(F)c(F)c5F)c5nc(c(-c6c(F)c(F)c(F)c(F)c6F)c6ccc3[nH]6)C=C5)C=C4)cc2)c1OC
REMARK SMILES IDX 24 1 23 2 22 3 21 4 20 5 18 6 19 7 17 9 3 10 4 11 93 12 5 13
REMARK SMILES IDX 6 14 2 15 1 16 94 17 95 18 7 19 8 20 16 21 9 22 15 23 10 25
REMARK SMILES IDX 14 26 11 27 12 28 13 29 25 30 26 31 27 32 28 33 29 35 30 36
REMARK SMILES IDX 31 37 92 38 32 39 91 40 33 41 34 42 35 43 85 44 36 45 90 46
REMARK SMILES IDX 84 47 86 48 37 49 89 50 83 51 82 52 38 54 70 55 50 56 69 57
REMARK SMILES IDX 51 58 54 59 68 60 87 61 52 62 53 63 67 65 88 66 55 67 39 68
REMARK SMILES IDX 40 69 48 70 41 71 42 72 46 73 49 74 43 75 44 76 47 77 45 78
REMARK SMILES IDX 71 79 72 80 80 81 73 82 74 83 78 84 81 85 75 86 76 87 79 88
REMARK SMILES IDX 77 89 56 90 57 91 65 92 58 93 59 94 63 95 66 96 60 97 61 98
REMARK SMILES IDX 64 99 62 100
REMARK H PARENT 20 8 16 24 27 34 86 53 54 64
REMARK Flexibility Score: inf
ROOT
ATOM      1  C   UNL A   1      31.512  30.708  26.069  1.00  0.00     0.002 C 
ENDROOT
BRANCH   1   2
ATOM      2  C   UNL A   1      32.314  29.760  26.968  1.00  0.00     0.002 C 
BRANCH   2   3
ATOM      3  C   UNL A   1      31.679  28.416  27.329  1.00  0.00     0.021 C 
BRANCH   3   4
ATOM      4  C   UNL A   1      32.254  27.182  26.649  1.00  0.00     0.116 C 
BRANCH   4   5
ATOM      5  N   UNL A   1      33.261  27.357  25.633  1.00  0.00    -0.352 N 
ATOM      6  C   UNL A   1      33.203  26.838  24.345  1.00  0.00     0.255 C 
ATOM      7  O   UNL A   1      33.753  27.436  23.421  1.00  0.00    -0.269 OA
ATOM      8  H   UNL A   1      34.054  27.887  25.870  1.00  0.00     0.163 HD
BRANCH   6   9
ATOM      9  C   UNL A   1      32.541  25.522  24.074  1.00  0.00     0.096 A 
ATOM     10  C   UNL A   1      32.613  23.105  23.830  1.00  0.00     0.161 A 
ATOM     11  C   UNL A   1      31.290  23.135  23.365  1.00  0.00     0.051 A 
ATOM     12  C   UNL A   1      33.226  24.292  24.267  1.00  0.00     0.174 A 
ATOM     13  C   UNL A   1      30.574  24.332  23.297  1.00  0.00     0.017 A 
ATOM     14  C   UNL A   1      31.199  25.546  23.607  1.00  0.00     0.034 A 
BRANCH  10  15
ATOM     15  O   UNL A   1      33.262  21.924  23.584  1.00  0.00    -0.493 OA
ATOM     16  C   UNL A   1      32.746  20.764  24.218  1.00  0.00     0.278 C 
ENDBRANCH  10  15
BRANCH  12  17
ATOM     17  O   UNL A   1      34.396  24.364  24.981  1.00  0.00    -0.492 OA
ATOM     18  C   UNL A   1      34.457  23.804  26.285  1.00  0.00     0.278 C 
ENDBRANCH  12  17
BRANCH  14  19
ATOM     19  C   UNL A   1      30.468  26.804  23.395  1.00  0.00     0.139 A 
ATOM     20  N   UNL A   1      29.250  27.069  23.828  1.00  0.00    -0.228 NA
ATOM     21  N   UNL A   1      30.947  27.866  22.653  1.00  0.00    -0.338 N 
ATOM     22  C   UNL A   1      28.876  28.235  23.209  1.00  0.00     0.089 A 
ATOM     23  C   UNL A   1      29.928  28.774  22.480  1.00  0.00     0.066 A 
ATOM     24  H   UNL A   1      31.863  27.958  22.306  1.00  0.00     0.168 HD
ATOM     25  C   UNL A   1      27.635  28.882  23.203  1.00  0.00     0.031 A 
ATOM     26  C   UNL A   1      29.821  29.961  21.744  1.00  0.00     0.031 A 
ATOM     27  C   UNL A   1      27.487  30.052  22.447  1.00  0.00     0.006 A 
ATOM     28  C   UNL A   1      28.562  30.593  21.726  1.00  0.00    -0.049 A 
ATOM     29  C   UNL A   1      28.340  31.847  20.926  1.00  0.00     0.044 C 
ENDBRANCH  14  19
ENDBRANCH   6   9
ENDBRANCH   4   5
ENDBRANCH   3   4
ENDBRANCH   2   3
ENDBRANCH   1   2
BRANCH   1  30
ATOM     30  C   UNL A   1      31.350  32.159  26.532  1.00  0.00     0.021 C 
BRANCH  30  31
ATOM     31  C   UNL A   1      32.534  32.778  27.268  1.00  0.00     0.116 C 
BRANCH  31  32
ATOM     32  N   UNL A   1      32.314  34.165  27.641  1.00  0.00    -0.352 N 
ATOM     33  C   UNL A   1      32.953  34.946  28.572  1.00  0.00     0.251 C 
ATOM     34  H   UNL A   1      31.593  34.617  27.147  1.00  0.00     0.163 HD
ATOM     35  O   UNL A   1      32.529  36.068  28.824  1.00  0.00    -0.269 OA
BRANCH  33  36
ATOM     36  C   UNL A   1      34.137  34.437  29.302  1.00  0.00     0.039 A 
ATOM     37  C   UNL A   1      33.946  33.857  30.561  1.00  0.00     0.014 A 
ATOM     38  C   UNL A   1      35.426  34.543  28.774  1.00  0.00     0.014 A 
ATOM     39  C   UNL A   1      35.035  33.325  31.255  1.00  0.00     0.010 A 
ATOM     40  C   UNL A   1      36.500  33.945  29.433  1.00  0.00     0.010 A 
ATOM     41  C   UNL A   1      36.314  33.327  30.679  1.00  0.00    -0.014 A 
BRANCH  41  42
ATOM     42  C   UNL A   1      37.459  32.662  31.356  1.00  0.00     0.031 A 
ATOM     43  C   UNL A   1      38.154  31.494  30.718  1.00  0.00     0.074 A 
ATOM     44  C   UNL A   1      37.828  33.074  32.584  1.00  0.00     0.049 A 
ATOM     45  N   UNL A   1      39.137  30.761  31.180  1.00  0.00    -0.248 NA
ATOM     46  C   UNL A   1      37.661  31.073  29.399  1.00  0.00     0.031 C 
ATOM     47  C   UNL A   1      37.195  34.160  33.334  1.00  0.00     0.029 A 
ATOM     48  N   UNL A   1      38.815  32.620  33.424  1.00  0.00    -0.354 N 
ATOM     49  C   UNL A   1      39.371  29.790  30.216  1.00  0.00     0.074 A 
ATOM     50  C   UNL A   1      38.389  29.990  29.171  1.00  0.00     0.031 C 
ATOM     51  C   UNL A   1      37.820  34.303  34.511  1.00  0.00     0.029 A 
ATOM     52  C   UNL A   1      38.868  33.292  34.620  1.00  0.00     0.049 A 
ATOM     53  H   UNL A   1      39.425  31.884  33.192  1.00  0.00     0.167 HD
ATOM     54  C   UNL A   1      40.328  28.830  30.196  1.00  0.00     0.037 A 
ATOM     55  C   UNL A   1      39.665  33.111  35.691  1.00  0.00     0.037 A 
ATOM     56  C   UNL A   1      41.307  28.642  31.235  1.00  0.00     0.049 A 
ATOM     57  C   UNL A   1      40.716  32.036  35.651  1.00  0.00     0.074 A 
ATOM     58  C   UNL A   1      42.365  27.751  31.275  1.00  0.00     0.029 A 
ATOM     59  N   UNL A   1      41.337  29.348  32.431  1.00  0.00    -0.354 N 
ATOM     60  N   UNL A   1      40.985  31.178  34.698  1.00  0.00    -0.248 NA
ATOM     61  C   UNL A   1      41.575  31.908  36.835  1.00  0.00     0.031 C 
ATOM     62  C   UNL A   1      42.994  27.872  32.520  1.00  0.00     0.029 A 
ATOM     63  C   UNL A   1      42.371  28.884  33.231  1.00  0.00     0.049 A 
ATOM     64  H   UNL A   1      40.717  30.072  32.674  1.00  0.00     0.167 HD
ATOM     65  C   UNL A   1      42.053  30.420  35.155  1.00  0.00     0.074 A 
ATOM     66  C   UNL A   1      42.397  30.935  36.466  1.00  0.00     0.031 C 
ATOM     67  C   UNL A   1      42.693  29.392  34.543  1.00  0.00     0.037 A 
BRANCH  54  68
ATOM     68  C   UNL A   1      40.347  27.899  29.015  1.00  0.00     0.064 A 
ATOM     69  C   UNL A   1      41.111  28.167  27.868  1.00  0.00     0.173 A 
ATOM     70  C   UNL A   1      39.593  26.713  29.033  1.00  0.00     0.173 A 
ATOM     71  F   UNL A   1      41.846  29.287  27.793  1.00  0.00    -0.203 F 
ATOM     72  C   UNL A   1      41.081  27.313  26.768  1.00  0.00     0.198 A 
ATOM     73  C   UNL A   1      39.595  25.843  27.946  1.00  0.00     0.198 A 
ATOM     74  F   UNL A   1      38.851  26.399  30.106  1.00  0.00    -0.203 F 
ATOM     75  F   UNL A   1      41.763  27.629  25.658  1.00  0.00    -0.200 F 
ATOM     76  C   UNL A   1      40.327  26.151  26.809  1.00  0.00     0.200 A 
ATOM     77  F   UNL A   1      38.879  24.712  27.994  1.00  0.00    -0.200 F 
ATOM     78  F   UNL A   1      40.297  25.331  25.749  1.00  0.00    -0.200 F 
ENDBRANCH  54  68
BRANCH  55  79
ATOM     79  C   UNL A   1      39.499  33.987  36.880  1.00  0.00     0.064 A 
ATOM     80  C   UNL A   1      38.736  33.575  37.980  1.00  0.00     0.173 A 
ATOM     81  C   UNL A   1      40.133  35.236  36.955  1.00  0.00     0.173 A 
ATOM     82  F   UNL A   1      38.094  32.398  37.947  1.00  0.00    -0.203 F 
ATOM     83  C   UNL A   1      38.609  34.383  39.109  1.00  0.00     0.198 A 
ATOM     84  C   UNL A   1      40.029  36.029  38.096  1.00  0.00     0.198 A 
ATOM     85  F   UNL A   1      40.880  35.673  35.930  1.00  0.00    -0.203 F 
ATOM     86  F   UNL A   1      37.848  33.979  40.136  1.00  0.00    -0.200 F 
ATOM     87  C   UNL A   1      39.263  35.603  39.170  1.00  0.00     0.200 A 
ATOM     88  F   UNL A   1      40.679  37.199  38.156  1.00  0.00    -0.200 F 
ATOM     89  F   UNL A   1      39.155  36.370  40.263  1.00  0.00    -0.200 F 
ENDBRANCH  55  79
BRANCH  67  90
ATOM     90  C   UNL A   1      43.838  28.757  35.281  1.00  0.00     0.064 A 
ATOM     91  C   UNL A   1      45.144  29.261  35.190  1.00  0.00     0.173 A 
ATOM     92  C   UNL A   1      43.621  27.652  36.119  1.00  0.00     0.173 A 
ATOM     93  F   UNL A   1      45.410  30.307  34.391  1.00  0.00    -0.203 F 
ATOM     94  C   UNL A   1      46.193  28.666  35.887  1.00  0.00     0.198 A 
ATOM     95  C   UNL A   1      44.665  27.081  36.842  1.00  0.00     0.198 A 
ATOM     96  F   UNL A   1      42.391  27.133  36.249  1.00  0.00    -0.203 F 
ATOM     97  F   UNL A   1      47.441  29.133  35.742  1.00  0.00    -0.200 F 
ATOM     98  C   UNL A   1      45.951  27.584  36.718  1.00  0.00     0.200 A 
ATOM     99  F   UNL A   1      44.426  26.045  37.656  1.00  0.00    -0.200 F 
ATOM    100  F   UNL A   1      46.961  27.017  37.394  1.00  0.00    -0.200 F 
ENDBRANCH  67  90
ENDBRANCH  41  42
ENDBRANCH  33  36
ENDBRANCH  31  32
ENDBRANCH  30  31
ENDBRANCH   1  30
TORSDOF 16
ENDMDL
MODEL 2
REMARK VINA RESULT:     -13.1      0.725      2.055
REMARK SMILES COc1ccc(-c2nc3ccc(C)cc3[nH]2)c(C(=O)NCCCCCCNC(=O)c2ccc(-c3c4nc(c(-c5c(F)c(F)c(F)c(F)c5F)c5ccc([nH]5)c(-c5c(F)c(F)c(F)c(F)c5F)c5nc(c(-c6c(F)c(F)c(F)c(F)c6F)c6ccc3[nH]6)C=C5)C=C4)cc2)c1OC
REMARK SMILES IDX 24 1 23 2 22 3 21 4 20 5 18 6 19 7 17 9 3 10 4 11 93 12 5 13
REMARK SMILES IDX 6 14 2 15 1 16 94 17 95 18 7 19 8 20 16 21 9 22 15 23 10 25
REMARK SMILES IDX 14 26 11 27 12 28 13 29 25 30 26 31 27 32 28 33 29 35 30 36
REMARK SMILES IDX 31 37 92 38 32 39 91 40 33 41 34 42 35 43 85 44 36 45 90 46
REMARK SMILES IDX 84 47 86 48 37 49 89 50 83 51 82 52 38 54 70 55 50 56 69 57
REMARK SMILES IDX 51 58 54 59 68 60 87 61 52 62 53 63 67 65 88 66 55 67 39 68
REMARK SMILES IDX 40 69 48 70 41 71 42 72 46 73 49 74 43 75 44 76 47 77 45 78
REMARK SMILES IDX 71 79 72 80 80 81 73 82 74 83 78 84 81 85 75 86 76 87 79 88
REMARK SMILES IDX 77 89 56 90 57 91 65 92 58 93 59 94 63 95 66 96 60 97 61 98
REMARK SMILES IDX 64 99 62 100
REMARK H PARENT 20 8 16 24 27 34 86 53 54 64
REMARK Flexibility Score: inf
ROOT
ATOM      1  C   UNL A   1      31.627  30.807  26.432  1.00  0.00     0.002 C 
ENDROOT
BRANCH   1   2
ATOM      2  C   UNL A   1      32.677  30.029  27.233  1.00  0.00     0.002 C 
BRANCH   2   3
ATOM      3  C   UNL A   1      33.856  29.429  26.466  1.00  0.00     0.021 C 
BRANCH   3   4
ATOM      4  C   UNL A   1      33.574  28.183  25.640  1.00  0.00     0.116 C 
BRANCH   4   5
ATOM      5  N   UNL A   1      34.110  28.100  24.306  1.00  0.00    -0.352 N 
ATOM      6  C   UNL A   1      33.451  27.563  23.206  1.00  0.00     0.255 C 
ATOM      7  O   UNL A   1      33.693  27.996  22.080  1.00  0.00    -0.269 OA
ATOM      8  H   UNL A   1      35.017  28.451  24.161  1.00  0.00     0.163 HD
BRANCH   6   9
ATOM      9  C   UNL A   1      32.501  26.416  23.361  1.00  0.00     0.096 A 
ATOM     10  C   UNL A   1      32.035  24.037  23.531  1.00  0.00     0.161 A 
ATOM     11  C   UNL A   1      30.664  24.322  23.452  1.00  0.00     0.051 A 
ATOM     12  C   UNL A   1      32.966  25.089  23.568  1.00  0.00     0.174 A 
ATOM     13  C   UNL A   1      30.202  25.639  23.377  1.00  0.00     0.017 A 
ATOM     14  C   UNL A   1      31.111  26.700  23.287  1.00  0.00     0.034 A 
BRANCH  10  15
ATOM     15  O   UNL A   1      32.341  22.718  23.323  1.00  0.00    -0.493 OA
ATOM     16  C   UNL A   1      32.261  21.856  24.449  1.00  0.00     0.278 C 
ENDBRANCH  10  15
BRANCH  12  17
ATOM     17  O   UNL A   1      34.290  24.965  23.907  1.00  0.00    -0.492 OA
ATOM     18  C   UNL A   1      34.644  24.628  25.241  1.00  0.00     0.278 C 
ENDBRANCH  12  17
BRANCH  14  19
ATOM     19  C   UNL A   1      30.602  28.062  23.069  1.00  0.00     0.139 A 
ATOM     20  N   UNL A   1      30.231  28.905  24.015  1.00  0.00    -0.228 NA
ATOM     21  N   UNL A   1      30.389  28.624  21.826  1.00  0.00    -0.338 N 
ATOM     22  C   UNL A   1      29.608  29.944  23.369  1.00  0.00     0.089 A 
ATOM     23  C   UNL A   1      29.710  29.809  21.991  1.00  0.00     0.066 A 
ATOM     24  H   UNL A   1      30.676  28.241  20.966  1.00  0.00     0.168 HD
ATOM     25  C   UNL A   1      28.906  31.031  23.902  1.00  0.00     0.031 A 
ATOM     26  C   UNL A   1      29.158  30.727  21.088  1.00  0.00     0.031 A 
ATOM     27  C   UNL A   1      28.312  31.947  23.024  1.00  0.00     0.006 A 
ATOM     28  C   UNL A   1      28.434  31.806  21.633  1.00  0.00    -0.049 A 
ATOM     29  C   UNL A   1      27.767  32.816  20.742  1.00  0.00     0.044 C 
ENDBRANCH  14  19
ENDBRANCH   6   9
ENDBRANCH   4   5
ENDBRANCH   3   4
ENDBRANCH   2   3
ENDBRANCH   1   2
BRANCH   1  30
ATOM     30  C   UNL A   1      31.470  32.302  26.729  1.00  0.00     0.021 C 
BRANCH  30  31
ATOM     31  C   UNL A   1      32.715  33.037  27.213  1.00  0.00     0.116 C 
BRANCH  31  32
ATOM     32  N   UNL A   1      32.435  34.374  27.707  1.00  0.00    -0.352 N 
ATOM     33  C   UNL A   1      33.020  35.086  28.725  1.00  0.00     0.251 C 
ATOM     34  H   UNL A   1      31.710  34.845  27.236  1.00  0.00     0.163 HD
ATOM     35  O   UNL A   1      32.548  36.164  29.067  1.00  0.00    -0.269 OA
BRANCH  33  36
ATOM     36  C   UNL A   1      34.203  34.551  29.439  1.00  0.00     0.039 A 
ATOM     37  C   UNL A   1      34.010  33.933  30.678  1.00  0.00     0.014 A 
ATOM     38  C   UNL A   1      35.492  34.672  28.915  1.00  0.00     0.014 A 
ATOM     39  C   UNL A   1      35.098  33.377  31.356  1.00  0.00     0.010 A 
ATOM     40  C   UNL A   1      36.565  34.051  29.555  1.00  0.00     0.010 A 
ATOM     41  C   UNL A   1      36.378  33.395  30.781  1.00  0.00    -0.014 A 
BRANCH  41  42
ATOM     42  C   UNL A   1      37.520  32.706  31.436  1.00  0.00     0.031 A 
ATOM     43  C   UNL A   1      38.198  31.543  30.773  1.00  0.00     0.074 A 
ATOM     44  C   UNL A   1      37.904  33.093  32.668  1.00  0.00     0.049 A 
ATOM     45  N   UNL A   1      39.177  30.791  31.214  1.00  0.00    -0.248 NA
ATOM     46  C   UNL A   1      37.690  31.150  29.451  1.00  0.00     0.031 C 
ATOM     47  C   UNL A   1      37.289  34.173  33.442  1.00  0.00     0.029 A 
ATOM     48  N   UNL A   1      38.893  32.615  33.492  1.00  0.00    -0.354 N 
ATOM     49  C   UNL A   1      39.393  29.834  30.232  1.00  0.00     0.074 A 
ATOM     50  C   UNL A   1      38.405  30.063  29.199  1.00  0.00     0.031 C 
ATOM     51  C   UNL A   1      37.925  34.289  34.616  1.00  0.00     0.029 A 
ATOM     52  C   UNL A   1      38.963  33.266  34.699  1.00  0.00     0.049 A 
ATOM     53  H   UNL A   1      39.494  31.876  33.242  1.00  0.00     0.167 HD
ATOM     54  C   UNL A   1      40.340  28.866  30.187  1.00  0.00     0.037 A 
ATOM     55  C   UNL A   1      39.767  33.057  35.759  1.00  0.00     0.037 A 
ATOM     56  C   UNL A   1      41.326  28.650  31.215  1.00  0.00     0.049 A 
ATOM     57  C   UNL A   1      40.806  31.973  35.693  1.00  0.00     0.074 A 
ATOM     58  C   UNL A   1      42.375  27.748  31.230  1.00  0.00     0.029 A 
ATOM     59  N   UNL A   1      41.373  29.335  32.422  1.00  0.00    -0.354 N 
ATOM     60  N   UNL A   1      41.058  31.129  34.722  1.00  0.00    -0.248 NA
ATOM     61  C   UNL A   1      41.674  31.815  36.867  1.00  0.00     0.031 C 
ATOM     62  C   UNL A   1      43.015  27.840  32.471  1.00  0.00     0.029 A 
ATOM     63  C   UNL A   1      42.408  28.846  33.205  1.00  0.00     0.049 A 
ATOM     64  H   UNL A   1      40.763  30.061  32.682  1.00  0.00     0.167 HD
ATOM     65  C   UNL A   1      42.123  30.352  35.158  1.00  0.00     0.074 A 
ATOM     66  C   UNL A   1      42.482  30.840  36.474  1.00  0.00     0.031 C 
ATOM     67  C   UNL A   1      42.746  29.328  34.523  1.00  0.00     0.037 A 
BRANCH  54  68
ATOM     68  C   UNL A   1      40.339  27.955  28.990  1.00  0.00     0.064 A 
ATOM     69  C   UNL A   1      39.612  26.754  28.970  1.00  0.00     0.173 A 
ATOM     70  C   UNL A   1      41.072  28.291  27.840  1.00  0.00     0.173 A 
ATOM     71  F   UNL A   1      38.898  26.379  30.042  1.00  0.00    -0.203 F 
ATOM     72  C   UNL A   1      39.658  25.903  27.868  1.00  0.00     0.198 A 
ATOM     73  C   UNL A   1      41.086  27.455  26.726  1.00  0.00     0.198 A 
ATOM     74  F   UNL A   1      41.779  29.431  27.797  1.00  0.00    -0.203 F 
ATOM     75  F   UNL A   1      39.012  24.728  27.903  1.00  0.00    -0.200 F 
ATOM     76  C   UNL A   1      40.391  26.256  26.747  1.00  0.00     0.200 A 
ATOM     77  F   UNL A   1      41.782  27.807  25.636  1.00  0.00    -0.200 F 
ATOM     78  F   UNL A   1      40.438  25.435  25.687  1.00  0.00    -0.200 F 
ENDBRANCH  54  68
BRANCH  55  79
ATOM     79  C   UNL A   1      39.620  33.915  36.965  1.00  0.00     0.064 A 
ATOM     80  C   UNL A   1      40.229  35.175  37.033  1.00  0.00     0.173 A 
ATOM     81  C   UNL A   1      38.835  33.508  38.054  1.00  0.00     0.173 A 
ATOM     82  F   UNL A   1      41.006  35.600  36.026  1.00  0.00    -0.203 F 
ATOM     83  C   UNL A   1      40.063  35.993  38.149  1.00  0.00     0.198 A 
ATOM     84  C   UNL A   1      38.646  34.340  39.155  1.00  0.00     0.198 A 
ATOM     85  F   UNL A   1      38.226  32.314  38.034  1.00  0.00    -0.203 F 
ATOM     86  F   UNL A   1      40.681  37.182  38.203  1.00  0.00    -0.200 F 
ATOM     87  C   UNL A   1      39.264  35.580  39.204  1.00  0.00     0.200 A 
ATOM     88  F   UNL A   1      37.857  33.943  40.163  1.00  0.00    -0.200 F 
ATOM     89  F   UNL A   1      39.089  36.375  40.268  1.00  0.00    -0.200 F 
ENDBRANCH  55  79
BRANCH  67  90
ATOM     90  C   UNL A   1      43.890  28.669  35.240  1.00  0.00     0.064 A 
ATOM     91  C   UNL A   1      43.693  27.568  36.088  1.00  0.00     0.173 A 
ATOM     92  C   UNL A   1      45.206  29.120  35.050  1.00  0.00     0.173 A 
ATOM     93  F   UNL A   1      42.454  27.106  36.318  1.00  0.00    -0.203 F 
ATOM     94  C   UNL A   1      44.766  26.963  36.739  1.00  0.00     0.198 A 
ATOM     95  C   UNL A   1      46.279  28.492  35.675  1.00  0.00     0.198 A 
ATOM     96  F   UNL A   1      45.453  30.164  34.245  1.00  0.00    -0.203 F 
ATOM     97  F   UNL A   1      44.547  25.947  37.586  1.00  0.00    -0.200 F 
ATOM     98  C   UNL A   1      46.058  27.420  36.525  1.00  0.00     0.200 A 
ATOM     99  F   UNL A   1      47.528  28.924  35.454  1.00  0.00    -0.200 F 
ATOM    100  F   UNL A   1      47.089  26.831  37.146  1.00  0.00    -0.200 F 
ENDBRANCH  67  90
ENDBRANCH  41  42
ENDBRANCH  33  36
ENDBRANCH  31  32
ENDBRANCH  30  31
ENDBRANCH   1  30
TORSDOF 16
ENDMDL
MODEL 3
REMARK VINA RESULT:     -13.0      5.739     11.438
REMARK SMILES COc1ccc(-c2nc3ccc(C)cc3[nH]2)c(C(=O)NCCCCCCNC(=O)c2ccc(-c3c4nc(c(-c5c(F)c(F)c(F)c(F)c5F)c5ccc([nH]5)c(-c5c(F)c(F)c(F)c(F)c5F)c5nc(c(-c6c(F)c(F)c(F)c(F)c6F)c6ccc3[nH]6)C=C5)C=C4)cc2)c1OC
REMARK SMILES IDX 24 1 23 2 22 3 21 4 20 5 18 6 19 7 17 9 3 10 4 11 93 12 5 13
REMARK SMILES IDX 6 14 2 15 1 16 94 17 95 18 7 19 8 20 16 21 9 22 15 23 10 25
REMARK SMILES IDX 14 26 11 27 12 28 13 29 25 30 26 31 27 32 28 33 29 35 30 36
REMARK SMILES IDX 31 37 92 38 32 39 91 40 33 41 34 42 35 43 85 44 36 45 90 46
REMARK SMILES IDX 84 47 86 48 37 49 89 50 83 51 82 52 38 54 70 55 50 56 69 57
REMARK SMILES IDX 51 58 54 59 68 60 87 61 52 62 53 63 67 65 88 66 55 67 39 68
REMARK SMILES IDX 40 69 48 70 41 71 42 72 46 73 49 74 43 75 44 76 47 77 45 78
REMARK SMILES IDX 71 79 72 80 80 81 73 82 74 83 78 84 81 85 75 86 76 87 79 88
REMARK SMILES IDX 77 89 56 90 57 91 65 92 58 93 59 94 63 95 66 96 60 97 61 98
REMARK SMILES IDX 64 99 62 100
REMARK H PARENT 20 8 16 24 27 34 86 53 54 64
REMARK Flexibility Score: inf
ROOT
ATOM      1  C   UNL A   1      37.386  21.109  24.711  1.00  0.00     0.002 C 
ENDROOT
BRANCH   1   2
ATOM      2  C   UNL A   1      37.931  22.476  25.139  1.00  0.00     0.002 C 
BRANCH   2   3
ATOM      3  C   UNL A   1      37.055  23.337  26.052  1.00  0.00     0.021 C 
BRANCH   3   4
ATOM      4  C   UNL A   1      35.556  23.298  25.798  1.00  0.00     0.116 C 
BRANCH   4   5
ATOM      5  N   UNL A   1      34.660  23.318  26.926  1.00  0.00    -0.352 N 
ATOM      6  C   UNL A   1      33.303  23.023  26.881  1.00  0.00     0.255 C 
ATOM      7  O   UNL A   1      32.752  22.536  27.868  1.00  0.00    -0.269 OA
ATOM      8  H   UNL A   1      35.040  23.561  27.800  1.00  0.00     0.163 HD
BRANCH   6   9
ATOM      9  C   UNL A   1      32.482  23.355  25.674  1.00  0.00     0.096 A 
ATOM     10  C   UNL A   1      31.046  24.858  24.414  1.00  0.00     0.161 A 
ATOM     11  C   UNL A   1      30.811  23.826  23.493  1.00  0.00     0.051 A 
ATOM     12  C   UNL A   1      31.950  24.657  25.472  1.00  0.00     0.174 A 
ATOM     13  C   UNL A   1      31.437  22.584  23.623  1.00  0.00     0.017 A 
ATOM     14  C   UNL A   1      32.245  22.315  24.735  1.00  0.00     0.034 A 
BRANCH  10  15
ATOM     15  O   UNL A   1      30.167  25.903  24.313  1.00  0.00    -0.493 OA
ATOM     16  C   UNL A   1      30.635  27.075  23.663  1.00  0.00     0.278 C 
ENDBRANCH  10  15
BRANCH  12  17
ATOM     17  O   UNL A   1      32.466  25.645  26.272  1.00  0.00    -0.492 OA
ATOM     18  C   UNL A   1      33.462  26.517  25.756  1.00  0.00     0.278 C 
ENDBRANCH  12  17
BRANCH  14  19
ATOM     19  C   UNL A   1      32.779  20.958  24.921  1.00  0.00     0.139 A 
ATOM     20  N   UNL A   1      33.921  20.507  24.436  1.00  0.00    -0.228 NA
ATOM     21  N   UNL A   1      32.118  19.945  25.589  1.00  0.00    -0.338 N 
ATOM     22  C   UNL A   1      33.907  19.150  24.641  1.00  0.00     0.089 A 
ATOM     23  C   UNL A   1      32.797  18.768  25.384  1.00  0.00     0.066 A 
ATOM     24  H   UNL A   1      31.298  20.050  26.124  1.00  0.00     0.168 HD
ATOM     25  C   UNL A   1      34.803  18.172  24.194  1.00  0.00     0.031 A 
ATOM     26  C   UNL A   1      32.531  17.437  25.733  1.00  0.00     0.031 A 
ATOM     27  C   UNL A   1      34.544  16.829  24.498  1.00  0.00     0.006 A 
ATOM     28  C   UNL A   1      33.426  16.458  25.260  1.00  0.00    -0.049 A 
ATOM     29  C   UNL A   1      33.197  15.000  25.547  1.00  0.00     0.044 C 
ENDBRANCH  14  19
ENDBRANCH   6   9
ENDBRANCH   4   5
ENDBRANCH   3   4
ENDBRANCH   2   3
ENDBRANCH   1   2
BRANCH   1  30
ATOM     30  C   UNL A   1      38.257  19.879  24.989  1.00  0.00     0.021 C 
BRANCH  30  31
ATOM     31  C   UNL A   1      39.279  20.005  26.113  1.00  0.00     0.116 C 
BRANCH  31  32
ATOM     32  N   UNL A   1      40.365  19.046  26.009  1.00  0.00    -0.352 N 
ATOM     33  C   UNL A   1      41.725  19.235  26.056  1.00  0.00     0.251 C 
ATOM     34  H   UNL A   1      40.081  18.112  25.886  1.00  0.00     0.163 HD
ATOM     35  O   UNL A   1      42.480  18.300  25.820  1.00  0.00    -0.269 OA
BRANCH  33  36
ATOM     36  C   UNL A   1      42.293  20.570  26.357  1.00  0.00     0.039 A 
ATOM     37  C   UNL A   1      42.690  21.382  25.291  1.00  0.00     0.014 A 
ATOM     38  C   UNL A   1      42.457  21.016  27.671  1.00  0.00     0.014 A 
ATOM     39  C   UNL A   1      43.186  22.664  25.539  1.00  0.00     0.010 A 
ATOM     40  C   UNL A   1      42.881  22.322  27.914  1.00  0.00     0.010 A 
ATOM     41  C   UNL A   1      43.247  23.161  26.850  1.00  0.00    -0.014 A 
BRANCH  41  42
ATOM     42  C   UNL A   1      43.663  24.562  27.119  1.00  0.00     0.031 A 
ATOM     43  C   UNL A   1      42.672  25.577  27.611  1.00  0.00     0.074 A 
ATOM     44  C   UNL A   1      44.929  24.936  26.852  1.00  0.00     0.049 A 
ATOM     45  N   UNL A   1      42.842  26.853  27.854  1.00  0.00    -0.248 NA
ATOM     46  C   UNL A   1      41.298  25.103  27.831  1.00  0.00     0.031 C 
ATOM     47  C   UNL A   1      45.972  24.059  26.318  1.00  0.00     0.029 A 
ATOM     48  N   UNL A   1      45.552  26.153  26.981  1.00  0.00    -0.354 N 
ATOM     49  C   UNL A   1      41.600  27.334  28.243  1.00  0.00     0.074 A 
ATOM     50  C   UNL A   1      40.672  26.226  28.147  1.00  0.00     0.031 C 
ATOM     51  C   UNL A   1      47.108  24.758  26.184  1.00  0.00     0.029 A 
ATOM     52  C   UNL A   1      46.866  26.142  26.580  1.00  0.00     0.049 A 
ATOM     53  H   UNL A   1      45.101  26.956  27.327  1.00  0.00     0.167 HD
ATOM     54  C   UNL A   1      41.267  28.580  28.659  1.00  0.00     0.037 A 
ATOM     55  C   UNL A   1      47.772  27.136  26.527  1.00  0.00     0.037 A 
ATOM     56  C   UNL A   1      42.198  29.675  28.760  1.00  0.00     0.049 A 
ATOM     57  C   UNL A   1      47.381  28.513  26.986  1.00  0.00     0.074 A 
ATOM     58  C   UNL A   1      41.979  30.953  29.243  1.00  0.00     0.029 A 
ATOM     59  N   UNL A   1      43.524  29.625  28.353  1.00  0.00    -0.354 N 
ATOM     60  N   UNL A   1      46.225  28.937  27.435  1.00  0.00    -0.248 NA
ATOM     61  C   UNL A   1      48.422  29.548  26.936  1.00  0.00     0.031 C 
ATOM     62  C   UNL A   1      43.152  31.695  29.066  1.00  0.00     0.029 A 
ATOM     63  C   UNL A   1      44.124  30.863  28.536  1.00  0.00     0.049 A 
ATOM     64  H   UNL A   1      43.973  28.829  27.990  1.00  0.00     0.167 HD
ATOM     65  C   UNL A   1      46.400  30.280  27.737  1.00  0.00     0.074 A 
ATOM     66  C   UNL A   1      47.784  30.596  27.439  1.00  0.00     0.031 C 
ATOM     67  C   UNL A   1      45.498  31.171  28.219  1.00  0.00     0.037 A 
BRANCH  54  68
ATOM     68  C   UNL A   1      39.827  28.826  29.020  1.00  0.00     0.064 A 
ATOM     69  C   UNL A   1      38.882  29.236  28.066  1.00  0.00     0.173 A 
ATOM     70  C   UNL A   1      39.384  28.642  30.340  1.00  0.00     0.173 A 
ATOM     71  F   UNL A   1      39.250  29.433  26.791  1.00  0.00    -0.203 F 
ATOM     72  C   UNL A   1      37.563  29.500  28.428  1.00  0.00     0.198 A 
ATOM     73  C   UNL A   1      38.055  28.870  30.690  1.00  0.00     0.198 A 
ATOM     74  F   UNL A   1      40.240  28.242  31.292  1.00  0.00    -0.203 F 
ATOM     75  F   UNL A   1      36.697  29.959  27.513  1.00  0.00    -0.200 F 
ATOM     76  C   UNL A   1      37.150  29.313  29.738  1.00  0.00     0.200 A 
ATOM     77  F   UNL A   1      37.655  28.673  31.953  1.00  0.00    -0.200 F 
ATOM     78  F   UNL A   1      35.881  29.570  30.086  1.00  0.00    -0.200 F 
ENDBRANCH  54  68
BRANCH  55  79
ATOM     79  C   UNL A   1      49.144  26.846  26.032  1.00  0.00     0.064 A 
ATOM     80  C   UNL A   1      50.128  26.337  26.888  1.00  0.00     0.173 A 
ATOM     81  C   UNL A   1      49.484  27.035  24.684  1.00  0.00     0.173 A 
ATOM     82  F   UNL A   1      49.857  26.159  28.190  1.00  0.00    -0.203 F 
ATOM     83  C   UNL A   1      51.404  26.033  26.417  1.00  0.00     0.198 A 
ATOM     84  C   UNL A   1      50.750  26.702  24.208  1.00  0.00     0.198 A 
ATOM     85  F   UNL A   1      48.575  27.514  23.822  1.00  0.00    -0.203 F 
ATOM     86  F   UNL A   1      52.337  25.576  27.263  1.00  0.00    -0.200 F 
ATOM     87  C   UNL A   1      51.710  26.205  25.076  1.00  0.00     0.200 A 
ATOM     88  F   UNL A   1      51.035  26.854  22.907  1.00  0.00    -0.200 F 
ATOM     89  F   UNL A   1      52.931  25.895  24.619  1.00  0.00    -0.200 F 
ENDBRANCH  55  79
BRANCH  67  90
ATOM     90  C   UNL A   1      45.978  32.573  28.464  1.00  0.00     0.064 A 
ATOM     91  C   UNL A   1      46.555  32.952  29.685  1.00  0.00     0.173 A 
ATOM     92  C   UNL A   1      45.895  33.542  27.452  1.00  0.00     0.173 A 
ATOM     93  F   UNL A   1      46.646  32.069  30.693  1.00  0.00    -0.203 F 
ATOM     94  C   UNL A   1      47.003  34.255  29.893  1.00  0.00     0.198 A 
ATOM     95  C   UNL A   1      46.375  34.834  27.651  1.00  0.00     0.198 A 
ATOM     96  F   UNL A   1      45.358  33.233  26.262  1.00  0.00    -0.203 F 
ATOM     97  F   UNL A   1      47.502  34.607  31.087  1.00  0.00    -0.200 F 
ATOM     98  C   UNL A   1      46.921  35.191  28.874  1.00  0.00     0.200 A 
ATOM     99  F   UNL A   1      46.309  35.733  26.659  1.00  0.00    -0.200 F 
ATOM    100  F   UNL A   1      47.360  36.442  29.074  1.00  0.00    -0.200 F 
ENDBRANCH  67  90
ENDBRANCH  41  42
ENDBRANCH  33  36
ENDBRANCH  31  32
ENDBRANCH  30  31
ENDBRANCH   1  30
TORSDOF 16
ENDMDL
