MODEL 1
REMARK VINA RESULT:     -12.7      0.000      0.000
REMARK SMILES CS(=O)(=O)c1ccc(/C=C(/C(=O)NCCCCCCNC(=O)c2ccc(-c3c4nc(c(-c5c(F)c(F)c(F)c(F)c5F)c5ccc([nH]5)c(-c5c(F)c(F)c(F)c(F)c5F)c5nc(c(-c6c(F)c(F)c(F)c(F)c6F)c6ccc3[nH]6)C=C5)C=C4)cc2)c2ccc(F)cc2)cc1
REMARK SMILES IDX 16 1 15 2 14 3 13 4 11 5 12 6 10 8 9 9 8 10 5 11 6 12 94 13
REMARK SMILES IDX 7 14 93 15 2 16 1 17 3 18 4 19 86 20 87 21 92 22 88 23 91 24
REMARK SMILES IDX 89 25 90 26 17 27 18 28 19 29 20 30 21 31 22 33 23 34 24 35
REMARK SMILES IDX 85 36 25 37 84 38 26 39 27 40 28 41 78 42 29 43 83 44 77 45
REMARK SMILES IDX 79 46 30 47 82 48 76 49 75 50 31 52 63 53 43 54 62 55 44 56
REMARK SMILES IDX 47 57 61 58 80 59 45 60 46 61 60 63 81 64 48 65 32 66 33 67
REMARK SMILES IDX 41 68 34 69 35 70 39 71 42 72 36 73 37 74 40 75 38 76 64 77
REMARK SMILES IDX 65 78 73 79 66 80 67 81 71 82 74 83 68 84 69 85 72 86 70 87
REMARK SMILES IDX 49 88 50 89 58 90 51 91 52 92 56 93 59 94 53 95 54 96 57 97
REMARK SMILES IDX 55 98
REMARK H PARENT 13 7 20 32 79 51 47 62
REMARK Flexibility Score: inf
ROOT
ATOM      1  C   UNL A   1      33.994  23.283  23.347  1.00  0.00     0.002 C 
ENDROOT
BRANCH   1   2
ATOM      2  C   UNL A   1      32.834  22.273  23.335  1.00  0.00     0.021 C 
BRANCH   2   3
ATOM      3  C   UNL A   1      31.459  22.922  23.518  1.00  0.00     0.116 C 
BRANCH   3   4
ATOM      4  N   UNL A   1      31.153  23.014  24.931  1.00  0.00    -0.352 N 
ATOM      5  C   UNL A   1      30.970  24.041  25.799  1.00  0.00     0.251 C 
ATOM      6  O   UNL A   1      30.829  23.725  26.984  1.00  0.00    -0.269 OA
ATOM      7  H   UNL A   1      31.055  22.132  25.358  1.00  0.00     0.163 HD
BRANCH   5   8
ATOM      8  C   UNL A   1      30.836  25.487  25.377  1.00  0.00     0.047 C 
ATOM      9  C   UNL A   1      30.055  25.875  24.342  1.00  0.00     0.022 C 
BRANCH   9  10
ATOM     10  C   UNL A   1      29.699  27.242  23.895  1.00  0.00    -0.025 A 
ATOM     11  C   UNL A   1      28.827  29.821  23.206  1.00  0.00     0.067 A 
ATOM     12  C   UNL A   1      30.167  29.602  23.524  1.00  0.00     0.021 A 
ATOM     13  C   UNL A   1      27.921  28.763  23.194  1.00  0.00     0.021 A 
ATOM     14  C   UNL A   1      30.602  28.309  23.827  1.00  0.00     0.009 A 
ATOM     15  C   UNL A   1      28.359  27.481  23.543  1.00  0.00     0.009 A 
BRANCH  11  16
ATOM     16  S   UNL A   1      28.277  31.467  22.826  1.00  0.00     0.175 S 
ATOM     17  C   UNL A   1      28.084  31.472  21.063  1.00  0.00     0.163 C 
ATOM     18  O   UNL A   1      29.365  32.362  23.172  1.00  0.00    -0.224 OA
ATOM     19  O   UNL A   1      26.957  31.631  23.406  1.00  0.00    -0.224 OA
ENDBRANCH  11  16
ENDBRANCH   9  10
BRANCH   8  20
ATOM     20  C   UNL A   1      31.748  26.449  26.044  1.00  0.00    -0.013 A 
ATOM     21  C   UNL A   1      33.097  26.477  25.639  1.00  0.00     0.012 A 
ATOM     22  C   UNL A   1      31.302  27.381  26.992  1.00  0.00     0.012 A 
ATOM     23  C   UNL A   1      33.975  27.434  26.144  1.00  0.00     0.040 A 
ATOM     24  C   UNL A   1      32.181  28.351  27.484  1.00  0.00     0.040 A 
ATOM     25  C   UNL A   1      33.504  28.371  27.052  1.00  0.00     0.123 A 
ATOM     26  F   UNL A   1      34.334  29.319  27.507  1.00  0.00    -0.207 F 
ENDBRANCH   8  20
ENDBRANCH   5   8
ENDBRANCH   3   4
ENDBRANCH   2   3
ENDBRANCH   1   2
BRANCH   1  27
ATOM     27  C   UNL A   1      35.319  22.739  23.896  1.00  0.00     0.002 C 
BRANCH  27  28
ATOM     28  C   UNL A   1      36.192  23.773  24.612  1.00  0.00     0.021 C 
BRANCH  28  29
ATOM     29  C   UNL A   1      36.562  23.400  26.043  1.00  0.00     0.116 C 
BRANCH  29  30
ATOM     30  N   UNL A   1      37.704  22.501  26.091  1.00  0.00    -0.352 N 
ATOM     31  C   UNL A   1      39.019  22.784  26.360  1.00  0.00     0.251 C 
ATOM     32  H   UNL A   1      37.506  21.555  25.903  1.00  0.00     0.163 HD
ATOM     33  O   UNL A   1      39.890  21.945  26.156  1.00  0.00    -0.269 OA
BRANCH  31  34
ATOM     34  C   UNL A   1      39.390  24.115  26.888  1.00  0.00     0.039 A 
ATOM     35  C   UNL A   1      39.098  24.420  28.220  1.00  0.00     0.014 A 
ATOM     36  C   UNL A   1      40.005  25.063  26.066  1.00  0.00     0.014 A 
ATOM     37  C   UNL A   1      39.471  25.659  28.743  1.00  0.00     0.010 A 
ATOM     38  C   UNL A   1      40.437  26.271  26.606  1.00  0.00     0.010 A 
ATOM     39  C   UNL A   1      40.167  26.583  27.947  1.00  0.00    -0.014 A 
BRANCH  39  40
ATOM     40  C   UNL A   1      40.610  27.889  28.496  1.00  0.00     0.031 A 
ATOM     41  C   UNL A   1      42.050  28.098  28.873  1.00  0.00     0.074 A 
ATOM     42  C   UNL A   1      39.706  28.860  28.717  1.00  0.00     0.049 A 
ATOM     43  N   UNL A   1      42.618  29.135  29.433  1.00  0.00    -0.248 NA
ATOM     44  C   UNL A   1      42.967  26.978  28.611  1.00  0.00     0.031 C 
ATOM     45  C   UNL A   1      38.272  28.759  28.439  1.00  0.00     0.029 A 
ATOM     46  N   UNL A   1      39.856  30.121  29.239  1.00  0.00    -0.354 N 
ATOM     47  C   UNL A   1      43.952  28.789  29.602  1.00  0.00     0.074 A 
ATOM     48  C   UNL A   1      44.098  27.426  29.138  1.00  0.00     0.031 C 
ATOM     49  C   UNL A   1      37.677  29.915  28.779  1.00  0.00     0.029 A 
ATOM     50  C   UNL A   1      38.679  30.822  29.329  1.00  0.00     0.049 A 
ATOM     51  H   UNL A   1      40.724  30.487  29.524  1.00  0.00     0.167 HD
ATOM     52  C   UNL A   1      44.969  29.547  30.077  1.00  0.00     0.037 A 
ATOM     53  C   UNL A   1      38.435  32.058  29.807  1.00  0.00     0.037 A 
ATOM     54  C   UNL A   1      44.823  30.910  30.518  1.00  0.00     0.049 A 
ATOM     55  C   UNL A   1      39.581  32.883  30.328  1.00  0.00     0.074 A 
ATOM     56  C   UNL A   1      45.800  31.783  30.966  1.00  0.00     0.029 A 
ATOM     57  N   UNL A   1      43.619  31.598  30.569  1.00  0.00    -0.354 N 
ATOM     58  N   UNL A   1      40.850  32.568  30.423  1.00  0.00    -0.248 NA
ATOM     59  C   UNL A   1      39.260  34.237  30.799  1.00  0.00     0.031 C 
ATOM     60  C   UNL A   1      45.180  32.984  31.328  1.00  0.00     0.029 A 
ATOM     61  C   UNL A   1      43.824  32.878  31.059  1.00  0.00     0.049 A 
ATOM     62  H   UNL A   1      42.747  31.230  30.297  1.00  0.00     0.167 HD
ATOM     63  C   UNL A   1      41.483  33.691  30.940  1.00  0.00     0.074 A 
ATOM     64  C   UNL A   1      40.459  34.698  31.124  1.00  0.00     0.031 C 
ATOM     65  C   UNL A   1      42.795  33.870  31.234  1.00  0.00     0.037 A 
BRANCH  52  66
ATOM     66  C   UNL A   1      46.330  28.916  30.140  1.00  0.00     0.064 A 
ATOM     67  C   UNL A   1      46.777  28.247  31.290  1.00  0.00     0.173 A 
ATOM     68  C   UNL A   1      47.192  28.964  29.034  1.00  0.00     0.173 A 
ATOM     69  F   UNL A   1      45.998  28.183  32.380  1.00  0.00    -0.203 F 
ATOM     70  C   UNL A   1      48.049  27.683  31.343  1.00  0.00     0.198 A 
ATOM     71  C   UNL A   1      48.450  28.370  29.080  1.00  0.00     0.198 A 
ATOM     72  F   UNL A   1      46.813  29.586  27.907  1.00  0.00    -0.203 F 
ATOM     73  F   UNL A   1      48.475  27.100  32.472  1.00  0.00    -0.200 F 
ATOM     74  C   UNL A   1      48.882  27.739  30.237  1.00  0.00     0.200 A 
ATOM     75  F   UNL A   1      49.251  28.415  28.005  1.00  0.00    -0.200 F 
ATOM     76  F   UNL A   1      50.105  27.194  30.288  1.00  0.00    -0.200 F 
ENDBRANCH  52  66
BRANCH  53  77
ATOM     77  C   UNL A   1      37.050  32.594  29.787  1.00  0.00     0.064 A 
ATOM     78  C   UNL A   1      36.197  32.425  30.886  1.00  0.00     0.173 A 
ATOM     79  C   UNL A   1      36.558  33.299  28.679  1.00  0.00     0.173 A 
ATOM     80  F   UNL A   1      36.617  31.741  31.960  1.00  0.00    -0.203 F 
ATOM     81  C   UNL A   1      34.898  32.928  30.872  1.00  0.00     0.198 A 
ATOM     82  C   UNL A   1      35.268  33.826  28.677  1.00  0.00     0.198 A 
ATOM     83  F   UNL A   1      37.338  33.495  27.606  1.00  0.00    -0.203 F 
ATOM     84  F   UNL A   1      34.091  32.721  31.921  1.00  0.00    -0.200 F 
ATOM     85  C   UNL A   1      34.437  33.634  29.770  1.00  0.00     0.200 A 
ATOM     86  F   UNL A   1      34.832  34.521  27.617  1.00  0.00    -0.200 F 
ATOM     87  F   UNL A   1      33.190  34.126  29.762  1.00  0.00    -0.200 F 
ENDBRANCH  53  77
BRANCH  65  88
ATOM     88  C   UNL A   1      43.203  35.215  31.761  1.00  0.00     0.064 A 
ATOM     89  C   UNL A   1      43.677  36.225  30.912  1.00  0.00     0.173 A 
ATOM     90  C   UNL A   1      43.080  35.508  33.128  1.00  0.00     0.173 A 
ATOM     91  F   UNL A   1      43.827  35.989  29.599  1.00  0.00    -0.203 F 
ATOM     92  C   UNL A   1      44.034  37.473  31.415  1.00  0.00     0.198 A 
ATOM     93  C   UNL A   1      43.410  36.766  33.622  1.00  0.00     0.198 A 
ATOM     94  F   UNL A   1      42.626  34.577  33.981  1.00  0.00    -0.203 F 
ATOM     95  F   UNL A   1      44.527  38.408  30.592  1.00  0.00    -0.200 F 
ATOM     96  C   UNL A   1      43.893  37.744  32.768  1.00  0.00     0.200 A 
ATOM     97  F   UNL A   1      43.261  37.031  34.928  1.00  0.00    -0.200 F 
ATOM     98  F   UNL A   1      44.231  38.949  33.249  1.00  0.00    -0.200 F 
ENDBRANCH  65  88
ENDBRANCH  39  40
ENDBRANCH  31  34
ENDBRANCH  29  30
ENDBRANCH  28  29
ENDBRANCH  27  28
ENDBRANCH   1  27
TORSDOF 16
ENDMDL
MODEL 2
REMARK VINA RESULT:     -12.7      3.981      9.315
REMARK SMILES CS(=O)(=O)c1ccc(/C=C(/C(=O)NCCCCCCNC(=O)c2ccc(-c3c4nc(c(-c5c(F)c(F)c(F)c(F)c5F)c5ccc([nH]5)c(-c5c(F)c(F)c(F)c(F)c5F)c5nc(c(-c6c(F)c(F)c(F)c(F)c6F)c6ccc3[nH]6)C=C5)C=C4)cc2)c2ccc(F)cc2)cc1
REMARK SMILES IDX 16 1 15 2 14 3 13 4 11 5 12 6 10 8 9 9 8 10 5 11 6 12 94 13
REMARK SMILES IDX 7 14 93 15 2 16 1 17 3 18 4 19 86 20 87 21 92 22 88 23 91 24
REMARK SMILES IDX 89 25 90 26 17 27 18 28 19 29 20 30 21 31 22 33 23 34 24 35
REMARK SMILES IDX 85 36 25 37 84 38 26 39 27 40 28 41 78 42 29 43 83 44 77 45
REMARK SMILES IDX 79 46 30 47 82 48 76 49 75 50 31 52 63 53 43 54 62 55 44 56
REMARK SMILES IDX 47 57 61 58 80 59 45 60 46 61 60 63 81 64 48 65 32 66 33 67
REMARK SMILES IDX 41 68 34 69 35 70 39 71 42 72 36 73 37 74 40 75 38 76 64 77
REMARK SMILES IDX 65 78 73 79 66 80 67 81 71 82 74 83 68 84 69 85 72 86 70 87
REMARK SMILES IDX 49 88 50 89 58 90 51 91 52 92 56 93 59 94 53 95 54 96 57 97
REMARK SMILES IDX 55 98
REMARK H PARENT 13 7 20 32 79 51 47 62
REMARK Flexibility Score: inf
ROOT
ATOM      1  C   UNL A   1      30.941  26.857  26.203  1.00  0.00     0.002 C 
ENDROOT
BRANCH   1   2
ATOM      2  C   UNL A   1      30.899  26.928  24.668  1.00  0.00     0.021 C 
BRANCH   2   3
ATOM      3  C   UNL A   1      30.823  25.554  23.997  1.00  0.00     0.116 C 
BRANCH   3   4
ATOM      4  N   UNL A   1      31.637  25.556  22.798  1.00  0.00    -0.352 N 
ATOM      5  C   UNL A   1      32.641  24.771  22.330  1.00  0.00     0.251 C 
ATOM      6  O   UNL A   1      33.185  25.156  21.291  1.00  0.00    -0.269 OA
ATOM      7  H   UNL A   1      31.412  26.292  22.184  1.00  0.00     0.163 HD
BRANCH   5   8
ATOM      8  C   UNL A   1      33.034  23.448  22.949  1.00  0.00     0.047 C 
ATOM      9  C   UNL A   1      32.223  22.365  22.930  1.00  0.00     0.022 C 
BRANCH   9  10
ATOM     10  C   UNL A   1      32.506  20.973  23.351  1.00  0.00    -0.025 A 
ATOM     11  C   UNL A   1      33.144  18.297  23.919  1.00  0.00     0.067 A 
ATOM     12  C   UNL A   1      33.478  19.300  24.829  1.00  0.00     0.021 A 
ATOM     13  C   UNL A   1      32.464  18.607  22.743  1.00  0.00     0.021 A 
ATOM     14  C   UNL A   1      33.122  20.624  24.558  1.00  0.00     0.009 A 
ATOM     15  C   UNL A   1      32.154  19.942  22.462  1.00  0.00     0.009 A 
BRANCH  11  16
ATOM     16  S   UNL A   1      33.602  16.616  24.264  1.00  0.00     0.175 S 
ATOM     17  C   UNL A   1      35.014  16.753  25.328  1.00  0.00     0.163 C 
ATOM     18  O   UNL A   1      34.028  16.032  23.006  1.00  0.00    -0.224 OA
ATOM     19  O   UNL A   1      32.531  16.023  25.042  1.00  0.00    -0.224 OA
ENDBRANCH  11  16
ENDBRANCH   9  10
BRANCH   8  20
ATOM     20  C   UNL A   1      34.290  23.445  23.741  1.00  0.00    -0.013 A 
ATOM     21  C   UNL A   1      35.460  22.954  23.129  1.00  0.00     0.012 A 
ATOM     22  C   UNL A   1      34.370  23.987  25.031  1.00  0.00     0.012 A 
ATOM     23  C   UNL A   1      36.690  23.032  23.778  1.00  0.00     0.040 A 
ATOM     24  C   UNL A   1      35.610  24.078  25.673  1.00  0.00     0.040 A 
ATOM     25  C   UNL A   1      36.755  23.606  25.039  1.00  0.00     0.123 A 
ATOM     26  F   UNL A   1      37.943  23.721  25.647  1.00  0.00    -0.207 F 
ENDBRANCH   8  20
ENDBRANCH   5   8
ENDBRANCH   3   4
ENDBRANCH   2   3
ENDBRANCH   1   2
BRANCH   1  27
ATOM     27  C   UNL A   1      31.788  27.944  26.878  1.00  0.00     0.002 C 
BRANCH  27  28
ATOM     28  C   UNL A   1      33.301  27.731  26.786  1.00  0.00     0.021 C 
BRANCH  28  29
ATOM     29  C   UNL A   1      34.045  28.825  26.029  1.00  0.00     0.116 C 
BRANCH  29  30
ATOM     30  N   UNL A   1      33.808  30.139  26.604  1.00  0.00    -0.352 N 
ATOM     31  C   UNL A   1      34.489  30.782  27.606  1.00  0.00     0.251 C 
ATOM     32  H   UNL A   1      33.052  30.639  26.219  1.00  0.00     0.163 HD
ATOM     33  O   UNL A   1      34.031  31.801  28.114  1.00  0.00    -0.269 OA
BRANCH  31  34
ATOM     34  C   UNL A   1      35.776  30.236  28.087  1.00  0.00     0.039 A 
ATOM     35  C   UNL A   1      36.893  30.302  27.251  1.00  0.00     0.014 A 
ATOM     36  C   UNL A   1      35.874  29.645  29.350  1.00  0.00     0.014 A 
ATOM     37  C   UNL A   1      38.123  29.821  27.702  1.00  0.00     0.010 A 
ATOM     38  C   UNL A   1      37.114  29.228  29.824  1.00  0.00     0.010 A 
ATOM     39  C   UNL A   1      38.248  29.304  29.002  1.00  0.00    -0.014 A 
BRANCH  39  40
ATOM     40  C   UNL A   1      39.556  28.827  29.516  1.00  0.00     0.031 A 
ATOM     41  C   UNL A   1      40.318  29.650  30.516  1.00  0.00     0.074 A 
ATOM     42  C   UNL A   1      40.087  27.689  29.033  1.00  0.00     0.049 A 
ATOM     43  N   UNL A   1      41.504  29.444  31.029  1.00  0.00    -0.248 NA
ATOM     44  C   UNL A   1      39.671  30.887  30.979  1.00  0.00     0.031 C 
ATOM     45  C   UNL A   1      39.466  26.829  28.025  1.00  0.00     0.029 A 
ATOM     46  N   UNL A   1      41.276  27.064  29.317  1.00  0.00    -0.354 N 
ATOM     47  C   UNL A   1      41.750  30.527  31.861  1.00  0.00     0.074 A 
ATOM     48  C   UNL A   1      40.615  31.417  31.742  1.00  0.00     0.031 C 
ATOM     49  C   UNL A   1      40.272  25.781  27.785  1.00  0.00     0.029 A 
ATOM     50  C   UNL A   1      41.478  25.914  28.596  1.00  0.00     0.049 A 
ATOM     51  H   UNL A   1      41.922  27.410  29.974  1.00  0.00     0.167 HD
ATOM     52  C   UNL A   1      42.813  30.747  32.671  1.00  0.00     0.037 A 
ATOM     53  C   UNL A   1      42.523  25.064  28.587  1.00  0.00     0.037 A 
ATOM     54  C   UNL A   1      43.929  29.848  32.801  1.00  0.00     0.049 A 
ATOM     55  C   UNL A   1      43.693  25.328  29.496  1.00  0.00     0.074 A 
ATOM     56  C   UNL A   1      45.030  29.952  33.634  1.00  0.00     0.029 A 
ATOM     57  N   UNL A   1      44.088  28.676  32.075  1.00  0.00    -0.354 N 
ATOM     58  N   UNL A   1      43.884  26.323  30.328  1.00  0.00    -0.248 NA
ATOM     59  C   UNL A   1      44.785  24.345  29.472  1.00  0.00     0.031 C 
ATOM     60  C   UNL A   1      45.875  28.866  33.379  1.00  0.00     0.029 A 
ATOM     61  C   UNL A   1      45.277  28.058  32.425  1.00  0.00     0.049 A 
ATOM     62  H   UNL A   1      43.448  28.335  31.408  1.00  0.00     0.167 HD
ATOM     63  C   UNL A   1      45.105  26.075  30.943  1.00  0.00     0.074 A 
ATOM     64  C   UNL A   1      45.600  24.828  30.399  1.00  0.00     0.031 C 
ATOM     65  C   UNL A   1      45.755  26.815  31.876  1.00  0.00     0.037 A 
BRANCH  52  66
ATOM     66  C   UNL A   1      42.814  32.012  33.481  1.00  0.00     0.064 A 
ATOM     67  C   UNL A   1      42.211  32.075  34.746  1.00  0.00     0.173 A 
ATOM     68  C   UNL A   1      43.439  33.170  32.994  1.00  0.00     0.173 A 
ATOM     69  F   UNL A   1      41.588  31.001  35.252  1.00  0.00    -0.203 F 
ATOM     70  C   UNL A   1      42.202  33.260  35.478  1.00  0.00     0.198 A 
ATOM     71  C   UNL A   1      43.456  34.344  33.744  1.00  0.00     0.198 A 
ATOM     72  F   UNL A   1      44.036  33.164  31.793  1.00  0.00    -0.203 F 
ATOM     73  F   UNL A   1      41.569  33.311  36.658  1.00  0.00    -0.200 F 
ATOM     74  C   UNL A   1      42.829  34.391  34.980  1.00  0.00     0.200 A 
ATOM     75  F   UNL A   1      44.074  35.433  33.265  1.00  0.00    -0.200 F 
ATOM     76  F   UNL A   1      42.821  35.530  35.686  1.00  0.00    -0.200 F 
ENDBRANCH  52  66
BRANCH  53  77
ATOM     77  C   UNL A   1      42.493  23.870  27.703  1.00  0.00     0.064 A 
ATOM     78  C   UNL A   1      42.906  23.953  26.367  1.00  0.00     0.173 A 
ATOM     79  C   UNL A   1      42.068  22.622  28.180  1.00  0.00     0.173 A 
ATOM     80  F   UNL A   1      43.302  25.130  25.861  1.00  0.00    -0.203 F 
ATOM     81  C   UNL A   1      42.880  22.837  25.535  1.00  0.00     0.198 A 
ATOM     82  C   UNL A   1      42.068  21.499  27.355  1.00  0.00     0.198 A 
ATOM     83  F   UNL A   1      41.670  22.488  29.454  1.00  0.00    -0.203 F 
ATOM     84  F   UNL A   1      43.245  22.951  24.251  1.00  0.00    -0.200 F 
ATOM     85  C   UNL A   1      42.468  21.608  26.032  1.00  0.00     0.200 A 
ATOM     86  F   UNL A   1      41.685  20.311  27.843  1.00  0.00    -0.200 F 
ATOM     87  F   UNL A   1      42.453  20.532  25.234  1.00  0.00    -0.200 F 
ENDBRANCH  53  77
BRANCH  65  88
ATOM     88  C   UNL A   1      47.061  26.280  32.388  1.00  0.00     0.064 A 
ATOM     89  C   UNL A   1      47.117  25.381  33.462  1.00  0.00     0.173 A 
ATOM     90  C   UNL A   1      48.266  26.644  31.769  1.00  0.00     0.173 A 
ATOM     91  F   UNL A   1      45.993  25.015  34.097  1.00  0.00    -0.203 F 
ATOM     92  C   UNL A   1      48.336  24.881  33.912  1.00  0.00     0.198 A 
ATOM     93  C   UNL A   1      49.480  26.119  32.203  1.00  0.00     0.198 A 
ATOM     94  F   UNL A   1      48.265  27.497  30.733  1.00  0.00    -0.203 F 
ATOM     95  F   UNL A   1      48.371  24.058  34.969  1.00  0.00    -0.200 F 
ATOM     96  C   UNL A   1      49.515  25.245  33.278  1.00  0.00     0.200 A 
ATOM     97  F   UNL A   1      50.617  26.461  31.581  1.00  0.00    -0.200 F 
ATOM     98  F   UNL A   1      50.687  24.756  33.708  1.00  0.00    -0.200 F 
ENDBRANCH  65  88
ENDBRANCH  39  40
ENDBRANCH  31  34
ENDBRANCH  29  30
ENDBRANCH  28  29
ENDBRANCH  27  28
ENDBRANCH   1  27
TORSDOF 16
ENDMDL
MODEL 3
REMARK VINA RESULT:     -12.6      3.825      9.171
REMARK SMILES CS(=O)(=O)c1ccc(/C=C(/C(=O)NCCCCCCNC(=O)c2ccc(-c3c4nc(c(-c5c(F)c(F)c(F)c(F)c5F)c5ccc([nH]5)c(-c5c(F)c(F)c(F)c(F)c5F)c5nc(c(-c6c(F)c(F)c(F)c(F)c6F)c6ccc3[nH]6)C=C5)C=C4)cc2)c2ccc(F)cc2)cc1
REMARK SMILES IDX 16 1 15 2 14 3 13 4 11 5 12 6 10 8 9 9 8 10 5 11 6 12 94 13
REMARK SMILES IDX 7 14 93 15 2 16 1 17 3 18 4 19 86 20 87 21 92 22 88 23 91 24
REMARK SMILES IDX 89 25 90 26 17 27 18 28 19 29 20 30 21 31 22 33 23 34 24 35
REMARK SMILES IDX 85 36 25 37 84 38 26 39 27 40 28 41 78 42 29 43 83 44 77 45
REMARK SMILES IDX 79 46 30 47 82 48 76 49 75 50 31 52 63 53 43 54 62 55 44 56
REMARK SMILES IDX 47 57 61 58 80 59 45 60 46 61 60 63 81 64 48 65 32 66 33 67
REMARK SMILES IDX 41 68 34 69 35 70 39 71 42 72 36 73 37 74 40 75 38 76 64 77
REMARK SMILES IDX 65 78 73 79 66 80 67 81 71 82 74 83 68 84 69 85 72 86 70 87
REMARK SMILES IDX 49 88 50 89 58 90 51 91 52 92 56 93 59 94 53 95 54 96 57 97
REMARK SMILES IDX 55 98
REMARK H PARENT 13 7 20 32 79 51 47 62
REMARK Flexibility Score: inf
ROOT
ATOM      1  C   UNL A   1      31.004  25.703  25.868  1.00  0.00     0.002 C 
ENDROOT
BRANCH   1   2
ATOM      2  C   UNL A   1      30.227  26.102  24.602  1.00  0.00     0.021 C 
BRANCH   2   3
ATOM      3  C   UNL A   1      30.297  25.055  23.488  1.00  0.00     0.116 C 
BRANCH   3   4
ATOM      4  N   UNL A   1      31.381  25.383  22.584  1.00  0.00    -0.352 N 
ATOM      5  C   UNL A   1      32.620  24.877  22.362  1.00  0.00     0.251 C 
ATOM      6  O   UNL A   1      33.323  25.504  21.564  1.00  0.00    -0.269 OA
ATOM      7  H   UNL A   1      31.171  26.145  21.997  1.00  0.00     0.163 HD
BRANCH   5   8
ATOM      8  C   UNL A   1      33.116  23.575  22.952  1.00  0.00     0.047 C 
ATOM      9  C   UNL A   1      32.340  22.470  23.037  1.00  0.00     0.022 C 
BRANCH   9  10
ATOM     10  C   UNL A   1      32.706  21.094  23.442  1.00  0.00    -0.025 A 
ATOM     11  C   UNL A   1      33.454  18.438  23.968  1.00  0.00     0.067 A 
ATOM     12  C   UNL A   1      33.962  19.472  24.754  1.00  0.00     0.021 A 
ATOM     13  C   UNL A   1      32.551  18.708  22.942  1.00  0.00     0.021 A 
ATOM     14  C   UNL A   1      33.554  20.787  24.513  1.00  0.00     0.009 A 
ATOM     15  C   UNL A   1      32.186  20.032  22.681  1.00  0.00     0.009 A 
BRANCH  11  16
ATOM     16  S   UNL A   1      33.978  16.768  24.275  1.00  0.00     0.175 S 
ATOM     17  C   UNL A   1      32.654  16.056  25.215  1.00  0.00     0.163 C 
ATOM     18  O   UNL A   1      35.153  16.848  25.122  1.00  0.00    -0.224 OA
ATOM     19  O   UNL A   1      34.020  16.082  22.998  1.00  0.00    -0.224 OA
ENDBRANCH  11  16
ENDBRANCH   9  10
BRANCH   8  20
ATOM     20  C   UNL A   1      34.451  23.619  23.601  1.00  0.00    -0.013 A 
ATOM     21  C   UNL A   1      34.542  24.167  24.895  1.00  0.00     0.012 A 
ATOM     22  C   UNL A   1      35.595  23.062  23.014  1.00  0.00     0.012 A 
ATOM     23  C   UNL A   1      35.742  24.131  25.603  1.00  0.00     0.040 A 
ATOM     24  C   UNL A   1      36.794  23.013  23.732  1.00  0.00     0.040 A 
ATOM     25  C   UNL A   1      36.854  23.542  25.019  1.00  0.00     0.123 A 
ATOM     26  F   UNL A   1      37.997  23.468  25.712  1.00  0.00    -0.207 F 
ENDBRANCH   8  20
ENDBRANCH   5   8
ENDBRANCH   3   4
ENDBRANCH   2   3
ENDBRANCH   1   2
BRANCH   1  27
ATOM     27  C   UNL A   1      31.793  26.841  26.528  1.00  0.00     0.002 C 
BRANCH  27  28
ATOM     28  C   UNL A   1      32.938  27.405  25.683  1.00  0.00     0.021 C 
BRANCH  28  29
ATOM     29  C   UNL A   1      34.039  28.083  26.490  1.00  0.00     0.116 C 
BRANCH  29  30
ATOM     30  N   UNL A   1      33.690  29.450  26.842  1.00  0.00    -0.352 N 
ATOM     31  C   UNL A   1      34.357  30.332  27.654  1.00  0.00     0.251 C 
ATOM     32  H   UNL A   1      32.857  29.790  26.443  1.00  0.00     0.163 HD
ATOM     33  O   UNL A   1      33.819  31.375  28.013  1.00  0.00    -0.269 OA
BRANCH  31  34
ATOM     34  C   UNL A   1      35.728  30.018  28.110  1.00  0.00     0.039 A 
ATOM     35  C   UNL A   1      35.921  29.582  29.423  1.00  0.00     0.014 A 
ATOM     36  C   UNL A   1      36.819  30.170  27.250  1.00  0.00     0.014 A 
ATOM     37  C   UNL A   1      37.204  29.248  29.859  1.00  0.00     0.010 A 
ATOM     38  C   UNL A   1      38.087  29.773  27.665  1.00  0.00     0.010 A 
ATOM     39  C   UNL A   1      38.293  29.317  28.975  1.00  0.00    -0.014 A 
BRANCH  39  40
ATOM     40  C   UNL A   1      39.658  28.927  29.407  1.00  0.00     0.031 A 
ATOM     41  C   UNL A   1      40.453  29.834  30.303  1.00  0.00     0.074 A 
ATOM     42  C   UNL A   1      40.205  27.789  28.939  1.00  0.00     0.049 A 
ATOM     43  N   UNL A   1      41.683  29.708  30.730  1.00  0.00    -0.248 NA
ATOM     44  C   UNL A   1      39.784  31.063  30.755  1.00  0.00     0.031 C 
ATOM     45  C   UNL A   1      39.551  26.851  28.026  1.00  0.00     0.029 A 
ATOM     46  N   UNL A   1      41.441  27.235  29.159  1.00  0.00    -0.354 N 
ATOM     47  C   UNL A   1      41.939  30.843  31.487  1.00  0.00     0.074 A 
ATOM     48  C   UNL A   1      40.757  31.674  31.415  1.00  0.00     0.031 C 
ATOM     49  C   UNL A   1      40.387  25.830  27.775  1.00  0.00     0.029 A 
ATOM     50  C   UNL A   1      41.644  26.058  28.481  1.00  0.00     0.049 A 
ATOM     51  H   UNL A   1      42.118  27.643  29.745  1.00  0.00     0.167 HD
ATOM     52  C   UNL A   1      43.049  31.152  32.200  1.00  0.00     0.037 A 
ATOM     53  C   UNL A   1      42.725  25.257  28.430  1.00  0.00     0.037 A 
ATOM     54  C   UNL A   1      44.214  30.312  32.285  1.00  0.00     0.049 A 
ATOM     55  C   UNL A   1      43.946  25.620  29.231  1.00  0.00     0.074 A 
ATOM     56  C   UNL A   1      45.369  30.508  33.022  1.00  0.00     0.029 A 
ATOM     57  N   UNL A   1      44.374  29.112  31.606  1.00  0.00    -0.354 N 
ATOM     58  N   UNL A   1      44.152  26.664  29.996  1.00  0.00    -0.248 NA
ATOM     59  C   UNL A   1      45.080  24.687  29.169  1.00  0.00     0.031 C 
ATOM     60  C   UNL A   1      46.244  29.449  32.755  1.00  0.00     0.029 A 
ATOM     61  C   UNL A   1      45.615  28.567  31.891  1.00  0.00     0.049 A 
ATOM     62  H   UNL A   1      43.702  28.708  31.009  1.00  0.00     0.167 HD
ATOM     63  C   UNL A   1      45.426  26.503  30.525  1.00  0.00     0.074 A 
ATOM     64  C   UNL A   1      45.938  25.253  30.005  1.00  0.00     0.031 C 
ATOM     65  C   UNL A   1      46.109  27.319  31.367  1.00  0.00     0.037 A 
BRANCH  52  66
ATOM     66  C   UNL A   1      43.050  32.457  32.944  1.00  0.00     0.064 A 
ATOM     67  C   UNL A   1      43.515  33.640  32.351  1.00  0.00     0.173 A 
ATOM     68  C   UNL A   1      42.565  32.529  34.259  1.00  0.00     0.173 A 
ATOM     69  F   UNL A   1      44.001  33.624  31.101  1.00  0.00    -0.203 F 
ATOM     70  C   UNL A   1      43.529  34.840  33.059  1.00  0.00     0.198 A 
ATOM     71  C   UNL A   1      42.551  33.736  34.952  1.00  0.00     0.198 A 
ATOM     72  F   UNL A   1      42.104  31.428  34.872  1.00  0.00    -0.203 F 
ATOM     73  F   UNL A   1      44.031  35.944  32.491  1.00  0.00    -0.200 F 
ATOM     74  C   UNL A   1      43.042  34.888  34.355  1.00  0.00     0.200 A 
ATOM     75  F   UNL A   1      42.068  33.784  36.202  1.00  0.00    -0.200 F 
ATOM     76  F   UNL A   1      43.054  36.043  35.035  1.00  0.00    -0.200 F 
ENDBRANCH  52  66
BRANCH  53  77
ATOM     77  C   UNL A   1      42.686  24.019  27.611  1.00  0.00     0.064 A 
ATOM     78  C   UNL A   1      43.042  24.040  26.256  1.00  0.00     0.173 A 
ATOM     79  C   UNL A   1      42.308  22.788  28.168  1.00  0.00     0.173 A 
ATOM     80  F   UNL A   1      43.392  25.198  25.675  1.00  0.00    -0.203 F 
ATOM     81  C   UNL A   1      43.008  22.882  25.484  1.00  0.00     0.198 A 
ATOM     82  C   UNL A   1      42.300  21.624  27.402  1.00  0.00     0.198 A 
ATOM     83  F   UNL A   1      41.965  22.713  29.462  1.00  0.00    -0.203 F 
ATOM     84  F   UNL A   1      43.318  22.937  24.182  1.00  0.00    -0.200 F 
ATOM     85  C   UNL A   1      42.644  21.673  26.060  1.00  0.00     0.200 A 
ATOM     86  F   UNL A   1      41.962  20.456  27.965  1.00  0.00    -0.200 F 
ATOM     87  F   UNL A   1      42.620  20.557  25.318  1.00  0.00    -0.200 F 
ENDBRANCH  53  77
BRANCH  65  88
ATOM     88  C   UNL A   1      47.474  26.871  31.800  1.00  0.00     0.064 A 
ATOM     89  C   UNL A   1      48.634  27.301  31.139  1.00  0.00     0.173 A 
ATOM     90  C   UNL A   1      47.625  26.032  32.915  1.00  0.00     0.173 A 
ATOM     91  F   UNL A   1      48.542  28.092  30.058  1.00  0.00    -0.203 F 
ATOM     92  C   UNL A   1      49.894  26.890  31.565  1.00  0.00     0.198 A 
ATOM     93  C   UNL A   1      48.887  25.647  33.355  1.00  0.00     0.198 A 
ATOM     94  F   UNL A   1      46.546  25.598  33.584  1.00  0.00    -0.203 F 
ATOM     95  F   UNL A   1      50.986  27.277  30.892  1.00  0.00    -0.200 F 
ATOM     96  C   UNL A   1      50.020  26.070  32.677  1.00  0.00     0.200 A 
ATOM     97  F   UNL A   1      49.007  24.866  34.437  1.00  0.00    -0.200 F 
ATOM     98  F   UNL A   1      51.234  25.681  33.091  1.00  0.00    -0.200 F 
ENDBRANCH  65  88
ENDBRANCH  39  40
ENDBRANCH  31  34
ENDBRANCH  29  30
ENDBRANCH  28  29
ENDBRANCH  27  28
ENDBRANCH   1  27
TORSDOF 16
ENDMDL
