MODEL 1
REMARK VINA RESULT:     -11.6      0.000      0.000
REMARK SMILES Cc1nc(CN(C)C(=O)NCc2ccc(C(=O)NCCCCCCNC(=O)c3ccc(-c4c5nc(c(-c6c(F)c(F)c(F)c(F)c6F)c6ccc([nH]6)c(-c6c(F)c(F)c(F)c(F)c6F)c6nc(c(-c7c(F)c(F)c(F)c(F)c7F)c7ccc4[nH]7)C=C6)C=C5)cc3)o2)n[nH]1
REMARK SMILES IDX 20 1 19 2 18 3 16 4 17 5 15 7 12 8 13 9 91 10 14 11 11 12
REMARK SMILES IDX 10 13 8 14 9 15 6 17 7 18 5 19 4 20 1 21 2 22 3 23 93 24
REMARK SMILES IDX 92 25 21 27 22 28 23 29 24 30 25 31 26 32 27 34 28 35 29 36
REMARK SMILES IDX 90 37 30 38 89 39 31 40 32 41 33 42 83 43 34 44 88 45 82 46
REMARK SMILES IDX 84 47 35 48 87 49 81 50 80 51 36 53 68 54 48 55 67 56 49 57
REMARK SMILES IDX 52 58 66 59 85 60 50 61 51 62 65 64 86 65 53 66 37 67 38 68
REMARK SMILES IDX 46 69 39 70 40 71 44 72 47 73 41 74 42 75 45 76 43 77 69 78
REMARK SMILES IDX 70 79 78 80 71 81 72 82 76 83 79 84 73 85 74 86 77 87 75 88
REMARK SMILES IDX 54 89 55 90 63 91 56 92 57 93 61 94 64 95 58 96 59 97 62 98
REMARK SMILES IDX 60 99
REMARK H PARENT 18 6 10 16 93 26 25 33 84 52 52 63
REMARK Flexibility Score: inf
ROOT
ATOM      1  C   UNL A   1      35.502  22.159  26.066  1.00  0.00     0.021 C 
ENDROOT
BRANCH   1   2
ATOM      2  C   UNL A   1      34.504  21.379  26.921  1.00  0.00     0.116 C 
BRANCH   2   3
ATOM      3  N   UNL A   1      33.492  22.253  27.469  1.00  0.00    -0.349 N 
ATOM      4  C   UNL A   1      32.414  22.894  26.907  1.00  0.00     0.286 C 
ATOM      5  O   UNL A   1      31.749  23.572  27.694  1.00  0.00    -0.266 OA
ATOM      6  H   UNL A   1      33.595  22.420  28.433  1.00  0.00     0.163 HD
BRANCH   4   7
ATOM      7  C   UNL A   1      32.076  22.774  25.498  1.00  0.00     0.191 A 
ATOM      8  C   UNL A   1      31.332  23.651  23.595  1.00  0.00     0.124 A 
ATOM      9  C   UNL A   1      31.609  22.330  23.332  1.00  0.00     0.048 A 
ATOM     10  O   UNL A   1      31.594  23.920  24.902  1.00  0.00    -0.454 OA
ATOM     11  C   UNL A   1      32.121  21.783  24.532  1.00  0.00     0.056 A 
BRANCH   8  12
ATOM     12  C   UNL A   1      30.865  24.794  22.770  1.00  0.00     0.193 C 
BRANCH  12  13
ATOM     13  N   UNL A   1      31.870  25.081  21.771  1.00  0.00    -0.331 N 
ATOM     14  C   UNL A   1      32.871  25.969  21.653  1.00  0.00     0.317 C 
ATOM     15  O   UNL A   1      33.275  26.137  20.498  1.00  0.00    -0.249 OA
ATOM     16  H   UNL A   1      31.805  24.483  20.991  1.00  0.00     0.165 HD
BRANCH  14  17
ATOM     17  N   UNL A   1      33.398  26.646  22.715  1.00  0.00    -0.320 N 
ATOM     18  C   UNL A   1      34.012  26.078  23.898  1.00  0.00     0.149 C 
BRANCH  17  19
ATOM     19  C   UNL A   1      33.540  28.101  22.547  1.00  0.00     0.200 C 
BRANCH  19  20
ATOM     20  C   UNL A   1      32.708  28.864  23.537  1.00  0.00     0.170 A 
ATOM     21  C   UNL A   1      32.151  30.273  26.762  1.00  0.00     0.089 C 
ATOM     22  C   UNL A   1      32.195  29.762  25.379  1.00  0.00     0.121 A 
ATOM     23  N   UNL A   1      33.241  29.321  24.719  1.00  0.00    -0.215 NA
ATOM     24  N   UNL A   1      31.090  29.641  24.586  1.00  0.00    -0.263 N 
ATOM     25  N   UNL A   1      31.396  29.117  23.387  1.00  0.00    -0.157 NA
ATOM     26  H   UNL A   1      30.181  29.903  24.859  1.00  0.00     0.192 HD
ENDBRANCH  19  20
ENDBRANCH  17  19
ENDBRANCH  14  17
ENDBRANCH  12  13
ENDBRANCH   8  12
ENDBRANCH   4   7
ENDBRANCH   2   3
ENDBRANCH   1   2
BRANCH   1  27
ATOM     27  C   UNL A   1      35.886  21.435  24.768  1.00  0.00     0.002 C 
BRANCH  27  28
ATOM     28  C   UNL A   1      37.395  21.324  24.505  1.00  0.00     0.002 C 
BRANCH  28  29
ATOM     29  C   UNL A   1      38.049  20.027  24.990  1.00  0.00     0.021 C 
BRANCH  29  30
ATOM     30  C   UNL A   1      39.053  20.212  26.124  1.00  0.00     0.116 C 
BRANCH  30  31
ATOM     31  N   UNL A   1      40.089  19.191  26.100  1.00  0.00    -0.352 N 
ATOM     32  C   UNL A   1      41.454  19.328  26.108  1.00  0.00     0.251 C 
ATOM     33  H   UNL A   1      39.761  18.263  26.075  1.00  0.00     0.163 HD
ATOM     34  O   UNL A   1      42.173  18.365  25.863  1.00  0.00    -0.269 OA
BRANCH  32  35
ATOM     35  C   UNL A   1      42.062  20.644  26.397  1.00  0.00     0.039 A 
ATOM     36  C   UNL A   1      42.408  21.476  25.329  1.00  0.00     0.014 A 
ATOM     37  C   UNL A   1      42.306  21.048  27.712  1.00  0.00     0.014 A 
ATOM     38  C   UNL A   1      42.934  22.744  25.582  1.00  0.00     0.010 A 
ATOM     39  C   UNL A   1      42.772  22.336  27.965  1.00  0.00     0.010 A 
ATOM     40  C   UNL A   1      43.085  23.197  26.902  1.00  0.00    -0.014 A 
BRANCH  40  41
ATOM     41  C   UNL A   1      43.534  24.581  27.193  1.00  0.00     0.031 A 
ATOM     42  C   UNL A   1      42.566  25.601  27.718  1.00  0.00     0.074 A 
ATOM     43  C   UNL A   1      44.802  24.935  26.911  1.00  0.00     0.049 A 
ATOM     44  N   UNL A   1      42.756  26.874  27.960  1.00  0.00    -0.248 NA
ATOM     45  C   UNL A   1      41.196  25.136  27.986  1.00  0.00     0.031 C 
ATOM     46  C   UNL A   1      45.822  24.043  26.354  1.00  0.00     0.029 A 
ATOM     47  N   UNL A   1      45.447  26.139  27.037  1.00  0.00    -0.354 N 
ATOM     48  C   UNL A   1      41.531  27.363  28.396  1.00  0.00     0.074 A 
ATOM     49  C   UNL A   1      40.594  26.261  28.340  1.00  0.00     0.031 C 
ATOM     50  C   UNL A   1      46.967  24.726  26.204  1.00  0.00     0.029 A 
ATOM     51  C   UNL A   1      46.752  26.111  26.614  1.00  0.00     0.049 A 
ATOM     52  H   UNL A   1      45.014  26.947  27.396  1.00  0.00     0.167 HD
ATOM     53  C   UNL A   1      41.225  28.611  28.822  1.00  0.00     0.037 A 
ATOM     54  C   UNL A   1      47.671  27.094  26.552  1.00  0.00     0.037 A 
ATOM     55  C   UNL A   1      42.167  29.697  28.893  1.00  0.00     0.049 A 
ATOM     56  C   UNL A   1      47.299  28.476  27.009  1.00  0.00     0.074 A 
ATOM     57  C   UNL A   1      41.973  30.978  29.381  1.00  0.00     0.029 A 
ATOM     58  N   UNL A   1      43.481  29.632  28.453  1.00  0.00    -0.354 N 
ATOM     59  N   UNL A   1      46.158  28.908  27.490  1.00  0.00    -0.248 NA
ATOM     60  C   UNL A   1      48.340  29.508  26.913  1.00  0.00     0.031 C 
ATOM     61  C   UNL A   1      43.154  31.703  29.190  1.00  0.00     0.029 A 
ATOM     62  C   UNL A   1      44.101  30.861  28.628  1.00  0.00     0.049 A 
ATOM     63  H   UNL A   1      43.911  28.832  28.074  1.00  0.00     0.167 HD
ATOM     64  C   UNL A   1      46.348  30.255  27.770  1.00  0.00     0.074 A 
ATOM     65  C   UNL A   1      47.721  30.564  27.423  1.00  0.00     0.031 C 
ATOM     66  C   UNL A   1      45.465  31.154  28.269  1.00  0.00     0.037 A 
BRANCH  53  67
ATOM     67  C   UNL A   1      39.809  28.870  29.247  1.00  0.00     0.064 A 
ATOM     68  C   UNL A   1      38.844  29.342  28.343  1.00  0.00     0.173 A 
ATOM     69  C   UNL A   1      39.399  28.610  30.564  1.00  0.00     0.173 A 
ATOM     70  F   UNL A   1      39.185  29.616  27.074  1.00  0.00    -0.203 F 
ATOM     71  C   UNL A   1      37.533  29.576  28.750  1.00  0.00     0.198 A 
ATOM     72  C   UNL A   1      38.080  28.816  30.959  1.00  0.00     0.198 A 
ATOM     73  F   UNL A   1      40.279  28.151  31.467  1.00  0.00    -0.203 F 
ATOM     74  F   UNL A   1      36.642  30.074  27.881  1.00  0.00    -0.200 F 
ATOM     75  C   UNL A   1      37.151  29.305  30.055  1.00  0.00     0.200 A 
ATOM     76  F   UNL A   1      37.709  28.543  32.218  1.00  0.00    -0.200 F 
ATOM     77  F   UNL A   1      35.886  29.525  30.442  1.00  0.00    -0.200 F 
ENDBRANCH  53  67
BRANCH  54  78
ATOM     78  C   UNL A   1      49.037  26.796  26.050  1.00  0.00     0.064 A 
ATOM     79  C   UNL A   1      49.364  26.993  24.702  1.00  0.00     0.173 A 
ATOM     80  C   UNL A   1      50.043  26.322  26.905  1.00  0.00     0.173 A 
ATOM     81  F   UNL A   1      48.430  27.426  23.842  1.00  0.00    -0.203 F 
ATOM     82  C   UNL A   1      50.643  26.714  24.223  1.00  0.00     0.198 A 
ATOM     83  C   UNL A   1      51.328  26.069  26.431  1.00  0.00     0.198 A 
ATOM     84  F   UNL A   1      49.781  26.122  28.205  1.00  0.00    -0.203 F 
ATOM     85  F   UNL A   1      50.920  26.877  22.922  1.00  0.00    -0.200 F 
ATOM     86  C   UNL A   1      51.626  26.259  25.090  1.00  0.00     0.200 A 
ATOM     87  F   UNL A   1      52.279  25.643  27.274  1.00  0.00    -0.200 F 
ATOM     88  F   UNL A   1      52.858  26.000  24.632  1.00  0.00    -0.200 F 
ENDBRANCH  54  78
BRANCH  66  89
ATOM     89  C   UNL A   1      45.958  32.555  28.476  1.00  0.00     0.064 A 
ATOM     90  C   UNL A   1      46.586  32.942  29.669  1.00  0.00     0.173 A 
ATOM     91  C   UNL A   1      45.837  33.512  27.456  1.00  0.00     0.173 A 
ATOM     92  F   UNL A   1      46.710  32.068  30.680  1.00  0.00    -0.203 F 
ATOM     93  C   UNL A   1      47.056  34.241  29.842  1.00  0.00     0.198 A 
ATOM     94  C   UNL A   1      46.333  34.802  27.622  1.00  0.00     0.198 A 
ATOM     95  F   UNL A   1      45.247  33.192  26.295  1.00  0.00    -0.203 F 
ATOM     96  F   UNL A   1      47.613  34.600  31.006  1.00  0.00    -0.200 F 
ATOM     97  C   UNL A   1      46.936  35.167  28.816  1.00  0.00     0.200 A 
ATOM     98  F   UNL A   1      46.228  35.691  26.626  1.00  0.00    -0.200 F 
ATOM     99  F   UNL A   1      47.397  36.415  28.981  1.00  0.00    -0.200 F 
ENDBRANCH  66  89
ENDBRANCH  40  41
ENDBRANCH  32  35
ENDBRANCH  30  31
ENDBRANCH  29  30
ENDBRANCH  28  29
ENDBRANCH  27  28
ENDBRANCH   1  27
TORSDOF 18
ENDMDL
MODEL 2
REMARK VINA RESULT:     -11.6      1.828      7.826
REMARK SMILES Cc1nc(CN(C)C(=O)NCc2ccc(C(=O)NCCCCCCNC(=O)c3ccc(-c4c5nc(c(-c6c(F)c(F)c(F)c(F)c6F)c6ccc([nH]6)c(-c6c(F)c(F)c(F)c(F)c6F)c6nc(c(-c7c(F)c(F)c(F)c(F)c7F)c7ccc4[nH]7)C=C6)C=C5)cc3)o2)n[nH]1
REMARK SMILES IDX 20 1 19 2 18 3 16 4 17 5 15 7 12 8 13 9 91 10 14 11 11 12
REMARK SMILES IDX 10 13 8 14 9 15 6 17 7 18 5 19 4 20 1 21 2 22 3 23 93 24
REMARK SMILES IDX 92 25 21 27 22 28 23 29 24 30 25 31 26 32 27 34 28 35 29 36
REMARK SMILES IDX 90 37 30 38 89 39 31 40 32 41 33 42 83 43 34 44 88 45 82 46
REMARK SMILES IDX 84 47 35 48 87 49 81 50 80 51 36 53 68 54 48 55 67 56 49 57
REMARK SMILES IDX 52 58 66 59 85 60 50 61 51 62 65 64 86 65 53 66 37 67 38 68
REMARK SMILES IDX 46 69 39 70 40 71 44 72 47 73 41 74 42 75 45 76 43 77 69 78
REMARK SMILES IDX 70 79 78 80 71 81 72 82 76 83 79 84 73 85 74 86 77 87 75 88
REMARK SMILES IDX 54 89 55 90 63 91 56 92 57 93 61 94 64 95 58 96 59 97 62 98
REMARK SMILES IDX 60 99
REMARK H PARENT 18 6 10 16 93 26 25 33 84 52 52 63
REMARK Flexibility Score: inf
ROOT
ATOM      1  C   UNL A   1      39.094  21.641  26.121  1.00  0.00     0.021 C 
ENDROOT
BRANCH   1   2
ATOM      2  C   UNL A   1      38.250  22.903  25.947  1.00  0.00     0.116 C 
BRANCH   2   3
ATOM      3  N   UNL A   1      37.777  23.030  24.588  1.00  0.00    -0.349 N 
ATOM      4  C   UNL A   1      36.595  22.684  23.979  1.00  0.00     0.286 C 
ATOM      5  O   UNL A   1      36.536  22.950  22.776  1.00  0.00    -0.266 OA
ATOM      6  H   UNL A   1      38.429  23.447  23.980  1.00  0.00     0.163 HD
BRANCH   4   7
ATOM      7  C   UNL A   1      35.493  22.063  24.697  1.00  0.00     0.191 A 
ATOM      8  C   UNL A   1      33.598  22.205  25.850  1.00  0.00     0.124 A 
ATOM      9  C   UNL A   1      33.907  20.867  25.773  1.00  0.00     0.048 A 
ATOM     10  O   UNL A   1      34.559  22.931  25.220  1.00  0.00    -0.454 OA
ATOM     11  C   UNL A   1      35.090  20.774  25.004  1.00  0.00     0.056 A 
BRANCH   8  12
ATOM     12  C   UNL A   1      32.462  22.972  26.421  1.00  0.00     0.193 C 
BRANCH  12  13
ATOM     13  N   UNL A   1      32.865  24.353  26.566  1.00  0.00    -0.331 N 
ATOM     14  C   UNL A   1      32.588  25.500  25.924  1.00  0.00     0.317 C 
ATOM     15  O   UNL A   1      33.405  26.405  26.115  1.00  0.00    -0.249 OA
ATOM     16  H   UNL A   1      33.492  24.484  27.315  1.00  0.00     0.165 HD
BRANCH  14  17
ATOM     17  N   UNL A   1      31.501  25.657  25.113  1.00  0.00    -0.320 N 
ATOM     18  C   UNL A   1      30.122  25.834  25.521  1.00  0.00     0.149 C 
BRANCH  17  19
ATOM     19  C   UNL A   1      31.787  25.874  23.686  1.00  0.00     0.200 C 
BRANCH  19  20
ATOM     20  C   UNL A   1      32.276  24.622  23.016  1.00  0.00     0.170 A 
ATOM     21  C   UNL A   1      32.155  21.110  22.426  1.00  0.00     0.089 C 
ATOM     22  C   UNL A   1      32.363  22.567  22.539  1.00  0.00     0.121 A 
ATOM     23  N   UNL A   1      31.549  23.455  23.060  1.00  0.00    -0.215 NA
ATOM     24  N   UNL A   1      33.502  23.198  22.129  1.00  0.00    -0.263 N 
ATOM     25  N   UNL A   1      33.453  24.517  22.375  1.00  0.00    -0.157 NA
ATOM     26  H   UNL A   1      34.266  22.742  21.706  1.00  0.00     0.192 HD
ENDBRANCH  19  20
ENDBRANCH  17  19
ENDBRANCH  14  17
ENDBRANCH  12  13
ENDBRANCH   8  12
ENDBRANCH   4   7
ENDBRANCH   2   3
ENDBRANCH   1   2
BRANCH   1  27
ATOM     27  C   UNL A   1      40.504  21.923  26.661  1.00  0.00     0.002 C 
BRANCH  27  28
ATOM     28  C   UNL A   1      41.250  20.697  27.207  1.00  0.00     0.002 C 
BRANCH  28  29
ATOM     29  C   UNL A   1      41.499  19.578  26.192  1.00  0.00     0.021 C 
BRANCH  29  30
ATOM     30  C   UNL A   1      42.736  18.732  26.476  1.00  0.00     0.116 C 
BRANCH  30  31
ATOM     31  N   UNL A   1      43.572  18.582  25.295  1.00  0.00    -0.352 N 
ATOM     32  C   UNL A   1      44.182  19.541  24.526  1.00  0.00     0.251 C 
ATOM     33  H   UNL A   1      43.721  17.654  25.003  1.00  0.00     0.163 HD
ATOM     34  O   UNL A   1      44.668  19.245  23.440  1.00  0.00    -0.269 OA
BRANCH  32  35
ATOM     35  C   UNL A   1      44.242  20.939  25.001  1.00  0.00     0.039 A 
ATOM     36  C   UNL A   1      44.884  21.214  26.211  1.00  0.00     0.014 A 
ATOM     37  C   UNL A   1      43.655  21.972  24.266  1.00  0.00     0.014 A 
ATOM     38  C   UNL A   1      44.998  22.534  26.650  1.00  0.00     0.010 A 
ATOM     39  C   UNL A   1      43.823  23.294  24.672  1.00  0.00     0.010 A 
ATOM     40  C   UNL A   1      44.501  23.586  25.865  1.00  0.00    -0.014 A 
BRANCH  40  41
ATOM     41  C   UNL A   1      44.711  25.003  26.256  1.00  0.00     0.031 A 
ATOM     42  C   UNL A   1      46.068  25.632  26.135  1.00  0.00     0.074 A 
ATOM     43  C   UNL A   1      43.689  25.697  26.790  1.00  0.00     0.049 A 
ATOM     44  N   UNL A   1      46.461  26.828  26.495  1.00  0.00    -0.248 NA
ATOM     45  C   UNL A   1      47.134  24.799  25.555  1.00  0.00     0.031 C 
ATOM     46  C   UNL A   1      42.336  25.178  27.000  1.00  0.00     0.029 A 
ATOM     47  N   UNL A   1      43.630  26.981  27.269  1.00  0.00    -0.354 N 
ATOM     48  C   UNL A   1      47.815  26.888  26.196  1.00  0.00     0.074 A 
ATOM     49  C   UNL A   1      48.189  25.592  25.669  1.00  0.00     0.031 C 
ATOM     50  C   UNL A   1      41.577  26.139  27.549  1.00  0.00     0.029 A 
ATOM     51  C   UNL A   1      42.398  27.326  27.766  1.00  0.00     0.049 A 
ATOM     52  H   UNL A   1      44.399  27.596  27.258  1.00  0.00     0.167 HD
ATOM     53  C   UNL A   1      48.663  27.935  26.330  1.00  0.00     0.037 A 
ATOM     54  C   UNL A   1      41.980  28.469  28.344  1.00  0.00     0.037 A 
ATOM     55  C   UNL A   1      48.281  29.228  26.837  1.00  0.00     0.049 A 
ATOM     56  C   UNL A   1      42.947  29.608  28.503  1.00  0.00     0.074 A 
ATOM     57  C   UNL A   1      49.048  30.376  26.941  1.00  0.00     0.029 A 
ATOM     58  N   UNL A   1      47.024  29.541  27.334  1.00  0.00    -0.354 N 
ATOM     59  N   UNL A   1      44.206  29.679  28.147  1.00  0.00    -0.248 NA
ATOM     60  C   UNL A   1      42.434  30.826  29.145  1.00  0.00     0.031 C 
ATOM     61  C   UNL A   1      48.269  31.368  27.548  1.00  0.00     0.029 A 
ATOM     62  C   UNL A   1      47.003  30.854  27.777  1.00  0.00     0.049 A 
ATOM     63  H   UNL A   1      46.259  28.922  27.366  1.00  0.00     0.167 HD
ATOM     64  C   UNL A   1      44.633  30.950  28.504  1.00  0.00     0.074 A 
ATOM     65  C   UNL A   1      43.491  31.625  29.088  1.00  0.00     0.031 C 
ATOM     66  C   UNL A   1      45.860  31.508  28.363  1.00  0.00     0.037 A 
BRANCH  53  67
ATOM     67  C   UNL A   1      50.092  27.727  25.921  1.00  0.00     0.064 A 
ATOM     68  C   UNL A   1      51.102  27.497  26.868  1.00  0.00     0.173 A 
ATOM     69  C   UNL A   1      50.453  27.722  24.565  1.00  0.00     0.173 A 
ATOM     70  F   UNL A   1      50.813  27.502  28.179  1.00  0.00    -0.203 F 
ATOM     71  C   UNL A   1      52.424  27.302  26.475  1.00  0.00     0.198 A 
ATOM     72  C   UNL A   1      51.770  27.496  24.175  1.00  0.00     0.198 A 
ATOM     73  F   UNL A   1      49.526  27.929  23.617  1.00  0.00    -0.203 F 
ATOM     74  F   UNL A   1      53.379  27.135  27.401  1.00  0.00    -0.200 F 
ATOM     75  C   UNL A   1      52.755  27.295  25.129  1.00  0.00     0.200 A 
ATOM     76  F   UNL A   1      52.087  27.477  22.872  1.00  0.00    -0.200 F 
ATOM     77  F   UNL A   1      54.027  27.101  24.752  1.00  0.00    -0.200 F 
ENDBRANCH  53  67
BRANCH  54  78
ATOM     78  C   UNL A   1      40.572  28.592  28.799  1.00  0.00     0.064 A 
ATOM     79  C   UNL A   1      40.216  28.289  30.121  1.00  0.00     0.173 A 
ATOM     80  C   UNL A   1      39.557  29.023  27.933  1.00  0.00     0.173 A 
ATOM     81  F   UNL A   1      41.148  27.853  30.982  1.00  0.00    -0.203 F 
ATOM     82  C   UNL A   1      38.897  28.400  30.555  1.00  0.00     0.198 A 
ATOM     83  C   UNL A   1      38.242  29.159  28.375  1.00  0.00     0.198 A 
ATOM     84  F   UNL A   1      39.847  29.330  26.659  1.00  0.00    -0.203 F 
ATOM     85  F   UNL A   1      38.578  28.070  31.814  1.00  0.00    -0.200 F 
ATOM     86  C   UNL A   1      37.912  28.841  29.684  1.00  0.00     0.200 A 
ATOM     87  F   UNL A   1      37.297  29.601  27.534  1.00  0.00    -0.200 F 
ATOM     88  F   UNL A   1      36.646  28.958  30.104  1.00  0.00    -0.200 F 
ENDBRANCH  54  78
BRANCH  66  89
ATOM     89  C   UNL A   1      46.030  32.920  28.841  1.00  0.00     0.064 A 
ATOM     90  C   UNL A   1      46.484  33.205  30.137  1.00  0.00     0.173 A 
ATOM     91  C   UNL A   1      45.774  34.000  27.981  1.00  0.00     0.173 A 
ATOM     92  F   UNL A   1      46.726  32.208  31.001  1.00  0.00    -0.203 F 
ATOM     93  C   UNL A   1      46.657  34.520  30.561  1.00  0.00     0.198 A 
ATOM     94  C   UNL A   1      45.975  35.312  28.400  1.00  0.00     0.198 A 
ATOM     95  F   UNL A   1      45.341  33.780  26.730  1.00  0.00    -0.203 F 
ATOM     96  F   UNL A   1      47.050  34.769  31.818  1.00  0.00    -0.200 F 
ATOM     97  C   UNL A   1      46.409  35.571  29.691  1.00  0.00     0.200 A 
ATOM     98  F   UNL A   1      45.747  36.325  27.554  1.00  0.00    -0.200 F 
ATOM     99  F   UNL A   1      46.583  36.835  30.099  1.00  0.00    -0.200 F 
ENDBRANCH  66  89
ENDBRANCH  40  41
ENDBRANCH  32  35
ENDBRANCH  30  31
ENDBRANCH  29  30
ENDBRANCH  28  29
ENDBRANCH  27  28
ENDBRANCH   1  27
TORSDOF 18
ENDMDL
MODEL 3
REMARK VINA RESULT:     -11.4      3.472      7.995
REMARK SMILES Cc1nc(CN(C)C(=O)NCc2ccc(C(=O)NCCCCCCNC(=O)c3ccc(-c4c5nc(c(-c6c(F)c(F)c(F)c(F)c6F)c6ccc([nH]6)c(-c6c(F)c(F)c(F)c(F)c6F)c6nc(c(-c7c(F)c(F)c(F)c(F)c7F)c7ccc4[nH]7)C=C6)C=C5)cc3)o2)n[nH]1
REMARK SMILES IDX 20 1 19 2 18 3 16 4 17 5 15 7 12 8 13 9 91 10 14 11 11 12
REMARK SMILES IDX 10 13 8 14 9 15 6 17 7 18 5 19 4 20 1 21 2 22 3 23 93 24
REMARK SMILES IDX 92 25 21 27 22 28 23 29 24 30 25 31 26 32 27 34 28 35 29 36
REMARK SMILES IDX 90 37 30 38 89 39 31 40 32 41 33 42 83 43 34 44 88 45 82 46
REMARK SMILES IDX 84 47 35 48 87 49 81 50 80 51 36 53 68 54 48 55 67 56 49 57
REMARK SMILES IDX 52 58 66 59 85 60 50 61 51 62 65 64 86 65 53 66 37 67 38 68
REMARK SMILES IDX 46 69 39 70 40 71 44 72 47 73 41 74 42 75 45 76 43 77 69 78
REMARK SMILES IDX 70 79 78 80 71 81 72 82 76 83 79 84 73 85 74 86 77 87 75 88
REMARK SMILES IDX 54 89 55 90 63 91 56 92 57 93 61 94 64 95 58 96 59 97 62 98
REMARK SMILES IDX 60 99
REMARK H PARENT 18 6 10 16 93 26 25 33 84 52 52 63
REMARK Flexibility Score: inf
ROOT
ATOM      1  C   UNL A   1      30.482  29.561  23.767  1.00  0.00     0.021 C 
ENDROOT
BRANCH   1   2
ATOM      2  C   UNL A   1      29.766  28.297  23.292  1.00  0.00     0.116 C 
BRANCH   2   3
ATOM      3  N   UNL A   1      30.676  27.410  22.605  1.00  0.00    -0.349 N 
ATOM      4  C   UNL A   1      31.227  26.198  22.945  1.00  0.00     0.286 C 
ATOM      5  O   UNL A   1      31.976  25.714  22.093  1.00  0.00    -0.266 OA
ATOM      6  H   UNL A   1      30.953  27.738  21.719  1.00  0.00     0.163 HD
BRANCH   4   7
ATOM      7  C   UNL A   1      30.943  25.531  24.205  1.00  0.00     0.191 A 
ATOM      8  C   UNL A   1      30.854  23.697  25.458  1.00  0.00     0.124 A 
ATOM      9  C   UNL A   1      30.414  24.731  26.251  1.00  0.00     0.048 A 
ATOM     10  O   UNL A   1      31.156  24.170  24.220  1.00  0.00    -0.454 OA
ATOM     11  C   UNL A   1      30.510  25.904  25.467  1.00  0.00     0.056 A 
BRANCH   8  12
ATOM     12  C   UNL A   1      31.090  22.249  25.685  1.00  0.00     0.193 C 
BRANCH  12  13
ATOM     13  N   UNL A   1      32.256  22.098  26.526  1.00  0.00    -0.331 N 
ATOM     14  C   UNL A   1      33.411  21.417  26.442  1.00  0.00     0.317 C 
ATOM     15  O   UNL A   1      33.991  21.256  27.520  1.00  0.00    -0.249 OA
ATOM     16  H   UNL A   1      32.187  22.619  27.359  1.00  0.00     0.165 HD
BRANCH  14  17
ATOM     17  N   UNL A   1      33.905  20.928  25.267  1.00  0.00    -0.320 N 
ATOM     18  C   UNL A   1      33.855  19.558  24.799  1.00  0.00     0.149 C 
BRANCH  17  19
ATOM     19  C   UNL A   1      34.350  21.931  24.287  1.00  0.00     0.200 C 
BRANCH  19  20
ATOM     20  C   UNL A   1      35.799  22.281  24.461  1.00  0.00     0.170 A 
ATOM     21  C   UNL A   1      38.930  21.998  26.140  1.00  0.00     0.089 C 
ATOM     22  C   UNL A   1      37.728  22.250  25.322  1.00  0.00     0.121 A 
ATOM     23  N   UNL A   1      36.619  21.548  25.288  1.00  0.00    -0.215 NA
ATOM     24  N   UNL A   1      37.599  23.321  24.485  1.00  0.00    -0.263 N 
ATOM     25  N   UNL A   1      36.398  23.338  23.885  1.00  0.00    -0.157 NA
ATOM     26  H   UNL A   1      38.300  23.998  24.340  1.00  0.00     0.192 HD
ENDBRANCH  19  20
ENDBRANCH  17  19
ENDBRANCH  14  17
ENDBRANCH  12  13
ENDBRANCH   8  12
ENDBRANCH   4   7
ENDBRANCH   2   3
ENDBRANCH   1   2
BRANCH   1  27
ATOM     27  C   UNL A   1      31.292  29.352  25.055  1.00  0.00     0.002 C 
BRANCH  27  28
ATOM     28  C   UNL A   1      32.817  29.374  24.876  1.00  0.00     0.002 C 
BRANCH  28  29
ATOM     29  C   UNL A   1      33.573  28.243  25.579  1.00  0.00     0.021 C 
BRANCH  29  30
ATOM     30  C   UNL A   1      33.777  28.454  27.076  1.00  0.00     0.116 C 
BRANCH  30  31
ATOM     31  N   UNL A   1      33.713  29.862  27.436  1.00  0.00    -0.352 N 
ATOM     32  C   UNL A   1      34.611  30.630  28.133  1.00  0.00     0.251 C 
ATOM     33  H   UNL A   1      32.903  30.334  27.136  1.00  0.00     0.163 HD
ATOM     34  O   UNL A   1      34.292  31.744  28.534  1.00  0.00    -0.269 OA
BRANCH  32  35
ATOM     35  C   UNL A   1      35.965  30.109  28.417  1.00  0.00     0.039 A 
ATOM     36  C   UNL A   1      36.946  30.205  27.426  1.00  0.00     0.014 A 
ATOM     37  C   UNL A   1      36.261  29.513  29.645  1.00  0.00     0.014 A 
ATOM     38  C   UNL A   1      38.244  29.767  27.693  1.00  0.00     0.010 A 
ATOM     39  C   UNL A   1      37.570  29.133  29.933  1.00  0.00     0.010 A 
ATOM     40  C   UNL A   1      38.574  29.263  28.961  1.00  0.00    -0.014 A 
BRANCH  40  41
ATOM     41  C   UNL A   1      39.971  28.898  29.303  1.00  0.00     0.031 A 
ATOM     42  C   UNL A   1      40.836  29.845  30.084  1.00  0.00     0.074 A 
ATOM     43  C   UNL A   1      40.481  27.740  28.843  1.00  0.00     0.049 A 
ATOM     44  N   UNL A   1      42.098  29.733  30.411  1.00  0.00    -0.248 NA
ATOM     45  C   UNL A   1      40.206  31.095  30.537  1.00  0.00     0.031 C 
ATOM     46  C   UNL A   1      39.752  26.760  28.035  1.00  0.00     0.029 A 
ATOM     47  N   UNL A   1      41.734  27.197  28.972  1.00  0.00    -0.354 N 
ATOM     48  C   UNL A   1      42.416  30.898  31.097  1.00  0.00     0.074 A 
ATOM     49  C   UNL A   1      41.228  31.725  31.097  1.00  0.00     0.031 C 
ATOM     50  C   UNL A   1      40.564  25.729  27.757  1.00  0.00     0.029 A 
ATOM     51  C   UNL A   1      41.881  25.993  28.330  1.00  0.00     0.049 A 
ATOM     52  H   UNL A   1      42.460  27.631  29.477  1.00  0.00     0.167 HD
ATOM     53  C   UNL A   1      43.586  31.236  31.689  1.00  0.00     0.037 A 
ATOM     54  C   UNL A   1      42.959  25.196  28.206  1.00  0.00     0.037 A 
ATOM     55  C   UNL A   1      44.759  30.401  31.701  1.00  0.00     0.049 A 
ATOM     56  C   UNL A   1      44.253  25.605  28.853  1.00  0.00     0.074 A 
ATOM     57  C   UNL A   1      45.969  30.621  32.338  1.00  0.00     0.029 A 
ATOM     58  N   UNL A   1      44.871  29.188  31.038  1.00  0.00    -0.354 N 
ATOM     59  N   UNL A   1      44.520  26.674  29.563  1.00  0.00    -0.248 NA
ATOM     60  C   UNL A   1      45.395  24.698  28.679  1.00  0.00     0.031 C 
ATOM     61  C   UNL A   1      46.830  29.566  32.017  1.00  0.00     0.029 A 
ATOM     62  C   UNL A   1      46.142  28.663  31.221  1.00  0.00     0.049 A 
ATOM     63  H   UNL A   1      44.155  28.762  30.514  1.00  0.00     0.167 HD
ATOM     64  C   UNL A   1      45.852  26.562  29.936  1.00  0.00     0.074 A 
ATOM     65  C   UNL A   1      46.334  25.310  29.389  1.00  0.00     0.031 C 
ATOM     66  C   UNL A   1      46.608  27.419  30.663  1.00  0.00     0.037 A 
BRANCH  53  67
ATOM     67  C   UNL A   1      43.656  32.570  32.374  1.00  0.00     0.064 A 
ATOM     68  C   UNL A   1      43.333  32.718  33.731  1.00  0.00     0.173 A 
ATOM     69  C   UNL A   1      44.087  33.709  31.676  1.00  0.00     0.173 A 
ATOM     70  F   UNL A   1      42.906  31.663  34.443  1.00  0.00    -0.203 F 
ATOM     71  C   UNL A   1      43.406  33.961  34.355  1.00  0.00     0.198 A 
ATOM     72  C   UNL A   1      44.188  34.943  32.311  1.00  0.00     0.198 A 
ATOM     73  F   UNL A   1      44.416  33.622  30.378  1.00  0.00    -0.203 F 
ATOM     74  F   UNL A   1      43.043  34.087  35.640  1.00  0.00    -0.200 F 
ATOM     75  C   UNL A   1      43.840  35.070  33.647  1.00  0.00     0.200 A 
ATOM     76  F   UNL A   1      44.620  36.013  31.627  1.00  0.00    -0.200 F 
ATOM     77  F   UNL A   1      43.915  36.265  34.250  1.00  0.00    -0.200 F 
ENDBRANCH  53  67
BRANCH  54  78
ATOM     78  C   UNL A   1      42.852  23.922  27.451  1.00  0.00     0.064 A 
ATOM     79  C   UNL A   1      42.453  22.740  28.091  1.00  0.00     0.173 A 
ATOM     80  C   UNL A   1      43.132  23.859  26.078  1.00  0.00     0.173 A 
ATOM     81  F   UNL A   1      42.194  22.745  29.406  1.00  0.00    -0.203 F 
ATOM     82  C   UNL A   1      42.352  21.540  27.389  1.00  0.00     0.198 A 
ATOM     83  C   UNL A   1      43.005  22.665  25.372  1.00  0.00     0.198 A 
ATOM     84  F   UNL A   1      43.512  24.964  25.419  1.00  0.00    -0.203 F 
ATOM     85  F   UNL A   1      42.005  20.417  28.032  1.00  0.00    -0.200 F 
ATOM     86  C   UNL A   1      42.622  21.505  26.029  1.00  0.00     0.200 A 
ATOM     87  F   UNL A   1      43.252  22.638  24.055  1.00  0.00    -0.200 F 
ATOM     88  F   UNL A   1      42.515  20.354  25.352  1.00  0.00    -0.200 F 
ENDBRANCH  54  78
BRANCH  66  89
ATOM     89  C   UNL A   1      48.034  27.029  30.918  1.00  0.00     0.064 A 
ATOM     90  C   UNL A   1      48.381  26.166  31.968  1.00  0.00     0.173 A 
ATOM     91  C   UNL A   1      49.061  27.491  30.079  1.00  0.00     0.173 A 
ATOM     92  F   UNL A   1      47.437  25.711  32.807  1.00  0.00    -0.203 F 
ATOM     93  C   UNL A   1      49.706  25.795  32.181  1.00  0.00     0.198 A 
ATOM     94  C   UNL A   1      50.381  27.096  30.279  1.00  0.00     0.198 A 
ATOM     95  F   UNL A   1      48.781  28.316  29.059  1.00  0.00    -0.203 F 
ATOM     96  F   UNL A   1      50.019  25.005  33.217  1.00  0.00    -0.200 F 
ATOM     97  C   UNL A   1      50.703  26.254  31.333  1.00  0.00     0.200 A 
ATOM     98  F   UNL A   1      51.340  27.530  29.452  1.00  0.00    -0.200 F 
ATOM     99  F   UNL A   1      51.976  25.891  31.536  1.00  0.00    -0.200 F 
ENDBRANCH  66  89
ENDBRANCH  40  41
ENDBRANCH  32  35
ENDBRANCH  30  31
ENDBRANCH  29  30
ENDBRANCH  28  29
ENDBRANCH  27  28
ENDBRANCH   1  27
TORSDOF 18
ENDMDL
