MODEL 1
REMARK VINA RESULT:     -14.2      0.000      0.000
REMARK SMILES COc1ccc(-c2cc(Cl)cc3c2O[C@@H](C(F)(F)F)C(C(=O)NCCCCCCNC(=O)c2ccc(-c4c5nc(c(-c6c(F)c(F)c(F)c(F)c6F)c6ccc([nH]6)c(-c6c(F)c(F)c(F)c(F)c6F)c6nc(c(-c7c(F)c(F)c(F)c(F)c7F)c7ccc4[nH]7)C=C6)C=C5)cc2)=C3)cc1C
REMARK SMILES IDX 26 1 25 2 24 3 23 4 21 5 22 6 20 8 7 9 8 10 13 11 9 12 12 13
REMARK SMILES IDX 14 14 10 15 11 16 96 17 15 18 6 19 3 20 4 21 98 22 5 23
REMARK SMILES IDX 97 24 99 25 2 26 1 27 16 28 17 29 18 30 19 31 27 32 28 33
REMARK SMILES IDX 29 34 30 35 31 36 32 38 33 39 34 40 95 41 35 42 94 43 36 44
REMARK SMILES IDX 37 45 38 46 88 47 39 48 93 49 87 50 89 51 40 52 92 53 86 54
REMARK SMILES IDX 85 55 41 57 73 58 53 59 72 60 54 61 57 62 71 63 90 64 55 65
REMARK SMILES IDX 56 66 70 68 91 69 58 70 42 71 43 72 51 73 44 74 45 75 49 76
REMARK SMILES IDX 52 77 46 78 47 79 50 80 48 81 74 82 75 83 83 84 76 85 77 86
REMARK SMILES IDX 81 87 84 88 78 89 79 90 82 91 80 92 59 93 60 94 68 95 61 96
REMARK SMILES IDX 62 97 66 98 69 99 63 100 64 101 67 102 65 103
REMARK H PARENT 23 7 30 37 89 56 57 67
REMARK Flexibility Score: inf
ROOT
ATOM      1  C   UNL A   1      32.837  29.649  24.749  1.00  0.00     0.002 C 
ENDROOT
BRANCH   1   2
ATOM      2  C   UNL A   1      33.424  28.418  24.062  1.00  0.00     0.021 C 
BRANCH   2   3
ATOM      3  C   UNL A   1      33.467  27.057  24.754  1.00  0.00     0.116 C 
BRANCH   3   4
ATOM      4  N   UNL A   1      34.115  25.937  24.112  1.00  0.00    -0.352 N 
ATOM      5  C   UNL A   1      33.607  24.898  23.370  1.00  0.00     0.251 C 
ATOM      6  O   UNL A   1      34.405  24.333  22.614  1.00  0.00    -0.270 OA
ATOM      7  H   UNL A   1      35.093  25.914  24.227  1.00  0.00     0.163 HD
BRANCH   5   8
ATOM      8  C   UNL A   1      32.166  24.359  23.466  1.00  0.00     0.067 C 
ATOM      9  C   UNL A   1      33.883  21.472  25.592  1.00  0.00     0.026 A 
ATOM     10  C   UNL A   1      33.515  20.120  25.439  1.00  0.00     0.033 A 
ATOM     11  C   UNL A   1      33.018  22.383  24.991  1.00  0.00     0.135 A 
ATOM     12  C   UNL A   1      32.625  19.744  24.425  1.00  0.00     0.042 A 
ATOM     13  C   UNL A   1      32.404  22.036  23.762  1.00  0.00     0.019 A 
ATOM     14  O   UNL A   1      32.652  23.583  25.642  1.00  0.00    -0.475 OA
ATOM     15  Cl  UNL A   1      32.256  18.079  24.198  1.00  0.00    -0.084 Cl
ATOM     16  C   UNL A   1      32.151  20.692  23.515  1.00  0.00     0.032 A 
ATOM     17  C   UNL A   1      32.024  23.161  22.833  1.00  0.00     0.025 C 
ATOM     18  C   UNL A   1      31.582  24.205  24.856  1.00  0.00     0.314 C 
BRANCH   9  19
ATOM     19  C   UNL A   1      35.356  21.701  25.459  1.00  0.00    -0.014 A 
ATOM     20  C   UNL A   1      38.197  21.817  25.490  1.00  0.00     0.121 A 
ATOM     21  C   UNL A   1      37.405  22.950  25.756  1.00  0.00     0.047 A 
ATOM     22  C   UNL A   1      37.578  20.602  25.197  1.00  0.00    -0.008 A 
ATOM     23  C   UNL A   1      35.999  22.898  25.743  1.00  0.00     0.013 A 
ATOM     24  C   UNL A   1      36.172  20.581  25.144  1.00  0.00     0.016 A 
ATOM     25  C   UNL A   1      38.303  19.300  25.001  1.00  0.00     0.048 C 
BRANCH  20  26
ATOM     26  O   UNL A   1      39.541  22.009  25.669  1.00  0.00    -0.496 OA
ATOM     27  C   UNL A   1      40.029  21.840  26.995  1.00  0.00     0.278 C 
ENDBRANCH  20  26
ENDBRANCH   9  19
BRANCH  18  28
ATOM     28  C   UNL A   1      30.729  25.389  25.352  1.00  0.00     0.429 C 
ATOM     29  F   UNL A   1      29.529  24.938  25.809  1.00  0.00    -0.167 F 
ATOM     30  F   UNL A   1      31.306  26.059  26.373  1.00  0.00    -0.167 F 
ATOM     31  F   UNL A   1      30.429  26.284  24.381  1.00  0.00    -0.167 F 
ENDBRANCH  18  28
ENDBRANCH   5   8
ENDBRANCH   3   4
ENDBRANCH   2   3
ENDBRANCH   1   2
BRANCH   1  32
ATOM     32  C   UNL A   1      32.008  29.470  26.021  1.00  0.00     0.002 C 
BRANCH  32  33
ATOM     33  C   UNL A   1      32.617  29.960  27.332  1.00  0.00     0.021 C 
BRANCH  33  34
ATOM     34  C   UNL A   1      34.136  30.072  27.354  1.00  0.00     0.116 C 
BRANCH  34  35
ATOM     35  N   UNL A   1      34.641  31.080  28.283  1.00  0.00    -0.352 N 
ATOM     36  C   UNL A   1      35.852  31.104  28.957  1.00  0.00     0.251 C 
ATOM     37  H   UNL A   1      34.042  31.842  28.452  1.00  0.00     0.163 HD
ATOM     38  O   UNL A   1      36.168  32.044  29.665  1.00  0.00    -0.269 OA
BRANCH  36  39
ATOM     39  C   UNL A   1      36.809  30.004  28.704  1.00  0.00     0.039 A 
ATOM     40  C   UNL A   1      36.969  29.027  29.692  1.00  0.00     0.014 A 
ATOM     41  C   UNL A   1      37.688  30.082  27.627  1.00  0.00     0.014 A 
ATOM     42  C   UNL A   1      38.154  28.295  29.730  1.00  0.00     0.010 A 
ATOM     43  C   UNL A   1      38.900  29.424  27.716  1.00  0.00     0.010 A 
ATOM     44  C   UNL A   1      39.162  28.592  28.811  1.00  0.00    -0.014 A 
BRANCH  44  45
ATOM     45  C   UNL A   1      40.555  28.207  29.018  1.00  0.00     0.031 A 
ATOM     46  C   UNL A   1      41.094  26.946  28.469  1.00  0.00     0.074 A 
ATOM     47  C   UNL A   1      41.384  29.065  29.654  1.00  0.00     0.049 A 
ATOM     48  N   UNL A   1      42.161  26.359  28.903  1.00  0.00    -0.248 NA
ATOM     49  C   UNL A   1      40.428  26.207  27.407  1.00  0.00     0.031 C 
ATOM     50  C   UNL A   1      42.843  29.021  29.697  1.00  0.00     0.029 A 
ATOM     51  N   UNL A   1      41.038  30.055  30.590  1.00  0.00    -0.354 N 
ATOM     52  C   UNL A   1      42.475  25.343  28.028  1.00  0.00     0.074 A 
ATOM     53  C   UNL A   1      41.321  25.243  27.163  1.00  0.00     0.031 C 
ATOM     54  C   UNL A   1      43.266  29.691  30.780  1.00  0.00     0.029 A 
ATOM     55  C   UNL A   1      42.086  30.055  31.542  1.00  0.00     0.049 A 
ATOM     56  H   UNL A   1      40.238  30.628  30.584  1.00  0.00     0.167 HD
ATOM     57  C   UNL A   1      43.731  24.804  28.061  1.00  0.00     0.037 A 
ATOM     58  C   UNL A   1      41.871  29.741  32.851  1.00  0.00     0.037 A 
ATOM     59  C   UNL A   1      44.506  25.339  29.180  1.00  0.00     0.049 A 
ATOM     60  C   UNL A   1      42.722  28.606  33.369  1.00  0.00     0.074 A 
ATOM     61  C   UNL A   1      45.477  26.325  29.268  1.00  0.00     0.029 A 
ATOM     62  N   UNL A   1      44.127  25.043  30.484  1.00  0.00    -0.354 N 
ATOM     63  N   UNL A   1      43.317  27.740  32.599  1.00  0.00    -0.248 NA
ATOM     64  C   UNL A   1      42.920  28.322  34.787  1.00  0.00     0.031 C 
ATOM     65  C   UNL A   1      45.660  26.643  30.636  1.00  0.00     0.029 A 
ATOM     66  C   UNL A   1      44.809  25.844  31.379  1.00  0.00     0.049 A 
ATOM     67  H   UNL A   1      43.464  24.360  30.734  1.00  0.00     0.167 HD
ATOM     68  C   UNL A   1      43.933  26.790  33.372  1.00  0.00     0.074 A 
ATOM     69  C   UNL A   1      43.679  27.213  34.735  1.00  0.00     0.031 C 
ATOM     70  C   UNL A   1      44.579  25.726  32.810  1.00  0.00     0.037 A 
BRANCH  57  71
ATOM     71  C   UNL A   1      44.369  24.022  26.922  1.00  0.00     0.064 A 
ATOM     72  C   UNL A   1      44.083  22.648  26.740  1.00  0.00     0.173 A 
ATOM     73  C   UNL A   1      45.322  24.533  26.024  1.00  0.00     0.173 A 
ATOM     74  F   UNL A   1      43.102  22.037  27.418  1.00  0.00    -0.203 F 
ATOM     75  C   UNL A   1      44.791  21.837  25.847  1.00  0.00     0.198 A 
ATOM     76  C   UNL A   1      46.066  23.715  25.164  1.00  0.00     0.198 A 
ATOM     77  F   UNL A   1      45.522  25.847  25.887  1.00  0.00    -0.203 F 
ATOM     78  F   UNL A   1      44.481  20.538  25.739  1.00  0.00    -0.200 F 
ATOM     79  C   UNL A   1      45.813  22.364  25.089  1.00  0.00     0.200 A 
ATOM     80  F   UNL A   1      47.030  24.257  24.405  1.00  0.00    -0.200 F 
ATOM     81  F   UNL A   1      46.524  21.582  24.266  1.00  0.00    -0.200 F 
ENDBRANCH  57  71
BRANCH  58  82
ATOM     82  C   UNL A   1      40.491  30.036  33.313  1.00  0.00     0.064 A 
ATOM     83  C   UNL A   1      40.138  31.374  33.573  1.00  0.00     0.173 A 
ATOM     84  C   UNL A   1      39.452  29.112  33.147  1.00  0.00     0.173 A 
ATOM     85  F   UNL A   1      41.098  32.300  33.734  1.00  0.00    -0.203 F 
ATOM     86  C   UNL A   1      38.810  31.791  33.548  1.00  0.00     0.198 A 
ATOM     87  C   UNL A   1      38.121  29.530  33.141  1.00  0.00     0.198 A 
ATOM     88  F   UNL A   1      39.723  27.827  32.879  1.00  0.00    -0.203 F 
ATOM     89  F   UNL A   1      38.515  33.092  33.682  1.00  0.00    -0.200 F 
ATOM     90  C   UNL A   1      37.803  30.872  33.306  1.00  0.00     0.200 A 
ATOM     91  F   UNL A   1      37.147  28.648  32.873  1.00  0.00    -0.200 F 
ATOM     92  F   UNL A   1      36.533  31.283  33.186  1.00  0.00    -0.200 F 
ENDBRANCH  58  82
BRANCH  70  93
ATOM     93  C   UNL A   1      45.123  24.519  33.534  1.00  0.00     0.064 A 
ATOM     94  C   UNL A   1      44.369  23.371  33.830  1.00  0.00     0.173 A 
ATOM     95  C   UNL A   1      46.508  24.428  33.825  1.00  0.00     0.173 A 
ATOM     96  F   UNL A   1      43.074  23.285  33.501  1.00  0.00    -0.203 F 
ATOM     97  C   UNL A   1      44.943  22.241  34.423  1.00  0.00     0.198 A 
ATOM     98  C   UNL A   1      47.087  23.280  34.364  1.00  0.00     0.198 A 
ATOM     99  F   UNL A   1      47.345  25.445  33.571  1.00  0.00    -0.203 F 
ATOM    100  F   UNL A   1      44.173  21.185  34.719  1.00  0.00    -0.200 F 
ATOM    101  C   UNL A   1      46.302  22.191  34.677  1.00  0.00     0.200 A 
ATOM    102  F   UNL A   1      48.413  23.229  34.557  1.00  0.00    -0.200 F 
ATOM    103  F   UNL A   1      46.854  21.087  35.199  1.00  0.00    -0.200 F 
ENDBRANCH  70  93
ENDBRANCH  44  45
ENDBRANCH  36  39
ENDBRANCH  34  35
ENDBRANCH  33  34
ENDBRANCH  32  33
ENDBRANCH   1  32
TORSDOF 16
ENDMDL
MODEL 2
REMARK VINA RESULT:     -14.1      3.833     10.156
REMARK SMILES COc1ccc(-c2cc(Cl)cc3c2O[C@@H](C(F)(F)F)C(C(=O)NCCCCCCNC(=O)c2ccc(-c4c5nc(c(-c6c(F)c(F)c(F)c(F)c6F)c6ccc([nH]6)c(-c6c(F)c(F)c(F)c(F)c6F)c6nc(c(-c7c(F)c(F)c(F)c(F)c7F)c7ccc4[nH]7)C=C6)C=C5)cc2)=C3)cc1C
REMARK SMILES IDX 26 1 25 2 24 3 23 4 21 5 22 6 20 8 7 9 8 10 13 11 9 12 12 13
REMARK SMILES IDX 14 14 10 15 11 16 96 17 15 18 6 19 3 20 4 21 98 22 5 23
REMARK SMILES IDX 97 24 99 25 2 26 1 27 16 28 17 29 18 30 19 31 27 32 28 33
REMARK SMILES IDX 29 34 30 35 31 36 32 38 33 39 34 40 95 41 35 42 94 43 36 44
REMARK SMILES IDX 37 45 38 46 88 47 39 48 93 49 87 50 89 51 40 52 92 53 86 54
REMARK SMILES IDX 85 55 41 57 73 58 53 59 72 60 54 61 57 62 71 63 90 64 55 65
REMARK SMILES IDX 56 66 70 68 91 69 58 70 42 71 43 72 51 73 44 74 45 75 49 76
REMARK SMILES IDX 52 77 46 78 47 79 50 80 48 81 74 82 75 83 83 84 76 85 77 86
REMARK SMILES IDX 81 87 84 88 78 89 79 90 82 91 80 92 59 93 60 94 68 95 61 96
REMARK SMILES IDX 62 97 66 98 69 99 63 100 64 101 67 102 65 103
REMARK H PARENT 23 7 30 37 89 56 57 67
REMARK Flexibility Score: inf
ROOT
ATOM      1  C   UNL A   1      35.442  21.299  25.779  1.00  0.00     0.002 C 
ENDROOT
BRANCH   1   2
ATOM      2  C   UNL A   1      34.595  22.398  26.414  1.00  0.00     0.021 C 
BRANCH   2   3
ATOM      3  C   UNL A   1      34.493  23.792  25.796  1.00  0.00     0.116 C 
BRANCH   3   4
ATOM      4  N   UNL A   1      33.526  24.740  26.299  1.00  0.00    -0.352 N 
ATOM      5  C   UNL A   1      32.191  24.910  26.017  1.00  0.00     0.251 C 
ATOM      6  O   UNL A   1      31.529  25.505  26.874  1.00  0.00    -0.270 OA
ATOM      7  H   UNL A   1      33.886  25.375  26.959  1.00  0.00     0.163 HD
BRANCH   5   8
ATOM      8  C   UNL A   1      31.499  24.483  24.708  1.00  0.00     0.067 C 
ATOM      9  C   UNL A   1      31.771  28.353  23.846  1.00  0.00     0.026 A 
ATOM     10  C   UNL A   1      30.714  29.051  23.227  1.00  0.00     0.033 A 
ATOM     11  C   UNL A   1      31.640  26.967  23.835  1.00  0.00     0.135 A 
ATOM     12  C   UNL A   1      29.479  28.423  23.026  1.00  0.00     0.042 A 
ATOM     13  C   UNL A   1      30.349  26.401  23.975  1.00  0.00     0.019 A 
ATOM     14  O   UNL A   1      32.746  26.130  23.566  1.00  0.00    -0.475 OA
ATOM     15  Cl  UNL A   1      28.174  29.317  22.351  1.00  0.00    -0.084 Cl
ATOM     16  C   UNL A   1      29.262  27.126  23.500  1.00  0.00     0.032 A 
ATOM     17  C   UNL A   1      30.255  25.026  24.586  1.00  0.00     0.025 C 
ATOM     18  C   UNL A   1      32.240  24.762  23.416  1.00  0.00     0.314 C 
BRANCH   9  19
ATOM     19  C   UNL A   1      32.255  29.009  25.102  1.00  0.00    -0.014 A 
ATOM     20  C   UNL A   1      33.214  30.607  27.249  1.00  0.00     0.121 A 
ATOM     21  C   UNL A   1      33.836  29.397  26.889  1.00  0.00     0.047 A 
ATOM     22  C   UNL A   1      32.092  31.039  26.540  1.00  0.00    -0.008 A 
ATOM     23  C   UNL A   1      33.367  28.602  25.828  1.00  0.00     0.013 A 
ATOM     24  C   UNL A   1      31.611  30.208  25.511  1.00  0.00     0.016 A 
ATOM     25  C   UNL A   1      31.404  32.358  26.751  1.00  0.00     0.048 C 
BRANCH  20  26
ATOM     26  O   UNL A   1      33.871  31.319  28.217  1.00  0.00    -0.496 OA
ATOM     27  C   UNL A   1      34.986  32.090  27.784  1.00  0.00     0.278 C 
ENDBRANCH  20  26
ENDBRANCH   9  19
BRANCH  18  28
ATOM     28  C   UNL A   1      33.079  23.592  22.866  1.00  0.00     0.429 C 
ATOM     29  F   UNL A   1      34.405  23.861  23.014  1.00  0.00    -0.167 F 
ATOM     30  F   UNL A   1      32.844  22.430  23.514  1.00  0.00    -0.167 F 
ATOM     31  F   UNL A   1      32.903  23.376  21.541  1.00  0.00    -0.167 F 
ENDBRANCH  18  28
ENDBRANCH   5   8
ENDBRANCH   3   4
ENDBRANCH   2   3
ENDBRANCH   1   2
BRANCH   1  32
ATOM     32  C   UNL A   1      36.591  21.686  24.847  1.00  0.00     0.002 C 
BRANCH  32  33
ATOM     33  C   UNL A   1      38.013  21.529  25.379  1.00  0.00     0.021 C 
BRANCH  33  34
ATOM     34  C   UNL A   1      38.598  22.752  26.073  1.00  0.00     0.116 C 
BRANCH  34  35
ATOM     35  N   UNL A   1      40.058  22.764  26.120  1.00  0.00    -0.352 N 
ATOM     36  C   UNL A   1      40.901  23.777  26.549  1.00  0.00     0.251 C 
ATOM     37  H   UNL A   1      40.501  21.944  25.804  1.00  0.00     0.163 HD
ATOM     38  O   UNL A   1      42.110  23.628  26.584  1.00  0.00    -0.269 OA
BRANCH  36  39
ATOM     39  C   UNL A   1      40.285  25.016  27.075  1.00  0.00     0.039 A 
ATOM     40  C   UNL A   1      40.430  26.193  26.335  1.00  0.00     0.014 A 
ATOM     41  C   UNL A   1      39.791  25.047  28.377  1.00  0.00     0.014 A 
ATOM     42  C   UNL A   1      40.320  27.418  26.988  1.00  0.00     0.010 A 
ATOM     43  C   UNL A   1      39.773  26.256  29.046  1.00  0.00     0.010 A 
ATOM     44  C   UNL A   1      40.115  27.432  28.368  1.00  0.00    -0.014 A 
BRANCH  44  45
ATOM     45  C   UNL A   1      40.403  28.600  29.196  1.00  0.00     0.031 A 
ATOM     46  C   UNL A   1      39.378  29.632  29.454  1.00  0.00     0.074 A 
ATOM     47  C   UNL A   1      41.608  28.692  29.804  1.00  0.00     0.049 A 
ATOM     48  N   UNL A   1      39.638  30.838  29.839  1.00  0.00    -0.248 NA
ATOM     49  C   UNL A   1      37.958  29.394  29.240  1.00  0.00     0.031 C 
ATOM     50  C   UNL A   1      41.987  29.591  30.890  1.00  0.00     0.029 A 
ATOM     51  N   UNL A   1      42.820  28.109  29.394  1.00  0.00    -0.354 N 
ATOM     52  C   UNL A   1      38.449  31.442  30.183  1.00  0.00     0.074 A 
ATOM     53  C   UNL A   1      37.432  30.528  29.716  1.00  0.00     0.031 C 
ATOM     54  C   UNL A   1      43.320  29.743  30.881  1.00  0.00     0.029 A 
ATOM     55  C   UNL A   1      43.818  29.066  29.698  1.00  0.00     0.049 A 
ATOM     56  H   UNL A   1      42.948  27.224  28.983  1.00  0.00     0.167 HD
ATOM     57  C   UNL A   1      38.478  32.578  30.942  1.00  0.00     0.037 A 
ATOM     58  C   UNL A   1      44.583  29.644  28.729  1.00  0.00     0.037 A 
ATOM     59  C   UNL A   1      39.850  33.049  31.138  1.00  0.00     0.049 A 
ATOM     60  C   UNL A   1      44.530  31.152  28.707  1.00  0.00     0.074 A 
ATOM     61  C   UNL A   1      40.745  32.931  32.190  1.00  0.00     0.029 A 
ATOM     62  N   UNL A   1      40.579  33.514  30.051  1.00  0.00    -0.354 N 
ATOM     63  N   UNL A   1      43.582  31.850  29.266  1.00  0.00    -0.248 NA
ATOM     64  C   UNL A   1      45.502  31.989  28.009  1.00  0.00     0.031 C 
ATOM     65  C   UNL A   1      42.028  33.303  31.720  1.00  0.00     0.029 A 
ATOM     66  C   UNL A   1      41.911  33.656  30.387  1.00  0.00     0.049 A 
ATOM     67  H   UNL A   1      40.200  33.715  29.165  1.00  0.00     0.167 HD
ATOM     68  C   UNL A   1      43.773  33.180  28.994  1.00  0.00     0.074 A 
ATOM     69  C   UNL A   1      45.003  33.219  28.227  1.00  0.00     0.031 C 
ATOM     70  C   UNL A   1      42.881  34.127  29.412  1.00  0.00     0.037 A 
BRANCH  57  71
ATOM     71  C   UNL A   1      37.307  33.106  31.758  1.00  0.00     0.064 A 
ATOM     72  C   UNL A   1      36.304  33.901  31.153  1.00  0.00     0.173 A 
ATOM     73  C   UNL A   1      37.146  32.937  33.145  1.00  0.00     0.173 A 
ATOM     74  F   UNL A   1      36.231  34.049  29.824  1.00  0.00    -0.203 F 
ATOM     75  C   UNL A   1      35.326  34.577  31.889  1.00  0.00     0.198 A 
ATOM     76  C   UNL A   1      36.199  33.651  33.889  1.00  0.00     0.198 A 
ATOM     77  F   UNL A   1      37.844  32.023  33.824  1.00  0.00    -0.203 F 
ATOM     78  F   UNL A   1      34.418  35.330  31.253  1.00  0.00    -0.200 F 
ATOM     79  C   UNL A   1      35.300  34.487  33.263  1.00  0.00     0.200 A 
ATOM     80  F   UNL A   1      36.166  33.516  35.223  1.00  0.00    -0.200 F 
ATOM     81  F   UNL A   1      34.394  35.169  33.975  1.00  0.00    -0.200 F 
ENDBRANCH  57  71
BRANCH  58  82
ATOM     82  C   UNL A   1      44.758  28.792  27.525  1.00  0.00     0.064 A 
ATOM     83  C   UNL A   1      45.676  27.725  27.581  1.00  0.00     0.173 A 
ATOM     84  C   UNL A   1      43.809  28.776  26.496  1.00  0.00     0.173 A 
ATOM     85  F   UNL A   1      46.603  27.691  28.553  1.00  0.00    -0.203 F 
ATOM     86  C   UNL A   1      45.572  26.634  26.723  1.00  0.00     0.198 A 
ATOM     87  C   UNL A   1      43.718  27.688  25.627  1.00  0.00     0.198 A 
ATOM     88  F   UNL A   1      42.895  29.753  26.400  1.00  0.00    -0.203 F 
ATOM     89  F   UNL A   1      46.386  25.580  26.879  1.00  0.00    -0.200 F 
ATOM     90  C   UNL A   1      44.575  26.605  25.762  1.00  0.00     0.200 A 
ATOM     91  F   UNL A   1      42.733  27.643  24.718  1.00  0.00    -0.200 F 
ATOM     92  F   UNL A   1      44.411  25.516  24.998  1.00  0.00    -0.200 F 
ENDBRANCH  58  82
BRANCH  70  93
ATOM     93  C   UNL A   1      42.865  35.584  29.019  1.00  0.00     0.064 A 
ATOM     94  C   UNL A   1      42.201  36.088  27.889  1.00  0.00     0.173 A 
ATOM     95  C   UNL A   1      43.416  36.560  29.887  1.00  0.00     0.173 A 
ATOM     96  F   UNL A   1      41.542  35.279  27.049  1.00  0.00    -0.203 F 
ATOM     97  C   UNL A   1      42.140  37.459  27.618  1.00  0.00     0.198 A 
ATOM     98  C   UNL A   1      43.304  37.928  29.643  1.00  0.00     0.198 A 
ATOM     99  F   UNL A   1      44.056  36.214  31.014  1.00  0.00    -0.203 F 
ATOM    100  F   UNL A   1      41.526  37.888  26.506  1.00  0.00    -0.200 F 
ATOM    101  C   UNL A   1      42.679  38.378  28.500  1.00  0.00     0.200 A 
ATOM    102  F   UNL A   1      43.787  38.806  30.534  1.00  0.00    -0.200 F 
ATOM    103  F   UNL A   1      42.574  39.692  28.259  1.00  0.00    -0.200 F 
ENDBRANCH  70  93
ENDBRANCH  44  45
ENDBRANCH  36  39
ENDBRANCH  34  35
ENDBRANCH  33  34
ENDBRANCH  32  33
ENDBRANCH   1  32
TORSDOF 16
ENDMDL
MODEL 3
REMARK VINA RESULT:     -13.2      2.119      3.370
REMARK SMILES COc1ccc(-c2cc(Cl)cc3c2O[C@@H](C(F)(F)F)C(C(=O)NCCCCCCNC(=O)c2ccc(-c4c5nc(c(-c6c(F)c(F)c(F)c(F)c6F)c6ccc([nH]6)c(-c6c(F)c(F)c(F)c(F)c6F)c6nc(c(-c7c(F)c(F)c(F)c(F)c7F)c7ccc4[nH]7)C=C6)C=C5)cc2)=C3)cc1C
REMARK SMILES IDX 26 1 25 2 24 3 23 4 21 5 22 6 20 8 7 9 8 10 13 11 9 12 12 13
REMARK SMILES IDX 14 14 10 15 11 16 96 17 15 18 6 19 3 20 4 21 98 22 5 23
REMARK SMILES IDX 97 24 99 25 2 26 1 27 16 28 17 29 18 30 19 31 27 32 28 33
REMARK SMILES IDX 29 34 30 35 31 36 32 38 33 39 34 40 95 41 35 42 94 43 36 44
REMARK SMILES IDX 37 45 38 46 88 47 39 48 93 49 87 50 89 51 40 52 92 53 86 54
REMARK SMILES IDX 85 55 41 57 73 58 53 59 72 60 54 61 57 62 71 63 90 64 55 65
REMARK SMILES IDX 56 66 70 68 91 69 58 70 42 71 43 72 51 73 44 74 45 75 49 76
REMARK SMILES IDX 52 77 46 78 47 79 50 80 48 81 74 82 75 83 83 84 76 85 77 86
REMARK SMILES IDX 81 87 84 88 78 89 79 90 82 91 80 92 59 93 60 94 68 95 61 96
REMARK SMILES IDX 62 97 66 98 69 99 63 100 64 101 67 102 65 103
REMARK H PARENT 23 7 30 37 89 56 57 67
REMARK Flexibility Score: inf
ROOT
ATOM      1  C   UNL A   1      34.010  28.014  26.309  1.00  0.00     0.002 C 
ENDROOT
BRANCH   1   2
ATOM      2  C   UNL A   1      33.372  28.555  25.032  1.00  0.00     0.021 C 
BRANCH   2   3
ATOM      3  C   UNL A   1      33.297  27.718  23.755  1.00  0.00     0.116 C 
BRANCH   3   4
ATOM      4  N   UNL A   1      34.020  26.471  23.661  1.00  0.00    -0.352 N 
ATOM      5  C   UNL A   1      33.639  25.234  23.199  1.00  0.00     0.251 C 
ATOM      6  O   UNL A   1      34.556  24.480  22.855  1.00  0.00    -0.270 OA
ATOM      7  H   UNL A   1      34.949  26.516  23.985  1.00  0.00     0.163 HD
BRANCH   5   8
ATOM      8  C   UNL A   1      32.189  24.712  23.151  1.00  0.00     0.067 C 
ATOM      9  C   UNL A   1      33.675  21.746  25.339  1.00  0.00     0.026 A 
ATOM     10  C   UNL A   1      33.307  20.403  25.115  1.00  0.00     0.033 A 
ATOM     11  C   UNL A   1      32.878  22.685  24.689  1.00  0.00     0.135 A 
ATOM     12  C   UNL A   1      32.509  20.067  24.015  1.00  0.00     0.042 A 
ATOM     13  C   UNL A   1      32.374  22.380  23.401  1.00  0.00     0.019 A 
ATOM     14  O   UNL A   1      32.469  23.871  25.338  1.00  0.00    -0.475 OA
ATOM     15  Cl  UNL A   1      32.144  18.415  23.709  1.00  0.00    -0.084 Cl
ATOM     16  C   UNL A   1      32.129  21.046  23.093  1.00  0.00     0.032 A 
ATOM     17  C   UNL A   1      32.092  23.534  22.473  1.00  0.00     0.025 C 
ATOM     18  C   UNL A   1      31.480  24.529  24.478  1.00  0.00     0.314 C 
BRANCH   9  19
ATOM     19  C   UNL A   1      35.157  21.958  25.346  1.00  0.00    -0.014 A 
ATOM     20  C   UNL A   1      37.987  22.013  25.607  1.00  0.00     0.121 A 
ATOM     21  C   UNL A   1      37.190  23.125  25.938  1.00  0.00     0.047 A 
ATOM     22  C   UNL A   1      37.380  20.850  25.133  1.00  0.00    -0.008 A 
ATOM     23  C   UNL A   1      35.789  23.103  25.811  1.00  0.00     0.013 A 
ATOM     24  C   UNL A   1      35.982  20.863  24.971  1.00  0.00     0.016 A 
ATOM     25  C   UNL A   1      38.103  19.563  24.850  1.00  0.00     0.048 C 
BRANCH  20  26
ATOM     26  O   UNL A   1      39.316  22.156  25.909  1.00  0.00    -0.496 OA
ATOM     27  C   UNL A   1      39.635  23.131  26.895  1.00  0.00     0.278 C 
ENDBRANCH  20  26
ENDBRANCH   9  19
BRANCH  18  28
ATOM     28  C   UNL A   1      30.600  25.710  24.928  1.00  0.00     0.429 C 
ATOM     29  F   UNL A   1      31.195  26.365  25.963  1.00  0.00    -0.167 F 
ATOM     30  F   UNL A   1      30.407  26.622  23.951  1.00  0.00    -0.167 F 
ATOM     31  F   UNL A   1      29.385  25.333  25.394  1.00  0.00    -0.167 F 
ENDBRANCH  18  28
ENDBRANCH   5   8
ENDBRANCH   3   4
ENDBRANCH   2   3
ENDBRANCH   1   2
BRANCH   1  32
ATOM     32  C   UNL A   1      34.703  28.985  27.266  1.00  0.00     0.002 C 
BRANCH  32  33
ATOM     33  C   UNL A   1      34.219  30.433  27.272  1.00  0.00     0.021 C 
BRANCH  33  34
ATOM     34  C   UNL A   1      34.934  31.365  28.242  1.00  0.00     0.116 C 
BRANCH  34  35
ATOM     35  N   UNL A   1      34.086  32.429  28.773  1.00  0.00    -0.352 N 
ATOM     36  C   UNL A   1      34.412  33.420  29.687  1.00  0.00     0.251 C 
ATOM     37  H   UNL A   1      33.160  32.445  28.437  1.00  0.00     0.163 HD
ATOM     38  O   UNL A   1      33.612  34.284  30.001  1.00  0.00    -0.269 OA
BRANCH  36  39
ATOM     39  C   UNL A   1      35.803  33.469  30.190  1.00  0.00     0.039 A 
ATOM     40  C   UNL A   1      36.792  33.990  29.352  1.00  0.00     0.014 A 
ATOM     41  C   UNL A   1      36.140  32.794  31.361  1.00  0.00     0.014 A 
ATOM     42  C   UNL A   1      38.118  33.615  29.559  1.00  0.00     0.010 A 
ATOM     43  C   UNL A   1      37.439  32.347  31.513  1.00  0.00     0.010 A 
ATOM     44  C   UNL A   1      38.410  32.695  30.566  1.00  0.00    -0.014 A 
BRANCH  44  45
ATOM     45  C   UNL A   1      39.652  31.927  30.595  1.00  0.00     0.031 A 
ATOM     46  C   UNL A   1      39.772  30.632  29.894  1.00  0.00     0.074 A 
ATOM     47  C   UNL A   1      40.736  32.456  31.207  1.00  0.00     0.049 A 
ATOM     48  N   UNL A   1      40.663  29.736  30.167  1.00  0.00    -0.248 NA
ATOM     49  C   UNL A   1      38.845  30.218  28.852  1.00  0.00     0.031 C 
ATOM     50  C   UNL A   1      42.123  32.014  31.094  1.00  0.00     0.029 A 
ATOM     51  N   UNL A   1      40.755  33.400  32.249  1.00  0.00    -0.354 N 
ATOM     52  C   UNL A   1      40.611  28.771  29.185  1.00  0.00     0.074 A 
ATOM     53  C   UNL A   1      39.411  29.079  28.441  1.00  0.00     0.031 C 
ATOM     54  C   UNL A   1      42.799  32.427  32.176  1.00  0.00     0.029 A 
ATOM     55  C   UNL A   1      41.832  33.015  33.084  1.00  0.00     0.049 A 
ATOM     56  H   UNL A   1      40.149  34.165  32.373  1.00  0.00     0.167 HD
ATOM     57  C   UNL A   1      41.664  27.911  29.044  1.00  0.00     0.037 A 
ATOM     58  C   UNL A   1      41.642  32.635  34.379  1.00  0.00     0.037 A 
ATOM     59  C   UNL A   1      42.644  28.095  30.115  1.00  0.00     0.049 A 
ATOM     60  C   UNL A   1      42.178  31.265  34.714  1.00  0.00     0.074 A 
ATOM     61  C   UNL A   1      43.856  28.766  30.180  1.00  0.00     0.029 A 
ATOM     62  N   UNL A   1      42.300  27.778  31.424  1.00  0.00    -0.354 N 
ATOM     63  N   UNL A   1      42.446  30.355  33.820  1.00  0.00    -0.248 NA
ATOM     64  C   UNL A   1      42.400  30.790  36.077  1.00  0.00     0.031 C 
ATOM     65  C   UNL A   1      44.227  28.877  31.542  1.00  0.00     0.029 A 
ATOM     66  C   UNL A   1      43.246  28.265  32.304  1.00  0.00     0.049 A 
ATOM     67  H   UNL A   1      41.494  27.277  31.687  1.00  0.00     0.167 HD
ATOM     68  C   UNL A   1      42.830  29.198  34.446  1.00  0.00     0.074 A 
ATOM     69  C   UNL A   1      42.811  29.528  35.858  1.00  0.00     0.031 C 
ATOM     70  C   UNL A   1      43.106  28.064  33.737  1.00  0.00     0.037 A 
BRANCH  57  71
ATOM     71  C   UNL A   1      41.967  27.109  27.787  1.00  0.00     0.064 A 
ATOM     72  C   UNL A   1      42.210  25.717  27.859  1.00  0.00     0.173 A 
ATOM     73  C   UNL A   1      42.109  27.650  26.497  1.00  0.00     0.173 A 
ATOM     74  F   UNL A   1      41.987  25.021  28.981  1.00  0.00    -0.203 F 
ATOM     75  C   UNL A   1      42.691  24.974  26.776  1.00  0.00     0.198 A 
ATOM     76  C   UNL A   1      42.636  26.920  25.424  1.00  0.00     0.198 A 
ATOM     77  F   UNL A   1      41.675  28.878  26.201  1.00  0.00    -0.203 F 
ATOM     78  F   UNL A   1      42.920  23.661  26.920  1.00  0.00    -0.200 F 
ATOM     79  C   UNL A   1      42.945  25.586  25.569  1.00  0.00     0.200 A 
ATOM     80  F   UNL A   1      42.837  27.528  24.245  1.00  0.00    -0.200 F 
ATOM     81  F   UNL A   1      43.449  24.888  24.543  1.00  0.00    -0.200 F 
ENDBRANCH  57  71
BRANCH  58  82
ATOM     82  C   UNL A   1      40.439  33.243  35.005  1.00  0.00     0.064 A 
ATOM     83  C   UNL A   1      39.264  32.472  35.095  1.00  0.00     0.173 A 
ATOM     84  C   UNL A   1      40.532  34.379  35.816  1.00  0.00     0.173 A 
ATOM     85  F   UNL A   1      39.128  31.368  34.341  1.00  0.00    -0.203 F 
ATOM     86  C   UNL A   1      38.281  32.756  36.039  1.00  0.00     0.198 A 
ATOM     87  C   UNL A   1      39.537  34.672  36.750  1.00  0.00     0.198 A 
ATOM     88  F   UNL A   1      41.633  35.144  35.791  1.00  0.00    -0.203 F 
ATOM     89  F   UNL A   1      37.232  31.935  36.180  1.00  0.00    -0.200 F 
ATOM     90  C   UNL A   1      38.432  33.843  36.884  1.00  0.00     0.200 A 
ATOM     91  F   UNL A   1      39.696  35.703  37.592  1.00  0.00    -0.200 F 
ATOM     92  F   UNL A   1      37.537  34.065  37.858  1.00  0.00    -0.200 F 
ENDBRANCH  58  82
BRANCH  70  93
ATOM     93  C   UNL A   1      43.346  26.685  34.302  1.00  0.00     0.064 A 
ATOM     94  C   UNL A   1      42.345  25.883  34.875  1.00  0.00     0.173 A 
ATOM     95  C   UNL A   1      44.607  26.059  34.139  1.00  0.00     0.173 A 
ATOM     96  F   UNL A   1      41.082  26.316  34.982  1.00  0.00    -0.203 F 
ATOM     97  C   UNL A   1      42.599  24.576  35.303  1.00  0.00     0.198 A 
ATOM     98  C   UNL A   1      44.842  24.737  34.515  1.00  0.00     0.198 A 
ATOM     99  F   UNL A   1      45.644  26.705  33.584  1.00  0.00    -0.203 F 
ATOM    100  F   UNL A   1      41.619  23.864  35.877  1.00  0.00    -0.200 F 
ATOM    101  C   UNL A   1      43.841  23.999  35.111  1.00  0.00     0.200 A 
ATOM    102  F   UNL A   1      46.036  24.177  34.275  1.00  0.00    -0.200 F 
ATOM    103  F   UNL A   1      44.064  22.730  35.478  1.00  0.00    -0.200 F 
ENDBRANCH  70  93
ENDBRANCH  44  45
ENDBRANCH  36  39
ENDBRANCH  34  35
ENDBRANCH  33  34
ENDBRANCH  32  33
ENDBRANCH   1  32
TORSDOF 16
ENDMDL
