MODEL 1
REMARK VINA RESULT:     -12.8      0.000      0.000
REMARK SMILES O=C(NCCCCCCNC(=O)c1sc(Nc2ccccn2)nc1-c1ccccc1)c1ccc(-c2c3nc(c(-c4c(F)c(F)c(F)c(F)c4F)c4ccc([nH]4)c(-c4c(F)c(F)c(F)c(F)c4F)c4nc(c(-c5c(F)c(F)c(F)c(F)c5F)c5ccc2[nH]5)C=C4)C=C3)cc1
REMARK SMILES IDX 6 1 5 2 4 3 3 4 1 5 2 6 31 8 32 9 93 10 33 11 92 12 34 13
REMARK SMILES IDX 35 14 36 15 86 16 37 17 91 18 85 19 87 20 38 21 90 22 84 23
REMARK SMILES IDX 83 24 39 26 71 27 51 28 70 29 52 30 55 31 69 32 88 33 53 34
REMARK SMILES IDX 54 35 68 37 89 38 56 39 40 40 41 41 49 42 42 43 43 44 47 45
REMARK SMILES IDX 50 46 44 47 45 48 48 49 46 50 72 51 73 52 81 53 74 54 75 55
REMARK SMILES IDX 79 56 82 57 76 58 77 59 80 60 78 61 57 62 58 63 66 64 59 65
REMARK SMILES IDX 60 66 64 67 67 68 61 69 62 70 65 71 63 72 7 73 8 74 9 75
REMARK SMILES IDX 10 76 11 77 12 79 13 80 14 81 24 82 15 83 23 84 25 85 26 86
REMARK SMILES IDX 30 87 27 88 29 89 28 90 16 91 17 93 18 94 22 95 19 96 21 97
REMARK SMILES IDX 20 98
REMARK H PARENT 3 7 87 25 55 36 10 78 16 92
REMARK Flexibility Score: inf
ROOT
ATOM      1  C   UNL A   1      31.448  30.806  26.024  1.00  0.00     0.002 C 
ENDROOT
BRANCH   1   2
ATOM      2  C   UNL A   1      31.323  32.251  26.505  1.00  0.00     0.021 C 
BRANCH   2   3
ATOM      3  C   UNL A   1      32.576  32.843  27.134  1.00  0.00     0.116 C 
BRANCH   3   4
ATOM      4  N   UNL A   1      32.385  34.195  27.630  1.00  0.00    -0.352 N 
ATOM      5  O   UNL A   1      32.706  35.967  28.993  1.00  0.00    -0.269 OA
ATOM      6  C   UNL A   1      33.071  34.857  28.621  1.00  0.00     0.251 C 
ATOM      7  H   UNL A   1      31.665  34.708  27.197  1.00  0.00     0.163 HD
BRANCH   6   8
ATOM      8  C   UNL A   1      34.241  34.214  29.261  1.00  0.00     0.039 A 
ATOM      9  C   UNL A   1      35.540  34.511  28.843  1.00  0.00     0.014 A 
ATOM     10  C   UNL A   1      34.033  33.304  30.303  1.00  0.00     0.014 A 
ATOM     11  C   UNL A   1      36.613  33.800  29.365  1.00  0.00     0.010 A 
ATOM     12  C   UNL A   1      35.123  32.654  30.890  1.00  0.00     0.010 A 
ATOM     13  C   UNL A   1      36.421  32.880  30.409  1.00  0.00    -0.014 A 
BRANCH  13  14
ATOM     14  C   UNL A   1      37.609  32.238  31.027  1.00  0.00     0.031 A 
ATOM     15  C   UNL A   1      38.063  32.592  32.414  1.00  0.00     0.074 A 
ATOM     16  C   UNL A   1      38.253  31.285  30.324  1.00  0.00     0.049 A 
ATOM     17  N   UNL A   1      39.050  32.083  33.111  1.00  0.00    -0.248 NA
ATOM     18  C   UNL A   1      37.325  33.655  33.112  1.00  0.00     0.031 C 
ATOM     19  C   UNL A   1      37.913  30.875  28.959  1.00  0.00     0.029 A 
ATOM     20  N   UNL A   1      39.304  30.472  30.662  1.00  0.00    -0.354 N 
ATOM     21  C   UNL A   1      39.057  32.767  34.320  1.00  0.00     0.074 A 
ATOM     22  C   UNL A   1      37.994  33.747  34.254  1.00  0.00     0.031 C 
ATOM     23  C   UNL A   1      38.703  29.856  28.595  1.00  0.00     0.029 A 
ATOM     24  C   UNL A   1      39.642  29.579  29.675  1.00  0.00     0.049 A 
ATOM     25  H   UNL A   1      39.770  30.523  31.527  1.00  0.00     0.167 HD
ATOM     26  C   UNL A   1      39.872  32.582  35.387  1.00  0.00     0.037 A 
ATOM     27  C   UNL A   1      40.611  28.646  29.636  1.00  0.00     0.037 A 
ATOM     28  C   UNL A   1      40.923  31.599  35.449  1.00  0.00     0.049 A 
ATOM     29  C   UNL A   1      41.503  28.475  30.831  1.00  0.00     0.074 A 
ATOM     30  C   UNL A   1      41.787  31.322  36.495  1.00  0.00     0.029 A 
ATOM     31  N   UNL A   1      41.254  30.728  34.420  1.00  0.00    -0.354 N 
ATOM     32  N   UNL A   1      41.476  29.108  31.980  1.00  0.00    -0.248 NA
ATOM     33  C   UNL A   1      42.560  27.462  30.726  1.00  0.00     0.031 C 
ATOM     34  C   UNL A   1      42.666  30.313  36.085  1.00  0.00     0.029 A 
ATOM     35  C   UNL A   1      42.320  29.928  34.801  1.00  0.00     0.049 A 
ATOM     36  H   UNL A   1      40.799  30.686  33.548  1.00  0.00     0.167 HD
ATOM     37  C   UNL A   1      42.506  28.567  32.734  1.00  0.00     0.074 A 
ATOM     38  C   UNL A   1      43.115  27.531  31.927  1.00  0.00     0.031 C 
ATOM     39  C   UNL A   1      42.918  28.906  33.980  1.00  0.00     0.037 A 
BRANCH  26  40
ATOM     40  C   UNL A   1      39.670  33.465  36.585  1.00  0.00     0.064 A 
ATOM     41  C   UNL A   1      40.295  34.716  36.689  1.00  0.00     0.173 A 
ATOM     42  C   UNL A   1      38.781  33.090  37.604  1.00  0.00     0.173 A 
ATOM     43  F   UNL A   1      41.162  35.117  35.747  1.00  0.00    -0.203 F 
ATOM     44  C   UNL A   1      40.045  35.554  37.773  1.00  0.00     0.198 A 
ATOM     45  C   UNL A   1      38.516  33.939  38.675  1.00  0.00     0.198 A 
ATOM     46  F   UNL A   1      38.152  31.906  37.550  1.00  0.00    -0.203 F 
ATOM     47  F   UNL A   1      40.675  36.734  37.865  1.00  0.00    -0.200 F 
ATOM     48  C   UNL A   1      39.150  35.170  38.760  1.00  0.00     0.200 A 
ATOM     49  F   UNL A   1      37.640  33.572  39.621  1.00  0.00    -0.200 F 
ATOM     50  F   UNL A   1      38.899  35.985  39.794  1.00  0.00    -0.200 F 
ENDBRANCH  26  40
BRANCH  27  51
ATOM     51  C   UNL A   1      40.789  27.813  28.420  1.00  0.00     0.064 A 
ATOM     52  C   UNL A   1      41.642  28.216  27.383  1.00  0.00     0.173 A 
ATOM     53  C   UNL A   1      40.108  26.595  28.269  1.00  0.00     0.173 A 
ATOM     54  F   UNL A   1      42.300  29.382  27.473  1.00  0.00    -0.203 F 
ATOM     55  C   UNL A   1      41.791  27.444  26.234  1.00  0.00     0.198 A 
ATOM     56  C   UNL A   1      40.284  25.808  27.135  1.00  0.00     0.198 A 
ATOM     57  F   UNL A   1      39.286  26.161  29.236  1.00  0.00    -0.203 F 
ATOM     58  F   UNL A   1      42.576  27.875  25.238  1.00  0.00    -0.200 F 
ATOM     59  C   UNL A   1      41.118  26.236  26.114  1.00  0.00     0.200 A 
ATOM     60  F   UNL A   1      39.646  24.634  27.032  1.00  0.00    -0.200 F 
ATOM     61  F   UNL A   1      41.266  25.491  25.011  1.00  0.00    -0.200 F 
ENDBRANCH  27  51
BRANCH  39  62
ATOM     62  C   UNL A   1      44.076  28.135  34.541  1.00  0.00     0.064 A 
ATOM     63  C   UNL A   1      45.395  28.586  34.392  1.00  0.00     0.173 A 
ATOM     64  C   UNL A   1      43.864  26.934  35.235  1.00  0.00     0.173 A 
ATOM     65  F   UNL A   1      45.650  29.719  33.718  1.00  0.00    -0.203 F 
ATOM     66  C   UNL A   1      46.465  27.846  34.888  1.00  0.00     0.198 A 
ATOM     67  C   UNL A   1      44.933  26.212  35.755  1.00  0.00     0.198 A 
ATOM     68  F   UNL A   1      42.620  26.463  35.407  1.00  0.00    -0.203 F 
ATOM     69  F   UNL A   1      47.721  28.266  34.683  1.00  0.00    -0.200 F 
ATOM     70  C   UNL A   1      46.232  26.662  35.573  1.00  0.00     0.200 A 
ATOM     71  F   UNL A   1      44.708  25.073  36.425  1.00  0.00    -0.200 F 
ATOM     72  F   UNL A   1      47.263  25.949  36.047  1.00  0.00    -0.200 F 
ENDBRANCH  39  62
ENDBRANCH  13  14
ENDBRANCH   6   8
ENDBRANCH   3   4
ENDBRANCH   2   3
ENDBRANCH   1   2
BRANCH   1  73
ATOM     73  C   UNL A   1      32.401  29.910  26.819  1.00  0.00     0.002 C 
BRANCH  73  74
ATOM     74  C   UNL A   1      33.466  29.161  26.010  1.00  0.00     0.021 C 
BRANCH  74  75
ATOM     75  C   UNL A   1      33.345  27.643  26.013  1.00  0.00     0.116 C 
BRANCH  75  76
ATOM     76  N   UNL A   1      33.801  27.037  24.780  1.00  0.00    -0.351 N 
ATOM     77  C   UNL A   1      33.066  26.691  23.670  1.00  0.00     0.263 C 
ATOM     78  H   UNL A   1      34.765  26.847  24.728  1.00  0.00     0.163 HD
ATOM     79  O   UNL A   1      33.669  26.180  22.726  1.00  0.00    -0.268 OA
BRANCH  77  80
ATOM     80  C   UNL A   1      31.642  26.910  23.674  1.00  0.00     0.122 A 
ATOM     81  S   UNL A   1      31.051  28.388  23.063  1.00  0.00    -0.091 S 
ATOM     82  C   UNL A   1      30.585  26.130  24.102  1.00  0.00     0.096 A 
ATOM     83  C   UNL A   1      29.422  27.860  23.309  1.00  0.00     0.189 A 
ATOM     84  N   UNL A   1      29.329  26.674  23.876  1.00  0.00    -0.219 NA
BRANCH  82  85
ATOM     85  C   UNL A   1      30.736  24.798  24.673  1.00  0.00     0.002 A 
ATOM     86  C   UNL A   1      30.660  24.586  26.056  1.00  0.00     0.010 A 
ATOM     87  C   UNL A   1      31.058  23.724  23.832  1.00  0.00     0.010 A 
ATOM     88  C   UNL A   1      30.959  23.333  26.593  1.00  0.00     0.001 A 
ATOM     89  C   UNL A   1      31.365  22.474  24.373  1.00  0.00     0.001 A 
ATOM     90  C   UNL A   1      31.325  22.282  25.753  1.00  0.00     0.000 A 
ENDBRANCH  82  85
BRANCH  83  91
ATOM     91  N   UNL A   1      28.333  28.620  23.047  1.00  0.00    -0.316 N 
ATOM     92  H   UNL A   1      27.466  28.185  23.211  1.00  0.00     0.170 HD
BRANCH  91  93
ATOM     93  C   UNL A   1      28.265  29.932  22.580  1.00  0.00     0.132 A 
ATOM     94  C   UNL A   1      28.118  31.029  23.429  1.00  0.00     0.047 A 
ATOM     95  N   UNL A   1      28.357  30.091  21.243  1.00  0.00    -0.239 NA
ATOM     96  C   UNL A   1      27.999  32.310  22.894  1.00  0.00     0.005 A 
ATOM     97  C   UNL A   1      28.214  31.339  20.742  1.00  0.00     0.113 A 
ATOM     98  C   UNL A   1      28.028  32.469  21.518  1.00  0.00     0.020 A 
ENDBRANCH  91  93
ENDBRANCH  83  91
ENDBRANCH  77  80
ENDBRANCH  75  76
ENDBRANCH  74  75
ENDBRANCH  73  74
ENDBRANCH   1  73
TORSDOF 16
ENDMDL
MODEL 2
REMARK VINA RESULT:     -12.5      5.605     11.230
REMARK SMILES O=C(NCCCCCCNC(=O)c1sc(Nc2ccccn2)nc1-c1ccccc1)c1ccc(-c2c3nc(c(-c4c(F)c(F)c(F)c(F)c4F)c4ccc([nH]4)c(-c4c(F)c(F)c(F)c(F)c4F)c4nc(c(-c5c(F)c(F)c(F)c(F)c5F)c5ccc2[nH]5)C=C4)C=C3)cc1
REMARK SMILES IDX 6 1 5 2 4 3 3 4 1 5 2 6 31 8 32 9 93 10 33 11 92 12 34 13
REMARK SMILES IDX 35 14 36 15 86 16 37 17 91 18 85 19 87 20 38 21 90 22 84 23
REMARK SMILES IDX 83 24 39 26 71 27 51 28 70 29 52 30 55 31 69 32 88 33 53 34
REMARK SMILES IDX 54 35 68 37 89 38 56 39 40 40 41 41 49 42 42 43 43 44 47 45
REMARK SMILES IDX 50 46 44 47 45 48 48 49 46 50 72 51 73 52 81 53 74 54 75 55
REMARK SMILES IDX 79 56 82 57 76 58 77 59 80 60 78 61 57 62 58 63 66 64 59 65
REMARK SMILES IDX 60 66 64 67 67 68 61 69 62 70 65 71 63 72 7 73 8 74 9 75
REMARK SMILES IDX 10 76 11 77 12 79 13 80 14 81 24 82 15 83 23 84 25 85 26 86
REMARK SMILES IDX 30 87 27 88 29 89 28 90 16 91 17 93 18 94 22 95 19 96 21 97
REMARK SMILES IDX 20 98
REMARK H PARENT 3 7 87 25 55 36 10 78 16 92
REMARK Flexibility Score: inf
ROOT
ATOM      1  C   UNL A   1      36.635  20.432  25.003  1.00  0.00     0.002 C 
ENDROOT
BRANCH   1   2
ATOM      2  C   UNL A   1      37.947  19.658  24.882  1.00  0.00     0.021 C 
BRANCH   2   3
ATOM      3  C   UNL A   1      39.066  20.117  25.806  1.00  0.00     0.116 C 
BRANCH   3   4
ATOM      4  N   UNL A   1      40.187  19.194  25.853  1.00  0.00    -0.352 N 
ATOM      5  O   UNL A   1      42.351  18.568  25.994  1.00  0.00    -0.269 OA
ATOM      6  C   UNL A   1      41.513  19.456  26.100  1.00  0.00     0.251 C 
ATOM      7  H   UNL A   1      39.965  18.249  25.686  1.00  0.00     0.163 HD
BRANCH   6   8
ATOM      8  C   UNL A   1      41.935  20.826  26.470  1.00  0.00     0.039 A 
ATOM      9  C   UNL A   1      42.092  21.815  25.497  1.00  0.00     0.014 A 
ATOM     10  C   UNL A   1      42.171  21.126  27.816  1.00  0.00     0.014 A 
ATOM     11  C   UNL A   1      42.616  23.054  25.849  1.00  0.00     0.010 A 
ATOM     12  C   UNL A   1      42.613  22.403  28.180  1.00  0.00     0.010 A 
ATOM     13  C   UNL A   1      42.861  23.369  27.195  1.00  0.00    -0.014 A 
BRANCH  13  14
ATOM     14  C   UNL A   1      43.296  24.746  27.541  1.00  0.00     0.031 A 
ATOM     15  C   UNL A   1      44.697  25.220  27.277  1.00  0.00     0.074 A 
ATOM     16  C   UNL A   1      42.382  25.589  28.062  1.00  0.00     0.049 A 
ATOM     17  N   UNL A   1      45.214  26.409  27.475  1.00  0.00    -0.248 NA
ATOM     18  C   UNL A   1      45.645  24.239  26.727  1.00  0.00     0.031 C 
ATOM     19  C   UNL A   1      40.997  25.231  28.381  1.00  0.00     0.029 A 
ATOM     20  N   UNL A   1      42.464  26.917  28.390  1.00  0.00    -0.354 N 
ATOM     21  C   UNL A   1      46.544  26.316  27.085  1.00  0.00     0.074 A 
ATOM     22  C   UNL A   1      46.765  24.949  26.663  1.00  0.00     0.031 C 
ATOM     23  C   UNL A   1      40.347  26.321  28.808  1.00  0.00     0.029 A 
ATOM     24  C   UNL A   1      41.280  27.440  28.850  1.00  0.00     0.049 A 
ATOM     25  H   UNL A   1      43.290  27.445  28.304  1.00  0.00     0.167 HD
ATOM     26  C   UNL A   1      47.487  27.290  27.072  1.00  0.00     0.037 A 
ATOM     27  C   UNL A   1      40.981  28.682  29.272  1.00  0.00     0.037 A 
ATOM     28  C   UNL A   1      47.258  28.651  27.485  1.00  0.00     0.049 A 
ATOM     29  C   UNL A   1      42.052  29.734  29.255  1.00  0.00     0.074 A 
ATOM     30  C   UNL A   1      48.145  29.714  27.488  1.00  0.00     0.029 A 
ATOM     31  N   UNL A   1      46.053  29.139  27.970  1.00  0.00    -0.354 N 
ATOM     32  N   UNL A   1      43.296  29.640  28.852  1.00  0.00    -0.248 NA
ATOM     33  C   UNL A   1      41.678  31.064  29.752  1.00  0.00     0.031 C 
ATOM     34  C   UNL A   1      47.490  30.834  28.011  1.00  0.00     0.029 A 
ATOM     35  C   UNL A   1      46.180  30.482  28.292  1.00  0.00     0.049 A 
ATOM     36  H   UNL A   1      45.230  28.609  28.072  1.00  0.00     0.167 HD
ATOM     37  C   UNL A   1      43.852  30.895  29.041  1.00  0.00     0.074 A 
ATOM     38  C   UNL A   1      42.799  31.744  29.560  1.00  0.00     0.031 C 
ATOM     39  C   UNL A   1      45.122  31.308  28.815  1.00  0.00     0.037 A 
BRANCH  26  40
ATOM     40  C   UNL A   1      48.865  26.925  26.599  1.00  0.00     0.064 A 
ATOM     41  C   UNL A   1      49.825  26.398  27.474  1.00  0.00     0.173 A 
ATOM     42  C   UNL A   1      49.204  27.032  25.242  1.00  0.00     0.173 A 
ATOM     43  F   UNL A   1      49.555  26.285  28.784  1.00  0.00    -0.203 F 
ATOM     44  C   UNL A   1      51.077  26.000  27.010  1.00  0.00     0.198 A 
ATOM     45  C   UNL A   1      50.447  26.612  24.776  1.00  0.00     0.198 A 
ATOM     46  F   UNL A   1      48.319  27.524  24.361  1.00  0.00    -0.203 F 
ATOM     47  F   UNL A   1      51.989  25.524  27.869  1.00  0.00    -0.200 F 
ATOM     48  C   UNL A   1      51.383  26.099  25.661  1.00  0.00     0.200 A 
ATOM     49  F   UNL A   1      50.737  26.696  23.470  1.00  0.00    -0.200 F 
ATOM     50  F   UNL A   1      52.582  25.700  25.214  1.00  0.00    -0.200 F 
ENDBRANCH  26  40
BRANCH  27  51
ATOM     51  C   UNL A   1      39.610  28.990  29.755  1.00  0.00     0.064 A 
ATOM     52  C   UNL A   1      39.248  28.782  31.092  1.00  0.00     0.173 A 
ATOM     53  C   UNL A   1      38.633  29.499  28.885  1.00  0.00     0.173 A 
ATOM     54  F   UNL A   1      40.143  28.280  31.958  1.00  0.00    -0.203 F 
ATOM     55  C   UNL A   1      37.956  29.051  31.537  1.00  0.00     0.198 A 
ATOM     56  C   UNL A   1      37.352  29.798  29.338  1.00  0.00     0.198 A 
ATOM     57  F   UNL A   1      38.932  29.721  27.596  1.00  0.00    -0.203 F 
ATOM     58  F   UNL A   1      37.623  28.800  32.810  1.00  0.00    -0.200 F 
ATOM     59  C   UNL A   1      37.011  29.566  30.662  1.00  0.00     0.200 A 
ATOM     60  F   UNL A   1      36.448  30.313  28.493  1.00  0.00    -0.200 F 
ATOM     61  F   UNL A   1      35.770  29.831  31.092  1.00  0.00    -0.200 F 
ENDBRANCH  27  51
BRANCH  39  62
ATOM     62  C   UNL A   1      45.431  32.743  29.121  1.00  0.00     0.064 A 
ATOM     63  C   UNL A   1      45.956  33.129  30.363  1.00  0.00     0.173 A 
ATOM     64  C   UNL A   1      45.201  33.742  28.164  1.00  0.00     0.173 A 
ATOM     65  F   UNL A   1      46.175  32.212  31.318  1.00  0.00    -0.203 F 
ATOM     66  C   UNL A   1      46.209  34.468  30.648  1.00  0.00     0.198 A 
ATOM     67  C   UNL A   1      45.482  35.076  28.441  1.00  0.00     0.198 A 
ATOM     68  F   UNL A   1      44.704  33.423  26.959  1.00  0.00    -0.203 F 
ATOM     69  F   UNL A   1      46.654  34.821  31.861  1.00  0.00    -0.200 F 
ATOM     70  C   UNL A   1      45.975  35.440  29.685  1.00  0.00     0.200 A 
ATOM     71  F   UNL A   1      45.266  36.014  27.508  1.00  0.00    -0.200 F 
ATOM     72  F   UNL A   1      46.215  36.729  29.963  1.00  0.00    -0.200 F 
ENDBRANCH  39  62
ENDBRANCH  13  14
ENDBRANCH   6   8
ENDBRANCH   3   4
ENDBRANCH   2   3
ENDBRANCH   1   2
BRANCH   1  73
ATOM     73  C   UNL A   1      36.681  21.907  24.593  1.00  0.00     0.002 C 
BRANCH  73  74
ATOM     74  C   UNL A   1      36.304  22.926  25.674  1.00  0.00     0.021 C 
BRANCH  74  75
ATOM     75  C   UNL A   1      35.420  24.077  25.211  1.00  0.00     0.116 C 
BRANCH  75  76
ATOM     76  N   UNL A   1      34.281  24.299  26.077  1.00  0.00    -0.351 N 
ATOM     77  C   UNL A   1      33.063  23.660  26.074  1.00  0.00     0.263 C 
ATOM     78  H   UNL A   1      34.392  25.000  26.757  1.00  0.00     0.163 HD
ATOM     79  O   UNL A   1      32.233  24.018  26.910  1.00  0.00    -0.268 OA
BRANCH  77  80
ATOM     80  C   UNL A   1      32.808  22.639  25.091  1.00  0.00     0.122 A 
ATOM     81  S   UNL A   1      33.018  21.009  25.546  1.00  0.00    -0.091 S 
ATOM     82  C   UNL A   1      32.409  22.702  23.770  1.00  0.00     0.096 A 
ATOM     83  C   UNL A   1      32.469  20.484  23.992  1.00  0.00     0.189 A 
ATOM     84  N   UNL A   1      32.205  21.472  23.161  1.00  0.00    -0.219 NA
BRANCH  82  85
ATOM     85  C   UNL A   1      32.131  23.945  23.063  1.00  0.00     0.002 A 
ATOM     86  C   UNL A   1      33.061  24.500  22.174  1.00  0.00     0.010 A 
ATOM     87  C   UNL A   1      30.954  24.649  23.350  1.00  0.00     0.010 A 
ATOM     88  C   UNL A   1      32.842  25.765  21.625  1.00  0.00     0.001 A 
ATOM     89  C   UNL A   1      30.742  25.919  22.808  1.00  0.00     0.001 A 
ATOM     90  C   UNL A   1      31.691  26.480  21.954  1.00  0.00     0.000 A 
ENDBRANCH  82  85
BRANCH  83  91
ATOM     91  N   UNL A   1      32.407  19.187  23.612  1.00  0.00    -0.316 N 
ATOM     92  H   UNL A   1      31.909  19.015  22.780  1.00  0.00     0.170 HD
BRANCH  91  93
ATOM     93  C   UNL A   1      32.948  18.059  24.228  1.00  0.00     0.132 A 
ATOM     94  C   UNL A   1      34.261  17.640  24.016  1.00  0.00     0.047 A 
ATOM     95  N   UNL A   1      32.125  17.387  25.060  1.00  0.00    -0.239 NA
ATOM     96  C   UNL A   1      34.721  16.471  24.619  1.00  0.00     0.005 A 
ATOM     97  C   UNL A   1      32.583  16.241  25.616  1.00  0.00     0.113 A 
ATOM     98  C   UNL A   1      33.859  15.744  25.422  1.00  0.00     0.020 A 
ENDBRANCH  91  93
ENDBRANCH  83  91
ENDBRANCH  77  80
ENDBRANCH  75  76
ENDBRANCH  74  75
ENDBRANCH  73  74
ENDBRANCH   1  73
TORSDOF 16
ENDMDL
MODEL 3
REMARK VINA RESULT:     -12.5      5.636     11.280
REMARK SMILES O=C(NCCCCCCNC(=O)c1sc(Nc2ccccn2)nc1-c1ccccc1)c1ccc(-c2c3nc(c(-c4c(F)c(F)c(F)c(F)c4F)c4ccc([nH]4)c(-c4c(F)c(F)c(F)c(F)c4F)c4nc(c(-c5c(F)c(F)c(F)c(F)c5F)c5ccc2[nH]5)C=C4)C=C3)cc1
REMARK SMILES IDX 6 1 5 2 4 3 3 4 1 5 2 6 31 8 32 9 93 10 33 11 92 12 34 13
REMARK SMILES IDX 35 14 36 15 86 16 37 17 91 18 85 19 87 20 38 21 90 22 84 23
REMARK SMILES IDX 83 24 39 26 71 27 51 28 70 29 52 30 55 31 69 32 88 33 53 34
REMARK SMILES IDX 54 35 68 37 89 38 56 39 40 40 41 41 49 42 42 43 43 44 47 45
REMARK SMILES IDX 50 46 44 47 45 48 48 49 46 50 72 51 73 52 81 53 74 54 75 55
REMARK SMILES IDX 79 56 82 57 76 58 77 59 80 60 78 61 57 62 58 63 66 64 59 65
REMARK SMILES IDX 60 66 64 67 67 68 61 69 62 70 65 71 63 72 7 73 8 74 9 75
REMARK SMILES IDX 10 76 11 77 12 79 13 80 14 81 24 82 15 83 23 84 25 85 26 86
REMARK SMILES IDX 30 87 27 88 29 89 28 90 16 91 17 93 18 94 22 95 19 96 21 97
REMARK SMILES IDX 20 98
REMARK H PARENT 3 7 87 25 55 36 10 78 16 92
REMARK Flexibility Score: inf
ROOT
ATOM      1  C   UNL A   1      37.521  21.241  24.820  1.00  0.00     0.002 C 
ENDROOT
BRANCH   1   2
ATOM      2  C   UNL A   1      38.298  19.935  24.981  1.00  0.00     0.021 C 
BRANCH   2   3
ATOM      3  C   UNL A   1      39.217  19.865  26.193  1.00  0.00     0.116 C 
BRANCH   3   4
ATOM      4  N   UNL A   1      40.378  19.018  25.985  1.00  0.00    -0.352 N 
ATOM      5  O   UNL A   1      42.563  18.531  25.692  1.00  0.00    -0.269 OA
ATOM      6  C   UNL A   1      41.710  19.357  25.997  1.00  0.00     0.251 C 
ATOM      7  H   UNL A   1      40.184  18.067  25.812  1.00  0.00     0.163 HD
BRANCH   6   8
ATOM      8  C   UNL A   1      42.114  20.736  26.353  1.00  0.00     0.039 A 
ATOM      9  C   UNL A   1      42.219  21.727  25.376  1.00  0.00     0.014 A 
ATOM     10  C   UNL A   1      42.386  21.041  27.691  1.00  0.00     0.014 A 
ATOM     11  C   UNL A   1      42.727  22.977  25.711  1.00  0.00     0.010 A 
ATOM     12  C   UNL A   1      42.812  22.328  28.041  1.00  0.00     0.010 A 
ATOM     13  C   UNL A   1      43.008  23.298  27.049  1.00  0.00    -0.014 A 
BRANCH  13  14
ATOM     14  C   UNL A   1      43.424  24.685  27.380  1.00  0.00     0.031 A 
ATOM     15  C   UNL A   1      44.812  25.181  27.094  1.00  0.00     0.074 A 
ATOM     16  C   UNL A   1      42.503  25.515  27.909  1.00  0.00     0.049 A 
ATOM     17  N   UNL A   1      45.313  26.379  27.278  1.00  0.00    -0.248 NA
ATOM     18  C   UNL A   1      45.769  24.213  26.537  1.00  0.00     0.031 C 
ATOM     19  C   UNL A   1      41.129  25.135  28.250  1.00  0.00     0.029 A 
ATOM     20  N   UNL A   1      42.567  26.846  28.229  1.00  0.00    -0.354 N 
ATOM     21  C   UNL A   1      46.639  26.307  26.870  1.00  0.00     0.074 A 
ATOM     22  C   UNL A   1      46.876  24.941  26.453  1.00  0.00     0.031 C 
ATOM     23  C   UNL A   1      40.467  26.217  28.680  1.00  0.00     0.029 A 
ATOM     24  C   UNL A   1      41.381  27.352  28.703  1.00  0.00     0.049 A 
ATOM     25  H   UNL A   1      43.383  27.387  28.128  1.00  0.00     0.167 HD
ATOM     26  C   UNL A   1      47.564  27.296  26.838  1.00  0.00     0.037 A 
ATOM     27  C   UNL A   1      41.067  28.590  29.122  1.00  0.00     0.037 A 
ATOM     28  C   UNL A   1      47.318  28.656  27.246  1.00  0.00     0.049 A 
ATOM     29  C   UNL A   1      42.119  29.660  29.084  1.00  0.00     0.074 A 
ATOM     30  C   UNL A   1      48.186  29.734  27.231  1.00  0.00     0.029 A 
ATOM     31  N   UNL A   1      46.112  29.126  27.746  1.00  0.00    -0.354 N 
ATOM     32  N   UNL A   1      43.359  29.585  28.664  1.00  0.00    -0.248 NA
ATOM     33  C   UNL A   1      41.730  30.987  29.578  1.00  0.00     0.031 C 
ATOM     34  C   UNL A   1      47.520  30.845  27.757  1.00  0.00     0.029 A 
ATOM     35  C   UNL A   1      46.220  30.473  28.058  1.00  0.00     0.049 A 
ATOM     36  H   UNL A   1      45.299  28.583  27.863  1.00  0.00     0.167 HD
ATOM     37  C   UNL A   1      43.896  30.851  28.838  1.00  0.00     0.074 A 
ATOM     38  C   UNL A   1      42.836  31.685  29.367  1.00  0.00     0.031 C 
ATOM     39  C   UNL A   1      45.156  31.284  28.591  1.00  0.00     0.037 A 
BRANCH  26  40
ATOM     40  C   UNL A   1      48.942  26.953  26.348  1.00  0.00     0.064 A 
ATOM     41  C   UNL A   1      49.918  26.433  27.209  1.00  0.00     0.173 A 
ATOM     42  C   UNL A   1      49.263  27.071  24.987  1.00  0.00     0.173 A 
ATOM     43  F   UNL A   1      49.665  26.310  28.522  1.00  0.00    -0.203 F 
ATOM     44  C   UNL A   1      51.170  26.054  26.729  1.00  0.00     0.198 A 
ATOM     45  C   UNL A   1      50.507  26.670  24.506  1.00  0.00     0.198 A 
ATOM     46  F   UNL A   1      48.363  27.556  24.119  1.00  0.00    -0.203 F 
ATOM     47  F   UNL A   1      52.097  25.586  27.576  1.00  0.00    -0.200 F 
ATOM     48  C   UNL A   1      51.459  26.164  25.377  1.00  0.00     0.200 A 
ATOM     49  F   UNL A   1      50.781  26.764  23.197  1.00  0.00    -0.200 F 
ATOM     50  F   UNL A   1      52.659  25.784  24.914  1.00  0.00    -0.200 F 
ENDBRANCH  26  40
BRANCH  27  51
ATOM     51  C   UNL A   1      39.698  28.878  29.622  1.00  0.00     0.064 A 
ATOM     52  C   UNL A   1      38.705  29.379  28.770  1.00  0.00     0.173 A 
ATOM     53  C   UNL A   1      39.356  28.656  30.966  1.00  0.00     0.173 A 
ATOM     54  F   UNL A   1      38.989  29.624  27.482  1.00  0.00    -0.203 F 
ATOM     55  C   UNL A   1      37.428  29.668  29.246  1.00  0.00     0.198 A 
ATOM     56  C   UNL A   1      38.070  28.915  31.432  1.00  0.00     0.198 A 
ATOM     57  F   UNL A   1      40.268  28.171  31.820  1.00  0.00    -0.203 F 
ATOM     58  F   UNL A   1      36.512  30.191  28.421  1.00  0.00    -0.200 F 
ATOM     59  C   UNL A   1      37.109  29.429  30.575  1.00  0.00     0.200 A 
ATOM     60  F   UNL A   1      37.762  28.664  32.712  1.00  0.00    -0.200 F 
ATOM     61  F   UNL A   1      35.879  29.701  31.031  1.00  0.00    -0.200 F 
ENDBRANCH  27  51
BRANCH  39  62
ATOM     62  C   UNL A   1      45.444  32.726  28.885  1.00  0.00     0.064 A 
ATOM     63  C   UNL A   1      45.220  33.726  27.927  1.00  0.00     0.173 A 
ATOM     64  C   UNL A   1      45.946  33.113  30.137  1.00  0.00     0.173 A 
ATOM     65  F   UNL A   1      44.759  33.403  26.709  1.00  0.00    -0.203 F 
ATOM     66  C   UNL A   1      45.521  35.057  28.200  1.00  0.00     0.198 A 
ATOM     67  C   UNL A   1      46.219  34.448  30.415  1.00  0.00     0.198 A 
ATOM     68  F   UNL A   1      46.173  32.194  31.087  1.00  0.00    -0.203 F 
ATOM     69  F   UNL A   1      45.355  35.988  27.250  1.00  0.00    -0.200 F 
ATOM     70  C   UNL A   1      46.016  35.417  29.445  1.00  0.00     0.200 A 
ATOM     71  F   UNL A   1      46.688  34.797  31.622  1.00  0.00    -0.200 F 
ATOM     72  F   UNL A   1      46.309  36.699  29.704  1.00  0.00    -0.200 F 
ENDBRANCH  39  62
ENDBRANCH  13  14
ENDBRANCH   6   8
ENDBRANCH   3   4
ENDBRANCH   2   3
ENDBRANCH   1   2
BRANCH   1  73
ATOM     73  C   UNL A   1      37.926  22.387  25.751  1.00  0.00     0.002 C 
BRANCH  73  74
ATOM     74  C   UNL A   1      37.276  23.748  25.477  1.00  0.00     0.021 C 
BRANCH  74  75
ATOM     75  C   UNL A   1      35.898  23.698  24.830  1.00  0.00     0.116 C 
BRANCH  75  76
ATOM     76  N   UNL A   1      34.837  24.112  25.725  1.00  0.00    -0.351 N 
ATOM     77  C   UNL A   1      33.537  23.668  25.779  1.00  0.00     0.263 C 
ATOM     78  H   UNL A   1      35.079  24.803  26.382  1.00  0.00     0.163 HD
ATOM     79  O   UNL A   1      32.801  24.168  26.630  1.00  0.00    -0.268 OA
BRANCH  77  80
ATOM     80  C   UNL A   1      33.094  22.676  24.833  1.00  0.00     0.122 A 
ATOM     81  S   UNL A   1      33.352  21.032  25.207  1.00  0.00    -0.091 S 
ATOM     82  C   UNL A   1      32.470  22.779  23.605  1.00  0.00     0.096 A 
ATOM     83  C   UNL A   1      32.528  20.554  23.762  1.00  0.00     0.189 A 
ATOM     84  N   UNL A   1      32.140  21.567  23.014  1.00  0.00    -0.219 NA
BRANCH  82  85
ATOM     85  C   UNL A   1      32.094  24.043  22.988  1.00  0.00     0.002 A 
ATOM     86  C   UNL A   1      32.902  24.646  22.014  1.00  0.00     0.010 A 
ATOM     87  C   UNL A   1      30.954  24.717  23.443  1.00  0.00     0.010 A 
ATOM     88  C   UNL A   1      32.605  25.928  21.547  1.00  0.00     0.001 A 
ATOM     89  C   UNL A   1      30.663  26.003  22.981  1.00  0.00     0.001 A 
ATOM     90  C   UNL A   1      31.495  26.611  22.042  1.00  0.00     0.000 A 
ENDBRANCH  82  85
BRANCH  83  91
ATOM     91  N   UNL A   1      32.376  19.268  23.369  1.00  0.00    -0.316 N 
ATOM     92  H   UNL A   1      31.866  19.140  22.537  1.00  0.00     0.170 HD
BRANCH  91  93
ATOM     93  C   UNL A   1      32.840  18.101  23.973  1.00  0.00     0.132 A 
ATOM     94  C   UNL A   1      33.946  17.395  23.501  1.00  0.00     0.047 A 
ATOM     95  N   UNL A   1      32.156  17.684  25.059  1.00  0.00    -0.239 NA
ATOM     96  C   UNL A   1      34.323  16.203  24.117  1.00  0.00     0.005 A 
ATOM     97  C   UNL A   1      32.522  16.512  25.628  1.00  0.00     0.113 A 
ATOM     98  C   UNL A   1      33.583  15.739  25.193  1.00  0.00     0.020 A 
ENDBRANCH  91  93
ENDBRANCH  83  91
ENDBRANCH  77  80
ENDBRANCH  75  76
ENDBRANCH  74  75
ENDBRANCH  73  74
ENDBRANCH   1  73
TORSDOF 16
ENDMDL
