MODEL 1
REMARK VINA RESULT:     -12.7      0.000      0.000
REMARK SMILES Cc1ccc(S(=O)(=O)N2CCN(C(=O)[C@H]3CCCC[C@H]3C(=O)NCCCCCCNC(=O)c3ccc(-c4c5nc(c(-c6c(F)c(F)c(F)c(F)c6F)c6ccc([nH]6)c(-c6c(F)c(F)c(F)c(F)c6F)c6nc(c(-c7c(F)c(F)c(F)c(F)c7F)c7ccc4[nH]7)C=C6)C=C5)cc3)CC2)cc1C
REMARK SMILES IDX 26 1 25 2 24 3 23 4 21 5 22 6 20 8 15 9 16 10 17 11 19 12
REMARK SMILES IDX 18 13 13 14 9 15 10 16 97 17 11 18 96 19 12 20 14 21 6 22
REMARK SMILES IDX 7 23 8 24 5 25 1 26 2 27 3 28 99 29 4 30 98 31 100 32 27 33
REMARK SMILES IDX 28 34 29 35 30 36 31 37 32 39 33 40 34 41 95 42 35 43 94 44
REMARK SMILES IDX 36 45 37 46 38 47 88 48 39 49 93 50 87 51 89 52 40 53 92 54
REMARK SMILES IDX 86 55 85 56 41 58 73 59 53 60 72 61 54 62 57 63 71 64 90 65
REMARK SMILES IDX 55 66 56 67 70 69 91 70 58 71 42 72 43 73 51 74 44 75 45 76
REMARK SMILES IDX 49 77 52 78 46 79 47 80 50 81 48 82 74 83 75 84 83 85 76 86
REMARK SMILES IDX 77 87 81 88 84 89 78 90 79 91 82 92 80 93 59 94 60 95 68 96
REMARK SMILES IDX 61 97 62 98 66 99 69 100 63 101 64 102 67 103 65 104
REMARK H PARENT 23 7 30 38 89 57 57 68
REMARK Flexibility Score: inf
ROOT
ATOM      1  C   UNL A   1      34.439  32.765  29.381  1.00  0.00     0.002 C 
ENDROOT
BRANCH   1   2
ATOM      2  C   UNL A   1      34.872  31.593  28.505  1.00  0.00     0.021 C 
BRANCH   2   3
ATOM      3  C   UNL A   1      33.956  31.251  27.330  1.00  0.00     0.116 C 
BRANCH   3   4
ATOM      4  N   UNL A   1      33.066  30.151  27.640  1.00  0.00    -0.356 N 
ATOM      5  C   UNL A   1      32.201  29.437  26.869  1.00  0.00     0.223 C 
ATOM      6  O   UNL A   1      31.446  28.655  27.460  1.00  0.00    -0.275 OA
ATOM      7  H   UNL A   1      33.092  29.866  28.582  1.00  0.00     0.163 HD
BRANCH   5   8
ATOM      8  C   UNL A   1      32.147  29.512  25.334  1.00  0.00     0.091 C 
ATOM      9  C   UNL A   1      33.230  28.718  24.547  1.00  0.00     0.091 C 
ATOM     10  C   UNL A   1      33.027  28.833  23.029  1.00  0.00     0.014 C 
ATOM     11  C   UNL A   1      31.587  28.600  22.592  1.00  0.00     0.001 C 
ATOM     12  C   UNL A   1      30.715  29.456  24.776  1.00  0.00     0.014 C 
ATOM     13  C   UNL A   1      30.666  29.608  23.261  1.00  0.00     0.001 C 
BRANCH   9  14
ATOM     14  C   UNL A   1      33.527  27.319  25.087  1.00  0.00     0.226 C 
ATOM     15  N   UNL A   1      32.344  23.395  24.356  1.00  0.00    -0.194 NA
ATOM     16  C   UNL A   1      31.536  24.122  25.338  1.00  0.00     0.124 C 
ATOM     17  C   UNL A   1      32.675  24.175  23.151  1.00  0.00     0.124 C 
ATOM     18  C   UNL A   1      32.256  25.402  25.747  1.00  0.00     0.136 C 
ATOM     19  C   UNL A   1      33.338  25.516  23.507  1.00  0.00     0.136 C 
ATOM     20  N   UNL A   1      32.750  26.243  24.649  1.00  0.00    -0.340 N 
ATOM     21  O   UNL A   1      34.483  27.113  25.835  1.00  0.00    -0.275 OA
BRANCH  15  22
ATOM     22  S   UNL A   1      32.925  21.853  24.645  1.00  0.00     0.243 S 
ATOM     23  O   UNL A   1      32.869  21.113  23.400  1.00  0.00    -0.207 OA
ATOM     24  O   UNL A   1      32.267  21.371  25.841  1.00  0.00    -0.207 OA
BRANCH  22  25
ATOM     25  C   UNL A   1      34.651  21.988  25.066  1.00  0.00     0.082 A 
ATOM     26  C   UNL A   1      38.867  22.191  25.992  1.00  0.00     0.044 C 
ATOM     27  C   UNL A   1      37.401  22.074  25.672  1.00  0.00    -0.048 A 
ATOM     28  C   UNL A   1      36.575  23.186  25.893  1.00  0.00     0.005 A 
ATOM     29  C   UNL A   1      36.837  20.897  25.142  1.00  0.00    -0.047 A 
ATOM     30  C   UNL A   1      35.214  23.144  25.587  1.00  0.00     0.022 A 
ATOM     31  C   UNL A   1      35.460  20.864  24.853  1.00  0.00     0.025 A 
ATOM     32  C   UNL A   1      37.644  19.657  24.865  1.00  0.00     0.044 C 
ENDBRANCH  22  25
ENDBRANCH  15  22
ENDBRANCH   9  14
ENDBRANCH   5   8
ENDBRANCH   3   4
ENDBRANCH   2   3
ENDBRANCH   1   2
BRANCH   1  33
ATOM     33  C   UNL A   1      34.506  34.147  28.721  1.00  0.00     0.002 C 
BRANCH  33  34
ATOM     34  C   UNL A   1      33.243  35.011  28.806  1.00  0.00     0.021 C 
BRANCH  34  35
ATOM     35  C   UNL A   1      33.330  36.259  29.682  1.00  0.00     0.116 C 
BRANCH  35  36
ATOM     36  N   UNL A   1      32.400  36.234  30.794  1.00  0.00    -0.352 N 
ATOM     37  C   UNL A   1      32.498  35.605  32.010  1.00  0.00     0.251 C 
ATOM     38  H   UNL A   1      31.572  36.747  30.657  1.00  0.00     0.163 HD
ATOM     39  O   UNL A   1      31.534  35.586  32.770  1.00  0.00    -0.269 OA
BRANCH  37  40
ATOM     40  C   UNL A   1      33.749  34.921  32.404  1.00  0.00     0.039 A 
ATOM     41  C   UNL A   1      33.662  33.630  32.936  1.00  0.00     0.014 A 
ATOM     42  C   UNL A   1      34.994  35.549  32.295  1.00  0.00     0.014 A 
ATOM     43  C   UNL A   1      34.823  32.949  33.306  1.00  0.00     0.010 A 
ATOM     44  C   UNL A   1      36.158  34.845  32.607  1.00  0.00     0.010 A 
ATOM     45  C   UNL A   1      36.083  33.540  33.121  1.00  0.00    -0.014 A 
BRANCH  45  46
ATOM     46  C   UNL A   1      37.327  32.807  33.472  1.00  0.00     0.031 A 
ATOM     47  C   UNL A   1      38.064  33.128  34.742  1.00  0.00     0.074 A 
ATOM     48  C   UNL A   1      37.819  31.883  32.626  1.00  0.00     0.049 A 
ATOM     49  N   UNL A   1      39.188  32.631  35.197  1.00  0.00    -0.248 NA
ATOM     50  C   UNL A   1      37.469  34.157  35.606  1.00  0.00     0.031 C 
ATOM     51  C   UNL A   1      37.220  31.508  31.345  1.00  0.00     0.029 A 
ATOM     52  N   UNL A   1      38.944  31.101  32.710  1.00  0.00    -0.354 N 
ATOM     53  C   UNL A   1      39.438  33.296  36.390  1.00  0.00     0.074 A 
ATOM     54  C   UNL A   1      38.376  34.263  36.566  1.00  0.00     0.031 C 
ATOM     55  C   UNL A   1      37.977  30.563  30.766  1.00  0.00     0.029 A 
ATOM     56  C   UNL A   1      39.130  30.286  31.620  1.00  0.00     0.049 A 
ATOM     57  H   UNL A   1      39.560  31.122  33.478  1.00  0.00     0.167 HD
ATOM     58  C   UNL A   1      40.451  33.103  37.269  1.00  0.00     0.037 A 
ATOM     59  C   UNL A   1      40.121  29.420  31.336  1.00  0.00     0.037 A 
ATOM     60  C   UNL A   1      41.501  32.132  37.100  1.00  0.00     0.049 A 
ATOM     61  C   UNL A   1      41.237  29.225  32.325  1.00  0.00     0.074 A 
ATOM     62  C   UNL A   1      42.542  31.827  37.960  1.00  0.00     0.029 A 
ATOM     63  N   UNL A   1      41.645  31.312  35.991  1.00  0.00    -0.354 N 
ATOM     64  N   UNL A   1      41.431  29.813  33.481  1.00  0.00    -0.248 NA
ATOM     65  C   UNL A   1      42.269  28.240  31.975  1.00  0.00     0.031 C 
ATOM     66  C   UNL A   1      43.339  30.850  37.352  1.00  0.00     0.029 A 
ATOM     67  C   UNL A   1      42.769  30.514  36.134  1.00  0.00     0.049 A 
ATOM     68  H   UNL A   1      41.039  31.298  35.216  1.00  0.00     0.167 HD
ATOM     69  C   UNL A   1      42.589  29.257  34.004  1.00  0.00     0.074 A 
ATOM     70  C   UNL A   1      43.050  28.273  33.046  1.00  0.00     0.031 C 
ATOM     71  C   UNL A   1      43.215  29.539  35.173  1.00  0.00     0.037 A 
BRANCH  58  72
ATOM     72  C   UNL A   1      40.469  33.966  38.497  1.00  0.00     0.064 A 
ATOM     73  C   UNL A   1      39.826  33.570  39.681  1.00  0.00     0.173 A 
ATOM     74  C   UNL A   1      41.150  35.192  38.500  1.00  0.00     0.173 A 
ATOM     75  F   UNL A   1      39.152  32.411  39.729  1.00  0.00    -0.203 F 
ATOM     76  C   UNL A   1      39.836  34.386  40.809  1.00  0.00     0.198 A 
ATOM     77  C   UNL A   1      41.183  35.992  39.639  1.00  0.00     0.198 A 
ATOM     78  F   UNL A   1      41.790  35.614  37.398  1.00  0.00    -0.203 F 
ATOM     79  F   UNL A   1      39.171  34.011  41.910  1.00  0.00    -0.200 F 
ATOM     80  C   UNL A   1      40.518  35.593  40.790  1.00  0.00     0.200 A 
ATOM     81  F   UNL A   1      41.854  37.152  39.624  1.00  0.00    -0.200 F 
ATOM     82  F   UNL A   1      40.528  36.377  41.876  1.00  0.00    -0.200 F 
ENDBRANCH  58  72
BRANCH  59  83
ATOM     83  C   UNL A   1      40.087  28.657  30.063  1.00  0.00     0.064 A 
ATOM     84  C   UNL A   1      40.681  29.167  28.902  1.00  0.00     0.173 A 
ATOM     85  C   UNL A   1      39.476  27.397  29.987  1.00  0.00     0.173 A 
ATOM     86  F   UNL A   1      41.259  30.376  28.921  1.00  0.00    -0.203 F 
ATOM     87  C   UNL A   1      40.657  28.450  27.708  1.00  0.00     0.198 A 
ATOM     88  C   UNL A   1      39.475  26.669  28.799  1.00  0.00     0.198 A 
ATOM     89  F   UNL A   1      38.898  26.863  31.074  1.00  0.00    -0.203 F 
ATOM     90  F   UNL A   1      41.203  28.975  26.602  1.00  0.00    -0.200 F 
ATOM     91  C   UNL A   1      40.060  27.198  27.659  1.00  0.00     0.200 A 
ATOM     92  F   UNL A   1      38.910  25.455  28.760  1.00  0.00    -0.200 F 
ATOM     93  F   UNL A   1      40.045  26.505  26.513  1.00  0.00    -0.200 F 
ENDBRANCH  59  83
BRANCH  71  94
ATOM     94  C   UNL A   1      44.454  28.755  35.494  1.00  0.00     0.064 A 
ATOM     95  C   UNL A   1      45.725  29.194  35.094  1.00  0.00     0.173 A 
ATOM     96  C   UNL A   1      44.372  27.573  36.246  1.00  0.00     0.173 A 
ATOM     97  F   UNL A   1      45.854  30.309  34.359  1.00  0.00    -0.203 F 
ATOM     98  C   UNL A   1      46.867  28.466  35.416  1.00  0.00     0.198 A 
ATOM     99  C   UNL A   1      45.520  26.862  36.588  1.00  0.00     0.198 A 
ATOM    100  F   UNL A   1      43.181  27.114  36.656  1.00  0.00    -0.203 F 
ATOM    101  F   UNL A   1      48.067  28.879  34.987  1.00  0.00    -0.200 F 
ATOM    102  C   UNL A   1      46.764  27.305  36.168  1.00  0.00     0.200 A 
ATOM    103  F   UNL A   1      45.419  25.746  37.325  1.00  0.00    -0.200 F 
ATOM    104  F   UNL A   1      47.866  26.608  36.482  1.00  0.00    -0.200 F 
ENDBRANCH  71  94
ENDBRANCH  45  46
ENDBRANCH  37  40
ENDBRANCH  35  36
ENDBRANCH  34  35
ENDBRANCH  33  34
ENDBRANCH   1  33
TORSDOF 16
ENDMDL
MODEL 2
REMARK VINA RESULT:     -12.2      1.516      7.311
REMARK SMILES Cc1ccc(S(=O)(=O)N2CCN(C(=O)[C@H]3CCCC[C@H]3C(=O)NCCCCCCNC(=O)c3ccc(-c4c5nc(c(-c6c(F)c(F)c(F)c(F)c6F)c6ccc([nH]6)c(-c6c(F)c(F)c(F)c(F)c6F)c6nc(c(-c7c(F)c(F)c(F)c(F)c7F)c7ccc4[nH]7)C=C6)C=C5)cc3)CC2)cc1C
REMARK SMILES IDX 26 1 25 2 24 3 23 4 21 5 22 6 20 8 15 9 16 10 17 11 19 12
REMARK SMILES IDX 18 13 13 14 9 15 10 16 97 17 11 18 96 19 12 20 14 21 6 22
REMARK SMILES IDX 7 23 8 24 5 25 1 26 2 27 3 28 99 29 4 30 98 31 100 32 27 33
REMARK SMILES IDX 28 34 29 35 30 36 31 37 32 39 33 40 34 41 95 42 35 43 94 44
REMARK SMILES IDX 36 45 37 46 38 47 88 48 39 49 93 50 87 51 89 52 40 53 92 54
REMARK SMILES IDX 86 55 85 56 41 58 73 59 53 60 72 61 54 62 57 63 71 64 90 65
REMARK SMILES IDX 55 66 56 67 70 69 91 70 58 71 42 72 43 73 51 74 44 75 45 76
REMARK SMILES IDX 49 77 52 78 46 79 47 80 50 81 48 82 74 83 75 84 83 85 76 86
REMARK SMILES IDX 77 87 81 88 84 89 78 90 79 91 82 92 80 93 59 94 60 95 68 96
REMARK SMILES IDX 61 97 62 98 66 99 69 100 63 101 64 102 67 103 65 104
REMARK H PARENT 23 7 30 38 89 57 57 68
REMARK Flexibility Score: inf
ROOT
ATOM      1  C   UNL A   1      34.516  29.729  28.009  1.00  0.00     0.002 C 
ENDROOT
BRANCH   1   2
ATOM      2  C   UNL A   1      33.612  28.832  27.168  1.00  0.00     0.021 C 
BRANCH   2   3
ATOM      3  C   UNL A   1      32.108  28.982  27.398  1.00  0.00     0.116 C 
BRANCH   3   4
ATOM      4  N   UNL A   1      31.425  27.705  27.362  1.00  0.00    -0.356 N 
ATOM      5  C   UNL A   1      30.969  26.947  26.327  1.00  0.00     0.223 C 
ATOM      6  O   UNL A   1      30.270  25.970  26.621  1.00  0.00    -0.275 OA
ATOM      7  H   UNL A   1      31.260  27.313  28.250  1.00  0.00     0.163 HD
BRANCH   5   8
ATOM      8  C   UNL A   1      31.311  27.206  24.851  1.00  0.00     0.091 C 
ATOM      9  C   UNL A   1      32.748  26.839  24.381  1.00  0.00     0.091 C 
ATOM     10  C   UNL A   1      32.936  27.094  22.878  1.00  0.00     0.014 C 
ATOM     11  C   UNL A   1      31.801  26.544  22.025  1.00  0.00     0.001 C 
ATOM     12  C   UNL A   1      30.164  26.843  23.892  1.00  0.00     0.014 C 
ATOM     13  C   UNL A   1      30.481  27.173  22.440  1.00  0.00     0.001 C 
BRANCH   9  14
ATOM     14  C   UNL A   1      33.286  25.512  24.916  1.00  0.00     0.226 C 
ATOM     15  N   UNL A   1      32.533  21.444  24.449  1.00  0.00    -0.194 NA
ATOM     16  C   UNL A   1      31.766  22.108  25.506  1.00  0.00     0.124 C 
ATOM     17  C   UNL A   1      32.610  22.207  23.191  1.00  0.00     0.124 C 
ATOM     18  C   UNL A   1      32.361  23.483  25.784  1.00  0.00     0.136 C 
ATOM     19  C   UNL A   1      33.135  23.633  23.422  1.00  0.00     0.136 C 
ATOM     20  N   UNL A   1      32.605  24.330  24.610  1.00  0.00    -0.340 N 
ATOM     21  O   UNL A   1      34.346  25.458  25.540  1.00  0.00    -0.275 OA
BRANCH  15  22
ATOM     22  S   UNL A   1      33.337  19.999  24.703  1.00  0.00     0.243 S 
ATOM     23  O   UNL A   1      33.254  19.221  23.483  1.00  0.00    -0.207 OA
ATOM     24  O   UNL A   1      32.872  19.474  25.968  1.00  0.00    -0.207 OA
BRANCH  22  25
ATOM     25  C   UNL A   1      35.064  20.368  24.939  1.00  0.00     0.082 A 
ATOM     26  C   UNL A   1      39.211  21.393  25.594  1.00  0.00     0.044 C 
ATOM     27  C   UNL A   1      37.758  21.081  25.358  1.00  0.00    -0.048 A 
ATOM     28  C   UNL A   1      37.402  19.774  24.993  1.00  0.00     0.005 A 
ATOM     29  C   UNL A   1      36.745  22.048  25.512  1.00  0.00    -0.047 A 
ATOM     30  C   UNL A   1      36.067  19.421  24.790  1.00  0.00     0.022 A 
ATOM     31  C   UNL A   1      35.405  21.681  25.290  1.00  0.00     0.025 A 
ATOM     32  C   UNL A   1      37.028  23.472  25.909  1.00  0.00     0.044 C 
ENDBRANCH  22  25
ENDBRANCH  15  22
ENDBRANCH   9  14
ENDBRANCH   5   8
ENDBRANCH   3   4
ENDBRANCH   2   3
ENDBRANCH   1   2
BRANCH   1  33
ATOM     33  C   UNL A   1      34.547  31.207  27.604  1.00  0.00     0.002 C 
BRANCH  33  34
ATOM     34  C   UNL A   1      33.362  32.068  28.056  1.00  0.00     0.021 C 
BRANCH  34  35
ATOM     35  C   UNL A   1      32.845  33.095  27.049  1.00  0.00     0.116 C 
BRANCH  35  36
ATOM     36  N   UNL A   1      32.518  34.368  27.660  1.00  0.00    -0.352 N 
ATOM     37  C   UNL A   1      33.053  34.977  28.768  1.00  0.00     0.251 C 
ATOM     38  H   UNL A   1      31.803  34.874  27.212  1.00  0.00     0.163 HD
ATOM     39  O   UNL A   1      32.539  35.999  29.214  1.00  0.00    -0.269 OA
BRANCH  37  40
ATOM     40  C   UNL A   1      34.230  34.396  29.450  1.00  0.00     0.039 A 
ATOM     41  C   UNL A   1      34.029  33.706  30.650  1.00  0.00     0.014 A 
ATOM     42  C   UNL A   1      35.524  34.559  28.946  1.00  0.00     0.014 A 
ATOM     43  C   UNL A   1      35.115  33.133  31.315  1.00  0.00     0.010 A 
ATOM     44  C   UNL A   1      36.600  33.934  29.578  1.00  0.00     0.010 A 
ATOM     45  C   UNL A   1      36.407  33.220  30.771  1.00  0.00    -0.014 A 
BRANCH  45  46
ATOM     46  C   UNL A   1      37.562  32.577  31.448  1.00  0.00     0.031 A 
ATOM     47  C   UNL A   1      38.271  31.419  30.805  1.00  0.00     0.074 A 
ATOM     48  C   UNL A   1      37.947  33.006  32.665  1.00  0.00     0.049 A 
ATOM     49  N   UNL A   1      39.266  30.698  31.260  1.00  0.00    -0.248 NA
ATOM     50  C   UNL A   1      37.783  31.002  29.482  1.00  0.00     0.031 C 
ATOM     51  C   UNL A   1      37.318  34.095  33.414  1.00  0.00     0.029 A 
ATOM     52  N   UNL A   1      38.951  32.569  33.493  1.00  0.00    -0.354 N 
ATOM     53  C   UNL A   1      39.513  29.739  30.287  1.00  0.00     0.074 A 
ATOM     54  C   UNL A   1      38.535  29.938  29.239  1.00  0.00     0.031 C 
ATOM     55  C   UNL A   1      37.954  34.247  34.586  1.00  0.00     0.029 A 
ATOM     56  C   UNL A   1      39.016  33.248  34.685  1.00  0.00     0.049 A 
ATOM     57  H   UNL A   1      39.565  31.837  33.256  1.00  0.00     0.167 HD
ATOM     58  C   UNL A   1      40.481  28.791  30.261  1.00  0.00     0.037 A 
ATOM     59  C   UNL A   1      39.833  33.081  35.742  1.00  0.00     0.037 A 
ATOM     60  C   UNL A   1      41.462  28.601  31.298  1.00  0.00     0.049 A 
ATOM     61  C   UNL A   1      40.898  32.020  35.691  1.00  0.00     0.074 A 
ATOM     62  C   UNL A   1      42.513  27.701  31.337  1.00  0.00     0.029 A 
ATOM     63  N   UNL A   1      41.507  29.321  32.481  1.00  0.00    -0.354 N 
ATOM     64  N   UNL A   1      41.164  31.160  34.739  1.00  0.00    -0.248 NA
ATOM     65  C   UNL A   1      41.781  31.911  36.860  1.00  0.00     0.031 C 
ATOM     66  C   UNL A   1      43.170  27.850  32.564  1.00  0.00     0.029 A 
ATOM     67  C   UNL A   1      42.556  28.874  33.269  1.00  0.00     0.049 A 
ATOM     68  H   UNL A   1      40.886  30.044  32.727  1.00  0.00     0.167 HD
ATOM     69  C   UNL A   1      42.254  30.424  35.181  1.00  0.00     0.074 A 
ATOM     70  C   UNL A   1      42.610  30.948  36.484  1.00  0.00     0.031 C 
ATOM     71  C   UNL A   1      42.900  29.405  34.563  1.00  0.00     0.037 A 
BRANCH  58  72
ATOM     72  C   UNL A   1      40.523  27.884  29.065  1.00  0.00     0.064 A 
ATOM     73  C   UNL A   1      41.326  28.175  27.951  1.00  0.00     0.173 A 
ATOM     74  C   UNL A   1      39.767  26.703  29.037  1.00  0.00     0.173 A 
ATOM     75  F   UNL A   1      42.061  29.298  27.923  1.00  0.00    -0.203 F 
ATOM     76  C   UNL A   1      41.344  27.335  26.841  1.00  0.00     0.198 A 
ATOM     77  C   UNL A   1      39.810  25.850  27.937  1.00  0.00     0.198 A 
ATOM     78  F   UNL A   1      38.989  26.372  30.079  1.00  0.00    -0.203 F 
ATOM     79  F   UNL A   1      42.079  27.661  25.769  1.00  0.00    -0.200 F 
ATOM     80  C   UNL A   1      40.591  26.171  26.836  1.00  0.00     0.200 A 
ATOM     81  F   UNL A   1      39.093  24.718  27.939  1.00  0.00    -0.200 F 
ATOM     82  F   UNL A   1      40.611  25.362  25.769  1.00  0.00    -0.200 F 
ENDBRANCH  58  72
BRANCH  59  83
ATOM     83  C   UNL A   1      39.686  33.959  36.930  1.00  0.00     0.064 A 
ATOM     84  C   UNL A   1      38.915  33.559  38.029  1.00  0.00     0.173 A 
ATOM     85  C   UNL A   1      40.326  35.205  36.998  1.00  0.00     0.173 A 
ATOM     86  F   UNL A   1      38.267  32.385  38.001  1.00  0.00    -0.203 F 
ATOM     87  C   UNL A   1      38.780  34.378  39.148  1.00  0.00     0.198 A 
ATOM     88  C   UNL A   1      40.211  36.011  38.128  1.00  0.00     0.198 A 
ATOM     89  F   UNL A   1      41.080  35.630  35.973  1.00  0.00    -0.203 F 
ATOM     90  F   UNL A   1      38.009  33.986  40.173  1.00  0.00    -0.200 F 
ATOM     91  C   UNL A   1      39.435  35.599  39.200  1.00  0.00     0.200 A 
ATOM     92  F   UNL A   1      40.856  37.184  38.180  1.00  0.00    -0.200 F 
ATOM     93  F   UNL A   1      39.312  36.382  40.281  1.00  0.00    -0.200 F 
ENDBRANCH  59  83
BRANCH  71  94
ATOM     94  C   UNL A   1      44.075  28.804  35.277  1.00  0.00     0.064 A 
ATOM     95  C   UNL A   1      43.917  27.766  36.208  1.00  0.00     0.173 A 
ATOM     96  C   UNL A   1      45.378  29.243  34.995  1.00  0.00     0.173 A 
ATOM     97  F   UNL A   1      42.690  27.324  36.523  1.00  0.00    -0.203 F 
ATOM     98  C   UNL A   1      45.019  27.206  36.848  1.00  0.00     0.198 A 
ATOM     99  C   UNL A   1      46.479  28.661  35.618  1.00  0.00     0.198 A 
ATOM    100  F   UNL A   1      45.582  30.228  34.109  1.00  0.00    -0.203 F 
ATOM    101  F   UNL A   1      44.842  26.247  37.766  1.00  0.00    -0.200 F 
ATOM    102  C   UNL A   1      46.298  27.648  36.548  1.00  0.00     0.200 A 
ATOM    103  F   UNL A   1      47.716  29.083  35.318  1.00  0.00    -0.200 F 
ATOM    104  F   UNL A   1      47.359  27.104  37.161  1.00  0.00    -0.200 F 
ENDBRANCH  71  94
ENDBRANCH  45  46
ENDBRANCH  37  40
ENDBRANCH  35  36
ENDBRANCH  34  35
ENDBRANCH  33  34
ENDBRANCH   1  33
TORSDOF 16
ENDMDL
MODEL 3
REMARK VINA RESULT:     -12.2      0.530      6.871
REMARK SMILES Cc1ccc(S(=O)(=O)N2CCN(C(=O)[C@H]3CCCC[C@H]3C(=O)NCCCCCCNC(=O)c3ccc(-c4c5nc(c(-c6c(F)c(F)c(F)c(F)c6F)c6ccc([nH]6)c(-c6c(F)c(F)c(F)c(F)c6F)c6nc(c(-c7c(F)c(F)c(F)c(F)c7F)c7ccc4[nH]7)C=C6)C=C5)cc3)CC2)cc1C
REMARK SMILES IDX 26 1 25 2 24 3 23 4 21 5 22 6 20 8 15 9 16 10 17 11 19 12
REMARK SMILES IDX 18 13 13 14 9 15 10 16 97 17 11 18 96 19 12 20 14 21 6 22
REMARK SMILES IDX 7 23 8 24 5 25 1 26 2 27 3 28 99 29 4 30 98 31 100 32 27 33
REMARK SMILES IDX 28 34 29 35 30 36 31 37 32 39 33 40 34 41 95 42 35 43 94 44
REMARK SMILES IDX 36 45 37 46 38 47 88 48 39 49 93 50 87 51 89 52 40 53 92 54
REMARK SMILES IDX 86 55 85 56 41 58 73 59 53 60 72 61 54 62 57 63 71 64 90 65
REMARK SMILES IDX 55 66 56 67 70 69 91 70 58 71 42 72 43 73 51 74 44 75 45 76
REMARK SMILES IDX 49 77 52 78 46 79 47 80 50 81 48 82 74 83 75 84 83 85 76 86
REMARK SMILES IDX 77 87 81 88 84 89 78 90 79 91 82 92 80 93 59 94 60 95 68 96
REMARK SMILES IDX 61 97 62 98 66 99 69 100 63 101 64 102 67 103 65 104
REMARK H PARENT 23 7 30 38 89 57 57 68
REMARK Flexibility Score: inf
ROOT
ATOM      1  C   UNL A   1      34.432  32.358  29.324  1.00  0.00     0.002 C 
ENDROOT
BRANCH   1   2
ATOM      2  C   UNL A   1      35.102  31.267  28.491  1.00  0.00     0.021 C 
BRANCH   2   3
ATOM      3  C   UNL A   1      34.329  30.782  27.265  1.00  0.00     0.116 C 
BRANCH   3   4
ATOM      4  N   UNL A   1      33.390  29.730  27.597  1.00  0.00    -0.356 N 
ATOM      5  C   UNL A   1      32.449  29.084  26.855  1.00  0.00     0.223 C 
ATOM      6  O   UNL A   1      31.677  28.337  27.468  1.00  0.00    -0.275 OA
ATOM      7  H   UNL A   1      33.442  29.427  28.532  1.00  0.00     0.163 HD
BRANCH   5   8
ATOM      8  C   UNL A   1      32.330  29.193  25.327  1.00  0.00     0.091 C 
ATOM      9  C   UNL A   1      33.268  28.287  24.476  1.00  0.00     0.091 C 
ATOM     10  C   UNL A   1      33.007  28.454  22.972  1.00  0.00     0.014 C 
ATOM     11  C   UNL A   1      31.530  28.403  22.606  1.00  0.00     0.001 C 
ATOM     12  C   UNL A   1      30.876  29.319  24.840  1.00  0.00     0.014 C 
ATOM     13  C   UNL A   1      30.772  29.503  23.332  1.00  0.00     0.001 C 
BRANCH   9  14
ATOM     14  C   UNL A   1      33.420  26.854  24.984  1.00  0.00     0.226 C 
ATOM     15  N   UNL A   1      31.922  23.072  24.094  1.00  0.00    -0.194 NA
ATOM     16  C   UNL A   1      31.145  23.843  25.069  1.00  0.00     0.124 C 
ATOM     17  C   UNL A   1      32.366  23.852  22.926  1.00  0.00     0.124 C 
ATOM     18  C   UNL A   1      31.960  25.042  25.540  1.00  0.00     0.136 C 
ATOM     19  C   UNL A   1      33.131  25.118  23.344  1.00  0.00     0.136 C 
ATOM     20  N   UNL A   1      32.568  25.864  24.486  1.00  0.00    -0.340 N 
ATOM     21  O   UNL A   1      34.325  26.543  25.758  1.00  0.00    -0.275 OA
BRANCH  15  22
ATOM     22  S   UNL A   1      32.352  21.477  24.357  1.00  0.00     0.243 S 
ATOM     23  O   UNL A   1      32.181  20.757  23.111  1.00  0.00    -0.207 OA
ATOM     24  O   UNL A   1      31.688  21.056  25.572  1.00  0.00    -0.207 OA
BRANCH  22  25
ATOM     25  C   UNL A   1      34.095  21.434  24.721  1.00  0.00     0.082 A 
ATOM     26  C   UNL A   1      38.311  21.469  25.673  1.00  0.00     0.044 C 
ATOM     27  C   UNL A   1      36.846  21.502  25.331  1.00  0.00    -0.048 A 
ATOM     28  C   UNL A   1      36.205  20.297  25.005  1.00  0.00     0.005 A 
ATOM     29  C   UNL A   1      36.095  22.693  25.347  1.00  0.00    -0.047 A 
ATOM     30  C   UNL A   1      34.842  20.264  24.708  1.00  0.00     0.022 A 
ATOM     31  C   UNL A   1      34.724  22.647  25.030  1.00  0.00     0.025 A 
ATOM     32  C   UNL A   1      36.692  24.032  25.692  1.00  0.00     0.044 C 
ENDBRANCH  22  25
ENDBRANCH  15  22
ENDBRANCH   9  14
ENDBRANCH   5   8
ENDBRANCH   3   4
ENDBRANCH   2   3
ENDBRANCH   1   2
BRANCH   1  33
ATOM     33  C   UNL A   1      34.497  33.772  28.739  1.00  0.00     0.002 C 
BRANCH  33  34
ATOM     34  C   UNL A   1      33.211  34.605  28.810  1.00  0.00     0.021 C 
BRANCH  34  35
ATOM     35  C   UNL A   1      33.314  35.956  29.516  1.00  0.00     0.116 C 
BRANCH  35  36
ATOM     36  N   UNL A   1      32.453  36.051  30.678  1.00  0.00    -0.352 N 
ATOM     37  C   UNL A   1      32.604  35.517  31.933  1.00  0.00     0.251 C 
ATOM     38  H   UNL A   1      31.634  36.581  30.548  1.00  0.00     0.163 HD
ATOM     39  O   UNL A   1      31.687  35.592  32.746  1.00  0.00    -0.269 OA
BRANCH  37  40
ATOM     40  C   UNL A   1      33.855  34.822  32.309  1.00  0.00     0.039 A 
ATOM     41  C   UNL A   1      35.067  35.500  32.146  1.00  0.00     0.014 A 
ATOM     42  C   UNL A   1      33.848  33.505  32.779  1.00  0.00     0.014 A 
ATOM     43  C   UNL A   1      36.266  34.879  32.503  1.00  0.00     0.010 A 
ATOM     44  C   UNL A   1      35.040  32.909  33.193  1.00  0.00     0.010 A 
ATOM     45  C   UNL A   1      36.261  33.588  33.053  1.00  0.00    -0.014 A 
BRANCH  45  46
ATOM     46  C   UNL A   1      37.527  32.936  33.476  1.00  0.00     0.031 A 
ATOM     47  C   UNL A   1      38.184  31.911  32.595  1.00  0.00     0.074 A 
ATOM     48  C   UNL A   1      38.064  33.232  34.675  1.00  0.00     0.049 A 
ATOM     49  N   UNL A   1      39.263  31.200  32.811  1.00  0.00    -0.248 NA
ATOM     50  C   UNL A   1      37.530  31.633  31.308  1.00  0.00     0.031 C 
ATOM     51  C   UNL A   1      37.503  34.180  35.639  1.00  0.00     0.029 A 
ATOM     52  N   UNL A   1      39.194  32.756  35.293  1.00  0.00    -0.354 N 
ATOM     53  C   UNL A   1      39.409  30.386  31.696  1.00  0.00     0.074 A 
ATOM     54  C   UNL A   1      38.283  30.655  30.827  1.00  0.00     0.031 C 
ATOM     55  C   UNL A   1      38.294  34.223  36.722  1.00  0.00     0.029 A 
ATOM     56  C   UNL A   1      39.400  33.285  36.543  1.00  0.00     0.049 A 
ATOM     57  H   UNL A   1      39.797  32.098  34.880  1.00  0.00     0.167 HD
ATOM     58  C   UNL A   1      40.401  29.508  31.413  1.00  0.00     0.037 A 
ATOM     59  C   UNL A   1      40.367  33.037  37.447  1.00  0.00     0.037 A 
ATOM     60  C   UNL A   1      41.528  29.249  32.272  1.00  0.00     0.049 A 
ATOM     61  C   UNL A   1      41.456  32.056  37.113  1.00  0.00     0.074 A 
ATOM     62  C   UNL A   1      42.611  28.417  32.049  1.00  0.00     0.029 A 
ATOM     63  N   UNL A   1      41.712  29.819  33.523  1.00  0.00    -0.354 N 
ATOM     64  N   UNL A   1      41.619  31.339  36.028  1.00  0.00    -0.248 NA
ATOM     65  C   UNL A   1      42.502  31.856  38.125  1.00  0.00     0.031 C 
ATOM     66  C   UNL A   1      43.430  28.451  33.184  1.00  0.00     0.029 A 
ATOM     67  C   UNL A   1      42.880  29.341  34.094  1.00  0.00     0.049 A 
ATOM     68  H   UNL A   1      41.102  30.467  33.944  1.00  0.00     0.167 HD
ATOM     69  C   UNL A   1      42.791  30.620  36.216  1.00  0.00     0.074 A 
ATOM     70  C   UNL A   1      43.308  30.998  37.516  1.00  0.00     0.031 C 
ATOM     71  C   UNL A   1      43.383  29.726  35.387  1.00  0.00     0.037 A 
BRANCH  58  72
ATOM     72  C   UNL A   1      40.309  28.761  30.114  1.00  0.00     0.064 A 
ATOM     73  C   UNL A   1      39.629  27.537  30.018  1.00  0.00     0.173 A 
ATOM     74  C   UNL A   1      40.889  29.282  28.947  1.00  0.00     0.173 A 
ATOM     75  F   UNL A   1      39.064  26.991  31.106  1.00  0.00    -0.203 F 
ATOM     76  C   UNL A   1      39.563  26.846  28.811  1.00  0.00     0.198 A 
ATOM     77  C   UNL A   1      40.796  28.602  27.736  1.00  0.00     0.198 A 
ATOM     78  F   UNL A   1      41.544  30.453  28.981  1.00  0.00    -0.203 F 
ATOM     79  F   UNL A   1      38.953  25.654  28.757  1.00  0.00    -0.200 F 
ATOM     80  C   UNL A   1      40.141  27.380  27.671  1.00  0.00     0.200 A 
ATOM     81  F   UNL A   1      41.344  29.126  26.630  1.00  0.00    -0.200 F 
ATOM     82  F   UNL A   1      40.076  26.715  26.509  1.00  0.00    -0.200 F 
ENDBRANCH  58  72
BRANCH  59  83
ATOM     83  C   UNL A   1      40.354  33.751  38.750  1.00  0.00     0.064 A 
ATOM     84  C   UNL A   1      41.141  34.892  38.953  1.00  0.00     0.173 A 
ATOM     85  C   UNL A   1      39.543  33.317  39.808  1.00  0.00     0.173 A 
ATOM     86  F   UNL A   1      41.948  35.331  37.976  1.00  0.00    -0.203 F 
ATOM     87  C   UNL A   1      41.126  35.568  40.171  1.00  0.00     0.198 A 
ATOM     88  C   UNL A   1      39.509  34.009  41.017  1.00  0.00     0.198 A 
ATOM     89  F   UNL A   1      38.767  32.233  39.661  1.00  0.00    -0.203 F 
ATOM     90  F   UNL A   1      41.913  36.637  40.351  1.00  0.00    -0.200 F 
ATOM     91  C   UNL A   1      40.304  35.130  41.199  1.00  0.00     0.200 A 
ATOM     92  F   UNL A   1      38.704  33.591  42.003  1.00  0.00    -0.200 F 
ATOM     93  F   UNL A   1      40.283  35.786  42.367  1.00  0.00    -0.200 F 
ENDBRANCH  59  83
BRANCH  71  94
ATOM     94  C   UNL A   1      44.673  29.112  35.848  1.00  0.00     0.064 A 
ATOM     95  C   UNL A   1      45.912  29.709  35.568  1.00  0.00     0.173 A 
ATOM     96  C   UNL A   1      44.667  27.936  36.614  1.00  0.00     0.173 A 
ATOM     97  F   UNL A   1      45.970  30.824  34.824  1.00  0.00    -0.203 F 
ATOM     98  C   UNL A   1      47.098  29.138  36.018  1.00  0.00     0.198 A 
ATOM     99  C   UNL A   1      45.855  27.383  37.085  1.00  0.00     0.198 A 
ATOM    100  F   UNL A   1      43.509  27.331  36.913  1.00  0.00    -0.203 F 
ATOM    101  F   UNL A   1      48.273  29.699  35.701  1.00  0.00    -0.200 F 
ATOM    102  C   UNL A   1      47.069  27.980  36.782  1.00  0.00     0.200 A 
ATOM    103  F   UNL A   1      45.823  26.270  37.833  1.00  0.00    -0.200 F 
ATOM    104  F   UNL A   1      48.213  27.435  37.220  1.00  0.00    -0.200 F 
ENDBRANCH  71  94
ENDBRANCH  45  46
ENDBRANCH  37  40
ENDBRANCH  35  36
ENDBRANCH  34  35
ENDBRANCH  33  34
ENDBRANCH   1  33
TORSDOF 16
ENDMDL
