MODEL 1
REMARK VINA RESULT:     -11.8      0.000      0.000
REMARK SMILES C[C@H]1[C@@H](C(=O)NCCCCCCNC(=O)c2ccc(-c3c4nc(c(-c5c(F)c(F)c(F)c(F)c5F)c5ccc([nH]5)c(-c5c(F)c(F)c(F)c(F)c5F)c5nc(c(-c6c(F)c(F)c(F)c(F)c6F)c6ccc3[nH]6)C=C5)C=C4)cc2)CCN1C(=O)N1CCNC(=O)C1(C)C
REMARK SMILES IDX 9 1 8 2 7 3 6 4 4 5 5 6 3 8 1 9 2 10 81 11 79 12 80 13 82 14
REMARK SMILES IDX 83 15 84 16 85 17 90 18 86 19 88 20 91 21 92 22 87 23 89 24
REMARK SMILES IDX 10 26 11 27 12 28 13 29 14 30 15 32 16 33 17 34 78 35 18 36
REMARK SMILES IDX 77 37 19 38 20 39 21 40 71 41 22 42 76 43 70 44 72 45 23 46
REMARK SMILES IDX 75 47 69 48 68 49 24 51 56 52 36 53 55 54 37 55 40 56 54 57
REMARK SMILES IDX 73 58 38 59 39 60 53 62 74 63 41 64 25 65 26 66 34 67 27 68
REMARK SMILES IDX 28 69 32 70 35 71 29 72 30 73 33 74 31 75 57 76 58 77 66 78
REMARK SMILES IDX 59 79 60 80 64 81 67 82 61 83 62 84 65 85 63 86 42 87 43 88
REMARK SMILES IDX 51 89 44 90 45 91 49 92 52 93 46 94 47 95 50 96 48 97
REMARK H PARENT 6 7 87 25 13 31 72 50 40 61
REMARK Flexibility Score: inf
ROOT
ATOM      1  C   UNL A   1      34.572  32.333  29.094  1.00  0.00     0.002 C 
ENDROOT
BRANCH   1   2
ATOM      2  C   UNL A   1      35.296  31.599  27.969  1.00  0.00     0.021 C 
BRANCH   2   3
ATOM      3  C   UNL A   1      34.810  30.178  27.653  1.00  0.00     0.116 C 
BRANCH   3   4
ATOM      4  N   UNL A   1      33.908  30.197  26.516  1.00  0.00    -0.356 N 
ATOM      5  C   UNL A   1      33.250  29.203  25.853  1.00  0.00     0.225 C 
ATOM      6  O   UNL A   1      32.671  29.540  24.817  1.00  0.00    -0.275 OA
ATOM      7  H   UNL A   1      33.739  31.098  26.155  1.00  0.00     0.163 HD
BRANCH   5   8
ATOM      8  C   UNL A   1      33.143  27.776  26.407  1.00  0.00     0.102 C 
ATOM      9  C   UNL A   1      33.677  26.857  24.027  1.00  0.00     0.032 C 
ATOM     10  C   UNL A   1      33.554  26.579  25.522  1.00  0.00     0.096 C 
ATOM     11  N   UNL A   1      32.502  25.580  25.705  1.00  0.00    -0.321 N 
ATOM     12  C   UNL A   1      31.698  27.430  26.864  1.00  0.00     0.037 C 
ATOM     13  C   UNL A   1      31.263  26.247  26.014  1.00  0.00     0.122 C 
BRANCH  11  14
ATOM     14  C   UNL A   1      32.533  24.287  25.215  1.00  0.00     0.321 C 
ATOM     15  O   UNL A   1      31.877  23.929  24.241  1.00  0.00    -0.248 OA
BRANCH  14  16
ATOM     16  N   UNL A   1      33.471  23.466  25.801  1.00  0.00    -0.309 N 
ATOM     17  C   UNL A   1      33.429  23.269  27.244  1.00  0.00     0.143 C 
ATOM     18  C   UNL A   1      34.721  23.034  25.121  1.00  0.00     0.118 C 
ATOM     19  C   UNL A   1      33.656  21.790  27.581  1.00  0.00     0.137 C 
ATOM     20  C   UNL A   1      34.872  21.515  25.394  1.00  0.00     0.245 C 
ATOM     21  C   UNL A   1      34.761  23.326  23.613  1.00  0.00     0.045 C 
ATOM     22  C   UNL A   1      35.955  23.724  25.749  1.00  0.00     0.045 C 
ATOM     23  N   UNL A   1      34.481  21.054  26.632  1.00  0.00    -0.352 N 
ATOM     24  O   UNL A   1      35.464  20.742  24.639  1.00  0.00    -0.272 OA
ATOM     25  H   UNL A   1      34.782  20.155  26.897  1.00  0.00     0.163 HD
ENDBRANCH  14  16
ENDBRANCH  11  14
ENDBRANCH   5   8
ENDBRANCH   3   4
ENDBRANCH   2   3
ENDBRANCH   1   2
BRANCH   1  26
ATOM     26  C   UNL A   1      34.634  33.858  29.020  1.00  0.00     0.002 C 
BRANCH  26  27
ATOM     27  C   UNL A   1      33.284  34.585  28.984  1.00  0.00     0.021 C 
BRANCH  27  28
ATOM     28  C   UNL A   1      33.299  36.040  29.453  1.00  0.00     0.116 C 
BRANCH  28  29
ATOM     29  N   UNL A   1      32.454  36.256  30.614  1.00  0.00    -0.352 N 
ATOM     30  C   UNL A   1      32.555  35.743  31.879  1.00  0.00     0.251 C 
ATOM     31  H   UNL A   1      31.694  36.864  30.469  1.00  0.00     0.163 HD
ATOM     32  O   UNL A   1      31.618  35.866  32.670  1.00  0.00    -0.269 OA
BRANCH  30  33
ATOM     33  C   UNL A   1      33.776  35.030  32.306  1.00  0.00     0.039 A 
ATOM     34  C   UNL A   1      33.659  33.731  32.808  1.00  0.00     0.014 A 
ATOM     35  C   UNL A   1      35.027  35.653  32.257  1.00  0.00     0.014 A 
ATOM     36  C   UNL A   1      34.802  33.036  33.210  1.00  0.00     0.010 A 
ATOM     37  C   UNL A   1      36.173  34.937  32.597  1.00  0.00     0.010 A 
ATOM     38  C   UNL A   1      36.071  33.624  33.082  1.00  0.00    -0.014 A 
BRANCH  38  39
ATOM     39  C   UNL A   1      37.301  32.878  33.455  1.00  0.00     0.031 A 
ATOM     40  C   UNL A   1      38.011  33.184  34.745  1.00  0.00     0.074 A 
ATOM     41  C   UNL A   1      37.809  31.966  32.605  1.00  0.00     0.049 A 
ATOM     42  N   UNL A   1      39.129  32.686  35.213  1.00  0.00    -0.248 NA
ATOM     43  C   UNL A   1      37.398  34.202  35.611  1.00  0.00     0.031 C 
ATOM     44  C   UNL A   1      37.235  31.611  31.307  1.00  0.00     0.029 A 
ATOM     45  N   UNL A   1      38.928  31.177  32.700  1.00  0.00    -0.354 N 
ATOM     46  C   UNL A   1      39.357  33.337  36.418  1.00  0.00     0.074 A 
ATOM     47  C   UNL A   1      38.292  34.303  36.584  1.00  0.00     0.031 C 
ATOM     48  C   UNL A   1      37.994  30.662  30.735  1.00  0.00     0.029 A 
ATOM     49  C   UNL A   1      39.125  30.367  31.609  1.00  0.00     0.049 A 
ATOM     50  H   UNL A   1      39.532  31.191  33.478  1.00  0.00     0.167 HD
ATOM     51  C   UNL A   1      40.351  33.132  37.315  1.00  0.00     0.037 A 
ATOM     52  C   UNL A   1      40.112  29.490  31.341  1.00  0.00     0.037 A 
ATOM     53  C   UNL A   1      41.395  32.153  37.158  1.00  0.00     0.049 A 
ATOM     54  C   UNL A   1      41.210  29.288  32.349  1.00  0.00     0.074 A 
ATOM     55  C   UNL A   1      42.412  31.827  38.038  1.00  0.00     0.029 A 
ATOM     56  N   UNL A   1      41.556  31.343  36.043  1.00  0.00    -0.354 N 
ATOM     57  N   UNL A   1      41.379  29.863  33.515  1.00  0.00    -0.248 NA
ATOM     58  C   UNL A   1      42.253  28.312  32.005  1.00  0.00     0.031 C 
ATOM     59  C   UNL A   1      43.216  30.852  37.436  1.00  0.00     0.029 A 
ATOM     60  C   UNL A   1      42.670  30.535  36.202  1.00  0.00     0.049 A 
ATOM     61  H   UNL A   1      40.965  31.342  35.256  1.00  0.00     0.167 HD
ATOM     62  C   UNL A   1      42.527  29.301  34.055  1.00  0.00     0.074 A 
ATOM     63  C   UNL A   1      43.006  28.328  33.095  1.00  0.00     0.031 C 
ATOM     64  C   UNL A   1      43.132  29.569  35.239  1.00  0.00     0.037 A 
BRANCH  51  65
ATOM     65  C   UNL A   1      40.357  33.985  38.553  1.00  0.00     0.064 A 
ATOM     66  C   UNL A   1      41.076  35.189  38.614  1.00  0.00     0.173 A 
ATOM     67  C   UNL A   1      39.608  33.611  39.679  1.00  0.00     0.173 A 
ATOM     68  F   UNL A   1      41.817  35.586  37.568  1.00  0.00    -0.203 F 
ATOM     69  C   UNL A   1      41.070  35.968  39.767  1.00  0.00     0.198 A 
ATOM     70  C   UNL A   1      39.579  34.410  40.819  1.00  0.00     0.198 A 
ATOM     71  F   UNL A   1      38.897  32.472  39.673  1.00  0.00    -0.203 F 
ATOM     72  F   UNL A   1      41.807  37.087  39.820  1.00  0.00    -0.200 F 
ATOM     73  C   UNL A   1      40.318  35.582  40.866  1.00  0.00     0.200 A 
ATOM     74  F   UNL A   1      38.842  34.041  41.876  1.00  0.00    -0.200 F 
ATOM     75  F   UNL A   1      40.310  36.338  41.973  1.00  0.00    -0.200 F 
ENDBRANCH  51  65
BRANCH  52  76
ATOM     76  C   UNL A   1      40.092  28.718  30.071  1.00  0.00     0.064 A 
ATOM     77  C   UNL A   1      40.689  29.229  28.910  1.00  0.00     0.173 A 
ATOM     78  C   UNL A   1      39.479  27.460  29.991  1.00  0.00     0.173 A 
ATOM     79  F   UNL A   1      41.269  30.438  28.932  1.00  0.00    -0.203 F 
ATOM     80  C   UNL A   1      40.656  28.519  27.713  1.00  0.00     0.198 A 
ATOM     81  C   UNL A   1      39.472  26.738  28.799  1.00  0.00     0.198 A 
ATOM     82  F   UNL A   1      38.898  26.925  31.075  1.00  0.00    -0.203 F 
ATOM     83  F   UNL A   1      41.197  29.050  26.606  1.00  0.00    -0.200 F 
ATOM     84  C   UNL A   1      40.054  27.271  27.659  1.00  0.00     0.200 A 
ATOM     85  F   UNL A   1      38.901  25.527  28.755  1.00  0.00    -0.200 F 
ATOM     86  F   UNL A   1      40.028  26.586  26.508  1.00  0.00    -0.200 F 
ENDBRANCH  52  76
BRANCH  64  87
ATOM     87  C   UNL A   1      44.363  28.778  35.575  1.00  0.00     0.064 A 
ATOM     88  C   UNL A   1      45.641  29.205  35.187  1.00  0.00     0.173 A 
ATOM     89  C   UNL A   1      44.265  27.597  36.328  1.00  0.00     0.173 A 
ATOM     90  F   UNL A   1      45.786  30.319  34.452  1.00  0.00    -0.203 F 
ATOM     91  C   UNL A   1      46.774  28.468  35.520  1.00  0.00     0.198 A 
ATOM     92  C   UNL A   1      45.402  26.878  36.684  1.00  0.00     0.198 A 
ATOM     93  F   UNL A   1      43.066  27.149  36.730  1.00  0.00    -0.203 F 
ATOM     94  F   UNL A   1      47.981  28.870  35.098  1.00  0.00    -0.200 F 
ATOM     95  C   UNL A   1      46.654  27.310  36.274  1.00  0.00     0.200 A 
ATOM     96  F   UNL A   1      45.286  25.767  37.425  1.00  0.00    -0.200 F 
ATOM     97  F   UNL A   1      47.747  26.605  36.600  1.00  0.00    -0.200 F 
ENDBRANCH  64  87
ENDBRANCH  38  39
ENDBRANCH  30  33
ENDBRANCH  28  29
ENDBRANCH  27  28
ENDBRANCH  26  27
ENDBRANCH   1  26
TORSDOF 15
ENDMDL
MODEL 2
REMARK VINA RESULT:     -11.7      0.945      2.290
REMARK SMILES C[C@H]1[C@@H](C(=O)NCCCCCCNC(=O)c2ccc(-c3c4nc(c(-c5c(F)c(F)c(F)c(F)c5F)c5ccc([nH]5)c(-c5c(F)c(F)c(F)c(F)c5F)c5nc(c(-c6c(F)c(F)c(F)c(F)c6F)c6ccc3[nH]6)C=C5)C=C4)cc2)CCN1C(=O)N1CCNC(=O)C1(C)C
REMARK SMILES IDX 9 1 8 2 7 3 6 4 4 5 5 6 3 8 1 9 2 10 81 11 79 12 80 13 82 14
REMARK SMILES IDX 83 15 84 16 85 17 90 18 86 19 88 20 91 21 92 22 87 23 89 24
REMARK SMILES IDX 10 26 11 27 12 28 13 29 14 30 15 32 16 33 17 34 78 35 18 36
REMARK SMILES IDX 77 37 19 38 20 39 21 40 71 41 22 42 76 43 70 44 72 45 23 46
REMARK SMILES IDX 75 47 69 48 68 49 24 51 56 52 36 53 55 54 37 55 40 56 54 57
REMARK SMILES IDX 73 58 38 59 39 60 53 62 74 63 41 64 25 65 26 66 34 67 27 68
REMARK SMILES IDX 28 69 32 70 35 71 29 72 30 73 33 74 31 75 57 76 58 77 66 78
REMARK SMILES IDX 59 79 60 80 64 81 67 82 61 83 62 84 65 85 63 86 42 87 43 88
REMARK SMILES IDX 51 89 44 90 45 91 49 92 52 93 46 94 47 95 50 96 48 97
REMARK H PARENT 6 7 87 25 13 31 72 50 40 61
REMARK Flexibility Score: inf
ROOT
ATOM      1  C   UNL A   1      34.967  33.015  29.013  1.00  0.00     0.002 C 
ENDROOT
BRANCH   1   2
ATOM      2  C   UNL A   1      35.593  32.039  28.021  1.00  0.00     0.021 C 
BRANCH   2   3
ATOM      3  C   UNL A   1      34.943  30.651  27.924  1.00  0.00     0.116 C 
BRANCH   3   4
ATOM      4  N   UNL A   1      33.541  30.778  27.570  1.00  0.00    -0.356 N 
ATOM      5  C   UNL A   1      32.622  29.868  27.137  1.00  0.00     0.225 C 
ATOM      6  O   UNL A   1      31.538  30.332  26.772  1.00  0.00    -0.275 OA
ATOM      7  H   UNL A   1      33.186  31.692  27.661  1.00  0.00     0.163 HD
BRANCH   5   8
ATOM      8  C   UNL A   1      32.871  28.356  27.193  1.00  0.00     0.102 C 
ATOM      9  C   UNL A   1      33.753  28.453  24.742  1.00  0.00     0.032 C 
ATOM     10  C   UNL A   1      33.632  27.663  26.041  1.00  0.00     0.096 C 
ATOM     11  N   UNL A   1      32.877  26.444  25.753  1.00  0.00    -0.321 N 
ATOM     12  C   UNL A   1      31.549  27.546  27.313  1.00  0.00     0.037 C 
ATOM     13  C   UNL A   1      31.490  26.656  26.082  1.00  0.00     0.122 C 
BRANCH  11  14
ATOM     14  C   UNL A   1      33.278  25.440  24.890  1.00  0.00     0.321 C 
ATOM     15  O   UNL A   1      33.855  25.665  23.830  1.00  0.00    -0.248 OA
BRANCH  14  16
ATOM     16  N   UNL A   1      33.123  24.160  25.376  1.00  0.00    -0.309 N 
ATOM     17  C   UNL A   1      34.161  23.604  26.233  1.00  0.00     0.143 C 
ATOM     18  C   UNL A   1      32.144  23.187  24.824  1.00  0.00     0.118 C 
ATOM     19  C   UNL A   1      33.527  22.859  27.414  1.00  0.00     0.137 C 
ATOM     20  C   UNL A   1      31.446  22.522  26.039  1.00  0.00     0.245 C 
ATOM     21  C   UNL A   1      31.110  23.797  23.865  1.00  0.00     0.045 C 
ATOM     22  C   UNL A   1      32.866  22.058  24.053  1.00  0.00     0.045 C 
ATOM     23  N   UNL A   1      32.218  22.276  27.153  1.00  0.00    -0.352 N 
ATOM     24  O   UNL A   1      30.304  22.063  26.002  1.00  0.00    -0.272 OA
ATOM     25  H   UNL A   1      31.856  21.657  27.828  1.00  0.00     0.163 HD
ENDBRANCH  14  16
ENDBRANCH  11  14
ENDBRANCH   5   8
ENDBRANCH   3   4
ENDBRANCH   2   3
ENDBRANCH   1   2
BRANCH   1  26
ATOM     26  C   UNL A   1      34.586  34.376  28.430  1.00  0.00     0.002 C 
BRANCH  26  27
ATOM     27  C   UNL A   1      33.253  34.962  28.910  1.00  0.00     0.021 C 
BRANCH  27  28
ATOM     28  C   UNL A   1      33.337  36.315  29.618  1.00  0.00     0.116 C 
BRANCH  28  29
ATOM     29  N   UNL A   1      32.503  36.370  30.806  1.00  0.00    -0.352 N 
ATOM     30  C   UNL A   1      32.616  35.691  31.989  1.00  0.00     0.251 C 
ATOM     31  H   UNL A   1      31.741  36.991  30.752  1.00  0.00     0.163 HD
ATOM     32  O   UNL A   1      31.686  35.705  32.798  1.00  0.00    -0.269 OA
BRANCH  30  33
ATOM     33  C   UNL A   1      33.840  34.929  32.305  1.00  0.00     0.039 A 
ATOM     34  C   UNL A   1      35.077  35.573  32.224  1.00  0.00     0.014 A 
ATOM     35  C   UNL A   1      33.777  33.571  32.635  1.00  0.00     0.014 A 
ATOM     36  C   UNL A   1      36.247  34.873  32.526  1.00  0.00     0.010 A 
ATOM     37  C   UNL A   1      34.937  32.891  32.999  1.00  0.00     0.010 A 
ATOM     38  C   UNL A   1      36.184  33.533  32.942  1.00  0.00    -0.014 A 
BRANCH  38  39
ATOM     39  C   UNL A   1      37.414  32.790  33.319  1.00  0.00     0.031 A 
ATOM     40  C   UNL A   1      38.128  33.107  34.604  1.00  0.00     0.074 A 
ATOM     41  C   UNL A   1      37.919  31.869  32.477  1.00  0.00     0.049 A 
ATOM     42  N   UNL A   1      39.246  32.613  35.075  1.00  0.00    -0.248 NA
ATOM     43  C   UNL A   1      37.518  34.134  35.462  1.00  0.00     0.031 C 
ATOM     44  C   UNL A   1      37.341  31.502  31.184  1.00  0.00     0.029 A 
ATOM     45  N   UNL A   1      39.038  31.080  32.577  1.00  0.00    -0.354 N 
ATOM     46  C   UNL A   1      39.477  33.275  36.273  1.00  0.00     0.074 A 
ATOM     47  C   UNL A   1      38.414  34.244  36.432  1.00  0.00     0.031 C 
ATOM     48  C   UNL A   1      38.098  30.546  30.620  1.00  0.00     0.029 A 
ATOM     49  C   UNL A   1      39.231  30.259  31.493  1.00  0.00     0.049 A 
ATOM     50  H   UNL A   1      39.644  31.100  33.353  1.00  0.00     0.167 HD
ATOM     51  C   UNL A   1      40.474  33.078  37.169  1.00  0.00     0.037 A 
ATOM     52  C   UNL A   1      40.216  29.379  31.231  1.00  0.00     0.037 A 
ATOM     53  C   UNL A   1      41.517  32.097  37.019  1.00  0.00     0.049 A 
ATOM     54  C   UNL A   1      41.317  29.186  32.238  1.00  0.00     0.074 A 
ATOM     55  C   UNL A   1      42.536  31.778  37.899  1.00  0.00     0.029 A 
ATOM     56  N   UNL A   1      41.674  31.276  35.912  1.00  0.00    -0.354 N 
ATOM     57  N   UNL A   1      41.489  29.771  33.399  1.00  0.00    -0.248 NA
ATOM     58  C   UNL A   1      42.358  28.205  31.901  1.00  0.00     0.031 C 
ATOM     59  C   UNL A   1      43.337  30.797  37.305  1.00  0.00     0.029 A 
ATOM     60  C   UNL A   1      42.788  30.468  36.076  1.00  0.00     0.049 A 
ATOM     61  H   UNL A   1      41.081  31.268  35.126  1.00  0.00     0.167 HD
ATOM     62  C   UNL A   1      42.638  29.213  33.941  1.00  0.00     0.074 A 
ATOM     63  C   UNL A   1      43.114  28.231  32.990  1.00  0.00     0.031 C 
ATOM     64  C   UNL A   1      43.246  29.492  35.120  1.00  0.00     0.037 A 
BRANCH  51  65
ATOM     65  C   UNL A   1      40.484  33.943  38.398  1.00  0.00     0.064 A 
ATOM     66  C   UNL A   1      39.777  33.584  39.557  1.00  0.00     0.173 A 
ATOM     67  C   UNL A   1      41.235  35.128  38.431  1.00  0.00     0.173 A 
ATOM     68  F   UNL A   1      39.034  32.466  39.574  1.00  0.00    -0.203 F 
ATOM     69  C   UNL A   1      39.796  34.395  40.688  1.00  0.00     0.198 A 
ATOM     70  C   UNL A   1      41.278  35.919  39.576  1.00  0.00     0.198 A 
ATOM     71  F   UNL A   1      41.935  35.515  37.353  1.00  0.00    -0.203 F 
ATOM     72  F   UNL A   1      39.070  34.057  41.764  1.00  0.00    -0.200 F 
ATOM     73  C   UNL A   1      40.551  35.557  40.699  1.00  0.00     0.200 A 
ATOM     74  F   UNL A   1      42.018  37.037  39.588  1.00  0.00    -0.200 F 
ATOM     75  F   UNL A   1      40.572  36.333  41.792  1.00  0.00    -0.200 F 
ENDBRANCH  51  65
BRANCH  52  76
ATOM     76  C   UNL A   1      40.192  28.595  29.969  1.00  0.00     0.064 A 
ATOM     77  C   UNL A   1      39.525  27.363  29.901  1.00  0.00     0.173 A 
ATOM     78  C   UNL A   1      40.834  29.055  28.810  1.00  0.00     0.173 A 
ATOM     79  F   UNL A   1      38.914  26.872  30.988  1.00  0.00    -0.203 F 
ATOM     80  C   UNL A   1      39.516  26.615  28.726  1.00  0.00     0.198 A 
ATOM     81  C   UNL A   1      40.800  28.318  27.629  1.00  0.00     0.198 A 
ATOM     82  F   UNL A   1      41.483  30.229  28.823  1.00  0.00    -0.203 F 
ATOM     83  F   UNL A   1      38.906  25.421  28.701  1.00  0.00    -0.200 F 
ATOM     84  C   UNL A   1      40.147  27.095  27.590  1.00  0.00     0.200 A 
ATOM     85  F   UNL A   1      41.400  28.792  26.529  1.00  0.00    -0.200 F 
ATOM     86  F   UNL A   1      40.134  26.376  26.459  1.00  0.00    -0.200 F 
ENDBRANCH  52  76
BRANCH  64  87
ATOM     87  C   UNL A   1      44.477  28.703  35.462  1.00  0.00     0.064 A 
ATOM     88  C   UNL A   1      44.402  27.487  36.158  1.00  0.00     0.173 A 
ATOM     89  C   UNL A   1      45.744  29.150  35.055  1.00  0.00     0.173 A 
ATOM     90  F   UNL A   1      43.216  27.025  36.583  1.00  0.00    -0.203 F 
ATOM     91  C   UNL A   1      45.551  26.760  36.455  1.00  0.00     0.198 A 
ATOM     92  C   UNL A   1      46.888  28.406  35.327  1.00  0.00     0.198 A 
ATOM     93  F   UNL A   1      45.869  30.303  34.381  1.00  0.00    -0.203 F 
ATOM     94  F   UNL A   1      45.460  25.625  37.161  1.00  0.00    -0.200 F 
ATOM     95  C   UNL A   1      46.792  27.216  36.032  1.00  0.00     0.200 A 
ATOM     96  F   UNL A   1      48.084  28.840  34.907  1.00  0.00    -0.200 F 
ATOM     97  F   UNL A   1      47.897  26.510  36.313  1.00  0.00    -0.200 F 
ENDBRANCH  64  87
ENDBRANCH  38  39
ENDBRANCH  30  33
ENDBRANCH  28  29
ENDBRANCH  27  28
ENDBRANCH  26  27
ENDBRANCH   1  26
TORSDOF 15
ENDMDL
MODEL 3
REMARK VINA RESULT:     -11.6      6.661     12.393
REMARK SMILES C[C@H]1[C@@H](C(=O)NCCCCCCNC(=O)c2ccc(-c3c4nc(c(-c5c(F)c(F)c(F)c(F)c5F)c5ccc([nH]5)c(-c5c(F)c(F)c(F)c(F)c5F)c5nc(c(-c6c(F)c(F)c(F)c(F)c6F)c6ccc3[nH]6)C=C5)C=C4)cc2)CCN1C(=O)N1CCNC(=O)C1(C)C
REMARK SMILES IDX 9 1 8 2 7 3 6 4 4 5 5 6 3 8 1 9 2 10 81 11 79 12 80 13 82 14
REMARK SMILES IDX 83 15 84 16 85 17 90 18 86 19 88 20 91 21 92 22 87 23 89 24
REMARK SMILES IDX 10 26 11 27 12 28 13 29 14 30 15 32 16 33 17 34 78 35 18 36
REMARK SMILES IDX 77 37 19 38 20 39 21 40 71 41 22 42 76 43 70 44 72 45 23 46
REMARK SMILES IDX 75 47 69 48 68 49 24 51 56 52 36 53 55 54 37 55 40 56 54 57
REMARK SMILES IDX 73 58 38 59 39 60 53 62 74 63 41 64 25 65 26 66 34 67 27 68
REMARK SMILES IDX 28 69 32 70 35 71 29 72 30 73 33 74 31 75 57 76 58 77 66 78
REMARK SMILES IDX 59 79 60 80 64 81 67 82 61 83 62 84 65 85 63 86 42 87 43 88
REMARK SMILES IDX 51 89 44 90 45 91 49 92 52 93 46 94 47 95 50 96 48 97
REMARK H PARENT 6 7 87 25 13 31 72 50 40 61
REMARK Flexibility Score: inf
ROOT
ATOM      1  C   UNL A   1      41.422  21.723  26.344  1.00  0.00     0.002 C 
ENDROOT
BRANCH   1   2
ATOM      2  C   UNL A   1      40.485  22.550  27.220  1.00  0.00     0.021 C 
BRANCH   2   3
ATOM      3  C   UNL A   1      39.225  23.105  26.540  1.00  0.00     0.116 C 
BRANCH   3   4
ATOM      4  N   UNL A   1      38.587  22.071  25.745  1.00  0.00    -0.356 N 
ATOM      5  C   UNL A   1      37.448  22.066  24.997  1.00  0.00     0.225 C 
ATOM      6  O   UNL A   1      37.097  20.966  24.560  1.00  0.00    -0.275 OA
ATOM      7  H   UNL A   1      39.069  21.212  25.746  1.00  0.00     0.163 HD
BRANCH   5   8
ATOM      8  C   UNL A   1      36.700  23.353  24.628  1.00  0.00     0.102 C 
ATOM      9  C   UNL A   1      35.020  22.884  26.565  1.00  0.00     0.032 C 
ATOM     10  C   UNL A   1      35.577  23.877  25.550  1.00  0.00     0.096 C 
ATOM     11  N   UNL A   1      34.485  24.260  24.656  1.00  0.00    -0.321 N 
ATOM     12  C   UNL A   1      36.028  23.262  23.229  1.00  0.00     0.037 C 
ATOM     13  C   UNL A   1      34.538  23.447  23.467  1.00  0.00     0.122 C 
BRANCH  11  14
ATOM     14  C   UNL A   1      33.331  24.919  25.039  1.00  0.00     0.321 C 
ATOM     15  O   UNL A   1      32.768  24.707  26.109  1.00  0.00    -0.248 OA
BRANCH  14  16
ATOM     16  N   UNL A   1      32.943  25.944  24.204  1.00  0.00    -0.309 N 
ATOM     17  C   UNL A   1      33.563  27.252  24.362  1.00  0.00     0.143 C 
ATOM     18  C   UNL A   1      31.706  25.904  23.380  1.00  0.00     0.118 C 
ATOM     19  C   UNL A   1      33.899  27.846  22.988  1.00  0.00     0.137 C 
ATOM     20  C   UNL A   1      32.097  26.414  21.968  1.00  0.00     0.245 C 
ATOM     21  C   UNL A   1      31.037  24.523  23.297  1.00  0.00     0.045 C 
ATOM     22  C   UNL A   1      30.647  26.888  23.931  1.00  0.00     0.045 C 
ATOM     23  N   UNL A   1      33.026  27.429  21.899  1.00  0.00    -0.352 N 
ATOM     24  O   UNL A   1      31.513  26.081  20.937  1.00  0.00    -0.272 OA
ATOM     25  H   UNL A   1      33.107  27.912  21.044  1.00  0.00     0.163 HD
ENDBRANCH  14  16
ENDBRANCH  11  14
ENDBRANCH   5   8
ENDBRANCH   3   4
ENDBRANCH   2   3
ENDBRANCH   1   2
BRANCH   1  26
ATOM     26  C   UNL A   1      41.966  20.452  26.996  1.00  0.00     0.002 C 
BRANCH  26  27
ATOM     27  C   UNL A   1      42.208  19.265  26.055  1.00  0.00     0.021 C 
BRANCH  27  28
ATOM     28  C   UNL A   1      43.614  18.664  26.090  1.00  0.00     0.116 C 
BRANCH  28  29
ATOM     29  N   UNL A   1      44.220  18.599  24.772  1.00  0.00    -0.352 N 
ATOM     30  C   UNL A   1      44.661  19.608  23.959  1.00  0.00     0.251 C 
ATOM     31  H   UNL A   1      44.332  17.691  24.409  1.00  0.00     0.163 HD
ATOM     32  O   UNL A   1      44.944  19.371  22.782  1.00  0.00    -0.269 OA
BRANCH  30  33
ATOM     33  C   UNL A   1      44.793  20.985  24.473  1.00  0.00     0.039 A 
ATOM     34  C   UNL A   1      45.442  21.192  25.693  1.00  0.00     0.014 A 
ATOM     35  C   UNL A   1      44.240  22.067  23.781  1.00  0.00     0.014 A 
ATOM     36  C   UNL A   1      45.584  22.488  26.194  1.00  0.00     0.010 A 
ATOM     37  C   UNL A   1      44.438  23.365  24.249  1.00  0.00     0.010 A 
ATOM     38  C   UNL A   1      45.107  23.588  25.462  1.00  0.00    -0.014 A 
BRANCH  38  39
ATOM     39  C   UNL A   1      45.298  24.976  25.955  1.00  0.00     0.031 A 
ATOM     40  C   UNL A   1      46.658  25.616  25.910  1.00  0.00     0.074 A 
ATOM     41  C   UNL A   1      44.258  25.639  26.494  1.00  0.00     0.049 A 
ATOM     42  N   UNL A   1      47.036  26.791  26.349  1.00  0.00    -0.248 NA
ATOM     43  C   UNL A   1      47.743  24.820  25.317  1.00  0.00     0.031 C 
ATOM     44  C   UNL A   1      42.901  25.111  26.632  1.00  0.00     0.029 A 
ATOM     45  N   UNL A   1      44.181  26.898  27.037  1.00  0.00    -0.354 N 
ATOM     46  C   UNL A   1      48.398  26.869  26.096  1.00  0.00     0.074 A 
ATOM     47  C   UNL A   1      48.793  25.604  25.514  1.00  0.00     0.031 C 
ATOM     48  C   UNL A   1      42.121  26.044  27.202  1.00  0.00     0.029 A 
ATOM     49  C   UNL A   1      42.930  27.221  27.502  1.00  0.00     0.049 A 
ATOM     50  H   UNL A   1      44.950  27.510  27.088  1.00  0.00     0.167 HD
ATOM     51  C   UNL A   1      49.239  27.910  26.308  1.00  0.00     0.037 A 
ATOM     52  C   UNL A   1      42.488  28.339  28.109  1.00  0.00     0.037 A 
ATOM     53  C   UNL A   1      48.839  29.176  26.865  1.00  0.00     0.049 A 
ATOM     54  C   UNL A   1      43.445  29.477  28.342  1.00  0.00     0.074 A 
ATOM     55  C   UNL A   1      49.602  30.313  27.062  1.00  0.00     0.029 A 
ATOM     56  N   UNL A   1      47.560  29.471  27.314  1.00  0.00    -0.354 N 
ATOM     57  N   UNL A   1      44.717  29.564  28.039  1.00  0.00    -0.248 NA
ATOM     58  C   UNL A   1      42.902  30.674  28.999  1.00  0.00     0.031 C 
ATOM     59  C   UNL A   1      48.797  31.280  27.675  1.00  0.00     0.029 A 
ATOM     60  C   UNL A   1      47.519  30.763  27.812  1.00  0.00     0.049 A 
ATOM     61  H   UNL A   1      46.794  28.852  27.284  1.00  0.00     0.167 HD
ATOM     62  C   UNL A   1      45.120  30.829  28.441  1.00  0.00     0.074 A 
ATOM     63  C   UNL A   1      43.953  31.482  28.997  1.00  0.00     0.031 C 
ATOM     64  C   UNL A   1      46.348  31.399  28.359  1.00  0.00     0.037 A 
BRANCH  51  65
ATOM     65  C   UNL A   1      50.683  27.723  25.935  1.00  0.00     0.064 A 
ATOM     66  C   UNL A   1      51.647  27.348  26.884  1.00  0.00     0.173 A 
ATOM     67  C   UNL A   1      51.103  27.888  24.606  1.00  0.00     0.173 A 
ATOM     68  F   UNL A   1      51.300  27.189  28.170  1.00  0.00    -0.203 F 
ATOM     69  C   UNL A   1      52.980  27.178  26.523  1.00  0.00     0.198 A 
ATOM     70  C   UNL A   1      52.432  27.685  24.242  1.00  0.00     0.198 A 
ATOM     71  F   UNL A   1      50.222  28.240  23.656  1.00  0.00    -0.203 F 
ATOM     72  F   UNL A   1      53.891  26.871  27.457  1.00  0.00    -0.200 F 
ATOM     73  C   UNL A   1      53.370  27.340  25.202  1.00  0.00     0.200 A 
ATOM     74  F   UNL A   1      52.804  27.831  22.963  1.00  0.00    -0.200 F 
ATOM     75  F   UNL A   1      54.654  27.170  24.856  1.00  0.00    -0.200 F 
ENDBRANCH  51  65
BRANCH  52  76
ATOM     76  C   UNL A   1      41.063  28.447  28.516  1.00  0.00     0.064 A 
ATOM     77  C   UNL A   1      40.104  28.977  27.641  1.00  0.00     0.173 A 
ATOM     78  C   UNL A   1      40.631  28.027  29.782  1.00  0.00     0.173 A 
ATOM     79  F   UNL A   1      40.473  29.412  26.428  1.00  0.00    -0.203 F 
ATOM     80  C   UNL A   1      38.770  29.099  28.024  1.00  0.00     0.198 A 
ATOM     81  C   UNL A   1      39.291  28.123  30.153  1.00  0.00     0.198 A 
ATOM     82  F   UNL A   1      41.508  27.508  30.654  1.00  0.00    -0.203 F 
ATOM     83  F   UNL A   1      37.882  29.649  27.185  1.00  0.00    -0.200 F 
ATOM     84  C   UNL A   1      38.363  28.666  29.277  1.00  0.00     0.200 A 
ATOM     85  F   UNL A   1      38.900  27.691  31.359  1.00  0.00    -0.200 F 
ATOM     86  F   UNL A   1      37.080  28.779  29.643  1.00  0.00    -0.200 F 
ENDBRANCH  52  76
BRANCH  64  87
ATOM     87  C   UNL A   1      46.485  32.809  28.856  1.00  0.00     0.064 A 
ATOM     88  C   UNL A   1      46.853  33.089  30.180  1.00  0.00     0.173 A 
ATOM     89  C   UNL A   1      46.283  33.892  27.987  1.00  0.00     0.173 A 
ATOM     90  F   UNL A   1      47.042  32.089  31.055  1.00  0.00    -0.203 F 
ATOM     91  C   UNL A   1      46.990  34.402  30.623  1.00  0.00     0.198 A 
ATOM     92  C   UNL A   1      46.450  35.203  28.424  1.00  0.00     0.198 A 
ATOM     93  F   UNL A   1      45.937  33.678  26.709  1.00  0.00    -0.203 F 
ATOM     94  F   UNL A   1      47.296  34.647  31.904  1.00  0.00    -0.200 F 
ATOM     95  C   UNL A   1      46.797  35.457  29.743  1.00  0.00     0.200 A 
ATOM     96  F   UNL A   1      46.276  36.221  27.570  1.00  0.00    -0.200 F 
ATOM     97  F   UNL A   1      46.936  36.720  30.168  1.00  0.00    -0.200 F 
ENDBRANCH  64  87
ENDBRANCH  38  39
ENDBRANCH  30  33
ENDBRANCH  28  29
ENDBRANCH  27  28
ENDBRANCH  26  27
ENDBRANCH   1  26
TORSDOF 15
ENDMDL
