MODEL 1
REMARK VINA RESULT:     -12.0      0.000      0.000
REMARK SMILES O=C(NCCCCCCNC(=O)[C@@]1([NH2+]C2CC2)CCC[C@@H](n2cncn2)C1)c1ccc(-c2c3nc(c(-c4c(F)c(F)c(F)c(F)c4F)c4ccc([nH]4)c(-c4c(F)c(F)c(F)c(F)c4F)c4nc(c(-c5c(F)c(F)c(F)c(F)c5F)c5ccc2[nH]5)C=C4)C=C3)cc1
REMARK SMILES IDX 6 1 5 2 4 3 3 4 1 5 2 6 28 8 29 9 90 10 30 11 89 12 31 13
REMARK SMILES IDX 32 14 33 15 83 16 34 17 88 18 82 19 84 20 35 21 87 22 81 23
REMARK SMILES IDX 80 24 36 26 68 27 48 28 67 29 49 30 52 31 66 32 85 33 50 34
REMARK SMILES IDX 51 35 65 37 86 38 53 39 37 40 38 41 46 42 39 43 40 44 44 45
REMARK SMILES IDX 47 46 41 47 42 48 45 49 43 50 69 51 70 52 78 53 71 54 72 55
REMARK SMILES IDX 76 56 79 57 73 58 74 59 77 60 75 61 54 62 55 63 63 64 56 65
REMARK SMILES IDX 57 66 61 67 64 68 58 69 59 70 62 71 60 72 7 73 8 74 9 75
REMARK SMILES IDX 10 76 11 77 12 79 13 80 18 81 27 82 19 83 21 84 20 85 14 86
REMARK SMILES IDX 15 89 16 90 17 91 22 92 23 93 26 94 24 95 25 96
REMARK H PARENT 3 7 84 25 52 36 10 78 14 87 14 88
REMARK Flexibility Score: inf
ROOT
ATOM      1  C   UNL A   1      40.472  20.833  26.775  1.00  0.00     0.002 C 
ENDROOT
BRANCH   1   2
ATOM      2  C   UNL A   1      40.942  19.575  26.036  1.00  0.00     0.021 C 
BRANCH   2   3
ATOM      3  C   UNL A   1      42.399  19.208  26.318  1.00  0.00     0.116 C 
BRANCH   3   4
ATOM      4  N   UNL A   1      43.292  19.553  25.232  1.00  0.00    -0.352 N 
ATOM      5  O   UNL A   1      44.611  20.637  23.825  1.00  0.00    -0.269 OA
ATOM      6  C   UNL A   1      43.888  20.712  24.824  1.00  0.00     0.251 C 
ATOM      7  H   UNL A   1      43.520  18.782  24.663  1.00  0.00     0.163 HD
BRANCH   6   8
ATOM      8  C   UNL A   1      43.697  22.042  25.467  1.00  0.00     0.039 A 
ATOM      9  C   UNL A   1      42.835  23.044  25.020  1.00  0.00     0.014 A 
ATOM     10  C   UNL A   1      44.453  22.284  26.629  1.00  0.00     0.014 A 
ATOM     11  C   UNL A   1      42.777  24.276  25.664  1.00  0.00     0.010 A 
ATOM     12  C   UNL A   1      44.374  23.500  27.300  1.00  0.00     0.010 A 
ATOM     13  C   UNL A   1      43.551  24.508  26.799  1.00  0.00    -0.014 A 
BRANCH  13  14
ATOM     14  C   UNL A   1      43.374  25.785  27.486  1.00  0.00     0.031 A 
ATOM     15  C   UNL A   1      44.383  26.849  27.186  1.00  0.00     0.074 A 
ATOM     16  C   UNL A   1      42.292  26.074  28.231  1.00  0.00     0.049 A 
ATOM     17  N   UNL A   1      45.073  27.574  28.010  1.00  0.00    -0.248 NA
ATOM     18  C   UNL A   1      44.678  27.117  25.769  1.00  0.00     0.031 C 
ATOM     19  C   UNL A   1      41.066  25.288  28.381  1.00  0.00     0.029 A 
ATOM     20  N   UNL A   1      42.022  27.215  28.929  1.00  0.00    -0.354 N 
ATOM     21  C   UNL A   1      45.785  28.485  27.229  1.00  0.00     0.074 A 
ATOM     22  C   UNL A   1      45.567  28.106  25.856  1.00  0.00     0.031 C 
ATOM     23  C   UNL A   1      40.109  26.064  28.935  1.00  0.00     0.029 A 
ATOM     24  C   UNL A   1      40.692  27.348  29.289  1.00  0.00     0.049 A 
ATOM     25  H   UNL A   1      42.709  27.882  29.156  1.00  0.00     0.167 HD
ATOM     26  C   UNL A   1      46.379  29.594  27.753  1.00  0.00     0.037 A 
ATOM     27  C   UNL A   1      40.092  28.463  29.768  1.00  0.00     0.037 A 
ATOM     28  C   UNL A   1      46.636  29.451  29.158  1.00  0.00     0.049 A 
ATOM     29  C   UNL A   1      41.143  29.370  30.287  1.00  0.00     0.074 A 
ATOM     30  C   UNL A   1      47.388  28.585  29.929  1.00  0.00     0.029 A 
ATOM     31  N   UNL A   1      45.858  30.142  30.052  1.00  0.00    -0.354 N 
ATOM     32  N   UNL A   1      41.849  29.149  31.360  1.00  0.00    -0.248 NA
ATOM     33  C   UNL A   1      41.672  30.386  29.390  1.00  0.00     0.031 C 
ATOM     34  C   UNL A   1      46.667  28.452  31.152  1.00  0.00     0.029 A 
ATOM     35  C   UNL A   1      45.534  29.257  31.045  1.00  0.00     0.049 A 
ATOM     36  H   UNL A   1      45.587  31.087  29.991  1.00  0.00     0.167 HD
ATOM     37  C   UNL A   1      43.095  29.686  31.079  1.00  0.00     0.074 A 
ATOM     38  C   UNL A   1      42.892  30.532  29.909  1.00  0.00     0.031 C 
ATOM     39  C   UNL A   1      44.227  29.180  31.649  1.00  0.00     0.037 A 
BRANCH  26  40
ATOM     40  C   UNL A   1      46.463  30.932  27.053  1.00  0.00     0.064 A 
ATOM     41  C   UNL A   1      47.689  31.629  27.028  1.00  0.00     0.173 A 
ATOM     42  C   UNL A   1      45.330  31.688  26.682  1.00  0.00     0.173 A 
ATOM     43  F   UNL A   1      48.832  31.017  27.373  1.00  0.00    -0.203 F 
ATOM     44  C   UNL A   1      47.760  32.996  26.744  1.00  0.00     0.198 A 
ATOM     45  C   UNL A   1      45.412  33.041  26.347  1.00  0.00     0.198 A 
ATOM     46  F   UNL A   1      44.092  31.184  26.735  1.00  0.00    -0.203 F 
ATOM     47  F   UNL A   1      48.929  33.641  26.865  1.00  0.00    -0.200 F 
ATOM     48  C   UNL A   1      46.620  33.703  26.413  1.00  0.00     0.200 A 
ATOM     49  F   UNL A   1      44.293  33.712  26.041  1.00  0.00    -0.200 F 
ATOM     50  F   UNL A   1      46.674  35.025  26.207  1.00  0.00    -0.200 F 
ENDBRANCH  26  40
BRANCH  27  51
ATOM     51  C   UNL A   1      38.699  28.903  29.544  1.00  0.00     0.064 A 
ATOM     52  C   UNL A   1      37.845  29.193  30.619  1.00  0.00     0.173 A 
ATOM     53  C   UNL A   1      38.252  29.287  28.263  1.00  0.00     0.173 A 
ATOM     54  F   UNL A   1      38.219  28.909  31.874  1.00  0.00    -0.203 F 
ATOM     55  C   UNL A   1      36.619  29.838  30.423  1.00  0.00     0.198 A 
ATOM     56  C   UNL A   1      37.025  29.917  28.068  1.00  0.00     0.198 A 
ATOM     57  F   UNL A   1      39.040  29.139  27.188  1.00  0.00    -0.203 F 
ATOM     58  F   UNL A   1      35.854  30.152  31.478  1.00  0.00    -0.200 F 
ATOM     59  C   UNL A   1      36.213  30.203  29.149  1.00  0.00     0.200 A 
ATOM     60  F   UNL A   1      36.662  30.296  26.835  1.00  0.00    -0.200 F 
ATOM     61  F   UNL A   1      35.063  30.866  28.968  1.00  0.00    -0.200 F 
ENDBRANCH  27  51
BRANCH  39  62
ATOM     62  C   UNL A   1      44.069  28.232  32.800  1.00  0.00     0.064 A 
ATOM     63  C   UNL A   1      43.891  26.848  32.641  1.00  0.00     0.173 A 
ATOM     64  C   UNL A   1      44.260  28.717  34.100  1.00  0.00     0.173 A 
ATOM     65  F   UNL A   1      43.814  26.298  31.422  1.00  0.00    -0.203 F 
ATOM     66  C   UNL A   1      43.854  25.995  33.742  1.00  0.00     0.198 A 
ATOM     67  C   UNL A   1      44.260  27.858  35.195  1.00  0.00     0.198 A 
ATOM     68  F   UNL A   1      44.500  30.022  34.304  1.00  0.00    -0.203 F 
ATOM     69  F   UNL A   1      43.674  24.678  33.566  1.00  0.00    -0.200 F 
ATOM     70  C   UNL A   1      44.045  26.500  35.017  1.00  0.00     0.200 A 
ATOM     71  F   UNL A   1      44.496  28.342  36.423  1.00  0.00    -0.200 F 
ATOM     72  F   UNL A   1      44.055  25.674  36.073  1.00  0.00    -0.200 F 
ENDBRANCH  39  62
ENDBRANCH  13  14
ENDBRANCH   6   8
ENDBRANCH   3   4
ENDBRANCH   2   3
ENDBRANCH   1   2
BRANCH   1  73
ATOM     73  C   UNL A   1      39.266  21.538  26.141  1.00  0.00     0.002 C 
BRANCH  73  74
ATOM     74  C   UNL A   1      38.342  20.623  25.326  1.00  0.00     0.021 C 
BRANCH  74  75
ATOM     75  C   UNL A   1      37.103  21.347  24.799  1.00  0.00     0.116 C 
BRANCH  75  76
ATOM     76  N   UNL A   1      36.377  21.968  25.893  1.00  0.00    -0.351 N 
ATOM     77  C   UNL A   1      35.077  22.252  26.172  1.00  0.00     0.281 C 
ATOM     78  H   UNL A   1      36.980  22.256  26.616  1.00  0.00     0.163 HD
ATOM     79  O   UNL A   1      34.973  23.160  27.010  1.00  0.00    -0.268 OA
BRANCH  77  80
ATOM     80  C   UNL A   1      33.802  21.544  25.548  1.00  0.00     0.177 C 
ATOM     81  C   UNL A   1      33.571  21.996  24.090  1.00  0.00     0.079 C 
ATOM     82  C   UNL A   1      33.969  20.015  25.500  1.00  0.00     0.106 C 
ATOM     83  C   UNL A   1      32.391  21.278  23.419  1.00  0.00     0.009 C 
ATOM     84  C   UNL A   1      32.861  19.193  24.826  1.00  0.00     0.116 C 
ATOM     85  C   UNL A   1      32.559  19.762  23.428  1.00  0.00     0.028 C 
BRANCH  80  86
ATOM     86  N   UNL A   1      32.609  21.806  26.402  1.00  0.00    -0.331 N 
ATOM     87  H   UNL A   1      32.969  22.131  27.300  1.00  0.00     0.347 HD
ATOM     88  H   UNL A   1      32.116  20.915  26.350  1.00  0.00     0.347 HD
BRANCH  86  89
ATOM     89  C   UNL A   1      31.551  22.758  26.018  1.00  0.00     0.183 C 
ATOM     90  C   UNL A   1      30.249  23.057  26.704  1.00  0.00     0.071 C 
ATOM     91  C   UNL A   1      31.391  23.998  26.876  1.00  0.00     0.071 C 
ENDBRANCH  86  89
ENDBRANCH  80  86
BRANCH  84  92
ATOM     92  N   UNL A   1      33.274  17.782  24.791  1.00  0.00    -0.250 N 
ATOM     93  C   UNL A   1      34.001  17.156  23.819  1.00  0.00     0.220 A 
ATOM     94  N   UNL A   1      32.826  16.884  25.690  1.00  0.00    -0.160 NA
ATOM     95  N   UNL A   1      34.026  15.863  24.045  1.00  0.00    -0.224 NA
ATOM     96  C   UNL A   1      33.310  15.742  25.198  1.00  0.00     0.246 A 
ENDBRANCH  84  92
ENDBRANCH  77  80
ENDBRANCH  75  76
ENDBRANCH  74  75
ENDBRANCH  73  74
ENDBRANCH   1  73
TORSDOF 16
ENDMDL
MODEL 2
REMARK VINA RESULT:     -11.9      3.064      8.579
REMARK SMILES O=C(NCCCCCCNC(=O)[C@@]1([NH2+]C2CC2)CCC[C@@H](n2cncn2)C1)c1ccc(-c2c3nc(c(-c4c(F)c(F)c(F)c(F)c4F)c4ccc([nH]4)c(-c4c(F)c(F)c(F)c(F)c4F)c4nc(c(-c5c(F)c(F)c(F)c(F)c5F)c5ccc2[nH]5)C=C4)C=C3)cc1
REMARK SMILES IDX 6 1 5 2 4 3 3 4 1 5 2 6 28 8 29 9 90 10 30 11 89 12 31 13
REMARK SMILES IDX 32 14 33 15 83 16 34 17 88 18 82 19 84 20 35 21 87 22 81 23
REMARK SMILES IDX 80 24 36 26 68 27 48 28 67 29 49 30 52 31 66 32 85 33 50 34
REMARK SMILES IDX 51 35 65 37 86 38 53 39 37 40 38 41 46 42 39 43 40 44 44 45
REMARK SMILES IDX 47 46 41 47 42 48 45 49 43 50 69 51 70 52 78 53 71 54 72 55
REMARK SMILES IDX 76 56 79 57 73 58 74 59 77 60 75 61 54 62 55 63 63 64 56 65
REMARK SMILES IDX 57 66 61 67 64 68 58 69 59 70 62 71 60 72 7 73 8 74 9 75
REMARK SMILES IDX 10 76 11 77 12 79 13 80 18 81 27 82 19 83 21 84 20 85 14 86
REMARK SMILES IDX 15 89 16 90 17 91 22 92 23 93 26 94 24 95 25 96
REMARK H PARENT 3 7 84 25 52 36 10 78 14 87 14 88
REMARK Flexibility Score: inf
ROOT
ATOM      1  C   UNL A   1      31.810  28.487  26.834  1.00  0.00     0.002 C 
ENDROOT
BRANCH   1   2
ATOM      2  C   UNL A   1      32.327  29.857  26.381  1.00  0.00     0.021 C 
BRANCH   2   3
ATOM      3  C   UNL A   1      33.747  30.164  26.857  1.00  0.00     0.116 C 
BRANCH   3   4
ATOM      4  N   UNL A   1      33.801  31.245  27.820  1.00  0.00    -0.352 N 
ATOM      5  O   UNL A   1      34.450  32.675  29.378  1.00  0.00    -0.269 OA
ATOM      6  C   UNL A   1      34.755  31.698  28.685  1.00  0.00     0.251 C 
ATOM      7  H   UNL A   1      32.968  31.768  27.857  1.00  0.00     0.163 HD
BRANCH   6   8
ATOM      8  C   UNL A   1      36.098  31.082  28.874  1.00  0.00     0.039 A 
ATOM      9  C   UNL A   1      37.301  31.778  29.003  1.00  0.00     0.014 A 
ATOM     10  C   UNL A   1      36.133  29.677  28.935  1.00  0.00     0.014 A 
ATOM     11  C   UNL A   1      38.510  31.099  29.117  1.00  0.00     0.010 A 
ATOM     12  C   UNL A   1      37.334  28.991  29.087  1.00  0.00     0.010 A 
ATOM     13  C   UNL A   1      38.529  29.706  29.151  1.00  0.00    -0.014 A 
BRANCH  13  14
ATOM     14  C   UNL A   1      39.818  29.055  29.371  1.00  0.00     0.031 A 
ATOM     15  C   UNL A   1      40.248  28.891  30.795  1.00  0.00     0.074 A 
ATOM     16  C   UNL A   1      40.532  28.487  28.382  1.00  0.00     0.049 A 
ATOM     17  N   UNL A   1      41.377  29.209  31.348  1.00  0.00    -0.248 NA
ATOM     18  C   UNL A   1      39.269  28.317  31.732  1.00  0.00     0.031 C 
ATOM     19  C   UNL A   1      40.129  28.271  26.991  1.00  0.00     0.029 A 
ATOM     20  N   UNL A   1      41.746  27.869  28.458  1.00  0.00    -0.354 N 
ATOM     21  C   UNL A   1      41.310  28.752  32.665  1.00  0.00     0.074 A 
ATOM     22  C   UNL A   1      39.963  28.285  32.869  1.00  0.00     0.031 C 
ATOM     23  C   UNL A   1      40.977  27.388  26.418  1.00  0.00     0.029 A 
ATOM     24  C   UNL A   1      42.042  27.082  27.359  1.00  0.00     0.049 A 
ATOM     25  H   UNL A   1      42.355  27.975  29.224  1.00  0.00     0.167 HD
ATOM     26  C   UNL A   1      42.413  28.636  33.458  1.00  0.00     0.037 A 
ATOM     27  C   UNL A   1      43.044  26.178  27.259  1.00  0.00     0.037 A 
ATOM     28  C   UNL A   1      43.486  29.479  33.010  1.00  0.00     0.049 A 
ATOM     29  C   UNL A   1      44.052  26.483  28.303  1.00  0.00     0.074 A 
ATOM     30  C   UNL A   1      43.651  30.841  32.841  1.00  0.00     0.029 A 
ATOM     31  N   UNL A   1      44.570  28.908  32.394  1.00  0.00    -0.354 N 
ATOM     32  N   UNL A   1      44.834  27.525  28.296  1.00  0.00    -0.248 NA
ATOM     33  C   UNL A   1      43.941  25.793  29.579  1.00  0.00     0.031 C 
ATOM     34  C   UNL A   1      44.527  30.974  31.725  1.00  0.00     0.029 A 
ATOM     35  C   UNL A   1      44.845  29.685  31.300  1.00  0.00     0.049 A 
ATOM     36  H   UNL A   1      45.054  28.100  32.681  1.00  0.00     0.167 HD
ATOM     37  C   UNL A   1      44.986  27.860  29.633  1.00  0.00     0.074 A 
ATOM     38  C   UNL A   1      44.516  26.696  30.375  1.00  0.00     0.031 C 
ATOM     39  C   UNL A   1      45.219  29.149  30.015  1.00  0.00     0.037 A 
BRANCH  26  40
ATOM     40  C   UNL A   1      42.626  27.535  34.472  1.00  0.00     0.064 A 
ATOM     41  C   UNL A   1      43.142  26.291  34.051  1.00  0.00     0.173 A 
ATOM     42  C   UNL A   1      42.062  27.550  35.766  1.00  0.00     0.173 A 
ATOM     43  F   UNL A   1      43.691  26.153  32.835  1.00  0.00    -0.203 F 
ATOM     44  C   UNL A   1      43.017  25.135  34.828  1.00  0.00     0.198 A 
ATOM     45  C   UNL A   1      41.988  26.405  36.561  1.00  0.00     0.198 A 
ATOM     46  F   UNL A   1      41.465  28.636  36.268  1.00  0.00    -0.203 F 
ATOM     47  F   UNL A   1      43.401  23.953  34.328  1.00  0.00    -0.200 F 
ATOM     48  C   UNL A   1      42.432  25.191  36.078  1.00  0.00     0.200 A 
ATOM     49  F   UNL A   1      41.405  26.476  37.766  1.00  0.00    -0.200 F 
ATOM     50  F   UNL A   1      42.250  24.076  36.796  1.00  0.00    -0.200 F 
ENDBRANCH  26  40
BRANCH  27  51
ATOM     51  C   UNL A   1      43.041  24.909  26.501  1.00  0.00     0.064 A 
ATOM     52  C   UNL A   1      43.860  24.729  25.377  1.00  0.00     0.173 A 
ATOM     53  C   UNL A   1      42.415  23.755  27.016  1.00  0.00     0.173 A 
ATOM     54  F   UNL A   1      44.533  25.766  24.859  1.00  0.00    -0.203 F 
ATOM     55  C   UNL A   1      44.047  23.466  24.805  1.00  0.00     0.198 A 
ATOM     56  C   UNL A   1      42.592  22.500  26.437  1.00  0.00     0.198 A 
ATOM     57  F   UNL A   1      41.693  23.810  28.144  1.00  0.00    -0.203 F 
ATOM     58  F   UNL A   1      44.881  23.321  23.765  1.00  0.00    -0.200 F 
ATOM     59  C   UNL A   1      43.417  22.353  25.339  1.00  0.00     0.200 A 
ATOM     60  F   UNL A   1      42.005  21.427  26.986  1.00  0.00    -0.200 F 
ATOM     61  F   UNL A   1      43.637  21.137  24.821  1.00  0.00    -0.200 F 
ENDBRANCH  27  51
BRANCH  39  62
ATOM     62  C   UNL A   1      45.594  30.139  28.954  1.00  0.00     0.064 A 
ATOM     63  C   UNL A   1      44.653  30.812  28.158  1.00  0.00     0.173 A 
ATOM     64  C   UNL A   1      46.934  30.533  28.848  1.00  0.00     0.173 A 
ATOM     65  F   UNL A   1      43.342  30.568  28.285  1.00  0.00    -0.203 F 
ATOM     66  C   UNL A   1      45.045  31.800  27.257  1.00  0.00     0.198 A 
ATOM     67  C   UNL A   1      47.319  31.546  27.974  1.00  0.00     0.198 A 
ATOM     68  F   UNL A   1      47.866  29.970  29.632  1.00  0.00    -0.203 F 
ATOM     69  F   UNL A   1      44.130  32.422  26.500  1.00  0.00    -0.200 F 
ATOM     70  C   UNL A   1      46.377  32.170  27.171  1.00  0.00     0.200 A 
ATOM     71  F   UNL A   1      48.600  31.939  27.930  1.00  0.00    -0.200 F 
ATOM     72  F   UNL A   1      46.749  33.152  26.338  1.00  0.00    -0.200 F 
ENDBRANCH  39  62
ENDBRANCH  13  14
ENDBRANCH   6   8
ENDBRANCH   3   4
ENDBRANCH   2   3
ENDBRANCH   1   2
BRANCH   1  73
ATOM     73  C   UNL A   1      31.468  27.519  25.694  1.00  0.00     0.002 C 
BRANCH  73  74
ATOM     74  C   UNL A   1      32.182  27.813  24.367  1.00  0.00     0.021 C 
BRANCH  74  75
ATOM     75  C   UNL A   1      33.390  26.906  24.129  1.00  0.00     0.116 C 
BRANCH  75  76
ATOM     76  N   UNL A   1      33.098  25.939  23.085  1.00  0.00    -0.351 N 
ATOM     77  C   UNL A   1      33.322  24.614  22.884  1.00  0.00     0.281 C 
ATOM     78  H   UNL A   1      32.614  26.349  22.332  1.00  0.00     0.163 HD
ATOM     79  O   UNL A   1      33.280  24.315  21.682  1.00  0.00    -0.268 OA
BRANCH  77  80
ATOM     80  C   UNL A   1      33.601  23.524  24.003  1.00  0.00     0.177 C 
ATOM     81  C   UNL A   1      33.377  22.096  23.460  1.00  0.00     0.079 C 
ATOM     82  C   UNL A   1      35.061  23.571  24.488  1.00  0.00     0.106 C 
ATOM     83  C   UNL A   1      33.711  21.005  24.486  1.00  0.00     0.009 C 
ATOM     84  C   UNL A   1      35.518  22.509  25.497  1.00  0.00     0.116 C 
ATOM     85  C   UNL A   1      35.149  21.104  24.986  1.00  0.00     0.028 C 
BRANCH  80  86
ATOM     86  N   UNL A   1      32.756  23.798  25.199  1.00  0.00    -0.331 N 
ATOM     87  H   UNL A   1      32.850  24.795  25.390  1.00  0.00     0.347 HD
ATOM     88  H   UNL A   1      33.118  23.120  25.870  1.00  0.00     0.347 HD
BRANCH  86  89
ATOM     89  C   UNL A   1      31.311  23.510  25.233  1.00  0.00     0.183 C 
ATOM     90  C   UNL A   1      30.547  22.587  26.138  1.00  0.00     0.071 C 
ATOM     91  C   UNL A   1      30.525  24.051  26.412  1.00  0.00     0.071 C 
ENDBRANCH  86  89
ENDBRANCH  80  86
BRANCH  84  92
ATOM     92  N   UNL A   1      36.960  22.670  25.734  1.00  0.00    -0.250 N 
ATOM     93  C   UNL A   1      37.919  21.698  25.695  1.00  0.00     0.220 A 
ATOM     94  N   UNL A   1      37.486  23.826  26.183  1.00  0.00    -0.160 NA
ATOM     95  N   UNL A   1      39.061  22.181  26.127  1.00  0.00    -0.224 NA
ATOM     96  C   UNL A   1      38.756  23.481  26.401  1.00  0.00     0.246 A 
ENDBRANCH  84  92
ENDBRANCH  77  80
ENDBRANCH  75  76
ENDBRANCH  74  75
ENDBRANCH  73  74
ENDBRANCH   1  73
TORSDOF 16
ENDMDL
MODEL 3
REMARK VINA RESULT:     -11.8      2.952      8.373
REMARK SMILES O=C(NCCCCCCNC(=O)[C@@]1([NH2+]C2CC2)CCC[C@@H](n2cncn2)C1)c1ccc(-c2c3nc(c(-c4c(F)c(F)c(F)c(F)c4F)c4ccc([nH]4)c(-c4c(F)c(F)c(F)c(F)c4F)c4nc(c(-c5c(F)c(F)c(F)c(F)c5F)c5ccc2[nH]5)C=C4)C=C3)cc1
REMARK SMILES IDX 6 1 5 2 4 3 3 4 1 5 2 6 28 8 29 9 90 10 30 11 89 12 31 13
REMARK SMILES IDX 32 14 33 15 83 16 34 17 88 18 82 19 84 20 35 21 87 22 81 23
REMARK SMILES IDX 80 24 36 26 68 27 48 28 67 29 49 30 52 31 66 32 85 33 50 34
REMARK SMILES IDX 51 35 65 37 86 38 53 39 37 40 38 41 46 42 39 43 40 44 44 45
REMARK SMILES IDX 47 46 41 47 42 48 45 49 43 50 69 51 70 52 78 53 71 54 72 55
REMARK SMILES IDX 76 56 79 57 73 58 74 59 77 60 75 61 54 62 55 63 63 64 56 65
REMARK SMILES IDX 57 66 61 67 64 68 58 69 59 70 62 71 60 72 7 73 8 74 9 75
REMARK SMILES IDX 10 76 11 77 12 79 13 80 18 81 27 82 19 83 21 84 20 85 14 86
REMARK SMILES IDX 15 89 16 90 17 91 22 92 23 93 26 94 24 95 25 96
REMARK H PARENT 3 7 84 25 52 36 10 78 14 87 14 88
REMARK Flexibility Score: inf
ROOT
ATOM      1  C   UNL A   1      32.041  29.968  26.212  1.00  0.00     0.002 C 
ENDROOT
BRANCH   1   2
ATOM      2  C   UNL A   1      33.133  29.785  27.272  1.00  0.00     0.021 C 
BRANCH   2   3
ATOM      3  C   UNL A   1      34.137  30.937  27.323  1.00  0.00     0.116 C 
BRANCH   3   4
ATOM      4  N   UNL A   1      34.127  31.642  28.588  1.00  0.00    -0.352 N 
ATOM      5  O   UNL A   1      34.670  32.474  30.564  1.00  0.00    -0.269 OA
ATOM      6  C   UNL A   1      35.022  31.772  29.610  1.00  0.00     0.251 C 
ATOM      7  H   UNL A   1      33.291  32.139  28.743  1.00  0.00     0.163 HD
BRANCH   6   8
ATOM      8  C   UNL A   1      36.353  31.104  29.669  1.00  0.00     0.039 A 
ATOM      9  C   UNL A   1      37.584  31.723  29.451  1.00  0.00     0.014 A 
ATOM     10  C   UNL A   1      36.345  29.732  29.983  1.00  0.00     0.014 A 
ATOM     11  C   UNL A   1      38.766  30.991  29.472  1.00  0.00     0.010 A 
ATOM     12  C   UNL A   1      37.526  29.000  30.043  1.00  0.00     0.010 A 
ATOM     13  C   UNL A   1      38.738  29.628  29.761  1.00  0.00    -0.014 A 
BRANCH  13  14
ATOM     14  C   UNL A   1      40.020  28.935  29.865  1.00  0.00     0.031 A 
ATOM     15  C   UNL A   1      40.596  28.802  31.239  1.00  0.00     0.074 A 
ATOM     16  C   UNL A   1      40.601  28.305  28.827  1.00  0.00     0.049 A 
ATOM     17  N   UNL A   1      41.789  29.095  31.655  1.00  0.00    -0.248 NA
ATOM     18  C   UNL A   1      39.706  28.299  32.297  1.00  0.00     0.031 C 
ATOM     19  C   UNL A   1      40.041  28.058  27.497  1.00  0.00     0.029 A 
ATOM     20  N   UNL A   1      41.794  27.644  28.795  1.00  0.00    -0.354 N 
ATOM     21  C   UNL A   1      41.851  28.686  32.988  1.00  0.00     0.074 A 
ATOM     22  C   UNL A   1      40.518  28.278  33.354  1.00  0.00     0.031 C 
ATOM     23  C   UNL A   1      40.790  27.124  26.870  1.00  0.00     0.029 A 
ATOM     24  C   UNL A   1      41.940  26.808  27.702  1.00  0.00     0.049 A 
ATOM     25  H   UNL A   1      42.486  27.751  29.486  1.00  0.00     0.167 HD
ATOM     26  C   UNL A   1      43.028  28.554  33.661  1.00  0.00     0.037 A 
ATOM     27  C   UNL A   1      42.893  25.863  27.529  1.00  0.00     0.037 A 
ATOM     28  C   UNL A   1      44.075  29.338  33.069  1.00  0.00     0.049 A 
ATOM     29  C   UNL A   1      44.018  26.164  28.446  1.00  0.00     0.074 A 
ATOM     30  C   UNL A   1      44.268  30.686  32.832  1.00  0.00     0.029 A 
ATOM     31  N   UNL A   1      45.065  28.705  32.362  1.00  0.00    -0.354 N 
ATOM     32  N   UNL A   1      44.831  27.174  28.315  1.00  0.00    -0.248 NA
ATOM     33  C   UNL A   1      44.024  25.522  29.752  1.00  0.00     0.031 C 
ATOM     34  C   UNL A   1      45.022  30.747  31.623  1.00  0.00     0.029 A 
ATOM     35  C   UNL A   1      45.246  29.433  31.216  1.00  0.00     0.049 A 
ATOM     36  H   UNL A   1      45.548  27.889  32.626  1.00  0.00     0.167 HD
ATOM     37  C   UNL A   1      45.140  27.548  29.614  1.00  0.00     0.074 A 
ATOM     38  C   UNL A   1      44.713  26.429  30.446  1.00  0.00     0.031 C 
ATOM     39  C   UNL A   1      45.458  28.839  29.920  1.00  0.00     0.037 A 
BRANCH  26  40
ATOM     40  C   UNL A   1      43.312  27.481  34.688  1.00  0.00     0.064 A 
ATOM     41  C   UNL A   1      43.567  27.848  36.027  1.00  0.00     0.173 A 
ATOM     42  C   UNL A   1      43.645  26.151  34.352  1.00  0.00     0.173 A 
ATOM     43  F   UNL A   1      43.302  29.090  36.458  1.00  0.00    -0.203 F 
ATOM     44  C   UNL A   1      44.191  26.980  36.928  1.00  0.00     0.198 A 
ATOM     45  C   UNL A   1      44.219  25.270  35.270  1.00  0.00     0.198 A 
ATOM     46  F   UNL A   1      43.533  25.685  33.103  1.00  0.00    -0.203 F 
ATOM     47  F   UNL A   1      44.533  27.421  38.146  1.00  0.00    -0.200 F 
ATOM     48  C   UNL A   1      44.524  25.695  36.546  1.00  0.00     0.200 A 
ATOM     49  F   UNL A   1      44.547  24.032  34.878  1.00  0.00    -0.200 F 
ATOM     50  F   UNL A   1      45.182  24.884  37.385  1.00  0.00    -0.200 F 
ENDBRANCH  26  40
BRANCH  27  51
ATOM     51  C   UNL A   1      42.762  24.570  26.825  1.00  0.00     0.064 A 
ATOM     52  C   UNL A   1      43.393  24.344  25.593  1.00  0.00     0.173 A 
ATOM     53  C   UNL A   1      42.218  23.441  27.470  1.00  0.00     0.173 A 
ATOM     54  F   UNL A   1      43.983  25.356  24.941  1.00  0.00    -0.203 F 
ATOM     55  C   UNL A   1      43.480  23.061  25.042  1.00  0.00     0.198 A 
ATOM     56  C   UNL A   1      42.294  22.165  26.915  1.00  0.00     0.198 A 
ATOM     57  F   UNL A   1      41.683  23.541  28.696  1.00  0.00    -0.203 F 
ATOM     58  F   UNL A   1      44.139  22.872  23.890  1.00  0.00    -0.200 F 
ATOM     59  C   UNL A   1      42.935  21.974  25.705  1.00  0.00     0.200 A 
ATOM     60  F   UNL A   1      41.794  21.118  27.584  1.00  0.00    -0.200 F 
ATOM     61  F   UNL A   1      43.063  20.738  25.202  1.00  0.00    -0.200 F 
ENDBRANCH  27  51
BRANCH  39  62
ATOM     62  C   UNL A   1      45.750  29.777  28.787  1.00  0.00     0.064 A 
ATOM     63  C   UNL A   1      44.753  30.472  28.083  1.00  0.00     0.173 A 
ATOM     64  C   UNL A   1      47.085  30.101  28.511  1.00  0.00     0.173 A 
ATOM     65  F   UNL A   1      43.457  30.297  28.371  1.00  0.00    -0.203 F 
ATOM     66  C   UNL A   1      45.081  31.411  27.108  1.00  0.00     0.198 A 
ATOM     67  C   UNL A   1      47.409  31.067  27.563  1.00  0.00     0.198 A 
ATOM     68  F   UNL A   1      48.076  29.515  29.201  1.00  0.00    -0.203 F 
ATOM     69  F   UNL A   1      44.112  32.055  26.442  1.00  0.00    -0.200 F 
ATOM     70  C   UNL A   1      46.409  31.712  26.854  1.00  0.00     0.200 A 
ATOM     71  F   UNL A   1      48.693  31.394  27.355  1.00  0.00    -0.200 F 
ATOM     72  F   UNL A   1      46.724  32.649  25.948  1.00  0.00    -0.200 F 
ENDBRANCH  39  62
ENDBRANCH  13  14
ENDBRANCH   6   8
ENDBRANCH   3   4
ENDBRANCH   2   3
ENDBRANCH   1   2
BRANCH   1  73
ATOM     73  C   UNL A   1      31.436  28.663  25.680  1.00  0.00     0.002 C 
BRANCH  73  74
ATOM     74  C   UNL A   1      31.434  27.500  26.682  1.00  0.00     0.021 C 
BRANCH  74  75
ATOM     75  C   UNL A   1      32.315  26.331  26.237  1.00  0.00     0.116 C 
BRANCH  75  76
ATOM     76  N   UNL A   1      31.891  25.104  26.887  1.00  0.00    -0.351 N 
ATOM     77  C   UNL A   1      32.028  23.772  26.653  1.00  0.00     0.281 C 
ATOM     78  H   UNL A   1      31.374  25.282  27.705  1.00  0.00     0.163 HD
ATOM     79  O   UNL A   1      31.149  23.110  27.223  1.00  0.00    -0.268 OA
BRANCH  77  80
ATOM     80  C   UNL A   1      33.153  23.079  25.774  1.00  0.00     0.177 C 
ATOM     81  C   UNL A   1      34.545  23.234  26.426  1.00  0.00     0.079 C 
ATOM     82  C   UNL A   1      32.912  21.565  25.637  1.00  0.00     0.106 C 
ATOM     83  C   UNL A   1      35.654  22.511  25.650  1.00  0.00     0.009 C 
ATOM     84  C   UNL A   1      33.972  20.733  24.902  1.00  0.00     0.116 C 
ATOM     85  C   UNL A   1      35.367  21.021  25.487  1.00  0.00     0.028 C 
BRANCH  80  86
ATOM     86  N   UNL A   1      33.128  23.632  24.391  1.00  0.00    -0.331 N 
ATOM     87  H   UNL A   1      33.884  23.169  23.887  1.00  0.00     0.347 HD
ATOM     88  H   UNL A   1      33.180  24.636  24.567  1.00  0.00     0.347 HD
BRANCH  86  89
ATOM     89  C   UNL A   1      31.942  23.542  23.521  1.00  0.00     0.183 C 
ATOM     90  C   UNL A   1      30.708  24.397  23.506  1.00  0.00     0.071 C 
ATOM     91  C   UNL A   1      31.762  24.629  22.480  1.00  0.00     0.071 C 
ENDBRANCH  86  89
ENDBRANCH  80  86
BRANCH  84  92
ATOM     92  N   UNL A   1      33.601  19.313  24.986  1.00  0.00    -0.250 N 
ATOM     93  C   UNL A   1      34.181  18.265  24.329  1.00  0.00     0.220 A 
ATOM     94  N   UNL A   1      32.498  18.899  25.641  1.00  0.00    -0.160 NA
ATOM     95  N   UNL A   1      33.475  17.175  24.518  1.00  0.00    -0.224 NA
ATOM     96  C   UNL A   1      32.468  17.602  25.332  1.00  0.00     0.246 A 
ENDBRANCH  84  92
ENDBRANCH  77  80
ENDBRANCH  75  76
ENDBRANCH  74  75
ENDBRANCH  73  74
ENDBRANCH   1  73
TORSDOF 16
ENDMDL
