MODEL 1
REMARK VINA RESULT:     -11.9      0.000      0.000
REMARK SMILES Cc1nc(NC(=O)[C@@H]2CCC[C@@H](C(=O)NCCCCCCNC(=O)c3ccc(-c4c5nc(c(-c6c(F)c(F)c(F)c(F)c6F)c6ccc([nH]6)c(-c6c(F)c(F)c(F)c(F)c6F)c6nc(c(-c7c(F)c(F)c(F)c(F)c7F)c7ccc4[nH]7)C=C6)C=C5)cc3)C2)ccc1Br
REMARK SMILES IDX 18 1 17 2 16 3 15 4 13 5 14 6 12 8 8 9 9 10 88 11 10 12
REMARK SMILES IDX 11 13 6 14 5 15 7 17 4 18 1 19 2 20 3 21 91 22 90 23 92 24
REMARK SMILES IDX 89 25 19 26 20 27 21 28 22 29 23 30 24 32 25 33 26 34 87 35
REMARK SMILES IDX 27 36 86 37 28 38 29 39 30 40 80 41 31 42 85 43 79 44 81 45
REMARK SMILES IDX 32 46 84 47 78 48 77 49 33 51 65 52 45 53 64 54 46 55 49 56
REMARK SMILES IDX 63 57 82 58 47 59 48 60 62 62 83 63 50 64 34 65 35 66 43 67
REMARK SMILES IDX 36 68 37 69 41 70 44 71 38 72 39 73 42 74 40 75 66 76 67 77
REMARK SMILES IDX 75 78 68 79 69 80 73 81 76 82 70 83 71 84 74 85 72 86 51 87
REMARK SMILES IDX 52 88 60 89 53 90 54 91 58 92 61 93 55 94 56 95 59 96 57 97
REMARK H PARENT 15 7 5 16 22 31 81 50 49 61
REMARK Flexibility Score: inf
ROOT
ATOM      1  C   UNL A   1      42.025  21.492  27.318  1.00  0.00     0.002 C 
ENDROOT
BRANCH   1   2
ATOM      2  C   UNL A   1      41.027  22.210  26.396  1.00  0.00     0.021 C 
BRANCH   2   3
ATOM      3  C   UNL A   1      39.652  21.543  26.318  1.00  0.00     0.116 C 
BRANCH   3   4
ATOM      4  N   UNL A   1      38.608  22.528  26.488  1.00  0.00    -0.356 N 
ATOM      5  C   UNL A   1      37.488  22.778  25.768  1.00  0.00     0.223 C 
ATOM      6  O   UNL A   1      36.819  23.749  26.126  1.00  0.00    -0.275 OA
ATOM      7  H   UNL A   1      38.734  23.122  27.264  1.00  0.00     0.163 HD
BRANCH   5   8
ATOM      8  C   UNL A   1      37.063  21.859  24.612  1.00  0.00     0.079 C 
ATOM      9  C   UNL A   1      34.551  21.952  24.976  1.00  0.00     0.079 C 
ATOM     10  C   UNL A   1      34.349  22.443  23.540  1.00  0.00     0.013 C 
ATOM     11  C   UNL A   1      35.799  21.053  25.010  1.00  0.00     0.027 C 
ATOM     12  C   UNL A   1      35.524  23.324  23.141  1.00  0.00     0.002 C 
ATOM     13  C   UNL A   1      36.850  22.577  23.263  1.00  0.00     0.013 C 
BRANCH   9  14
ATOM     14  C   UNL A   1      33.289  21.326  25.531  1.00  0.00     0.228 C 
ATOM     15  N   UNL A   1      32.087  21.969  25.437  1.00  0.00    -0.310 N 
ATOM     16  H   UNL A   1      31.354  21.437  25.823  1.00  0.00     0.171 HD
ATOM     17  O   UNL A   1      33.316  20.205  26.049  1.00  0.00    -0.274 OA
BRANCH  15  18
ATOM     18  C   UNL A   1      31.635  23.193  24.933  1.00  0.00     0.132 A 
ATOM     19  C   UNL A   1      31.613  26.529  26.493  1.00  0.00     0.068 C 
ATOM     20  C   UNL A   1      31.341  25.451  25.486  1.00  0.00     0.054 A 
ATOM     21  N   UNL A   1      31.816  24.211  25.801  1.00  0.00    -0.235 NA
ATOM     22  C   UNL A   1      30.663  25.709  24.299  1.00  0.00     0.039 A 
ATOM     23  C   UNL A   1      30.522  24.672  23.392  1.00  0.00     0.021 A 
ATOM     24  Br  UNL A   1      29.930  27.396  23.857  1.00  0.00    -0.049 Br
ATOM     25  C   UNL A   1      31.033  23.411  23.703  1.00  0.00     0.048 A 
ENDBRANCH  15  18
ENDBRANCH   9  14
ENDBRANCH   5   8
ENDBRANCH   3   4
ENDBRANCH   2   3
ENDBRANCH   1   2
BRANCH   1  26
ATOM     26  C   UNL A   1      41.709  20.019  27.604  1.00  0.00     0.002 C 
BRANCH  26  27
ATOM     27  C   UNL A   1      42.495  19.018  26.759  1.00  0.00     0.021 C 
BRANCH  27  28
ATOM     28  C   UNL A   1      42.575  19.376  25.280  1.00  0.00     0.116 C 
BRANCH  28  29
ATOM     29  N   UNL A   1      43.785  18.859  24.663  1.00  0.00    -0.352 N 
ATOM     30  C   UNL A   1      44.920  19.545  24.310  1.00  0.00     0.251 C 
ATOM     31  H   UNL A   1      43.791  17.894  24.472  1.00  0.00     0.163 HD
ATOM     32  O   UNL A   1      45.788  19.020  23.620  1.00  0.00    -0.269 OA
BRANCH  30  33
ATOM     33  C   UNL A   1      45.078  20.939  24.762  1.00  0.00     0.039 A 
ATOM     34  C   UNL A   1      44.747  21.978  23.891  1.00  0.00     0.014 A 
ATOM     35  C   UNL A   1      45.540  21.211  26.054  1.00  0.00     0.014 A 
ATOM     36  C   UNL A   1      44.842  23.298  24.330  1.00  0.00     0.010 A 
ATOM     37  C   UNL A   1      45.582  22.524  26.510  1.00  0.00     0.010 A 
ATOM     38  C   UNL A   1      45.248  23.577  25.645  1.00  0.00    -0.014 A 
BRANCH  38  39
ATOM     39  C   UNL A   1      45.396  24.976  26.109  1.00  0.00     0.031 A 
ATOM     40  C   UNL A   1      46.740  25.640  26.032  1.00  0.00     0.074 A 
ATOM     41  C   UNL A   1      44.338  25.634  26.620  1.00  0.00     0.049 A 
ATOM     42  N   UNL A   1      47.086  26.852  26.383  1.00  0.00    -0.248 NA
ATOM     43  C   UNL A   1      47.850  24.828  25.503  1.00  0.00     0.031 C 
ATOM     44  C   UNL A   1      42.995  25.078  26.778  1.00  0.00     0.029 A 
ATOM     45  N   UNL A   1      44.231  26.913  27.102  1.00  0.00    -0.354 N 
ATOM     46  C   UNL A   1      48.443  26.947  26.115  1.00  0.00     0.074 A 
ATOM     47  C   UNL A   1      48.876  25.654  25.632  1.00  0.00     0.031 C 
ATOM     48  C   UNL A   1      42.191  26.018  27.302  1.00  0.00     0.029 A 
ATOM     49  C   UNL A   1      42.969  27.234  27.535  1.00  0.00     0.049 A 
ATOM     50  H   UNL A   1      44.987  27.542  27.135  1.00  0.00     0.167 HD
ATOM     51  C   UNL A   1      49.251  28.026  26.229  1.00  0.00     0.037 A 
ATOM     52  C   UNL A   1      42.494  28.383  28.055  1.00  0.00     0.037 A 
ATOM     53  C   UNL A   1      48.812  29.316  26.685  1.00  0.00     0.049 A 
ATOM     54  C   UNL A   1      43.422  29.560  28.204  1.00  0.00     0.074 A 
ATOM     55  C   UNL A   1      49.536  30.490  26.773  1.00  0.00     0.029 A 
ATOM     56  N   UNL A   1      47.530  29.598  27.134  1.00  0.00    -0.354 N 
ATOM     57  N   UNL A   1      44.686  29.663  27.874  1.00  0.00    -0.248 NA
ATOM     58  C   UNL A   1      42.854  30.782  28.793  1.00  0.00     0.031 C 
ATOM     59  C   UNL A   1      48.704  31.475  27.314  1.00  0.00     0.029 A 
ATOM     60  C   UNL A   1      47.451  30.922  27.529  1.00  0.00     0.049 A 
ATOM     61  H   UNL A   1      46.788  28.951  27.167  1.00  0.00     0.167 HD
ATOM     62  C   UNL A   1      45.061  30.959  28.199  1.00  0.00     0.074 A 
ATOM     63  C   UNL A   1      43.888  31.613  28.737  1.00  0.00     0.031 C 
ATOM     64  C   UNL A   1      46.272  31.553  28.065  1.00  0.00     0.037 A 
BRANCH  51  65
ATOM     65  C   UNL A   1      50.686  27.864  25.831  1.00  0.00     0.064 A 
ATOM     66  C   UNL A   1      51.088  27.990  24.493  1.00  0.00     0.173 A 
ATOM     67  C   UNL A   1      51.674  27.628  26.797  1.00  0.00     0.173 A 
ATOM     68  F   UNL A   1      50.178  28.203  23.531  1.00  0.00    -0.203 F 
ATOM     69  C   UNL A   1      52.428  27.868  24.134  1.00  0.00     0.198 A 
ATOM     70  C   UNL A   1      53.015  27.532  26.437  1.00  0.00     0.198 A 
ATOM     71  F   UNL A   1      51.339  27.503  28.090  1.00  0.00    -0.203 F 
ATOM     72  F   UNL A   1      52.785  27.956  22.846  1.00  0.00    -0.200 F 
ATOM     73  C   UNL A   1      53.390  27.647  25.108  1.00  0.00     0.200 A 
ATOM     74  F   UNL A   1      53.947  27.327  27.379  1.00  0.00    -0.200 F 
ATOM     75  F   UNL A   1      54.681  27.539  24.762  1.00  0.00    -0.200 F 
ENDBRANCH  51  65
BRANCH  52  76
ATOM     76  C   UNL A   1      41.065  28.485  28.442  1.00  0.00     0.064 A 
ATOM     77  C   UNL A   1      40.641  28.117  29.726  1.00  0.00     0.173 A 
ATOM     78  C   UNL A   1      40.097  28.960  27.544  1.00  0.00     0.173 A 
ATOM     79  F   UNL A   1      41.528  27.639  30.611  1.00  0.00    -0.203 F 
ATOM     80  C   UNL A   1      39.300  28.207  30.095  1.00  0.00     0.198 A 
ATOM     81  C   UNL A   1      38.760  29.070  27.921  1.00  0.00     0.198 A 
ATOM     82  F   UNL A   1      40.453  29.327  26.305  1.00  0.00    -0.203 F 
ATOM     83  F   UNL A   1      38.916  27.819  31.317  1.00  0.00    -0.200 F 
ATOM     84  C   UNL A   1      38.362  28.689  29.194  1.00  0.00     0.200 A 
ATOM     85  F   UNL A   1      37.858  29.546  27.053  1.00  0.00    -0.200 F 
ATOM     86  F   UNL A   1      37.074  28.782  29.551  1.00  0.00    -0.200 F 
ENDBRANCH  52  76
BRANCH  64  87
ATOM     87  C   UNL A   1      46.400  32.979  28.507  1.00  0.00     0.064 A 
ATOM     88  C   UNL A   1      46.825  33.301  29.804  1.00  0.00     0.173 A 
ATOM     89  C   UNL A   1      46.188  34.029  27.601  1.00  0.00     0.173 A 
ATOM     90  F   UNL A   1      47.026  32.331  30.707  1.00  0.00    -0.203 F 
ATOM     91  C   UNL A   1      47.029  34.625  30.179  1.00  0.00     0.198 A 
ATOM     92  C   UNL A   1      46.417  35.350  27.973  1.00  0.00     0.198 A 
ATOM     93  F   UNL A   1      45.789  33.770  26.346  1.00  0.00    -0.203 F 
ATOM     94  F   UNL A   1      47.413  34.913  31.430  1.00  0.00    -0.200 F 
ATOM     95  C   UNL A   1      46.836  35.647  29.261  1.00  0.00     0.200 A 
ATOM     96  F   UNL A   1      46.246  36.336  27.081  1.00  0.00    -0.200 F 
ATOM     97  F   UNL A   1      47.055  36.920  29.618  1.00  0.00    -0.200 F 
ENDBRANCH  64  87
ENDBRANCH  38  39
ENDBRANCH  30  33
ENDBRANCH  28  29
ENDBRANCH  27  28
ENDBRANCH  26  27
ENDBRANCH   1  26
TORSDOF 15
ENDMDL
MODEL 2
REMARK VINA RESULT:     -11.9      1.211      1.984
REMARK SMILES Cc1nc(NC(=O)[C@@H]2CCC[C@@H](C(=O)NCCCCCCNC(=O)c3ccc(-c4c5nc(c(-c6c(F)c(F)c(F)c(F)c6F)c6ccc([nH]6)c(-c6c(F)c(F)c(F)c(F)c6F)c6nc(c(-c7c(F)c(F)c(F)c(F)c7F)c7ccc4[nH]7)C=C6)C=C5)cc3)C2)ccc1Br
REMARK SMILES IDX 18 1 17 2 16 3 15 4 13 5 14 6 12 8 8 9 9 10 88 11 10 12
REMARK SMILES IDX 11 13 6 14 5 15 7 17 4 18 1 19 2 20 3 21 91 22 90 23 92 24
REMARK SMILES IDX 89 25 19 26 20 27 21 28 22 29 23 30 24 32 25 33 26 34 87 35
REMARK SMILES IDX 27 36 86 37 28 38 29 39 30 40 80 41 31 42 85 43 79 44 81 45
REMARK SMILES IDX 32 46 84 47 78 48 77 49 33 51 65 52 45 53 64 54 46 55 49 56
REMARK SMILES IDX 63 57 82 58 47 59 48 60 62 62 83 63 50 64 34 65 35 66 43 67
REMARK SMILES IDX 36 68 37 69 41 70 44 71 38 72 39 73 42 74 40 75 66 76 67 77
REMARK SMILES IDX 75 78 68 79 69 80 73 81 76 82 70 83 71 84 74 85 72 86 51 87
REMARK SMILES IDX 52 88 60 89 53 90 54 91 58 92 61 93 55 94 56 95 59 96 57 97
REMARK H PARENT 15 7 5 16 22 31 81 50 49 61
REMARK Flexibility Score: inf
ROOT
ATOM      1  C   UNL A   1      40.700  22.085  26.440  1.00  0.00     0.002 C 
ENDROOT
BRANCH   1   2
ATOM      2  C   UNL A   1      39.322  22.753  26.569  1.00  0.00     0.021 C 
BRANCH   2   3
ATOM      3  C   UNL A   1      38.219  22.081  25.747  1.00  0.00     0.116 C 
BRANCH   3   4
ATOM      4  N   UNL A   1      37.206  23.047  25.387  1.00  0.00    -0.356 N 
ATOM      5  C   UNL A   1      35.858  23.024  25.528  1.00  0.00     0.223 C 
ATOM      6  O   UNL A   1      35.247  23.982  25.049  1.00  0.00    -0.275 OA
ATOM      7  H   UNL A   1      37.556  23.864  24.965  1.00  0.00     0.163 HD
BRANCH   5   8
ATOM      8  C   UNL A   1      35.156  21.891  26.293  1.00  0.00     0.079 C 
ATOM      9  C   UNL A   1      32.786  22.799  26.198  1.00  0.00     0.079 C 
ATOM     10  C   UNL A   1      32.305  21.507  25.535  1.00  0.00     0.013 C 
ATOM     11  C   UNL A   1      33.972  22.459  27.118  1.00  0.00     0.027 C 
ATOM     12  C   UNL A   1      33.405  20.966  24.634  1.00  0.00     0.002 C 
ATOM     13  C   UNL A   1      34.692  20.712  25.414  1.00  0.00     0.013 C 
BRANCH   9  14
ATOM     14  C   UNL A   1      31.646  23.540  26.864  1.00  0.00     0.228 C 
ATOM     15  N   UNL A   1      31.426  24.864  26.610  1.00  0.00    -0.310 N 
ATOM     16  H   UNL A   1      30.642  25.208  27.096  1.00  0.00     0.171 HD
ATOM     17  O   UNL A   1      30.870  22.952  27.624  1.00  0.00    -0.274 OA
BRANCH  15  18
ATOM     18  C   UNL A   1      32.034  25.856  25.833  1.00  0.00     0.132 A 
ATOM     19  C   UNL A   1      31.449  26.797  22.320  1.00  0.00     0.068 C 
ATOM     20  C   UNL A   1      32.088  26.774  23.677  1.00  0.00     0.054 A 
ATOM     21  N   UNL A   1      31.532  25.916  24.580  1.00  0.00    -0.235 NA
ATOM     22  C   UNL A   1      33.168  27.591  23.994  1.00  0.00     0.039 A 
ATOM     23  C   UNL A   1      33.648  27.560  25.292  1.00  0.00     0.021 A 
ATOM     24  Br  UNL A   1      34.010  28.742  22.751  1.00  0.00    -0.049 Br
ATOM     25  C   UNL A   1      33.060  26.702  26.223  1.00  0.00     0.048 A 
ENDBRANCH  15  18
ENDBRANCH   9  14
ENDBRANCH   5   8
ENDBRANCH   3   4
ENDBRANCH   2   3
ENDBRANCH   1   2
BRANCH   1  26
ATOM     26  C   UNL A   1      40.818  20.699  27.087  1.00  0.00     0.002 C 
BRANCH  26  27
ATOM     27  C   UNL A   1      41.298  19.592  26.149  1.00  0.00     0.021 C 
BRANCH  27  28
ATOM     28  C   UNL A   1      42.657  19.010  26.516  1.00  0.00     0.116 C 
BRANCH  28  29
ATOM     29  N   UNL A   1      43.446  18.692  25.338  1.00  0.00    -0.352 N 
ATOM     30  C   UNL A   1      44.161  19.547  24.537  1.00  0.00     0.251 C 
ATOM     31  H   UNL A   1      43.471  17.742  25.081  1.00  0.00     0.163 HD
ATOM     32  O   UNL A   1      44.622  19.172  23.464  1.00  0.00    -0.269 OA
BRANCH  30  33
ATOM     33  C   UNL A   1      44.356  20.940  24.979  1.00  0.00     0.039 A 
ATOM     34  C   UNL A   1      43.772  21.974  24.246  1.00  0.00     0.014 A 
ATOM     35  C   UNL A   1      45.108  21.213  26.127  1.00  0.00     0.014 A 
ATOM     36  C   UNL A   1      43.907  23.289  24.689  1.00  0.00     0.010 A 
ATOM     37  C   UNL A   1      45.195  22.519  26.598  1.00  0.00     0.010 A 
ATOM     38  C   UNL A   1      44.609  23.567  25.873  1.00  0.00    -0.014 A 
BRANCH  38  39
ATOM     39  C   UNL A   1      44.797  24.964  26.330  1.00  0.00     0.031 A 
ATOM     40  C   UNL A   1      46.154  25.597  26.221  1.00  0.00     0.074 A 
ATOM     41  C   UNL A   1      43.765  25.646  26.861  1.00  0.00     0.049 A 
ATOM     42  N   UNL A   1      46.533  26.803  26.561  1.00  0.00    -0.248 NA
ATOM     43  C   UNL A   1      47.233  24.760  25.672  1.00  0.00     0.031 C 
ATOM     44  C   UNL A   1      42.413  25.120  27.049  1.00  0.00     0.029 A 
ATOM     45  N   UNL A   1      43.697  26.928  27.341  1.00  0.00    -0.354 N 
ATOM     46  C   UNL A   1      47.886  26.867  26.263  1.00  0.00     0.074 A 
ATOM     47  C   UNL A   1      48.280  25.564  25.775  1.00  0.00     0.031 C 
ATOM     48  C   UNL A   1      41.642  26.080  27.588  1.00  0.00     0.029 A 
ATOM     49  C   UNL A   1      42.451  27.279  27.801  1.00  0.00     0.049 A 
ATOM     50  H   UNL A   1      44.467  27.540  27.356  1.00  0.00     0.167 HD
ATOM     51  C   UNL A   1      48.719  27.929  26.357  1.00  0.00     0.037 A 
ATOM     52  C   UNL A   1      42.013  28.439  28.327  1.00  0.00     0.037 A 
ATOM     53  C   UNL A   1      48.319  29.229  26.818  1.00  0.00     0.049 A 
ATOM     54  C   UNL A   1      42.969  29.596  28.452  1.00  0.00     0.074 A 
ATOM     55  C   UNL A   1      49.070  30.388  26.886  1.00  0.00     0.029 A 
ATOM     56  N   UNL A   1      47.054  29.540  27.293  1.00  0.00    -0.354 N 
ATOM     57  N   UNL A   1      44.228  29.670  28.095  1.00  0.00    -0.248 NA
ATOM     58  C   UNL A   1      42.441  30.832  29.049  1.00  0.00     0.031 C 
ATOM     59  C   UNL A   1      48.271  31.391  27.442  1.00  0.00     0.029 A 
ATOM     60  C   UNL A   1      47.012  30.867  27.686  1.00  0.00     0.049 A 
ATOM     61  H   UNL A   1      46.299  28.911  27.345  1.00  0.00     0.167 HD
ATOM     62  C   UNL A   1      44.639  30.958  28.407  1.00  0.00     0.074 A 
ATOM     63  C   UNL A   1      43.491  31.639  28.968  1.00  0.00     0.031 C 
ATOM     64  C   UNL A   1      45.859  31.525  28.245  1.00  0.00     0.037 A 
BRANCH  51  65
ATOM     65  C   UNL A   1      50.142  27.734  25.928  1.00  0.00     0.064 A 
ATOM     66  C   UNL A   1      50.501  27.744  24.572  1.00  0.00     0.173 A 
ATOM     67  C   UNL A   1      51.161  27.584  26.879  1.00  0.00     0.173 A 
ATOM     68  F   UNL A   1      49.559  27.871  23.625  1.00  0.00    -0.203 F 
ATOM     69  C   UNL A   1      51.828  27.592  24.183  1.00  0.00     0.198 A 
ATOM     70  C   UNL A   1      52.490  27.458  26.487  1.00  0.00     0.198 A 
ATOM     71  F   UNL A   1      50.868  27.571  28.188  1.00  0.00    -0.203 F 
ATOM     72  F   UNL A   1      52.144  27.568  22.881  1.00  0.00    -0.200 F 
ATOM     73  C   UNL A   1      52.822  27.458  25.141  1.00  0.00     0.200 A 
ATOM     74  F   UNL A   1      53.452  27.337  27.412  1.00  0.00    -0.200 F 
ATOM     75  F   UNL A   1      54.102  27.321  24.765  1.00  0.00    -0.200 F 
ENDBRANCH  51  65
BRANCH  52  76
ATOM     76  C   UNL A   1      40.595  28.574  28.744  1.00  0.00     0.064 A 
ATOM     77  C   UNL A   1      40.200  28.266  30.052  1.00  0.00     0.173 A 
ATOM     78  C   UNL A   1      39.610  29.019  27.850  1.00  0.00     0.173 A 
ATOM     79  F   UNL A   1      41.104  27.818  30.936  1.00  0.00    -0.203 F 
ATOM     80  C   UNL A   1      38.870  28.388  30.450  1.00  0.00     0.198 A 
ATOM     81  C   UNL A   1      38.283  29.160  28.255  1.00  0.00     0.198 A 
ATOM     82  F   UNL A   1      39.938  29.327  26.587  1.00  0.00    -0.203 F 
ATOM     83  F   UNL A   1      38.513  28.057  31.698  1.00  0.00    -0.200 F 
ATOM     84  C   UNL A   1      37.914  28.840  29.553  1.00  0.00     0.200 A 
ATOM     85  F   UNL A   1      37.364  29.608  27.389  1.00  0.00    -0.200 F 
ATOM     86  F   UNL A   1      36.636  28.962  29.937  1.00  0.00    -0.200 F 
ENDBRANCH  52  76
BRANCH  64  87
ATOM     87  C   UNL A   1      46.027  32.949  28.680  1.00  0.00     0.064 A 
ATOM     88  C   UNL A   1      45.723  34.012  27.817  1.00  0.00     0.173 A 
ATOM     89  C   UNL A   1      46.404  33.253  29.996  1.00  0.00     0.173 A 
ATOM     90  F   UNL A   1      45.372  33.769  26.546  1.00  0.00    -0.203 F 
ATOM     91  C   UNL A   1      45.795  35.330  28.257  1.00  0.00     0.198 A 
ATOM     92  C   UNL A   1      46.451  34.572  30.439  1.00  0.00     0.198 A 
ATOM     93  F   UNL A   1      46.697  32.270  30.861  1.00  0.00    -0.203 F 
ATOM     94  F   UNL A   1      45.522  36.332  27.410  1.00  0.00    -0.200 F 
ATOM     95  C   UNL A   1      46.147  35.609  29.570  1.00  0.00     0.200 A 
ATOM     96  F   UNL A   1      46.776  34.839  31.712  1.00  0.00    -0.200 F 
ATOM     97  F   UNL A   1      46.193  36.878  29.997  1.00  0.00    -0.200 F 
ENDBRANCH  64  87
ENDBRANCH  38  39
ENDBRANCH  30  33
ENDBRANCH  28  29
ENDBRANCH  27  28
ENDBRANCH  26  27
ENDBRANCH   1  26
TORSDOF 15
ENDMDL
MODEL 3
REMARK VINA RESULT:     -11.9      6.402     10.965
REMARK SMILES Cc1nc(NC(=O)[C@@H]2CCC[C@@H](C(=O)NCCCCCCNC(=O)c3ccc(-c4c5nc(c(-c6c(F)c(F)c(F)c(F)c6F)c6ccc([nH]6)c(-c6c(F)c(F)c(F)c(F)c6F)c6nc(c(-c7c(F)c(F)c(F)c(F)c7F)c7ccc4[nH]7)C=C6)C=C5)cc3)C2)ccc1Br
REMARK SMILES IDX 18 1 17 2 16 3 15 4 13 5 14 6 12 8 8 9 9 10 88 11 10 12
REMARK SMILES IDX 11 13 6 14 5 15 7 17 4 18 1 19 2 20 3 21 91 22 90 23 92 24
REMARK SMILES IDX 89 25 19 26 20 27 21 28 22 29 23 30 24 32 25 33 26 34 87 35
REMARK SMILES IDX 27 36 86 37 28 38 29 39 30 40 80 41 31 42 85 43 79 44 81 45
REMARK SMILES IDX 32 46 84 47 78 48 77 49 33 51 65 52 45 53 64 54 46 55 49 56
REMARK SMILES IDX 63 57 82 58 47 59 48 60 62 62 83 63 50 64 34 65 35 66 43 67
REMARK SMILES IDX 36 68 37 69 41 70 44 71 38 72 39 73 42 74 40 75 66 76 67 77
REMARK SMILES IDX 75 78 68 79 69 80 73 81 76 82 70 83 71 84 74 85 72 86 51 87
REMARK SMILES IDX 52 88 60 89 53 90 54 91 58 92 61 93 55 94 56 95 59 96 57 97
REMARK H PARENT 15 7 5 16 22 31 81 50 49 61
REMARK Flexibility Score: inf
ROOT
ATOM      1  C   UNL A   1      34.003  30.735  27.482  1.00  0.00     0.002 C 
ENDROOT
BRANCH   1   2
ATOM      2  C   UNL A   1      34.543  29.296  27.504  1.00  0.00     0.021 C 
BRANCH   2   3
ATOM      3  C   UNL A   1      34.123  28.449  26.300  1.00  0.00     0.116 C 
BRANCH   3   4
ATOM      4  N   UNL A   1      33.256  27.373  26.723  1.00  0.00    -0.356 N 
ATOM      5  C   UNL A   1      32.067  26.939  26.238  1.00  0.00     0.223 C 
ATOM      6  O   UNL A   1      31.525  26.029  26.868  1.00  0.00    -0.275 OA
ATOM      7  H   UNL A   1      33.587  26.868  27.501  1.00  0.00     0.163 HD
BRANCH   5   8
ATOM      8  C   UNL A   1      31.475  27.520  24.945  1.00  0.00     0.079 C 
ATOM      9  C   UNL A   1      32.287  25.731  23.335  1.00  0.00     0.079 C 
ATOM     10  C   UNL A   1      30.850  25.474  22.877  1.00  0.00     0.013 C 
ATOM     11  C   UNL A   1      32.408  27.210  23.746  1.00  0.00     0.027 C 
ATOM     12  C   UNL A   1      29.906  25.671  24.053  1.00  0.00     0.002 C 
ATOM     13  C   UNL A   1      30.029  27.074  24.641  1.00  0.00     0.013 C 
BRANCH   9  14
ATOM     14  C   UNL A   1      33.291  25.265  22.302  1.00  0.00     0.228 C 
ATOM     15  N   UNL A   1      33.650  23.949  22.217  1.00  0.00    -0.310 N 
ATOM     16  H   UNL A   1      34.295  23.790  21.490  1.00  0.00     0.171 HD
ATOM     17  O   UNL A   1      33.781  26.060  21.494  1.00  0.00    -0.274 OA
BRANCH  15  18
ATOM     18  C   UNL A   1      33.333  22.771  22.901  1.00  0.00     0.132 A 
ATOM     19  C   UNL A   1      34.976  21.209  25.804  1.00  0.00     0.068 C 
ATOM     20  C   UNL A   1      34.034  21.376  24.648  1.00  0.00     0.054 A 
ATOM     21  N   UNL A   1      34.162  22.535  23.941  1.00  0.00    -0.235 NA
ATOM     22  C   UNL A   1      33.081  20.413  24.334  1.00  0.00     0.039 A 
ATOM     23  C   UNL A   1      32.202  20.682  23.298  1.00  0.00     0.021 A 
ATOM     24  Br  UNL A   1      32.916  18.764  25.247  1.00  0.00    -0.049 Br
ATOM     25  C   UNL A   1      32.316  21.881  22.592  1.00  0.00     0.048 A 
ENDBRANCH  15  18
ENDBRANCH   9  14
ENDBRANCH   5   8
ENDBRANCH   3   4
ENDBRANCH   2   3
ENDBRANCH   1   2
BRANCH   1  26
ATOM     26  C   UNL A   1      32.515  30.870  27.138  1.00  0.00     0.002 C 
BRANCH  26  27
ATOM     27  C   UNL A   1      31.977  32.300  27.166  1.00  0.00     0.021 C 
BRANCH  27  28
ATOM     28  C   UNL A   1      33.057  33.374  27.115  1.00  0.00     0.116 C 
BRANCH  28  29
ATOM     29  N   UNL A   1      32.655  34.579  27.820  1.00  0.00    -0.352 N 
ATOM     30  C   UNL A   1      33.079  35.030  29.046  1.00  0.00     0.251 C 
ATOM     31  H   UNL A   1      31.994  35.146  27.361  1.00  0.00     0.163 HD
ATOM     32  O   UNL A   1      32.513  35.962  29.607  1.00  0.00    -0.269 OA
BRANCH  30  33
ATOM     33  C   UNL A   1      34.224  34.363  29.691  1.00  0.00     0.039 A 
ATOM     34  C   UNL A   1      33.989  33.471  30.739  1.00  0.00     0.014 A 
ATOM     35  C   UNL A   1      35.526  34.614  29.246  1.00  0.00     0.014 A 
ATOM     36  C   UNL A   1      35.062  32.795  31.318  1.00  0.00     0.010 A 
ATOM     37  C   UNL A   1      36.589  33.899  29.786  1.00  0.00     0.010 A 
ATOM     38  C   UNL A   1      36.366  32.997  30.837  1.00  0.00    -0.014 A 
BRANCH  38  39
ATOM     39  C   UNL A   1      37.519  32.319  31.474  1.00  0.00     0.031 A 
ATOM     40  C   UNL A   1      38.209  31.202  30.747  1.00  0.00     0.074 A 
ATOM     41  C   UNL A   1      37.924  32.687  32.704  1.00  0.00     0.049 A 
ATOM     42  N   UNL A   1      39.233  30.479  31.123  1.00  0.00    -0.248 NA
ATOM     43  C   UNL A   1      37.667  30.836  29.427  1.00  0.00     0.031 C 
ATOM     44  C   UNL A   1      37.307  33.733  33.518  1.00  0.00     0.029 A 
ATOM     45  N   UNL A   1      38.951  32.218  33.482  1.00  0.00    -0.354 N 
ATOM     46  C   UNL A   1      39.457  29.582  30.089  1.00  0.00     0.074 A 
ATOM     47  C   UNL A   1      38.428  29.804  29.097  1.00  0.00     0.031 C 
ATOM     48  C   UNL A   1      37.980  33.840  34.676  1.00  0.00     0.029 A 
ATOM     49  C   UNL A   1      39.062  32.857  34.692  1.00  0.00     0.049 A 
ATOM     50  H   UNL A   1      39.552  31.491  33.201  1.00  0.00     0.167 HD
ATOM     51  C   UNL A   1      40.454  28.675  29.962  1.00  0.00     0.037 A 
ATOM     52  C   UNL A   1      39.942  32.672  35.695  1.00  0.00     0.037 A 
ATOM     53  C   UNL A   1      41.489  28.474  30.937  1.00  0.00     0.049 A 
ATOM     54  C   UNL A   1      41.021  31.634  35.544  1.00  0.00     0.074 A 
ATOM     55  C   UNL A   1      42.581  27.628  30.872  1.00  0.00     0.029 A 
ATOM     56  N   UNL A   1      41.557  29.127  32.159  1.00  0.00    -0.354 N 
ATOM     57  N   UNL A   1      41.271  30.844  34.528  1.00  0.00    -0.248 NA
ATOM     58  C   UNL A   1      41.943  31.463  36.677  1.00  0.00     0.031 C 
ATOM     59  C   UNL A   1      43.288  27.739  32.073  1.00  0.00     0.029 A 
ATOM     60  C   UNL A   1      42.657  28.680  32.870  1.00  0.00     0.049 A 
ATOM     61  H   UNL A   1      40.917  29.806  32.473  1.00  0.00     0.167 HD
ATOM     62  C   UNL A   1      42.384  30.097  34.889  1.00  0.00     0.074 A 
ATOM     63  C   UNL A   1      42.772  30.538  36.212  1.00  0.00     0.031 C 
ATOM     64  C   UNL A   1      43.025  29.131  34.188  1.00  0.00     0.037 A 
BRANCH  51  65
ATOM     65  C   UNL A   1      40.485  27.850  28.712  1.00  0.00     0.064 A 
ATOM     66  C   UNL A   1      41.213  28.262  27.586  1.00  0.00     0.173 A 
ATOM     67  C   UNL A   1      39.823  26.615  28.653  1.00  0.00     0.173 A 
ATOM     68  F   UNL A   1      41.851  29.442  27.589  1.00  0.00    -0.203 F 
ATOM     69  C   UNL A   1      41.261  27.476  26.439  1.00  0.00     0.198 A 
ATOM     70  C   UNL A   1      39.896  25.820  27.513  1.00  0.00     0.198 A 
ATOM     71  F   UNL A   1      39.117  26.176  29.706  1.00  0.00    -0.203 F 
ATOM     72  F   UNL A   1      41.933  27.906  25.361  1.00  0.00    -0.200 F 
ATOM     73  C   UNL A   1      40.610  26.252  26.407  1.00  0.00     0.200 A 
ATOM     74  F   UNL A   1      39.273  24.633  27.486  1.00  0.00    -0.200 F 
ATOM     75  F   UNL A   1      40.666  25.491  25.304  1.00  0.00    -0.200 F 
ENDBRANCH  51  65
BRANCH  52  76
ATOM     76  C   UNL A   1      39.858  33.513  36.916  1.00  0.00     0.064 A 
ATOM     77  C   UNL A   1      39.020  33.152  37.979  1.00  0.00     0.173 A 
ATOM     78  C   UNL A   1      40.618  34.684  37.050  1.00  0.00     0.173 A 
ATOM     79  F   UNL A   1      38.260  32.051  37.887  1.00  0.00    -0.203 F 
ATOM     80  C   UNL A   1      38.934  33.937  39.127  1.00  0.00     0.198 A 
ATOM     81  C   UNL A   1      40.548  35.458  38.207  1.00  0.00     0.198 A 
ATOM     82  F   UNL A   1      41.437  35.071  36.062  1.00  0.00    -0.203 F 
ATOM     83  F   UNL A   1      38.101  33.588  40.115  1.00  0.00    -0.200 F 
ATOM     84  C   UNL A   1      39.703  35.086  39.243  1.00  0.00     0.200 A 
ATOM     85  F   UNL A   1      41.300  36.561  38.321  1.00  0.00    -0.200 F 
ATOM     86  F   UNL A   1      39.625  35.838  40.349  1.00  0.00    -0.200 F 
ENDBRANCH  52  76
BRANCH  64  87
ATOM     87  C   UNL A   1      44.210  28.476  34.830  1.00  0.00     0.064 A 
ATOM     88  C   UNL A   1      45.489  29.043  34.738  1.00  0.00     0.173 A 
ATOM     89  C   UNL A   1      44.050  27.327  35.619  1.00  0.00     0.173 A 
ATOM     90  F   UNL A   1      45.691  30.132  33.984  1.00  0.00    -0.203 F 
ATOM     91  C   UNL A   1      46.569  28.479  35.412  1.00  0.00     0.198 A 
ATOM     92  C   UNL A   1      45.128  26.781  36.310  1.00  0.00     0.198 A 
ATOM     93  F   UNL A   1      42.844  26.754  35.743  1.00  0.00    -0.203 F 
ATOM     94  F   UNL A   1      47.787  29.023  35.294  1.00  0.00    -0.200 F 
ATOM     95  C   UNL A   1      46.385  27.356  36.207  1.00  0.00     0.200 A 
ATOM     96  F   UNL A   1      44.946  25.705  37.090  1.00  0.00    -0.200 F 
ATOM     97  F   UNL A   1      47.421  26.828  36.872  1.00  0.00    -0.200 F 
ENDBRANCH  64  87
ENDBRANCH  38  39
ENDBRANCH  30  33
ENDBRANCH  28  29
ENDBRANCH  27  28
ENDBRANCH  26  27
ENDBRANCH   1  26
TORSDOF 15
ENDMDL
