MODEL 1
REMARK VINA RESULT:     -10.8      0.000      0.000
REMARK SMILES [NH3+]CCOCC(=O)N[C@H](C(=O)NCCCCCCNC(=O)c1ccc(-c2c3nc(c(-c4c(F)c(F)c(F)c(F)c4F)c4ccc([nH]4)c(-c4c(F)c(F)c(F)c(F)c4F)c4nc(c(-c5c(F)c(F)c(F)c(F)c5F)c5ccc2[nH]5)C=C4)C=C3)cc1)C1CCCCC1
REMARK SMILES IDX 13 1 12 2 10 3 11 4 9 6 8 7 6 8 7 9 5 11 4 12 3 13 2 14 1 15
REMARK SMILES IDX 85 19 86 20 90 21 87 22 89 23 88 24 14 25 15 26 16 27 17 28
REMARK SMILES IDX 18 29 19 30 20 31 21 33 22 34 23 35 84 36 24 37 83 38 25 39
REMARK SMILES IDX 26 40 27 41 77 42 28 43 82 44 76 45 78 46 29 47 81 48 75 49
REMARK SMILES IDX 74 50 30 52 62 53 42 54 61 55 43 56 46 57 60 58 79 59 44 60
REMARK SMILES IDX 45 61 59 63 80 64 47 65 31 66 32 67 40 68 33 69 34 70 38 71
REMARK SMILES IDX 41 72 35 73 36 74 39 75 37 76 63 77 64 78 72 79 65 80 66 81
REMARK SMILES IDX 70 82 73 83 67 84 68 85 71 86 69 87 48 88 49 89 57 90 50 91
REMARK SMILES IDX 51 92 55 93 58 94 52 95 53 96 56 97 54 98
REMARK H PARENT 12 5 8 10 1 16 1 17 1 18 19 32 78 51 46 62
REMARK Flexibility Score: inf
ROOT
ATOM      1  C   UNL A   1      32.771  27.626  26.849  1.00  0.00     0.116 C 
ENDROOT
BRANCH   1   2
ATOM      2  N   UNL A   1      33.571  28.101  25.738  1.00  0.00    -0.354 N 
ATOM      3  C   UNL A   1      33.710  27.556  24.491  1.00  0.00     0.242 C 
ATOM      4  O   UNL A   1      34.223  28.247  23.610  1.00  0.00    -0.273 OA
ATOM      5  H   UNL A   1      34.083  28.926  25.903  1.00  0.00     0.163 HD
BRANCH   3   6
ATOM      6  C   UNL A   1      33.118  26.161  24.176  1.00  0.00     0.174 C 
BRANCH   6   7
ATOM      7  N   UNL A   1      32.520  26.114  22.826  1.00  0.00    -0.342 N 
ATOM      8  C   UNL A   1      31.341  26.611  22.355  1.00  0.00     0.246 C 
ATOM      9  O   UNL A   1      31.099  26.446  21.153  1.00  0.00    -0.272 OA
ATOM     10  H   UNL A   1      33.065  25.646  22.152  1.00  0.00     0.164 HD
BRANCH   8  11
ATOM     11  C   UNL A   1      30.350  27.376  23.243  1.00  0.00     0.260 C 
BRANCH  11  12
ATOM     12  O   UNL A   1      30.590  28.761  23.386  1.00  0.00    -0.366 OA
BRANCH  12  13
ATOM     13  C   UNL A   1      29.814  29.603  22.534  1.00  0.00     0.222 C 
BRANCH  13  14
ATOM     14  C   UNL A   1      28.462  30.035  23.127  1.00  0.00     0.287 C 
BRANCH  14  15
ATOM     15  N   UNL A   1      27.290  29.289  22.661  1.00  0.00    -0.356 N 
ATOM     16  H   UNL A   1      27.371  29.117  21.659  1.00  0.00     0.344 HD
ATOM     17  H   UNL A   1      26.446  29.830  22.846  1.00  0.00     0.344 HD
ATOM     18  H   UNL A   1      27.236  28.397  23.155  1.00  0.00     0.344 HD
ENDBRANCH  14  15
ENDBRANCH  13  14
ENDBRANCH  12  13
ENDBRANCH  11  12
ENDBRANCH   8  11
ENDBRANCH   6   7
BRANCH   6  19
ATOM     19  C   UNL A   1      34.218  25.037  24.452  1.00  0.00     0.021 C 
ATOM     20  C   UNL A   1      34.013  24.252  25.766  1.00  0.00     0.006 C 
ATOM     21  C   UNL A   1      34.447  24.055  23.270  1.00  0.00     0.006 C 
ATOM     22  C   UNL A   1      35.047  23.147  25.984  1.00  0.00     0.000 C 
ATOM     23  C   UNL A   1      35.430  22.922  23.537  1.00  0.00     0.000 C 
ATOM     24  C   UNL A   1      35.069  22.178  24.811  1.00  0.00     0.000 C 
ENDBRANCH   6  19
ENDBRANCH   3   6
ENDBRANCH   1   2
BRANCH   1  25
ATOM     25  C   UNL A   1      31.781  28.670  27.327  1.00  0.00     0.021 C 
BRANCH  25  26
ATOM     26  C   UNL A   1      32.279  30.098  27.096  1.00  0.00     0.002 C 
BRANCH  26  27
ATOM     27  C   UNL A   1      31.401  30.943  26.161  1.00  0.00     0.002 C 
BRANCH  27  28
ATOM     28  C   UNL A   1      31.340  32.436  26.502  1.00  0.00     0.021 C 
BRANCH  28  29
ATOM     29  C   UNL A   1      32.555  32.943  27.259  1.00  0.00     0.116 C 
BRANCH  29  30
ATOM     30  N   UNL A   1      32.400  34.338  27.624  1.00  0.00    -0.352 N 
ATOM     31  C   UNL A   1      32.963  35.010  28.675  1.00  0.00     0.251 C 
ATOM     32  H   UNL A   1      31.812  34.870  27.041  1.00  0.00     0.163 HD
ATOM     33  O   UNL A   1      32.531  36.099  29.027  1.00  0.00    -0.269 OA
BRANCH  31  34
ATOM     34  C   UNL A   1      34.103  34.393  29.374  1.00  0.00     0.039 A 
ATOM     35  C   UNL A   1      33.870  33.659  30.537  1.00  0.00     0.014 A 
ATOM     36  C   UNL A   1      35.399  34.544  28.869  1.00  0.00     0.014 A 
ATOM     37  C   UNL A   1      34.942  33.051  31.185  1.00  0.00     0.010 A 
ATOM     38  C   UNL A   1      36.451  33.867  29.466  1.00  0.00     0.010 A 
ATOM     39  C   UNL A   1      36.236  33.137  30.644  1.00  0.00    -0.014 A 
BRANCH  39  40
ATOM     40  C   UNL A   1      37.395  32.514  31.323  1.00  0.00     0.031 A 
ATOM     41  C   UNL A   1      38.110  31.370  30.661  1.00  0.00     0.074 A 
ATOM     42  C   UNL A   1      37.759  32.937  32.546  1.00  0.00     0.049 A 
ATOM     43  N   UNL A   1      39.089  30.630  31.117  1.00  0.00    -0.248 NA
ATOM     44  C   UNL A   1      37.640  30.983  29.321  1.00  0.00     0.031 C 
ATOM     45  C   UNL A   1      37.112  34.014  33.296  1.00  0.00     0.029 A 
ATOM     46  N   UNL A   1      38.757  32.504  33.380  1.00  0.00    -0.354 N 
ATOM     47  C   UNL A   1      39.337  29.687  30.128  1.00  0.00     0.074 A 
ATOM     48  C   UNL A   1      38.368  29.904  29.078  1.00  0.00     0.031 C 
ATOM     49  C   UNL A   1      37.744  34.173  34.470  1.00  0.00     0.029 A 
ATOM     50  C   UNL A   1      38.811  33.181  34.573  1.00  0.00     0.049 A 
ATOM     51  H   UNL A   1      39.378  31.776  33.146  1.00  0.00     0.167 HD
ATOM     52  C   UNL A   1      40.307  28.743  30.090  1.00  0.00     0.037 A 
ATOM     53  C   UNL A   1      39.623  33.010  35.632  1.00  0.00     0.037 A 
ATOM     54  C   UNL A   1      41.280  28.552  31.131  1.00  0.00     0.049 A 
ATOM     55  C   UNL A   1      40.681  31.939  35.572  1.00  0.00     0.074 A 
ATOM     56  C   UNL A   1      42.336  27.658  31.173  1.00  0.00     0.029 A 
ATOM     57  N   UNL A   1      41.312  29.269  32.319  1.00  0.00    -0.354 N 
ATOM     58  N   UNL A   1      40.949  31.093  34.607  1.00  0.00    -0.248 NA
ATOM     59  C   UNL A   1      41.552  31.805  36.746  1.00  0.00     0.031 C 
ATOM     60  C   UNL A   1      42.972  27.796  32.410  1.00  0.00     0.029 A 
ATOM     61  C   UNL A   1      42.357  28.820  33.112  1.00  0.00     0.049 A 
ATOM     62  H   UNL A   1      40.686  29.988  32.563  1.00  0.00     0.167 HD
ATOM     63  C   UNL A   1      42.042  30.354  35.040  1.00  0.00     0.074 A 
ATOM     64  C   UNL A   1      42.391  30.858  36.351  1.00  0.00     0.031 C 
ATOM     65  C   UNL A   1      42.699  29.350  34.408  1.00  0.00     0.037 A 
BRANCH  52  66
ATOM     66  C   UNL A   1      40.358  27.847  28.885  1.00  0.00     0.064 A 
ATOM     67  C   UNL A   1      41.125  28.172  27.754  1.00  0.00     0.173 A 
ATOM     68  C   UNL A   1      39.652  26.635  28.869  1.00  0.00     0.173 A 
ATOM     69  F   UNL A   1      41.809  29.326  27.711  1.00  0.00    -0.203 F 
ATOM     70  C   UNL A   1      41.157  27.335  26.643  1.00  0.00     0.198 A 
ATOM     71  C   UNL A   1      39.715  25.782  27.770  1.00  0.00     0.198 A 
ATOM     72  F   UNL A   1      38.908  26.272  29.923  1.00  0.00    -0.203 F 
ATOM     73  F   UNL A   1      41.850  27.695  25.553  1.00  0.00    -0.200 F 
ATOM     74  C   UNL A   1      40.458  26.137  26.655  1.00  0.00     0.200 A 
ATOM     75  F   UNL A   1      39.052  24.618  27.789  1.00  0.00    -0.200 F 
ATOM     76  F   UNL A   1      40.496  25.327  25.587  1.00  0.00    -0.200 F 
ENDBRANCH  52  66
BRANCH  53  77
ATOM     77  C   UNL A   1      39.485  33.884  36.826  1.00  0.00     0.064 A 
ATOM     78  C   UNL A   1      40.115  35.136  36.879  1.00  0.00     0.173 A 
ATOM     79  C   UNL A   1      38.728  33.489  37.938  1.00  0.00     0.173 A 
ATOM     80  F   UNL A   1      40.864  35.552  35.846  1.00  0.00    -0.203 F 
ATOM     81  C   UNL A   1      40.016  35.946  38.008  1.00  0.00     0.198 A 
ATOM     82  C   UNL A   1      38.603  34.313  39.054  1.00  0.00     0.198 A 
ATOM     83  F   UNL A   1      38.096  32.306  37.936  1.00  0.00    -0.203 F 
ATOM     84  F   UNL A   1      40.672  37.113  38.052  1.00  0.00    -0.200 F 
ATOM     85  C   UNL A   1      39.256  35.536  39.093  1.00  0.00     0.200 A 
ATOM     86  F   UNL A   1      37.852  33.922  40.093  1.00  0.00    -0.200 F 
ATOM     87  F   UNL A   1      39.158  36.317  40.178  1.00  0.00    -0.200 F 
ENDBRANCH  53  77
BRANCH  65  88
ATOM     88  C   UNL A   1      43.897  28.766  35.098  1.00  0.00     0.064 A 
ATOM     89  C   UNL A   1      43.793  27.664  35.959  1.00  0.00     0.173 A 
ATOM     90  C   UNL A   1      45.176  29.288  34.850  1.00  0.00     0.173 A 
ATOM     91  F   UNL A   1      42.592  27.137  36.241  1.00  0.00    -0.203 F 
ATOM     92  C   UNL A   1      44.924  27.123  36.567  1.00  0.00     0.198 A 
ATOM     93  C   UNL A   1      46.307  28.722  35.430  1.00  0.00     0.198 A 
ATOM     94  F   UNL A   1      45.331  30.337  34.027  1.00  0.00    -0.203 F 
ATOM     95  F   UNL A   1      44.797  26.102  37.425  1.00  0.00    -0.200 F 
ATOM     96  C   UNL A   1      46.180  27.646  36.293  1.00  0.00     0.200 A 
ATOM     97  F   UNL A   1      47.521  29.218  35.151  1.00  0.00    -0.200 F 
ATOM     98  F   UNL A   1      47.267  27.115  36.868  1.00  0.00    -0.200 F 
ENDBRANCH  65  88
ENDBRANCH  39  40
ENDBRANCH  31  34
ENDBRANCH  29  30
ENDBRANCH  28  29
ENDBRANCH  27  28
ENDBRANCH  26  27
ENDBRANCH  25  26
ENDBRANCH   1  25
TORSDOF 20
ENDMDL
MODEL 2
REMARK VINA RESULT:     -10.8      1.098      7.473
REMARK SMILES [NH3+]CCOCC(=O)N[C@H](C(=O)NCCCCCCNC(=O)c1ccc(-c2c3nc(c(-c4c(F)c(F)c(F)c(F)c4F)c4ccc([nH]4)c(-c4c(F)c(F)c(F)c(F)c4F)c4nc(c(-c5c(F)c(F)c(F)c(F)c5F)c5ccc2[nH]5)C=C4)C=C3)cc1)C1CCCCC1
REMARK SMILES IDX 13 1 12 2 10 3 11 4 9 6 8 7 6 8 7 9 5 11 4 12 3 13 2 14 1 15
REMARK SMILES IDX 85 19 86 20 90 21 87 22 89 23 88 24 14 25 15 26 16 27 17 28
REMARK SMILES IDX 18 29 19 30 20 31 21 33 22 34 23 35 84 36 24 37 83 38 25 39
REMARK SMILES IDX 26 40 27 41 77 42 28 43 82 44 76 45 78 46 29 47 81 48 75 49
REMARK SMILES IDX 74 50 30 52 62 53 42 54 61 55 43 56 46 57 60 58 79 59 44 60
REMARK SMILES IDX 45 61 59 63 80 64 47 65 31 66 32 67 40 68 33 69 34 70 38 71
REMARK SMILES IDX 41 72 35 73 36 74 39 75 37 76 63 77 64 78 72 79 65 80 66 81
REMARK SMILES IDX 70 82 73 83 67 84 68 85 71 86 69 87 48 88 49 89 57 90 50 91
REMARK SMILES IDX 51 92 55 93 58 94 52 95 53 96 56 97 54 98
REMARK H PARENT 12 5 8 10 1 16 1 17 1 18 19 32 78 51 46 62
REMARK Flexibility Score: inf
ROOT
ATOM      1  C   UNL A   1      33.176  28.152  24.916  1.00  0.00     0.116 C 
ENDROOT
BRANCH   1   2
ATOM      2  N   UNL A   1      33.618  27.722  23.605  1.00  0.00    -0.354 N 
ATOM      3  C   UNL A   1      33.714  26.450  23.110  1.00  0.00     0.242 C 
ATOM      4  O   UNL A   1      33.858  26.309  21.895  1.00  0.00    -0.273 OA
ATOM      5  H   UNL A   1      33.885  28.441  22.988  1.00  0.00     0.163 HD
BRANCH   3   6
ATOM      6  C   UNL A   1      33.514  25.230  24.042  1.00  0.00     0.174 C 
BRANCH   6   7
ATOM      7  N   UNL A   1      32.413  24.362  23.578  1.00  0.00    -0.342 N 
ATOM      8  C   UNL A   1      31.073  24.593  23.488  1.00  0.00     0.246 C 
ATOM      9  O   UNL A   1      30.372  23.681  23.031  1.00  0.00    -0.272 OA
ATOM     10  H   UNL A   1      32.694  23.466  23.283  1.00  0.00     0.164 HD
BRANCH   8  11
ATOM     11  C   UNL A   1      30.432  25.927  23.895  1.00  0.00     0.260 C 
BRANCH  11  12
ATOM     12  O   UNL A   1      30.474  26.955  22.926  1.00  0.00    -0.366 OA
BRANCH  12  13
ATOM     13  C   UNL A   1      29.774  28.149  23.276  1.00  0.00     0.222 C 
BRANCH  13  14
ATOM     14  C   UNL A   1      29.914  29.290  22.254  1.00  0.00     0.287 C 
BRANCH  14  15
ATOM     15  N   UNL A   1      31.285  29.667  21.897  1.00  0.00    -0.356 N 
ATOM     16  H   UNL A   1      31.297  30.056  20.955  1.00  0.00     0.344 HD
ATOM     17  H   UNL A   1      31.884  28.843  21.933  1.00  0.00     0.344 HD
ATOM     18  H   UNL A   1      31.628  30.365  22.557  1.00  0.00     0.344 HD
ENDBRANCH  14  15
ENDBRANCH  13  14
ENDBRANCH  12  13
ENDBRANCH  11  12
ENDBRANCH   8  11
ENDBRANCH   6   7
BRANCH   6  19
ATOM     19  C   UNL A   1      34.908  24.479  24.248  1.00  0.00     0.021 C 
ATOM     20  C   UNL A   1      35.171  24.007  25.695  1.00  0.00     0.006 C 
ATOM     21  C   UNL A   1      35.168  23.317  23.249  1.00  0.00     0.006 C 
ATOM     22  C   UNL A   1      36.487  23.245  25.858  1.00  0.00     0.000 C 
ATOM     23  C   UNL A   1      36.451  22.529  23.476  1.00  0.00     0.000 C 
ATOM     24  C   UNL A   1      36.549  22.052  24.915  1.00  0.00     0.000 C 
ENDBRANCH   6  19
ENDBRANCH   3   6
ENDBRANCH   1   2
BRANCH   1  25
ATOM     25  C   UNL A   1      33.216  29.661  25.066  1.00  0.00     0.021 C 
BRANCH  25  26
ATOM     26  C   UNL A   1      32.396  30.151  26.261  1.00  0.00     0.002 C 
BRANCH  26  27
ATOM     27  C   UNL A   1      31.163  30.990  25.895  1.00  0.00     0.002 C 
BRANCH  27  28
ATOM     28  C   UNL A   1      31.162  32.418  26.453  1.00  0.00     0.021 C 
BRANCH  28  29
ATOM     29  C   UNL A   1      32.458  32.808  27.142  1.00  0.00     0.116 C 
BRANCH  29  30
ATOM     30  N   UNL A   1      32.434  34.199  27.555  1.00  0.00    -0.352 N 
ATOM     31  C   UNL A   1      33.124  34.797  28.574  1.00  0.00     0.251 C 
ATOM     32  H   UNL A   1      31.841  34.790  27.035  1.00  0.00     0.163 HD
ATOM     33  O   UNL A   1      32.800  35.902  28.988  1.00  0.00    -0.269 OA
BRANCH  31  34
ATOM     34  C   UNL A   1      34.267  34.080  29.164  1.00  0.00     0.039 A 
ATOM     35  C   UNL A   1      35.562  34.489  28.847  1.00  0.00     0.014 A 
ATOM     36  C   UNL A   1      34.047  33.005  30.032  1.00  0.00     0.014 A 
ATOM     37  C   UNL A   1      36.645  33.830  29.423  1.00  0.00     0.010 A 
ATOM     38  C   UNL A   1      35.123  32.408  30.672  1.00  0.00     0.010 A 
ATOM     39  C   UNL A   1      36.431  32.799  30.352  1.00  0.00    -0.014 A 
BRANCH  39  40
ATOM     40  C   UNL A   1      37.566  32.072  30.967  1.00  0.00     0.031 A 
ATOM     41  C   UNL A   1      38.018  32.444  32.351  1.00  0.00     0.074 A 
ATOM     42  C   UNL A   1      38.217  31.130  30.261  1.00  0.00     0.049 A 
ATOM     43  N   UNL A   1      39.037  31.995  33.039  1.00  0.00    -0.248 NA
ATOM     44  C   UNL A   1      37.239  33.483  33.044  1.00  0.00     0.031 C 
ATOM     45  C   UNL A   1      37.886  30.717  28.896  1.00  0.00     0.029 A 
ATOM     46  N   UNL A   1      39.300  30.356  30.590  1.00  0.00    -0.354 N 
ATOM     47  C   UNL A   1      39.027  32.707  34.230  1.00  0.00     0.074 A 
ATOM     48  C   UNL A   1      37.944  33.660  34.150  1.00  0.00     0.031 C 
ATOM     49  C   UNL A   1      38.735  29.749  28.514  1.00  0.00     0.029 A 
ATOM     50  C   UNL A   1      39.694  29.506  29.588  1.00  0.00     0.049 A 
ATOM     51  H   UNL A   1      39.752  30.406  31.464  1.00  0.00     0.167 HD
ATOM     52  C   UNL A   1      39.835  32.557  35.307  1.00  0.00     0.037 A 
ATOM     53  C   UNL A   1      40.722  28.638  29.541  1.00  0.00     0.037 A 
ATOM     54  C   UNL A   1      40.895  31.589  35.384  1.00  0.00     0.049 A 
ATOM     55  C   UNL A   1      41.617  28.505  30.745  1.00  0.00     0.074 A 
ATOM     56  C   UNL A   1      41.742  31.318  36.444  1.00  0.00     0.029 A 
ATOM     57  N   UNL A   1      41.255  30.733  34.353  1.00  0.00    -0.354 N 
ATOM     58  N   UNL A   1      41.562  29.138  31.892  1.00  0.00    -0.248 NA
ATOM     59  C   UNL A   1      42.712  27.531  30.649  1.00  0.00     0.031 C 
ATOM     60  C   UNL A   1      42.651  30.338  36.035  1.00  0.00     0.029 A 
ATOM     61  C   UNL A   1      42.329  29.948  34.744  1.00  0.00     0.049 A 
ATOM     62  H   UNL A   1      40.815  30.689  33.474  1.00  0.00     0.167 HD
ATOM     63  C   UNL A   1      42.588  28.613  32.667  1.00  0.00     0.074 A 
ATOM     64  C   UNL A   1      43.243  27.604  31.861  1.00  0.00     0.031 C 
ATOM     65  C   UNL A   1      42.954  28.936  33.932  1.00  0.00     0.037 A 
BRANCH  52  66
ATOM     66  C   UNL A   1      39.601  33.462  36.483  1.00  0.00     0.064 A 
ATOM     67  C   UNL A   1      38.743  33.101  37.534  1.00  0.00     0.173 A 
ATOM     68  C   UNL A   1      40.263  34.696  36.574  1.00  0.00     0.173 A 
ATOM     69  F   UNL A   1      38.074  31.938  37.492  1.00  0.00    -0.203 F 
ATOM     70  C   UNL A   1      38.532  33.954  38.614  1.00  0.00     0.198 A 
ATOM     71  C   UNL A   1      40.077  35.531  37.673  1.00  0.00     0.198 A 
ATOM     72  F   UNL A   1      41.097  35.089  35.601  1.00  0.00    -0.203 F 
ATOM     73  F   UNL A   1      37.664  33.612  39.577  1.00  0.00    -0.200 F 
ATOM     74  C   UNL A   1      39.204  35.164  38.686  1.00  0.00     0.200 A 
ATOM     75  F   UNL A   1      40.740  36.692  37.749  1.00  0.00    -0.200 F 
ATOM     76  F   UNL A   1      39.007  35.981  39.730  1.00  0.00    -0.200 F 
ENDBRANCH  52  66
BRANCH  53  77
ATOM     77  C   UNL A   1      40.944  27.813  28.325  1.00  0.00     0.064 A 
ATOM     78  C   UNL A   1      40.322  26.565  28.177  1.00  0.00     0.173 A 
ATOM     79  C   UNL A   1      41.785  28.248  27.290  1.00  0.00     0.173 A 
ATOM     80  F   UNL A   1      39.522  26.097  29.147  1.00  0.00    -0.203 F 
ATOM     81  C   UNL A   1      40.553  25.773  27.054  1.00  0.00     0.198 A 
ATOM     82  C   UNL A   1      41.990  27.470  26.153  1.00  0.00     0.198 A 
ATOM     83  F   UNL A   1      42.397  29.438  27.376  1.00  0.00    -0.203 F 
ATOM     84  F   UNL A   1      39.987  24.562  26.964  1.00  0.00    -0.200 F 
ATOM     85  C   UNL A   1      41.383  26.228  26.041  1.00  0.00     0.200 A 
ATOM     86  F   UNL A   1      42.777  27.921  25.167  1.00  0.00    -0.200 F 
ATOM     87  F   UNL A   1      41.603  25.467  24.960  1.00  0.00    -0.200 F 
ENDBRANCH  53  77
BRANCH  65  88
ATOM     88  C   UNL A   1      44.077  28.153  34.547  1.00  0.00     0.064 A 
ATOM     89  C   UNL A   1      43.857  26.941  35.218  1.00  0.00     0.173 A 
ATOM     90  C   UNL A   1      45.402  28.600  34.416  1.00  0.00     0.173 A 
ATOM     91  F   UNL A   1      42.609  26.478  35.383  1.00  0.00    -0.203 F 
ATOM     92  C   UNL A   1      44.919  26.219  35.757  1.00  0.00     0.198 A 
ATOM     93  C   UNL A   1      46.463  27.858  34.924  1.00  0.00     0.198 A 
ATOM     94  F   UNL A   1      45.667  29.749  33.776  1.00  0.00    -0.203 F 
ATOM     95  F   UNL A   1      44.682  25.089  36.436  1.00  0.00    -0.200 F 
ATOM     96  C   UNL A   1      46.221  26.673  35.600  1.00  0.00     0.200 A 
ATOM     97  F   UNL A   1      47.721  28.289  34.757  1.00  0.00    -0.200 F 
ATOM     98  F   UNL A   1      47.242  25.969  36.108  1.00  0.00    -0.200 F 
ENDBRANCH  65  88
ENDBRANCH  39  40
ENDBRANCH  31  34
ENDBRANCH  29  30
ENDBRANCH  28  29
ENDBRANCH  27  28
ENDBRANCH  26  27
ENDBRANCH  25  26
ENDBRANCH   1  25
TORSDOF 20
ENDMDL
MODEL 3
REMARK VINA RESULT:     -10.7      1.075      7.300
REMARK SMILES [NH3+]CCOCC(=O)N[C@H](C(=O)NCCCCCCNC(=O)c1ccc(-c2c3nc(c(-c4c(F)c(F)c(F)c(F)c4F)c4ccc([nH]4)c(-c4c(F)c(F)c(F)c(F)c4F)c4nc(c(-c5c(F)c(F)c(F)c(F)c5F)c5ccc2[nH]5)C=C4)C=C3)cc1)C1CCCCC1
REMARK SMILES IDX 13 1 12 2 10 3 11 4 9 6 8 7 6 8 7 9 5 11 4 12 3 13 2 14 1 15
REMARK SMILES IDX 85 19 86 20 90 21 87 22 89 23 88 24 14 25 15 26 16 27 17 28
REMARK SMILES IDX 18 29 19 30 20 31 21 33 22 34 23 35 84 36 24 37 83 38 25 39
REMARK SMILES IDX 26 40 27 41 77 42 28 43 82 44 76 45 78 46 29 47 81 48 75 49
REMARK SMILES IDX 74 50 30 52 62 53 42 54 61 55 43 56 46 57 60 58 79 59 44 60
REMARK SMILES IDX 45 61 59 63 80 64 47 65 31 66 32 67 40 68 33 69 34 70 38 71
REMARK SMILES IDX 41 72 35 73 36 74 39 75 37 76 63 77 64 78 72 79 65 80 66 81
REMARK SMILES IDX 70 82 73 83 67 84 68 85 71 86 69 87 48 88 49 89 57 90 50 91
REMARK SMILES IDX 51 92 55 93 58 94 52 95 53 96 56 97 54 98
REMARK H PARENT 12 5 8 10 1 16 1 17 1 18 19 32 78 51 46 62
REMARK Flexibility Score: inf
ROOT
ATOM      1  C   UNL A   1      32.912  28.152  24.909  1.00  0.00     0.116 C 
ENDROOT
BRANCH   1   2
ATOM      2  N   UNL A   1      33.467  27.746  23.634  1.00  0.00    -0.354 N 
ATOM      3  C   UNL A   1      33.662  26.481  23.151  1.00  0.00     0.242 C 
ATOM      4  O   UNL A   1      33.899  26.348  21.949  1.00  0.00    -0.273 OA
ATOM      5  H   UNL A   1      33.739  28.478  23.035  1.00  0.00     0.163 HD
BRANCH   3   6
ATOM      6  C   UNL A   1      33.461  25.252  24.071  1.00  0.00     0.174 C 
BRANCH   6   7
ATOM      7  N   UNL A   1      32.369  24.382  23.589  1.00  0.00    -0.342 N 
ATOM      8  C   UNL A   1      31.030  24.611  23.476  1.00  0.00     0.246 C 
ATOM      9  O   UNL A   1      30.338  23.698  23.008  1.00  0.00    -0.272 OA
ATOM     10  H   UNL A   1      32.657  23.486  23.299  1.00  0.00     0.164 HD
BRANCH   8  11
ATOM     11  C   UNL A   1      30.381  25.945  23.871  1.00  0.00     0.260 C 
BRANCH  11  12
ATOM     12  O   UNL A   1      30.315  26.925  22.856  1.00  0.00    -0.366 OA
BRANCH  12  13
ATOM     13  C   UNL A   1      29.634  28.127  23.215  1.00  0.00     0.222 C 
BRANCH  13  14
ATOM     14  C   UNL A   1      29.778  29.269  22.195  1.00  0.00     0.287 C 
BRANCH  14  15
ATOM     15  N   UNL A   1      31.149  29.690  21.893  1.00  0.00    -0.356 N 
ATOM     16  H   UNL A   1      31.673  29.794  22.762  1.00  0.00     0.344 HD
ATOM     17  H   UNL A   1      31.130  30.582  21.398  1.00  0.00     0.344 HD
ATOM     18  H   UNL A   1      31.599  28.986  21.307  1.00  0.00     0.344 HD
ENDBRANCH  14  15
ENDBRANCH  13  14
ENDBRANCH  12  13
ENDBRANCH  11  12
ENDBRANCH   8  11
ENDBRANCH   6   7
BRANCH   6  19
ATOM     19  C   UNL A   1      34.857  24.507  24.283  1.00  0.00     0.021 C 
ATOM     20  C   UNL A   1      35.094  23.991  25.719  1.00  0.00     0.006 C 
ATOM     21  C   UNL A   1      35.149  23.380  23.253  1.00  0.00     0.006 C 
ATOM     22  C   UNL A   1      36.412  23.235  25.887  1.00  0.00     0.000 C 
ATOM     23  C   UNL A   1      36.435  22.596  23.483  1.00  0.00     0.000 C 
ATOM     24  C   UNL A   1      36.506  22.074  24.908  1.00  0.00     0.000 C 
ENDBRANCH   6  19
ENDBRANCH   3   6
ENDBRANCH   1   2
BRANCH   1  25
ATOM     25  C   UNL A   1      33.290  29.576  25.269  1.00  0.00     0.021 C 
BRANCH  25  26
ATOM     26  C   UNL A   1      32.457  30.127  26.428  1.00  0.00     0.002 C 
BRANCH  26  27
ATOM     27  C   UNL A   1      31.234  30.954  26.006  1.00  0.00     0.002 C 
BRANCH  27  28
ATOM     28  C   UNL A   1      31.240  32.411  26.484  1.00  0.00     0.021 C 
BRANCH  28  29
ATOM     29  C   UNL A   1      32.545  32.837  27.134  1.00  0.00     0.116 C 
BRANCH  29  30
ATOM     30  N   UNL A   1      32.474  34.209  27.600  1.00  0.00    -0.352 N 
ATOM     31  C   UNL A   1      33.129  34.785  28.654  1.00  0.00     0.251 C 
ATOM     32  H   UNL A   1      31.874  34.803  27.092  1.00  0.00     0.163 HD
ATOM     33  O   UNL A   1      32.767  35.864  29.105  1.00  0.00    -0.269 OA
BRANCH  31  34
ATOM     34  C   UNL A   1      34.282  34.077  29.236  1.00  0.00     0.039 A 
ATOM     35  C   UNL A   1      35.571  34.445  28.850  1.00  0.00     0.014 A 
ATOM     36  C   UNL A   1      34.078  33.052  30.166  1.00  0.00     0.014 A 
ATOM     37  C   UNL A   1      36.664  33.796  29.419  1.00  0.00     0.010 A 
ATOM     38  C   UNL A   1      35.167  32.468  30.794  1.00  0.00     0.010 A 
ATOM     39  C   UNL A   1      36.468  32.817  30.407  1.00  0.00    -0.014 A 
BRANCH  39  40
ATOM     40  C   UNL A   1      37.613  32.101  31.014  1.00  0.00     0.031 A 
ATOM     41  C   UNL A   1      38.082  32.490  32.388  1.00  0.00     0.074 A 
ATOM     42  C   UNL A   1      38.258  31.152  30.311  1.00  0.00     0.049 A 
ATOM     43  N   UNL A   1      39.112  32.053  33.067  1.00  0.00    -0.248 NA
ATOM     44  C   UNL A   1      37.309  33.536  33.079  1.00  0.00     0.031 C 
ATOM     45  C   UNL A   1      37.910  30.722  28.956  1.00  0.00     0.029 A 
ATOM     46  N   UNL A   1      39.347  30.386  30.635  1.00  0.00    -0.354 N 
ATOM     47  C   UNL A   1      39.116  32.779  34.250  1.00  0.00     0.074 A 
ATOM     48  C   UNL A   1      38.029  33.728  34.173  1.00  0.00     0.031 C 
ATOM     49  C   UNL A   1      38.757  29.752  28.574  1.00  0.00     0.029 A 
ATOM     50  C   UNL A   1      39.730  29.525  29.638  1.00  0.00     0.049 A 
ATOM     51  H   UNL A   1      39.811  30.448  31.502  1.00  0.00     0.167 HD
ATOM     52  C   UNL A   1      39.938  32.644  35.318  1.00  0.00     0.037 A 
ATOM     53  C   UNL A   1      40.760  28.659  29.587  1.00  0.00     0.037 A 
ATOM     54  C   UNL A   1      41.002  31.680  35.393  1.00  0.00     0.049 A 
ATOM     55  C   UNL A   1      41.672  28.543  30.780  1.00  0.00     0.074 A 
ATOM     56  C   UNL A   1      41.864  31.424  36.444  1.00  0.00     0.029 A 
ATOM     57  N   UNL A   1      41.351  30.812  34.366  1.00  0.00    -0.354 N 
ATOM     58  N   UNL A   1      41.630  29.190  31.921  1.00  0.00    -0.248 NA
ATOM     59  C   UNL A   1      42.768  27.572  30.681  1.00  0.00     0.031 C 
ATOM     60  C   UNL A   1      42.770  30.442  36.035  1.00  0.00     0.029 A 
ATOM     61  C   UNL A   1      42.432  30.036  34.753  1.00  0.00     0.049 A 
ATOM     62  H   UNL A   1      40.899  30.757  33.494  1.00  0.00     0.167 HD
ATOM     63  C   UNL A   1      42.668  28.677  32.688  1.00  0.00     0.074 A 
ATOM     64  C   UNL A   1      43.315  27.660  31.885  1.00  0.00     0.031 C 
ATOM     65  C   UNL A   1      43.050  29.016  33.944  1.00  0.00     0.037 A 
BRANCH  52  66
ATOM     66  C   UNL A   1      39.718  33.562  36.486  1.00  0.00     0.064 A 
ATOM     67  C   UNL A   1      40.351  34.813  36.574  1.00  0.00     0.173 A 
ATOM     68  C   UNL A   1      38.842  33.200  37.521  1.00  0.00     0.173 A 
ATOM     69  F   UNL A   1      41.209  35.204  35.618  1.00  0.00    -0.203 F 
ATOM     70  C   UNL A   1      40.141  35.649  37.666  1.00  0.00     0.198 A 
ATOM     71  C   UNL A   1      38.607  34.055  38.595  1.00  0.00     0.198 A 
ATOM     72  F   UNL A   1      38.207  32.020  37.487  1.00  0.00    -0.203 F 
ATOM     73  F   UNL A   1      40.802  36.813  37.754  1.00  0.00    -0.200 F 
ATOM     74  C   UNL A   1      39.264  35.273  38.672  1.00  0.00     0.200 A 
ATOM     75  F   UNL A   1      37.746  33.697  39.557  1.00  0.00    -0.200 F 
ATOM     76  F   UNL A   1      39.056  36.083  39.719  1.00  0.00    -0.200 F 
ENDBRANCH  52  66
BRANCH  53  77
ATOM     77  C   UNL A   1      40.969  27.821  28.378  1.00  0.00     0.064 A 
ATOM     78  C   UNL A   1      41.778  28.266  27.323  1.00  0.00     0.173 A 
ATOM     79  C   UNL A   1      40.364  26.563  28.247  1.00  0.00     0.173 A 
ATOM     80  F   UNL A   1      42.367  29.470  27.394  1.00  0.00    -0.203 F 
ATOM     81  C   UNL A   1      41.952  27.499  26.174  1.00  0.00     0.198 A 
ATOM     82  C   UNL A   1      40.563  25.782  27.111  1.00  0.00     0.198 A 
ATOM     83  F   UNL A   1      39.588  26.084  29.231  1.00  0.00    -0.203 F 
ATOM     84  F   UNL A   1      42.688  27.973  25.159  1.00  0.00    -0.200 F 
ATOM     85  C   UNL A   1      41.348  26.255  26.070  1.00  0.00     0.200 A 
ATOM     86  F   UNL A   1      39.994  24.571  27.023  1.00  0.00    -0.200 F 
ATOM     87  F   UNL A   1      41.518  25.515  24.965  1.00  0.00    -0.200 F 
ENDBRANCH  53  77
BRANCH  65  88
ATOM     88  C   UNL A   1      44.184  28.244  34.554  1.00  0.00     0.064 A 
ATOM     89  C   UNL A   1      43.975  27.043  35.248  1.00  0.00     0.173 A 
ATOM     90  C   UNL A   1      45.505  28.689  34.394  1.00  0.00     0.173 A 
ATOM     91  F   UNL A   1      42.730  26.581  35.441  1.00  0.00    -0.203 F 
ATOM     92  C   UNL A   1      45.047  26.330  35.781  1.00  0.00     0.198 A 
ATOM     93  C   UNL A   1      46.575  27.956  34.896  1.00  0.00     0.198 A 
ATOM     94  F   UNL A   1      45.759  29.827  33.731  1.00  0.00    -0.203 F 
ATOM     95  F   UNL A   1      44.821  25.211  36.482  1.00  0.00    -0.200 F 
ATOM     96  C   UNL A   1      46.345  26.781  35.596  1.00  0.00     0.200 A 
ATOM     97  F   UNL A   1      47.830  28.385  34.701  1.00  0.00    -0.200 F 
ATOM     98  F   UNL A   1      47.375  26.087  36.098  1.00  0.00    -0.200 F 
ENDBRANCH  65  88
ENDBRANCH  39  40
ENDBRANCH  31  34
ENDBRANCH  29  30
ENDBRANCH  28  29
ENDBRANCH  27  28
ENDBRANCH  26  27
ENDBRANCH  25  26
ENDBRANCH   1  25
TORSDOF 20
ENDMDL
