MODEL 1
REMARK VINA RESULT:     -11.6      0.000      0.000
REMARK SMILES Cc1occc1-c1nnnn1C[C@@H](CC(C)C)C(=O)NCCCCCCNC(=O)c1ccc(-c2c3nc(c(-c4c(F)c(F)c(F)c(F)c4F)c4ccc([nH]4)c(-c4c(F)c(F)c(F)c(F)c4F)c4nc(c(-c5c(F)c(F)c(F)c(F)c5F)c5ccc2[nH]5)C=C4)C=C3)cc1
REMARK SMILES IDX 23 1 22 2 21 3 20 4 18 5 19 6 13 8 12 9 11 10 7 11 8 12 9 13
REMARK SMILES IDX 10 14 6 15 1 16 2 17 3 18 4 19 5 20 14 21 15 22 16 23 17 24
REMARK SMILES IDX 24 25 25 26 26 27 27 28 28 29 29 31 30 32 31 33 92 34 32 35
REMARK SMILES IDX 91 36 33 37 34 38 35 39 85 40 36 41 90 42 84 43 86 44 37 45
REMARK SMILES IDX 89 46 83 47 82 48 38 50 70 51 50 52 69 53 51 54 54 55 68 56
REMARK SMILES IDX 87 57 52 58 53 59 67 61 88 62 55 63 39 64 40 65 48 66 41 67
REMARK SMILES IDX 42 68 46 69 49 70 43 71 44 72 47 73 45 74 71 75 72 76 80 77
REMARK SMILES IDX 73 78 74 79 78 80 81 81 75 82 76 83 79 84 77 85 56 86 57 87
REMARK SMILES IDX 65 88 58 89 59 90 63 91 66 92 60 93 61 94 64 95 62 96
REMARK H PARENT 20 7 27 30 86 49 54 60
REMARK Flexibility Score: inf
ROOT
ATOM      1  C   UNL A   1      39.785  21.659  26.559  1.00  0.00     0.002 C 
ENDROOT
BRANCH   1   2
ATOM      2  C   UNL A   1      39.267  23.086  26.381  1.00  0.00     0.021 C 
BRANCH   2   3
ATOM      3  C   UNL A   1      37.789  23.160  26.035  1.00  0.00     0.116 C 
BRANCH   3   4
ATOM      4  N   UNL A   1      37.488  22.860  24.649  1.00  0.00    -0.356 N 
ATOM      5  C   UNL A   1      36.365  23.083  23.908  1.00  0.00     0.224 C 
ATOM      6  O   UNL A   1      36.477  23.005  22.682  1.00  0.00    -0.275 OA
ATOM      7  H   UNL A   1      38.219  22.418  24.159  1.00  0.00     0.163 HD
BRANCH   5   8
ATOM      8  C   UNL A   1      35.001  23.382  24.532  1.00  0.00     0.100 C 
BRANCH   8   9
ATOM      9  C   UNL A   1      34.770  24.903  24.532  1.00  0.00     0.162 C 
BRANCH   9  10
ATOM     10  N   UNL A   1      33.766  25.449  23.658  1.00  0.00    -0.225 N 
ATOM     11  C   UNL A   1      32.681  26.224  23.966  1.00  0.00     0.185 A 
ATOM     12  N   UNL A   1      31.984  26.381  22.859  1.00  0.00    -0.108 NA
ATOM     13  N   UNL A   1      32.752  25.853  21.848  1.00  0.00    -0.023 NA
ATOM     14  N   UNL A   1      33.862  25.313  22.327  1.00  0.00    -0.045 NA
BRANCH  11  15
ATOM     15  C   UNL A   1      32.292  26.748  25.295  1.00  0.00     0.062 A 
ATOM     16  C   UNL A   1      29.915  25.674  25.773  1.00  0.00     0.088 C 
ATOM     17  C   UNL A   1      31.106  26.529  25.972  1.00  0.00     0.111 A 
ATOM     18  O   UNL A   1      31.106  27.250  27.131  1.00  0.00    -0.469 OA
ATOM     19  C   UNL A   1      32.307  27.877  27.215  1.00  0.00     0.196 A 
ATOM     20  C   UNL A   1      33.096  27.554  26.136  1.00  0.00     0.054 A 
ENDBRANCH  11  15
ENDBRANCH   9  10
ENDBRANCH   8   9
BRANCH   8  21
ATOM     21  C   UNL A   1      33.870  22.404  24.126  1.00  0.00     0.018 C 
BRANCH  21  22
ATOM     22  C   UNL A   1      33.037  21.711  25.218  1.00  0.00    -0.017 C 
ATOM     23  C   UNL A   1      33.905  21.267  26.406  1.00  0.00     0.007 C 
ATOM     24  C   UNL A   1      31.948  22.641  25.765  1.00  0.00     0.007 C 
ENDBRANCH  21  22
ENDBRANCH   8  21
ENDBRANCH   5   8
ENDBRANCH   3   4
ENDBRANCH   2   3
ENDBRANCH   1   2
BRANCH   1  25
ATOM     25  C   UNL A   1      40.943  21.467  27.555  1.00  0.00     0.002 C 
BRANCH  25  26
ATOM     26  C   UNL A   1      42.010  20.418  27.209  1.00  0.00     0.021 C 
BRANCH  26  27
ATOM     27  C   UNL A   1      42.003  19.965  25.758  1.00  0.00     0.116 C 
BRANCH  27  28
ATOM     28  N   UNL A   1      43.337  19.663  25.257  1.00  0.00    -0.352 N 
ATOM     29  C   UNL A   1      44.335  20.547  24.896  1.00  0.00     0.251 C 
ATOM     30  H   UNL A   1      43.555  18.707  25.164  1.00  0.00     0.163 HD
ATOM     31  O   UNL A   1      45.255  20.200  24.178  1.00  0.00    -0.269 OA
BRANCH  29  32
ATOM     32  C   UNL A   1      44.262  21.931  25.399  1.00  0.00     0.039 A 
ATOM     33  C   UNL A   1      43.403  22.860  24.807  1.00  0.00     0.014 A 
ATOM     34  C   UNL A   1      45.051  22.282  26.491  1.00  0.00     0.014 A 
ATOM     35  C   UNL A   1      43.286  24.123  25.379  1.00  0.00     0.010 A 
ATOM     36  C   UNL A   1      44.830  23.473  27.137  1.00  0.00     0.010 A 
ATOM     37  C   UNL A   1      43.987  24.416  26.560  1.00  0.00    -0.014 A 
BRANCH  37  38
ATOM     38  C   UNL A   1      43.748  25.667  27.272  1.00  0.00     0.031 A 
ATOM     39  C   UNL A   1      44.691  26.768  26.924  1.00  0.00     0.074 A 
ATOM     40  C   UNL A   1      42.640  25.885  28.014  1.00  0.00     0.049 A 
ATOM     41  N   UNL A   1      45.518  27.380  27.707  1.00  0.00    -0.248 NA
ATOM     42  C   UNL A   1      44.815  27.160  25.509  1.00  0.00     0.031 C 
ATOM     43  C   UNL A   1      41.473  25.013  28.192  1.00  0.00     0.029 A 
ATOM     44  N   UNL A   1      42.274  27.005  28.696  1.00  0.00    -0.354 N 
ATOM     45  C   UNL A   1      46.143  28.354  26.930  1.00  0.00     0.074 A 
ATOM     46  C   UNL A   1      45.789  28.071  25.564  1.00  0.00     0.031 C 
ATOM     47  C   UNL A   1      40.452  25.720  28.723  1.00  0.00     0.029 A 
ATOM     48  C   UNL A   1      40.940  27.038  29.083  1.00  0.00     0.049 A 
ATOM     49  H   UNL A   1      42.905  27.733  28.900  1.00  0.00     0.167 HD
ATOM     50  C   UNL A   1      46.717  29.447  27.507  1.00  0.00     0.037 A 
ATOM     51  C   UNL A   1      40.279  28.086  29.634  1.00  0.00     0.037 A 
ATOM     52  C   UNL A   1      46.954  29.224  28.910  1.00  0.00     0.049 A 
ATOM     53  C   UNL A   1      41.302  29.010  30.183  1.00  0.00     0.074 A 
ATOM     54  C   UNL A   1      47.707  28.320  29.633  1.00  0.00     0.029 A 
ATOM     55  N   UNL A   1      46.065  29.763  29.806  1.00  0.00    -0.354 N 
ATOM     56  N   UNL A   1      42.065  28.723  31.200  1.00  0.00    -0.248 NA
ATOM     57  C   UNL A   1      41.792  30.063  29.308  1.00  0.00     0.031 C 
ATOM     58  C   UNL A   1      46.905  27.999  30.768  1.00  0.00     0.029 A 
ATOM     59  C   UNL A   1      45.752  28.782  30.711  1.00  0.00     0.049 A 
ATOM     60  H   UNL A   1      45.715  30.683  29.799  1.00  0.00     0.167 HD
ATOM     61  C   UNL A   1      43.310  29.226  30.854  1.00  0.00     0.074 A 
ATOM     62  C   UNL A   1      43.061  30.113  29.720  1.00  0.00     0.031 C 
ATOM     63  C   UNL A   1      44.454  28.653  31.331  1.00  0.00     0.037 A 
BRANCH  50  64
ATOM     64  C   UNL A   1      46.724  30.833  26.903  1.00  0.00     0.064 A 
ATOM     65  C   UNL A   1      47.927  31.568  26.886  1.00  0.00     0.173 A 
ATOM     66  C   UNL A   1      45.556  31.578  26.634  1.00  0.00     0.173 A 
ATOM     67  F   UNL A   1      49.099  30.968  27.143  1.00  0.00    -0.203 F 
ATOM     68  C   UNL A   1      47.946  32.954  26.704  1.00  0.00     0.198 A 
ATOM     69  C   UNL A   1      45.585  32.952  26.400  1.00  0.00     0.198 A 
ATOM     70  F   UNL A   1      44.333  31.039  26.698  1.00  0.00    -0.203 F 
ATOM     71  F   UNL A   1      49.098  33.626  26.831  1.00  0.00    -0.200 F 
ATOM     72  C   UNL A   1      46.773  33.646  26.469  1.00  0.00     0.200 A 
ATOM     73  F   UNL A   1      44.433  33.607  26.192  1.00  0.00    -0.200 F 
ATOM     74  F   UNL A   1      46.778  34.981  26.361  1.00  0.00    -0.200 F 
ENDBRANCH  50  64
BRANCH  51  75
ATOM     75  C   UNL A   1      38.865  28.492  29.452  1.00  0.00     0.064 A 
ATOM     76  C   UNL A   1      38.031  28.730  30.558  1.00  0.00     0.173 A 
ATOM     77  C   UNL A   1      38.392  28.939  28.203  1.00  0.00     0.173 A 
ATOM     78  F   UNL A   1      38.427  28.375  31.788  1.00  0.00    -0.203 F 
ATOM     79  C   UNL A   1      36.813  29.405  30.426  1.00  0.00     0.198 A 
ATOM     80  C   UNL A   1      37.173  29.608  28.073  1.00  0.00     0.198 A 
ATOM     81  F   UNL A   1      39.147  28.826  27.101  1.00  0.00    -0.203 F 
ATOM     82  F   UNL A   1      36.076  29.674  31.514  1.00  0.00    -0.200 F 
ATOM     83  C   UNL A   1      36.391  29.854  29.186  1.00  0.00     0.200 A 
ATOM     84  F   UNL A   1      36.796  30.072  26.872  1.00  0.00    -0.200 F 
ATOM     85  F   UNL A   1      35.256  30.559  29.069  1.00  0.00    -0.200 F 
ENDBRANCH  51  75
BRANCH  63  86
ATOM     86  C   UNL A   1      44.327  27.642  32.437  1.00  0.00     0.064 A 
ATOM     87  C   UNL A   1      44.200  26.256  32.237  1.00  0.00     0.173 A 
ATOM     88  C   UNL A   1      44.484  28.088  33.757  1.00  0.00     0.173 A 
ATOM     89  F   UNL A   1      44.144  25.737  31.005  1.00  0.00    -0.203 F 
ATOM     90  C   UNL A   1      44.186  25.366  33.311  1.00  0.00     0.198 A 
ATOM     91  C   UNL A   1      44.510  27.195  34.824  1.00  0.00     0.198 A 
ATOM     92  F   UNL A   1      44.663  29.394  34.007  1.00  0.00    -0.203 F 
ATOM     93  F   UNL A   1      44.050  24.050  33.093  1.00  0.00    -0.200 F 
ATOM     94  C   UNL A   1      44.350  25.837  34.603  1.00  0.00     0.200 A 
ATOM     95  F   UNL A   1      44.717  27.651  36.067  1.00  0.00    -0.200 F 
ATOM     96  F   UNL A   1      44.379  24.979  35.633  1.00  0.00    -0.200 F 
ENDBRANCH  63  86
ENDBRANCH  37  38
ENDBRANCH  29  32
ENDBRANCH  27  28
ENDBRANCH  26  27
ENDBRANCH  25  26
ENDBRANCH   1  25
TORSDOF 18
ENDMDL
MODEL 2
REMARK VINA RESULT:     -11.5      2.555      4.088
REMARK SMILES Cc1occc1-c1nnnn1C[C@@H](CC(C)C)C(=O)NCCCCCCNC(=O)c1ccc(-c2c3nc(c(-c4c(F)c(F)c(F)c(F)c4F)c4ccc([nH]4)c(-c4c(F)c(F)c(F)c(F)c4F)c4nc(c(-c5c(F)c(F)c(F)c(F)c5F)c5ccc2[nH]5)C=C4)C=C3)cc1
REMARK SMILES IDX 23 1 22 2 21 3 20 4 18 5 19 6 13 8 12 9 11 10 7 11 8 12 9 13
REMARK SMILES IDX 10 14 6 15 1 16 2 17 3 18 4 19 5 20 14 21 15 22 16 23 17 24
REMARK SMILES IDX 24 25 25 26 26 27 27 28 28 29 29 31 30 32 31 33 92 34 32 35
REMARK SMILES IDX 91 36 33 37 34 38 35 39 85 40 36 41 90 42 84 43 86 44 37 45
REMARK SMILES IDX 89 46 83 47 82 48 38 50 70 51 50 52 69 53 51 54 54 55 68 56
REMARK SMILES IDX 87 57 52 58 53 59 67 61 88 62 55 63 39 64 40 65 48 66 41 67
REMARK SMILES IDX 42 68 46 69 49 70 43 71 44 72 47 73 45 74 71 75 72 76 80 77
REMARK SMILES IDX 73 78 74 79 78 80 81 81 75 82 76 83 79 84 77 85 56 86 57 87
REMARK SMILES IDX 65 88 58 89 59 90 63 91 66 92 60 93 61 94 64 95 62 96
REMARK H PARENT 20 7 27 30 86 49 54 60
REMARK Flexibility Score: inf
ROOT
ATOM      1  C   UNL A   1      35.558  21.093  25.874  1.00  0.00     0.002 C 
ENDROOT
BRANCH   1   2
ATOM      2  C   UNL A   1      34.343  21.900  25.419  1.00  0.00     0.021 C 
BRANCH   2   3
ATOM      3  C   UNL A   1      34.207  23.245  26.112  1.00  0.00     0.116 C 
BRANCH   3   4
ATOM      4  N   UNL A   1      32.979  23.403  26.866  1.00  0.00    -0.356 N 
ATOM      5  C   UNL A   1      31.830  24.080  26.577  1.00  0.00     0.224 C 
ATOM      6  O   UNL A   1      30.834  23.807  27.250  1.00  0.00    -0.275 OA
ATOM      7  H   UNL A   1      32.974  22.945  27.738  1.00  0.00     0.163 HD
BRANCH   5   8
ATOM      8  C   UNL A   1      31.750  25.162  25.500  1.00  0.00     0.100 C 
BRANCH   8   9
ATOM      9  C   UNL A   1      31.221  24.537  24.197  1.00  0.00     0.162 C 
BRANCH   9  10
ATOM     10  N   UNL A   1      32.022  24.642  23.006  1.00  0.00    -0.225 N 
ATOM     11  C   UNL A   1      32.270  25.738  22.225  1.00  0.00     0.185 A 
ATOM     12  N   UNL A   1      32.958  25.326  21.180  1.00  0.00    -0.108 NA
ATOM     13  N   UNL A   1      33.282  24.013  21.430  1.00  0.00    -0.023 NA
ATOM     14  N   UNL A   1      32.742  23.599  22.565  1.00  0.00    -0.045 NA
BRANCH  11  15
ATOM     15  C   UNL A   1      31.808  27.127  22.444  1.00  0.00     0.062 A 
ATOM     16  C   UNL A   1      34.034  28.533  22.761  1.00  0.00     0.088 C 
ATOM     17  C   UNL A   1      32.585  28.238  22.717  1.00  0.00     0.111 A 
ATOM     18  O   UNL A   1      31.774  29.316  22.929  1.00  0.00    -0.469 OA
ATOM     19  C   UNL A   1      30.496  28.903  22.736  1.00  0.00     0.196 A 
ATOM     20  C   UNL A   1      30.468  27.576  22.379  1.00  0.00     0.054 A 
ENDBRANCH  11  15
ENDBRANCH   9  10
ENDBRANCH   8   9
BRANCH   8  21
ATOM     21  C   UNL A   1      31.231  26.536  25.994  1.00  0.00     0.018 C 
BRANCH  21  22
ATOM     22  C   UNL A   1      32.199  27.506  26.693  1.00  0.00    -0.017 C 
ATOM     23  C   UNL A   1      33.638  27.353  26.175  1.00  0.00     0.007 C 
ATOM     24  C   UNL A   1      31.784  28.965  26.474  1.00  0.00     0.007 C 
ENDBRANCH  21  22
ENDBRANCH   8  21
ENDBRANCH   5   8
ENDBRANCH   3   4
ENDBRANCH   2   3
ENDBRANCH   1   2
BRANCH   1  25
ATOM     25  C   UNL A   1      36.741  21.019  24.892  1.00  0.00     0.002 C 
BRANCH  25  26
ATOM     26  C   UNL A   1      37.713  22.209  24.862  1.00  0.00     0.021 C 
BRANCH  26  27
ATOM     27  C   UNL A   1      38.534  22.387  26.128  1.00  0.00     0.116 C 
BRANCH  27  28
ATOM     28  N   UNL A   1      39.926  21.993  25.955  1.00  0.00    -0.352 N 
ATOM     29  C   UNL A   1      41.059  22.767  26.113  1.00  0.00     0.251 C 
ATOM     30  H   UNL A   1      40.078  21.056  25.693  1.00  0.00     0.163 HD
ATOM     31  O   UNL A   1      42.120  22.440  25.614  1.00  0.00    -0.269 OA
BRANCH  29  32
ATOM     32  C   UNL A   1      40.956  24.009  26.901  1.00  0.00     0.039 A 
ATOM     33  C   UNL A   1      41.782  24.222  28.007  1.00  0.00     0.014 A 
ATOM     34  C   UNL A   1      40.033  24.973  26.502  1.00  0.00     0.014 A 
ATOM     35  C   UNL A   1      41.726  25.451  28.657  1.00  0.00     0.010 A 
ATOM     36  C   UNL A   1      40.081  26.230  27.050  1.00  0.00     0.010 A 
ATOM     37  C   UNL A   1      40.888  26.461  28.158  1.00  0.00    -0.014 A 
BRANCH  37  38
ATOM     38  C   UNL A   1      40.941  27.809  28.715  1.00  0.00     0.031 A 
ATOM     39  C   UNL A   1      42.023  28.669  28.157  1.00  0.00     0.074 A 
ATOM     40  C   UNL A   1      39.964  28.312  29.502  1.00  0.00     0.049 A 
ATOM     41  N   UNL A   1      43.015  29.204  28.789  1.00  0.00    -0.248 NA
ATOM     42  C   UNL A   1      42.076  28.866  26.698  1.00  0.00     0.031 C 
ATOM     43  C   UNL A   1      38.687  27.697  29.880  1.00  0.00     0.029 A 
ATOM     44  N   UNL A   1      39.867  29.552  30.057  1.00  0.00    -0.354 N 
ATOM     45  C   UNL A   1      43.722  29.949  27.848  1.00  0.00     0.074 A 
ATOM     46  C   UNL A   1      43.194  29.581  26.560  1.00  0.00     0.031 C 
ATOM     47  C   UNL A   1      37.860  28.637  30.388  1.00  0.00     0.029 A 
ATOM     48  C   UNL A   1      38.602  29.875  30.535  1.00  0.00     0.049 A 
ATOM     49  H   UNL A   1      40.631  30.169  30.117  1.00  0.00     0.167 HD
ATOM     50  C   UNL A   1      44.531  30.977  28.232  1.00  0.00     0.037 A 
ATOM     51  C   UNL A   1      38.190  31.083  30.991  1.00  0.00     0.037 A 
ATOM     52  C   UNL A   1      44.860  30.878  29.630  1.00  0.00     0.049 A 
ATOM     53  C   UNL A   1      39.406  31.859  31.336  1.00  0.00     0.074 A 
ATOM     54  C   UNL A   1      45.511  29.940  30.407  1.00  0.00     0.029 A 
ATOM     55  N   UNL A   1      44.169  31.671  30.512  1.00  0.00    -0.354 N 
ATOM     56  N   UNL A   1      40.203  31.557  32.323  1.00  0.00    -0.248 NA
ATOM     57  C   UNL A   1      39.986  32.696  30.297  1.00  0.00     0.031 C 
ATOM     58  C   UNL A   1      44.778  29.906  31.631  1.00  0.00     0.029 A 
ATOM     59  C   UNL A   1      43.779  30.877  31.558  1.00  0.00     0.049 A 
ATOM     60  H   UNL A   1      43.986  32.634  30.410  1.00  0.00     0.167 HD
ATOM     61  C   UNL A   1      41.477  31.777  31.823  1.00  0.00     0.074 A 
ATOM     62  C   UNL A   1      41.278  32.558  30.604  1.00  0.00     0.031 C 
ATOM     63  C   UNL A   1      42.544  31.062  32.284  1.00  0.00     0.037 A 
BRANCH  50  64
ATOM     64  C   UNL A   1      44.720  32.258  27.453  1.00  0.00     0.064 A 
ATOM     65  C   UNL A   1      45.917  32.453  26.731  1.00  0.00     0.173 A 
ATOM     66  C   UNL A   1      43.931  33.414  27.637  1.00  0.00     0.173 A 
ATOM     67  F   UNL A   1      46.754  31.429  26.508  1.00  0.00    -0.203 F 
ATOM     68  C   UNL A   1      46.330  33.720  26.309  1.00  0.00     0.198 A 
ATOM     69  C   UNL A   1      44.321  34.668  27.168  1.00  0.00     0.198 A 
ATOM     70  F   UNL A   1      42.813  33.406  28.372  1.00  0.00    -0.203 F 
ATOM     71  F   UNL A   1      47.536  33.873  25.748  1.00  0.00    -0.200 F 
ATOM     72  C   UNL A   1      45.535  34.828  26.536  1.00  0.00     0.200 A 
ATOM     73  F   UNL A   1      43.544  35.732  27.414  1.00  0.00    -0.200 F 
ATOM     74  F   UNL A   1      45.957  36.052  26.194  1.00  0.00    -0.200 F 
ENDBRANCH  50  64
BRANCH  51  75
ATOM     75  C   UNL A   1      36.858  31.720  30.863  1.00  0.00     0.064 A 
ATOM     76  C   UNL A   1      36.061  31.968  31.994  1.00  0.00     0.173 A 
ATOM     77  C   UNL A   1      36.470  32.363  29.670  1.00  0.00     0.173 A 
ATOM     78  F   UNL A   1      36.387  31.430  33.177  1.00  0.00    -0.203 F 
ATOM     79  C   UNL A   1      34.962  32.832  31.942  1.00  0.00     0.198 A 
ATOM     80  C   UNL A   1      35.371  33.222  29.620  1.00  0.00     0.198 A 
ATOM     81  F   UNL A   1      37.209  32.249  28.557  1.00  0.00    -0.203 F 
ATOM     82  F   UNL A   1      34.266  33.097  33.056  1.00  0.00    -0.200 F 
ATOM     83  C   UNL A   1      34.626  33.469  30.758  1.00  0.00     0.200 A 
ATOM     84  F   UNL A   1      35.081  33.860  28.477  1.00  0.00    -0.200 F 
ATOM     85  F   UNL A   1      33.615  34.349  30.724  1.00  0.00    -0.200 F 
ENDBRANCH  51  75
BRANCH  63  86
ATOM     86  C   UNL A   1      42.351  30.226  33.520  1.00  0.00     0.064 A 
ATOM     87  C   UNL A   1      42.434  30.719  34.834  1.00  0.00     0.173 A 
ATOM     88  C   UNL A   1      41.923  28.901  33.357  1.00  0.00     0.173 A 
ATOM     89  F   UNL A   1      42.739  32.000  35.075  1.00  0.00    -0.203 F 
ATOM     90  C   UNL A   1      42.145  29.909  35.932  1.00  0.00     0.198 A 
ATOM     91  C   UNL A   1      41.597  28.107  34.452  1.00  0.00     0.198 A 
ATOM     92  F   UNL A   1      41.772  28.391  32.125  1.00  0.00    -0.203 F 
ATOM     93  F   UNL A   1      42.245  30.400  37.176  1.00  0.00    -0.200 F 
ATOM     94  C   UNL A   1      41.719  28.605  35.739  1.00  0.00     0.200 A 
ATOM     95  F   UNL A   1      41.139  26.863  34.257  1.00  0.00    -0.200 F 
ATOM     96  F   UNL A   1      41.401  27.839  36.791  1.00  0.00    -0.200 F 
ENDBRANCH  63  86
ENDBRANCH  37  38
ENDBRANCH  29  32
ENDBRANCH  27  28
ENDBRANCH  26  27
ENDBRANCH  25  26
ENDBRANCH   1  25
TORSDOF 18
ENDMDL
MODEL 3
REMARK VINA RESULT:     -11.4      3.035      8.420
REMARK SMILES Cc1occc1-c1nnnn1C[C@@H](CC(C)C)C(=O)NCCCCCCNC(=O)c1ccc(-c2c3nc(c(-c4c(F)c(F)c(F)c(F)c4F)c4ccc([nH]4)c(-c4c(F)c(F)c(F)c(F)c4F)c4nc(c(-c5c(F)c(F)c(F)c(F)c5F)c5ccc2[nH]5)C=C4)C=C3)cc1
REMARK SMILES IDX 23 1 22 2 21 3 20 4 18 5 19 6 13 8 12 9 11 10 7 11 8 12 9 13
REMARK SMILES IDX 10 14 6 15 1 16 2 17 3 18 4 19 5 20 14 21 15 22 16 23 17 24
REMARK SMILES IDX 24 25 25 26 26 27 27 28 28 29 29 31 30 32 31 33 92 34 32 35
REMARK SMILES IDX 91 36 33 37 34 38 35 39 85 40 36 41 90 42 84 43 86 44 37 45
REMARK SMILES IDX 89 46 83 47 82 48 38 50 70 51 50 52 69 53 51 54 54 55 68 56
REMARK SMILES IDX 87 57 52 58 53 59 67 61 88 62 55 63 39 64 40 65 48 66 41 67
REMARK SMILES IDX 42 68 46 69 49 70 43 71 44 72 47 73 45 74 71 75 72 76 80 77
REMARK SMILES IDX 73 78 74 79 78 80 81 81 75 82 76 83 79 84 77 85 56 86 57 87
REMARK SMILES IDX 65 88 58 89 59 90 63 91 66 92 60 93 61 94 64 95 62 96
REMARK H PARENT 20 7 27 30 86 49 54 60
REMARK Flexibility Score: inf
ROOT
ATOM      1  C   UNL A   1      31.970  29.615  26.693  1.00  0.00     0.002 C 
ENDROOT
BRANCH   1   2
ATOM      2  C   UNL A   1      32.109  28.245  27.354  1.00  0.00     0.021 C 
BRANCH   2   3
ATOM      3  C   UNL A   1      32.109  27.088  26.368  1.00  0.00     0.116 C 
BRANCH   3   4
ATOM      4  N   UNL A   1      31.541  25.861  26.893  1.00  0.00    -0.356 N 
ATOM      5  C   UNL A   1      31.853  24.555  26.651  1.00  0.00     0.224 C 
ATOM      6  O   UNL A   1      31.422  23.719  27.449  1.00  0.00    -0.275 OA
ATOM      7  H   UNL A   1      30.804  25.993  27.531  1.00  0.00     0.163 HD
BRANCH   5   8
ATOM      8  C   UNL A   1      32.665  24.104  25.437  1.00  0.00     0.100 C 
BRANCH   8   9
ATOM      9  C   UNL A   1      31.814  24.280  24.168  1.00  0.00     0.162 C 
BRANCH   9  10
ATOM     10  N   UNL A   1      32.484  24.405  22.900  1.00  0.00    -0.225 N 
ATOM     11  C   UNL A   1      32.883  25.536  22.242  1.00  0.00     0.185 A 
ATOM     12  N   UNL A   1      33.344  25.163  21.065  1.00  0.00    -0.108 NA
ATOM     13  N   UNL A   1      33.391  23.788  21.093  1.00  0.00    -0.023 NA
ATOM     14  N   UNL A   1      32.899  23.320  22.229  1.00  0.00    -0.045 NA
BRANCH  11  15
ATOM     15  C   UNL A   1      32.771  26.938  22.703  1.00  0.00     0.062 A 
ATOM     16  C   UNL A   1      30.163  27.397  22.832  1.00  0.00     0.088 C 
ATOM     17  C   UNL A   1      31.615  27.676  22.877  1.00  0.00     0.111 A 
ATOM     18  O   UNL A   1      31.942  28.951  23.241  1.00  0.00    -0.469 OA
ATOM     19  C   UNL A   1      33.294  29.005  23.350  1.00  0.00     0.196 A 
ATOM     20  C   UNL A   1      33.847  27.774  23.085  1.00  0.00     0.054 A 
ENDBRANCH  11  15
ENDBRANCH   9  10
ENDBRANCH   8   9
BRANCH   8  21
ATOM     21  C   UNL A   1      34.158  24.519  25.461  1.00  0.00     0.018 C 
BRANCH  21  22
ATOM     22  C   UNL A   1      35.249  23.437  25.383  1.00  0.00    -0.017 C 
ATOM     23  C   UNL A   1      34.682  22.032  25.645  1.00  0.00     0.007 C 
ATOM     24  C   UNL A   1      35.918  23.414  24.004  1.00  0.00     0.007 C 
ENDBRANCH  21  22
ENDBRANCH   8  21
ENDBRANCH   5   8
ENDBRANCH   3   4
ENDBRANCH   2   3
ENDBRANCH   1   2
BRANCH   1  25
ATOM     25  C   UNL A   1      32.837  30.748  27.271  1.00  0.00     0.002 C 
BRANCH  25  26
ATOM     26  C   UNL A   1      34.348  30.499  27.383  1.00  0.00     0.021 C 
BRANCH  26  27
ATOM     27  C   UNL A   1      35.171  31.736  27.700  1.00  0.00     0.116 C 
BRANCH  27  28
ATOM     28  N   UNL A   1      34.756  32.386  28.937  1.00  0.00    -0.352 N 
ATOM     29  C   UNL A   1      35.166  32.109  30.226  1.00  0.00     0.251 C 
ATOM     30  H   UNL A   1      34.100  33.114  28.840  1.00  0.00     0.163 HD
ATOM     31  O   UNL A   1      34.508  32.467  31.187  1.00  0.00    -0.269 OA
BRANCH  29  32
ATOM     32  C   UNL A   1      36.424  31.364  30.418  1.00  0.00     0.039 A 
ATOM     33  C   UNL A   1      36.414  29.976  30.567  1.00  0.00     0.014 A 
ATOM     34  C   UNL A   1      37.621  32.075  30.424  1.00  0.00     0.014 A 
ATOM     35  C   UNL A   1      37.629  29.301  30.639  1.00  0.00     0.010 A 
ATOM     36  C   UNL A   1      38.814  31.401  30.350  1.00  0.00     0.010 A 
ATOM     37  C   UNL A   1      38.829  30.020  30.506  1.00  0.00    -0.014 A 
BRANCH  37  38
ATOM     38  C   UNL A   1      40.104  29.318  30.404  1.00  0.00     0.031 A 
ATOM     39  C   UNL A   1      40.799  29.101  31.706  1.00  0.00     0.074 A 
ATOM     40  C   UNL A   1      40.520  28.720  29.266  1.00  0.00     0.049 A 
ATOM     41  N   UNL A   1      41.955  29.548  32.071  1.00  0.00    -0.248 NA
ATOM     42  C   UNL A   1      40.070  28.399  32.777  1.00  0.00     0.031 C 
ATOM     43  C   UNL A   1      39.802  28.578  27.994  1.00  0.00     0.029 A 
ATOM     44  N   UNL A   1      41.659  28.010  29.040  1.00  0.00    -0.354 N 
ATOM     45  C   UNL A   1      42.184  29.041  33.348  1.00  0.00     0.074 A 
ATOM     46  C   UNL A   1      40.936  28.476  33.789  1.00  0.00     0.031 C 
ATOM     47  C   UNL A   1      40.407  27.642  27.230  1.00  0.00     0.029 A 
ATOM     48  C   UNL A   1      41.645  27.248  27.877  1.00  0.00     0.049 A 
ATOM     49  H   UNL A   1      42.430  28.033  29.650  1.00  0.00     0.167 HD
ATOM     50  C   UNL A   1      43.449  28.931  33.842  1.00  0.00     0.037 A 
ATOM     51  C   UNL A   1      42.573  26.338  27.491  1.00  0.00     0.037 A 
ATOM     52  C   UNL A   1      44.365  29.759  33.100  1.00  0.00     0.049 A 
ATOM     53  C   UNL A   1      43.812  26.624  28.254  1.00  0.00     0.074 A 
ATOM     54  C   UNL A   1      44.467  31.115  32.860  1.00  0.00     0.029 A 
ATOM     55  N   UNL A   1      45.153  29.156  32.151  1.00  0.00    -0.354 N 
ATOM     56  N   UNL A   1      44.533  27.698  28.088  1.00  0.00    -0.248 NA
ATOM     57  C   UNL A   1      43.991  25.940  29.525  1.00  0.00     0.031 C 
ATOM     58  C   UNL A   1      44.882  31.216  31.499  1.00  0.00     0.029 A 
ATOM     59  C   UNL A   1      45.085  29.923  31.017  1.00  0.00     0.049 A 
ATOM     60  H   UNL A   1      45.670  28.326  32.264  1.00  0.00     0.167 HD
ATOM     61  C   UNL A   1      44.907  28.069  29.370  1.00  0.00     0.074 A 
ATOM     62  C   UNL A   1      44.617  26.904  30.203  1.00  0.00     0.031 C 
ATOM     63  C   UNL A   1      45.141  29.377  29.681  1.00  0.00     0.037 A 
BRANCH  50  64
ATOM     64  C   UNL A   1      43.928  27.812  34.739  1.00  0.00     0.064 A 
ATOM     65  C   UNL A   1      43.809  26.479  34.295  1.00  0.00     0.173 A 
ATOM     66  C   UNL A   1      44.200  27.969  36.115  1.00  0.00     0.173 A 
ATOM     67  F   UNL A   1      43.536  26.207  33.010  1.00  0.00    -0.203 F 
ATOM     68  C   UNL A   1      43.868  25.396  35.177  1.00  0.00     0.198 A 
ATOM     69  C   UNL A   1      44.311  26.884  36.983  1.00  0.00     0.198 A 
ATOM     70  F   UNL A   1      44.256  29.171  36.700  1.00  0.00    -0.203 F 
ATOM     71  F   UNL A   1      43.614  24.159  34.730  1.00  0.00    -0.200 F 
ATOM     72  C   UNL A   1      44.111  25.601  36.523  1.00  0.00     0.200 A 
ATOM     73  F   UNL A   1      44.528  27.105  38.287  1.00  0.00    -0.200 F 
ATOM     74  F   UNL A   1      44.101  24.573  37.382  1.00  0.00    -0.200 F 
ENDBRANCH  50  64
BRANCH  51  75
ATOM     75  C   UNL A   1      42.378  25.068  26.751  1.00  0.00     0.064 A 
ATOM     76  C   UNL A   1      43.140  24.771  25.608  1.00  0.00     0.173 A 
ATOM     77  C   UNL A   1      41.655  24.000  27.317  1.00  0.00     0.173 A 
ATOM     78  F   UNL A   1      43.891  25.721  25.034  1.00  0.00    -0.203 F 
ATOM     79  C   UNL A   1      43.200  23.475  25.084  1.00  0.00     0.198 A 
ATOM     80  C   UNL A   1      41.713  22.709  26.790  1.00  0.00     0.198 A 
ATOM     81  F   UNL A   1      40.959  24.166  28.451  1.00  0.00    -0.203 F 
ATOM     82  F   UNL A   1      43.991  23.215  24.032  1.00  0.00    -0.200 F 
ATOM     83  C   UNL A   1      42.497  22.443  25.682  1.00  0.00     0.200 A 
ATOM     84  F   UNL A   1      41.058  21.711  27.403  1.00  0.00    -0.200 F 
ATOM     85  F   UNL A   1      42.608  21.189  25.221  1.00  0.00    -0.200 F 
ENDBRANCH  51  75
BRANCH  63  86
ATOM     86  C   UNL A   1      45.241  30.363  28.549  1.00  0.00     0.064 A 
ATOM     87  C   UNL A   1      44.149  31.061  28.003  1.00  0.00     0.173 A 
ATOM     88  C   UNL A   1      46.519  30.717  28.096  1.00  0.00     0.173 A 
ATOM     89  F   UNL A   1      42.903  30.856  28.448  1.00  0.00    -0.203 F 
ATOM     90  C   UNL A   1      44.328  32.034  27.020  1.00  0.00     0.198 A 
ATOM     91  C   UNL A   1      46.699  31.716  27.144  1.00  0.00     0.198 A 
ATOM     92  F   UNL A   1      47.604  30.124  28.618  1.00  0.00    -0.203 F 
ATOM     93  F   UNL A   1      43.268  32.675  26.506  1.00  0.00    -0.200 F 
ATOM     94  C   UNL A   1      45.605  32.366  26.598  1.00  0.00     0.200 A 
ATOM     95  F   UNL A   1      47.938  32.067  26.776  1.00  0.00    -0.200 F 
ATOM     96  F   UNL A   1      45.781  33.330  25.684  1.00  0.00    -0.200 F 
ENDBRANCH  63  86
ENDBRANCH  37  38
ENDBRANCH  29  32
ENDBRANCH  27  28
ENDBRANCH  26  27
ENDBRANCH  25  26
ENDBRANCH   1  25
TORSDOF 18
ENDMDL
