MODEL 1
REMARK VINA RESULT:     -11.0      0.000      0.000
REMARK SMILES CC[NH2+][C@@](C)(C[C@@H](C)Sc1ccncc1)C(=O)NCCCCCCNC(=O)c1ccc(-c2c3nc(c(-c4c(F)c(F)c(F)c(F)c4F)c4ccc([nH]4)c(-c4c(F)c(F)c(F)c(F)c4F)c4nc(c(-c5c(F)c(F)c(F)c(F)c5F)c5ccc2[nH]5)C=C4)C=C3)cc1
REMARK SMILES IDX 20 1 19 2 18 3 16 4 17 5 4 7 5 8 3 9 2 12 1 13 6 14 7 15
REMARK SMILES IDX 8 16 9 17 10 18 11 19 15 20 12 21 14 22 13 23 21 24 22 25
REMARK SMILES IDX 23 26 24 27 25 28 26 29 27 31 28 32 29 33 90 34 30 35 89 36
REMARK SMILES IDX 31 37 32 38 33 39 83 40 34 41 88 42 82 43 84 44 35 45 87 46
REMARK SMILES IDX 81 47 80 48 36 50 68 51 48 52 67 53 49 54 52 55 66 56 85 57
REMARK SMILES IDX 50 58 51 59 65 61 86 62 53 63 37 64 38 65 46 66 39 67 40 68
REMARK SMILES IDX 44 69 47 70 41 71 42 72 45 73 43 74 69 75 70 76 78 77 71 78
REMARK SMILES IDX 72 79 76 80 79 81 73 82 74 83 77 84 75 85 54 86 55 87 63 88
REMARK SMILES IDX 56 89 57 90 61 91 64 92 58 93 59 94 62 95 60 96
REMARK H PARENT 18 6 3 10 3 11 25 30 84 49 52 60
REMARK Flexibility Score: inf
ROOT
ATOM      1  C   UNL A   1      31.764  28.632  27.523  1.00  0.00     0.021 C 
ENDROOT
BRANCH   1   2
ATOM      2  C   UNL A   1      31.647  27.494  26.513  1.00  0.00     0.116 C 
BRANCH   2   3
ATOM      3  N   UNL A   1      32.692  27.573  25.516  1.00  0.00    -0.351 N 
ATOM      4  C   UNL A   1      32.727  27.362  24.172  1.00  0.00     0.281 C 
ATOM      5  O   UNL A   1      33.861  27.407  23.683  1.00  0.00    -0.268 OA
ATOM      6  H   UNL A   1      33.565  27.835  25.889  1.00  0.00     0.163 HD
BRANCH   4   7
ATOM      7  C   UNL A   1      31.434  27.099  23.321  1.00  0.00     0.173 C 
ATOM      8  C   UNL A   1      30.204  27.024  24.260  1.00  0.00     0.090 C 
BRANCH   7   9
ATOM      9  N   UNL A   1      31.194  28.194  22.328  1.00  0.00    -0.334 N 
ATOM     10  H   UNL A   1      32.103  28.518  21.995  1.00  0.00     0.347 HD
ATOM     11  H   UNL A   1      30.608  27.787  21.601  1.00  0.00     0.347 HD
BRANCH   9  12
ATOM     12  C   UNL A   1      30.456  29.359  22.832  1.00  0.00     0.257 C 
ATOM     13  C   UNL A   1      29.685  30.013  21.694  1.00  0.00     0.071 C 
ENDBRANCH   9  12
ENDBRANCH   7   9
BRANCH   7  14
ATOM     14  C   UNL A   1      31.530  25.767  22.514  1.00  0.00     0.093 C 
BRANCH  14  15
ATOM     15  C   UNL A   1      31.892  24.459  23.250  1.00  0.00     0.055 C 
ATOM     16  C   UNL A   1      30.776  23.438  23.437  1.00  0.00     0.020 C 
BRANCH  15  17
ATOM     17  S   UNL A   1      33.373  23.646  22.445  1.00  0.00    -0.123 SA
BRANCH  17  18
ATOM     18  C   UNL A   1      34.316  22.976  23.808  1.00  0.00     0.011 A 
ATOM     19  C   UNL A   1      35.207  23.774  24.526  1.00  0.00     0.035 A 
ATOM     20  C   UNL A   1      34.069  21.681  24.261  1.00  0.00     0.035 A 
ATOM     21  C   UNL A   1      35.855  23.228  25.623  1.00  0.00     0.112 A 
ATOM     22  C   UNL A   1      34.761  21.227  25.376  1.00  0.00     0.112 A 
ATOM     23  N   UNL A   1      35.667  21.964  26.053  1.00  0.00    -0.265 NA
ENDBRANCH  17  18
ENDBRANCH  15  17
ENDBRANCH  14  15
ENDBRANCH   7  14
ENDBRANCH   4   7
ENDBRANCH   2   3
ENDBRANCH   1   2
BRANCH   1  24
ATOM     24  C   UNL A   1      32.476  29.876  26.990  1.00  0.00     0.002 C 
BRANCH  24  25
ATOM     25  C   UNL A   1      31.594  30.779  26.123  1.00  0.00     0.002 C 
BRANCH  25  26
ATOM     26  C   UNL A   1      31.360  32.177  26.699  1.00  0.00     0.021 C 
BRANCH  26  27
ATOM     27  C   UNL A   1      32.610  32.829  27.276  1.00  0.00     0.116 C 
BRANCH  27  28
ATOM     28  N   UNL A   1      32.381  34.228  27.599  1.00  0.00    -0.352 N 
ATOM     29  C   UNL A   1      32.969  34.987  28.578  1.00  0.00     0.251 C 
ATOM     30  H   UNL A   1      31.715  34.692  27.042  1.00  0.00     0.163 HD
ATOM     31  O   UNL A   1      32.511  36.086  28.880  1.00  0.00    -0.269 OA
BRANCH  29  32
ATOM     32  C   UNL A   1      34.154  34.460  29.282  1.00  0.00     0.039 A 
ATOM     33  C   UNL A   1      33.990  33.832  30.517  1.00  0.00     0.014 A 
ATOM     34  C   UNL A   1      35.424  34.575  28.708  1.00  0.00     0.014 A 
ATOM     35  C   UNL A   1      35.096  33.269  31.156  1.00  0.00     0.010 A 
ATOM     36  C   UNL A   1      36.510  33.948  29.307  1.00  0.00     0.010 A 
ATOM     37  C   UNL A   1      36.360  33.297  30.542  1.00  0.00    -0.014 A 
BRANCH  37  38
ATOM     38  C   UNL A   1      37.547  32.673  31.179  1.00  0.00     0.031 A 
ATOM     39  C   UNL A   1      38.251  31.539  30.486  1.00  0.00     0.074 A 
ATOM     40  C   UNL A   1      37.941  33.072  32.405  1.00  0.00     0.049 A 
ATOM     41  N   UNL A   1      39.228  30.782  30.919  1.00  0.00    -0.248 NA
ATOM     42  C   UNL A   1      37.777  31.189  29.137  1.00  0.00     0.031 C 
ATOM     43  C   UNL A   1      37.319  34.139  33.189  1.00  0.00     0.029 A 
ATOM     44  N   UNL A   1      38.951  32.613  33.214  1.00  0.00    -0.354 N 
ATOM     45  C   UNL A   1      39.464  29.858  29.910  1.00  0.00     0.074 A 
ATOM     46  C   UNL A   1      38.505  30.116  28.861  1.00  0.00     0.031 C 
ATOM     47  C   UNL A   1      37.966  34.261  34.360  1.00  0.00     0.029 A 
ATOM     48  C   UNL A   1      39.019  33.250  34.429  1.00  0.00     0.049 A 
ATOM     49  H   UNL A   1      39.569  31.894  32.948  1.00  0.00     0.167 HD
ATOM     50  C   UNL A   1      40.410  28.891  29.860  1.00  0.00     0.037 A 
ATOM     51  C   UNL A   1      39.823  33.028  35.486  1.00  0.00     0.037 A 
ATOM     52  C   UNL A   1      41.388  28.663  30.890  1.00  0.00     0.049 A 
ATOM     53  C   UNL A   1      40.856  31.934  35.403  1.00  0.00     0.074 A 
ATOM     54  C   UNL A   1      42.433  27.756  30.899  1.00  0.00     0.029 A 
ATOM     55  N   UNL A   1      41.440  29.347  32.095  1.00  0.00    -0.354 N 
ATOM     56  N   UNL A   1      41.119  31.114  34.413  1.00  0.00    -0.248 NA
ATOM     57  C   UNL A   1      41.710  31.734  36.583  1.00  0.00     0.031 C 
ATOM     58  C   UNL A   1      43.080  27.848  32.134  1.00  0.00     0.029 A 
ATOM     59  C   UNL A   1      42.482  28.860  32.867  1.00  0.00     0.049 A 
ATOM     60  H   UNL A   1      40.827  30.070  32.362  1.00  0.00     0.167 HD
ATOM     61  C   UNL A   1      42.192  30.339  34.833  1.00  0.00     0.074 A 
ATOM     62  C   UNL A   1      42.538  30.789  36.164  1.00  0.00     0.031 C 
ATOM     63  C   UNL A   1      42.835  29.343  34.175  1.00  0.00     0.037 A 
BRANCH  50  64
ATOM     64  C   UNL A   1      40.447  28.001  28.652  1.00  0.00     0.064 A 
ATOM     65  C   UNL A   1      41.202  28.327  27.516  1.00  0.00     0.173 A 
ATOM     66  C   UNL A   1      39.785  26.763  28.667  1.00  0.00     0.173 A 
ATOM     67  F   UNL A   1      41.846  29.502  27.448  1.00  0.00    -0.203 F 
ATOM     68  C   UNL A   1      41.282  27.453  26.435  1.00  0.00     0.198 A 
ATOM     69  C   UNL A   1      39.892  25.879  27.596  1.00  0.00     0.198 A 
ATOM     70  F   UNL A   1      39.054  26.400  29.732  1.00  0.00    -0.203 F 
ATOM     71  F   UNL A   1      41.984  27.800  25.347  1.00  0.00    -0.200 F 
ATOM     72  C   UNL A   1      40.637  26.226  26.480  1.00  0.00     0.200 A 
ATOM     73  F   UNL A   1      39.283  24.687  27.650  1.00  0.00    -0.200 F 
ATOM     74  F   UNL A   1      40.735  25.377  25.448  1.00  0.00    -0.200 F 
ENDBRANCH  50  64
BRANCH  51  75
ATOM     75  C   UNL A   1      39.697  33.850  36.721  1.00  0.00     0.064 A 
ATOM     76  C   UNL A   1      38.885  33.433  37.787  1.00  0.00     0.173 A 
ATOM     77  C   UNL A   1      40.338  35.093  36.841  1.00  0.00     0.173 A 
ATOM     78  F   UNL A   1      38.235  32.262  37.714  1.00  0.00    -0.203 F 
ATOM     79  C   UNL A   1      38.684  34.244  38.902  1.00  0.00     0.198 A 
ATOM     80  C   UNL A   1      40.165  35.886  37.973  1.00  0.00     0.198 A 
ATOM     81  F   UNL A   1      41.131  35.539  35.857  1.00  0.00    -0.203 F 
ATOM     82  F   UNL A   1      37.843  33.852  39.869  1.00  0.00    -0.200 F 
ATOM     83  C   UNL A   1      39.325  35.469  38.995  1.00  0.00     0.200 A 
ATOM     84  F   UNL A   1      40.799  37.063  38.067  1.00  0.00    -0.200 F 
ATOM     85  F   UNL A   1      39.123  36.255  40.061  1.00  0.00    -0.200 F 
ENDBRANCH  51  75
BRANCH  63  86
ATOM     86  C   UNL A   1      44.022  28.716  34.847  1.00  0.00     0.064 A 
ATOM     87  C   UNL A   1      43.904  27.569  35.644  1.00  0.00     0.173 A 
ATOM     88  C   UNL A   1      45.307  29.241  34.636  1.00  0.00     0.173 A 
ATOM     89  F   UNL A   1      42.697  27.036  35.887  1.00  0.00    -0.203 F 
ATOM     90  C   UNL A   1      45.027  26.982  36.222  1.00  0.00     0.198 A 
ATOM     91  C   UNL A   1      46.430  28.632  35.186  1.00  0.00     0.198 A 
ATOM     92  F   UNL A   1      45.476  30.333  33.875  1.00  0.00    -0.203 F 
ATOM     93  F   UNL A   1      44.886  25.912  37.017  1.00  0.00    -0.200 F 
ATOM     94  C   UNL A   1      46.289  27.508  35.985  1.00  0.00     0.200 A 
ATOM     95  F   UNL A   1      47.650  29.131  34.940  1.00  0.00    -0.200 F 
ATOM     96  F   UNL A   1      47.369  26.932  36.529  1.00  0.00    -0.200 F 
ENDBRANCH  63  86
ENDBRANCH  37  38
ENDBRANCH  29  32
ENDBRANCH  27  28
ENDBRANCH  26  27
ENDBRANCH  25  26
ENDBRANCH  24  25
ENDBRANCH   1  24
TORSDOF 19
ENDMDL
MODEL 2
REMARK VINA RESULT:     -10.8      1.211      1.890
REMARK SMILES CC[NH2+][C@@](C)(C[C@@H](C)Sc1ccncc1)C(=O)NCCCCCCNC(=O)c1ccc(-c2c3nc(c(-c4c(F)c(F)c(F)c(F)c4F)c4ccc([nH]4)c(-c4c(F)c(F)c(F)c(F)c4F)c4nc(c(-c5c(F)c(F)c(F)c(F)c5F)c5ccc2[nH]5)C=C4)C=C3)cc1
REMARK SMILES IDX 20 1 19 2 18 3 16 4 17 5 4 7 5 8 3 9 2 12 1 13 6 14 7 15
REMARK SMILES IDX 8 16 9 17 10 18 11 19 15 20 12 21 14 22 13 23 21 24 22 25
REMARK SMILES IDX 23 26 24 27 25 28 26 29 27 31 28 32 29 33 90 34 30 35 89 36
REMARK SMILES IDX 31 37 32 38 33 39 83 40 34 41 88 42 82 43 84 44 35 45 87 46
REMARK SMILES IDX 81 47 80 48 36 50 68 51 48 52 67 53 49 54 52 55 66 56 85 57
REMARK SMILES IDX 50 58 51 59 65 61 86 62 53 63 37 64 38 65 46 66 39 67 40 68
REMARK SMILES IDX 44 69 47 70 41 71 42 72 45 73 43 74 69 75 70 76 78 77 71 78
REMARK SMILES IDX 72 79 76 80 79 81 73 82 74 83 77 84 75 85 54 86 55 87 63 88
REMARK SMILES IDX 56 89 57 90 61 91 64 92 58 93 59 94 62 95 60 96
REMARK H PARENT 18 6 3 10 3 11 25 30 84 49 52 60
REMARK Flexibility Score: inf
ROOT
ATOM      1  C   UNL A   1      32.789  29.280  24.847  1.00  0.00     0.021 C 
ENDROOT
BRANCH   1   2
ATOM      2  C   UNL A   1      33.145  27.902  25.397  1.00  0.00     0.116 C 
BRANCH   2   3
ATOM      3  N   UNL A   1      31.964  27.200  25.850  1.00  0.00    -0.351 N 
ATOM      4  C   UNL A   1      31.200  26.206  25.320  1.00  0.00     0.281 C 
ATOM      5  O   UNL A   1      30.177  25.957  25.967  1.00  0.00    -0.268 OA
ATOM      6  H   UNL A   1      31.644  27.507  26.730  1.00  0.00     0.163 HD
BRANCH   4   7
ATOM      7  C   UNL A   1      31.597  25.437  24.010  1.00  0.00     0.173 C 
ATOM      8  C   UNL A   1      30.377  24.637  23.491  1.00  0.00     0.090 C 
BRANCH   7   9
ATOM      9  N   UNL A   1      32.030  26.378  22.928  1.00  0.00    -0.334 N 
ATOM     10  H   UNL A   1      31.213  26.594  22.356  1.00  0.00     0.347 HD
ATOM     11  H   UNL A   1      32.427  27.187  23.405  1.00  0.00     0.347 HD
BRANCH   9  12
ATOM     12  C   UNL A   1      33.086  25.881  22.037  1.00  0.00     0.257 C 
ATOM     13  C   UNL A   1      32.511  25.621  20.651  1.00  0.00     0.071 C 
ENDBRANCH   9  12
ENDBRANCH   7   9
BRANCH   7  14
ATOM     14  C   UNL A   1      32.779  24.449  24.251  1.00  0.00     0.093 C 
BRANCH  14  15
ATOM     15  C   UNL A   1      32.504  22.930  24.274  1.00  0.00     0.055 C 
ATOM     16  C   UNL A   1      32.934  22.128  23.052  1.00  0.00     0.020 C 
BRANCH  15  17
ATOM     17  S   UNL A   1      33.216  22.161  25.825  1.00  0.00    -0.123 SA
BRANCH  17  18
ATOM     18  C   UNL A   1      34.984  22.164  25.560  1.00  0.00     0.011 A 
ATOM     19  C   UNL A   1      35.760  23.270  25.905  1.00  0.00     0.035 A 
ATOM     20  C   UNL A   1      35.631  21.005  25.133  1.00  0.00     0.035 A 
ATOM     21  C   UNL A   1      37.135  23.193  25.753  1.00  0.00     0.112 A 
ATOM     22  C   UNL A   1      37.013  21.021  25.021  1.00  0.00     0.112 A 
ATOM     23  N   UNL A   1      37.780  22.098  25.298  1.00  0.00    -0.265 NA
ENDBRANCH  17  18
ENDBRANCH  15  17
ENDBRANCH  14  15
ENDBRANCH   7  14
ENDBRANCH   4   7
ENDBRANCH   2   3
ENDBRANCH   1   2
BRANCH   1  24
ATOM     24  C   UNL A   1      31.519  29.888  25.446  1.00  0.00     0.002 C 
BRANCH  24  25
ATOM     25  C   UNL A   1      31.720  30.528  26.822  1.00  0.00     0.002 C 
BRANCH  25  26
ATOM     26  C   UNL A   1      31.424  32.029  26.871  1.00  0.00     0.021 C 
BRANCH  26  27
ATOM     27  C   UNL A   1      32.668  32.908  26.876  1.00  0.00     0.116 C 
BRANCH  27  28
ATOM     28  N   UNL A   1      32.425  34.170  27.555  1.00  0.00    -0.352 N 
ATOM     29  C   UNL A   1      33.004  34.649  28.702  1.00  0.00     0.251 C 
ATOM     30  H   UNL A   1      31.757  34.759  27.137  1.00  0.00     0.163 HD
ATOM     31  O   UNL A   1      32.536  35.626  29.281  1.00  0.00    -0.269 OA
BRANCH  29  32
ATOM     32  C   UNL A   1      34.193  33.965  29.248  1.00  0.00     0.039 A 
ATOM     33  C   UNL A   1      35.463  34.437  28.915  1.00  0.00     0.014 A 
ATOM     34  C   UNL A   1      34.045  32.869  30.102  1.00  0.00     0.014 A 
ATOM     35  C   UNL A   1      36.590  33.841  29.482  1.00  0.00     0.010 A 
ATOM     36  C   UNL A   1      35.163  32.327  30.726  1.00  0.00     0.010 A 
ATOM     37  C   UNL A   1      36.448  32.800  30.415  1.00  0.00    -0.014 A 
BRANCH  37  38
ATOM     38  C   UNL A   1      37.626  32.172  31.064  1.00  0.00     0.031 A 
ATOM     39  C   UNL A   1      38.402  31.113  30.329  1.00  0.00     0.074 A 
ATOM     40  C   UNL A   1      37.949  32.495  32.332  1.00  0.00     0.049 A 
ATOM     41  N   UNL A   1      39.384  30.360  30.755  1.00  0.00    -0.248 NA
ATOM     42  C   UNL A   1      38.004  30.845  28.937  1.00  0.00     0.031 C 
ATOM     43  C   UNL A   1      37.253  33.483  33.158  1.00  0.00     0.029 A 
ATOM     44  N   UNL A   1      38.937  32.013  33.155  1.00  0.00    -0.354 N 
ATOM     45  C   UNL A   1      39.700  29.518  29.696  1.00  0.00     0.074 A 
ATOM     46  C   UNL A   1      38.781  29.819  28.623  1.00  0.00     0.031 C 
ATOM     47  C   UNL A   1      37.842  33.542  34.364  1.00  0.00     0.029 A 
ATOM     48  C   UNL A   1      38.926  32.564  34.414  1.00  0.00     0.049 A 
ATOM     49  H   UNL A   1      39.592  31.335  32.870  1.00  0.00     0.167 HD
ATOM     50  C   UNL A   1      40.682  28.589  29.625  1.00  0.00     0.037 A 
ATOM     51  C   UNL A   1      39.688  32.294  35.490  1.00  0.00     0.037 A 
ATOM     52  C   UNL A   1      41.619  28.320  30.683  1.00  0.00     0.049 A 
ATOM     53  C   UNL A   1      40.763  31.243  35.381  1.00  0.00     0.074 A 
ATOM     54  C   UNL A   1      42.695  27.449  30.679  1.00  0.00     0.029 A 
ATOM     55  N   UNL A   1      41.591  28.918  31.933  1.00  0.00    -0.354 N 
ATOM     56  N   UNL A   1      41.100  30.505  34.351  1.00  0.00    -0.248 NA
ATOM     57  C   UNL A   1      41.568  30.988  36.585  1.00  0.00     0.031 C 
ATOM     58  C   UNL A   1      43.280  27.475  31.947  1.00  0.00     0.029 A 
ATOM     59  C   UNL A   1      42.614  28.412  32.719  1.00  0.00     0.049 A 
ATOM     60  H   UNL A   1      40.940  29.600  32.220  1.00  0.00     0.167 HD
ATOM     61  C   UNL A   1      42.180  29.737  34.767  1.00  0.00     0.074 A 
ATOM     62  C   UNL A   1      42.448  30.103  36.141  1.00  0.00     0.031 C 
ATOM     63  C   UNL A   1      42.888  28.813  34.074  1.00  0.00     0.037 A 
BRANCH  50  64
ATOM     64  C   UNL A   1      40.806  27.789  28.362  1.00  0.00     0.064 A 
ATOM     65  C   UNL A   1      41.614  28.211  27.295  1.00  0.00     0.173 A 
ATOM     66  C   UNL A   1      40.175  26.539  28.252  1.00  0.00     0.173 A 
ATOM     67  F   UNL A   1      42.232  29.401  27.346  1.00  0.00    -0.203 F 
ATOM     68  C   UNL A   1      41.774  27.419  26.161  1.00  0.00     0.198 A 
ATOM     69  C   UNL A   1      40.362  25.737  27.129  1.00  0.00     0.198 A 
ATOM     70  F   UNL A   1      39.396  26.086  29.246  1.00  0.00    -0.203 F 
ATOM     71  F   UNL A   1      42.525  27.857  25.142  1.00  0.00    -0.200 F 
ATOM     72  C   UNL A   1      41.158  26.179  26.084  1.00  0.00     0.200 A 
ATOM     73  F   UNL A   1      39.780  24.532  27.065  1.00  0.00    -0.200 F 
ATOM     74  F   UNL A   1      41.333  25.408  25.002  1.00  0.00    -0.200 F 
ENDBRANCH  50  64
BRANCH  51  75
ATOM     75  C   UNL A   1      39.476  33.021  36.772  1.00  0.00     0.064 A 
ATOM     76  C   UNL A   1      38.507  32.595  37.693  1.00  0.00     0.173 A 
ATOM     77  C   UNL A   1      40.194  34.188  37.078  1.00  0.00     0.173 A 
ATOM     78  F   UNL A   1      37.780  31.497  37.438  1.00  0.00    -0.203 F 
ATOM     79  C   UNL A   1      38.235  33.328  38.846  1.00  0.00     0.198 A 
ATOM     80  C   UNL A   1      39.946  34.900  38.250  1.00  0.00     0.198 A 
ATOM     81  F   UNL A   1      41.135  34.638  36.238  1.00  0.00    -0.203 F 
ATOM     82  F   UNL A   1      37.253  32.936  39.669  1.00  0.00    -0.200 F 
ATOM     83  C   UNL A   1      38.955  34.479  39.124  1.00  0.00     0.200 A 
ATOM     84  F   UNL A   1      40.655  36.002  38.524  1.00  0.00    -0.200 F 
ATOM     85  F   UNL A   1      38.686  35.190  40.227  1.00  0.00    -0.200 F 
ENDBRANCH  51  75
BRANCH  63  86
ATOM     86  C   UNL A   1      44.065  28.179  34.756  1.00  0.00     0.064 A 
ATOM     87  C   UNL A   1      45.337  28.769  34.744  1.00  0.00     0.173 A 
ATOM     88  C   UNL A   1      43.898  26.992  35.487  1.00  0.00     0.173 A 
ATOM     89  F   UNL A   1      45.552  29.897  34.049  1.00  0.00    -0.203 F 
ATOM     90  C   UNL A   1      46.403  28.182  35.420  1.00  0.00     0.198 A 
ATOM     91  C   UNL A   1      44.957  26.427  36.190  1.00  0.00     0.198 A 
ATOM     92  F   UNL A   1      42.700  26.391  35.538  1.00  0.00    -0.203 F 
ATOM     93  F   UNL A   1      47.621  28.739  35.357  1.00  0.00    -0.200 F 
ATOM     94  C   UNL A   1      46.211  27.018  36.150  1.00  0.00     0.200 A 
ATOM     95  F   UNL A   1      44.764  25.313  36.910  1.00  0.00    -0.200 F 
ATOM     96  F   UNL A   1      47.235  26.464  36.814  1.00  0.00    -0.200 F 
ENDBRANCH  63  86
ENDBRANCH  37  38
ENDBRANCH  29  32
ENDBRANCH  27  28
ENDBRANCH  26  27
ENDBRANCH  25  26
ENDBRANCH  24  25
ENDBRANCH   1  24
TORSDOF 19
ENDMDL
MODEL 3
REMARK VINA RESULT:     -10.7      3.182      8.506
REMARK SMILES CC[NH2+][C@@](C)(C[C@@H](C)Sc1ccncc1)C(=O)NCCCCCCNC(=O)c1ccc(-c2c3nc(c(-c4c(F)c(F)c(F)c(F)c4F)c4ccc([nH]4)c(-c4c(F)c(F)c(F)c(F)c4F)c4nc(c(-c5c(F)c(F)c(F)c(F)c5F)c5ccc2[nH]5)C=C4)C=C3)cc1
REMARK SMILES IDX 20 1 19 2 18 3 16 4 17 5 4 7 5 8 3 9 2 12 1 13 6 14 7 15
REMARK SMILES IDX 8 16 9 17 10 18 11 19 15 20 12 21 14 22 13 23 21 24 22 25
REMARK SMILES IDX 23 26 24 27 25 28 26 29 27 31 28 32 29 33 90 34 30 35 89 36
REMARK SMILES IDX 31 37 32 38 33 39 83 40 34 41 88 42 82 43 84 44 35 45 87 46
REMARK SMILES IDX 81 47 80 48 36 50 68 51 48 52 67 53 49 54 52 55 66 56 85 57
REMARK SMILES IDX 50 58 51 59 65 61 86 62 53 63 37 64 38 65 46 66 39 67 40 68
REMARK SMILES IDX 44 69 47 70 41 71 42 72 45 73 43 74 69 75 70 76 78 77 71 78
REMARK SMILES IDX 72 79 76 80 79 81 73 82 74 83 77 84 75 85 54 86 55 87 63 88
REMARK SMILES IDX 56 89 57 90 61 91 64 92 58 93 59 94 62 95 60 96
REMARK H PARENT 18 6 3 10 3 11 25 30 84 49 52 60
REMARK Flexibility Score: inf
ROOT
ATOM      1  C   UNL A   1      30.538  26.613  25.153  1.00  0.00     0.021 C 
ENDROOT
BRANCH   1   2
ATOM      2  C   UNL A   1      31.344  26.446  26.438  1.00  0.00     0.116 C 
BRANCH   2   3
ATOM      3  N   UNL A   1      31.302  25.078  26.906  1.00  0.00    -0.351 N 
ATOM      4  C   UNL A   1      32.051  23.972  26.646  1.00  0.00     0.281 C 
ATOM      5  O   UNL A   1      31.614  22.935  27.156  1.00  0.00    -0.268 OA
ATOM      6  H   UNL A   1      30.575  24.911  27.550  1.00  0.00     0.163 HD
BRANCH   4   7
ATOM      7  C   UNL A   1      33.364  24.020  25.785  1.00  0.00     0.173 C 
ATOM      8  C   UNL A   1      33.988  25.435  25.873  1.00  0.00     0.090 C 
BRANCH   7   9
ATOM      9  N   UNL A   1      34.379  23.033  26.272  1.00  0.00    -0.334 N 
ATOM     10  H   UNL A   1      34.834  23.431  27.094  1.00  0.00     0.347 HD
ATOM     11  H   UNL A   1      33.864  22.173  26.460  1.00  0.00     0.347 HD
BRANCH   9  12
ATOM     12  C   UNL A   1      35.427  22.670  25.309  1.00  0.00     0.257 C 
ATOM     13  C   UNL A   1      36.784  23.126  25.827  1.00  0.00     0.071 C 
ENDBRANCH   9  12
ENDBRANCH   7   9
BRANCH   7  14
ATOM     14  C   UNL A   1      33.088  23.686  24.287  1.00  0.00     0.093 C 
BRANCH  14  15
ATOM     15  C   UNL A   1      31.812  22.905  23.906  1.00  0.00     0.055 C 
ATOM     16  C   UNL A   1      30.623  23.719  23.411  1.00  0.00     0.020 C 
BRANCH  15  17
ATOM     17  S   UNL A   1      32.216  21.553  22.677  1.00  0.00    -0.123 SA
BRANCH  17  18
ATOM     18  C   UNL A   1      32.456  20.091  23.676  1.00  0.00     0.011 A 
ATOM     19  C   UNL A   1      32.560  20.179  25.064  1.00  0.00     0.035 A 
ATOM     20  C   UNL A   1      32.403  18.826  23.091  1.00  0.00     0.035 A 
ATOM     21  C   UNL A   1      32.667  19.009  25.799  1.00  0.00     0.112 A 
ATOM     22  C   UNL A   1      32.508  17.712  23.912  1.00  0.00     0.112 A 
ATOM     23  N   UNL A   1      32.664  17.776  25.253  1.00  0.00    -0.265 NA
ENDBRANCH  17  18
ENDBRANCH  15  17
ENDBRANCH  14  15
ENDBRANCH   7  14
ENDBRANCH   4   7
ENDBRANCH   2   3
ENDBRANCH   1   2
BRANCH   1  24
ATOM     24  C   UNL A   1      31.069  27.698  24.214  1.00  0.00     0.002 C 
BRANCH  24  25
ATOM     25  C   UNL A   1      31.748  28.868  24.931  1.00  0.00     0.002 C 
BRANCH  25  26
ATOM     26  C   UNL A   1      33.267  28.924  24.753  1.00  0.00     0.021 C 
BRANCH  26  27
ATOM     27  C   UNL A   1      34.041  29.047  26.059  1.00  0.00     0.116 C 
BRANCH  27  28
ATOM     28  N   UNL A   1      33.823  30.339  26.688  1.00  0.00    -0.352 N 
ATOM     29  C   UNL A   1      34.515  30.914  27.723  1.00  0.00     0.251 C 
ATOM     30  H   UNL A   1      33.080  30.872  26.324  1.00  0.00     0.163 HD
ATOM     31  O   UNL A   1      34.075  31.906  28.298  1.00  0.00    -0.269 OA
BRANCH  29  32
ATOM     32  C   UNL A   1      35.794  30.316  28.153  1.00  0.00     0.039 A 
ATOM     33  C   UNL A   1      36.915  30.441  27.330  1.00  0.00     0.014 A 
ATOM     34  C   UNL A   1      35.884  29.650  29.378  1.00  0.00     0.014 A 
ATOM     35  C   UNL A   1      38.144  29.940  27.761  1.00  0.00     0.010 A 
ATOM     36  C   UNL A   1      37.124  29.221  29.839  1.00  0.00     0.010 A 
ATOM     37  C   UNL A   1      38.265  29.353  29.032  1.00  0.00    -0.014 A 
BRANCH  37  38
ATOM     38  C   UNL A   1      39.567  28.846  29.533  1.00  0.00     0.031 A 
ATOM     39  C   UNL A   1      40.349  29.663  30.525  1.00  0.00     0.074 A 
ATOM     40  C   UNL A   1      40.077  27.699  29.043  1.00  0.00     0.049 A 
ATOM     41  N   UNL A   1      41.554  29.462  30.997  1.00  0.00    -0.248 NA
ATOM     42  C   UNL A   1      39.704  30.885  31.034  1.00  0.00     0.031 C 
ATOM     43  C   UNL A   1      39.428  26.836  28.055  1.00  0.00     0.029 A 
ATOM     44  N   UNL A   1      41.271  27.070  29.297  1.00  0.00    -0.354 N 
ATOM     45  C   UNL A   1      41.815  30.539  31.834  1.00  0.00     0.074 A 
ATOM     46  C   UNL A   1      40.667  31.415  31.774  1.00  0.00     0.031 C 
ATOM     47  C   UNL A   1      40.224  25.786  27.796  1.00  0.00     0.029 A 
ATOM     48  C   UNL A   1      41.460  25.924  28.562  1.00  0.00     0.049 A 
ATOM     49  H   UNL A   1      41.931  27.408  29.946  1.00  0.00     0.167 HD
ATOM     50  C   UNL A   1      42.911  30.766  32.596  1.00  0.00     0.037 A 
ATOM     51  C   UNL A   1      42.518  25.094  28.498  1.00  0.00     0.037 A 
ATOM     52  C   UNL A   1      44.035  29.872  32.681  1.00  0.00     0.049 A 
ATOM     53  C   UNL A   1      43.728  25.384  29.349  1.00  0.00     0.074 A 
ATOM     54  C   UNL A   1      45.160  29.978  33.480  1.00  0.00     0.029 A 
ATOM     55  N   UNL A   1      44.176  28.709  31.941  1.00  0.00    -0.354 N 
ATOM     56  N   UNL A   1      43.934  26.367  30.191  1.00  0.00    -0.248 NA
ATOM     57  C   UNL A   1      44.855  24.445  29.243  1.00  0.00     0.031 C 
ATOM     58  C   UNL A   1      46.010  28.912  33.179  1.00  0.00     0.029 A 
ATOM     59  C   UNL A   1      45.385  28.103  32.244  1.00  0.00     0.049 A 
ATOM     60  H   UNL A   1      43.516  28.365  31.296  1.00  0.00     0.167 HD
ATOM     61  C   UNL A   1      45.187  26.139  30.747  1.00  0.00     0.074 A 
ATOM     62  C   UNL A   1      45.693  24.921  30.151  1.00  0.00     0.031 C 
ATOM     63  C   UNL A   1      45.858  26.872  31.668  1.00  0.00     0.037 A 
BRANCH  50  64
ATOM     64  C   UNL A   1      42.958  32.028  33.407  1.00  0.00     0.064 A 
ATOM     65  C   UNL A   1      43.466  33.225  32.881  1.00  0.00     0.173 A 
ATOM     66  C   UNL A   1      42.409  32.059  34.699  1.00  0.00     0.173 A 
ATOM     67  F   UNL A   1      44.010  33.247  31.655  1.00  0.00    -0.203 F 
ATOM     68  C   UNL A   1      43.435  34.403  33.624  1.00  0.00     0.198 A 
ATOM     69  C   UNL A   1      42.352  33.245  35.425  1.00  0.00     0.198 A 
ATOM     70  F   UNL A   1      41.905  30.942  35.246  1.00  0.00    -0.203 F 
ATOM     71  F   UNL A   1      43.955  35.527  33.113  1.00  0.00    -0.200 F 
ATOM     72  C   UNL A   1      42.868  34.414  34.889  1.00  0.00     0.200 A 
ATOM     73  F   UNL A   1      41.788  33.257  36.640  1.00  0.00    -0.200 F 
ATOM     74  F   UNL A   1      42.818  35.554  35.592  1.00  0.00    -0.200 F 
ENDBRANCH  50  64
BRANCH  51  75
ATOM     75  C   UNL A   1      42.497  23.906  27.602  1.00  0.00     0.064 A 
ATOM     76  C   UNL A   1      42.088  22.650  28.075  1.00  0.00     0.173 A 
ATOM     77  C   UNL A   1      42.936  23.986  26.271  1.00  0.00     0.173 A 
ATOM     78  F   UNL A   1      41.678  22.515  29.344  1.00  0.00    -0.203 F 
ATOM     79  C   UNL A   1      42.161  21.516  27.269  1.00  0.00     0.198 A 
ATOM     80  C   UNL A   1      42.973  22.858  25.455  1.00  0.00     0.198 A 
ATOM     81  F   UNL A   1      43.332  25.162  25.763  1.00  0.00    -0.203 F 
ATOM     82  F   UNL A   1      41.834  20.318  27.773  1.00  0.00    -0.200 F 
ATOM     83  C   UNL A   1      42.602  21.620  25.959  1.00  0.00     0.200 A 
ATOM     84  F   UNL A   1      43.384  22.966  24.184  1.00  0.00    -0.200 F 
ATOM     85  F   UNL A   1      42.682  20.528  25.187  1.00  0.00    -0.200 F 
ENDBRANCH  51  75
BRANCH  63  86
ATOM     86  C   UNL A   1      47.181  26.349  32.147  1.00  0.00     0.064 A 
ATOM     87  C   UNL A   1      47.280  25.461  33.228  1.00  0.00     0.173 A 
ATOM     88  C   UNL A   1      48.361  26.695  31.471  1.00  0.00     0.173 A 
ATOM     89  F   UNL A   1      46.183  25.109  33.917  1.00  0.00    -0.203 F 
ATOM     90  C   UNL A   1      48.515  24.957  33.627  1.00  0.00     0.198 A 
ATOM     91  C   UNL A   1      49.588  26.162  31.850  1.00  0.00     0.198 A 
ATOM     92  F   UNL A   1      48.320  27.535  30.425  1.00  0.00    -0.203 F 
ATOM     93  F   UNL A   1      48.593  24.146  34.692  1.00  0.00    -0.200 F 
ATOM     94  C   UNL A   1      49.666  25.300  32.932  1.00  0.00     0.200 A 
ATOM     95  F   UNL A   1      50.696  26.481  31.165  1.00  0.00    -0.200 F 
ATOM     96  F   UNL A   1      50.851  24.801  33.309  1.00  0.00    -0.200 F 
ENDBRANCH  63  86
ENDBRANCH  37  38
ENDBRANCH  29  32
ENDBRANCH  27  28
ENDBRANCH  26  27
ENDBRANCH  25  26
ENDBRANCH  24  25
ENDBRANCH   1  24
TORSDOF 19
ENDMDL
