MODEL 1
REMARK VINA RESULT:     -12.2      0.000      0.000
REMARK SMILES CCc1nc(=O)n([C@H]2CCCOC2)c(CC)c1CC(=O)NCCCCCCNC(=O)c1ccc(-c2c3nc(c(-c4c(F)c(F)c(F)c(F)c4F)c4ccc([nH]4)c(-c4c(F)c(F)c(F)c(F)c4F)c4nc(c(-c5c(F)c(F)c(F)c(F)c5F)c5ccc2[nH]5)C=C4)C=C3)cc1
REMARK SMILES IDX 24 1 23 2 22 3 21 4 19 5 20 6 18 8 17 9 3 10 4 11 5 12 14 13
REMARK SMILES IDX 6 14 7 15 2 16 1 17 15 18 16 19 8 20 9 21 13 22 10 23 12 24
REMARK SMILES IDX 11 25 25 26 26 27 27 28 28 29 29 30 30 32 31 33 32 34 93 35
REMARK SMILES IDX 33 36 92 37 34 38 35 39 36 40 86 41 37 42 91 43 85 44 87 45
REMARK SMILES IDX 38 46 90 47 84 48 83 49 39 51 71 52 51 53 70 54 52 55 55 56
REMARK SMILES IDX 69 57 88 58 53 59 54 60 68 62 89 63 56 64 40 65 41 66 49 67
REMARK SMILES IDX 42 68 43 69 47 70 50 71 44 72 45 73 48 74 46 75 72 76 73 77
REMARK SMILES IDX 81 78 74 79 75 80 79 81 82 82 76 83 77 84 80 85 78 86 57 87
REMARK SMILES IDX 58 88 66 89 59 90 60 91 64 92 67 93 61 94 62 95 65 96 63 97
REMARK H PARENT 21 7 28 31 87 50 55 61
REMARK Flexibility Score: inf
ROOT
ATOM      1  C   UNL A   1      31.770  29.429  26.793  1.00  0.00     0.002 C 
ENDROOT
BRANCH   1   2
ATOM      2  C   UNL A   1      33.187  29.124  27.296  1.00  0.00     0.021 C 
BRANCH   2   3
ATOM      3  C   UNL A   1      34.101  28.504  26.240  1.00  0.00     0.116 C 
BRANCH   3   4
ATOM      4  N   UNL A   1      33.908  29.117  24.942  1.00  0.00    -0.356 N 
ATOM      5  C   UNL A   1      33.786  28.539  23.715  1.00  0.00     0.224 C 
ATOM      6  O   UNL A   1      33.663  29.276  22.735  1.00  0.00    -0.275 OA
ATOM      7  H   UNL A   1      33.859  30.100  24.947  1.00  0.00     0.163 HD
BRANCH   5   8
ATOM      8  C   UNL A   1      33.717  27.021  23.567  1.00  0.00     0.139 C 
BRANCH   8   9
ATOM      9  C   UNL A   1      32.596  26.312  24.285  1.00  0.00     0.003 A 
ATOM     10  C   UNL A   1      31.174  26.739  24.099  1.00  0.00     0.051 A 
ATOM     11  N   UNL A   1      30.231  26.374  24.896  1.00  0.00    -0.198 NA
ATOM     12  C   UNL A   1      30.453  25.466  25.883  1.00  0.00     0.348 A 
ATOM     13  C   UNL A   1      32.775  25.276  25.157  1.00  0.00     0.028 A 
ATOM     14  O   UNL A   1      29.575  25.243  26.703  1.00  0.00    -0.246 OA
ATOM     15  N   UNL A   1      31.678  24.747  25.871  1.00  0.00    -0.291 N 
BRANCH  10  16
ATOM     16  C   UNL A   1      30.621  27.665  22.986  1.00  0.00     0.053 C 
ATOM     17  C   UNL A   1      29.322  28.433  23.036  1.00  0.00     0.011 C 
ENDBRANCH  10  16
BRANCH  13  18
ATOM     18  C   UNL A   1      34.181  24.780  25.443  1.00  0.00     0.051 C 
ATOM     19  C   UNL A   1      34.804  24.055  24.251  1.00  0.00     0.010 C 
ENDBRANCH  13  18
BRANCH  15  20
ATOM     20  C   UNL A   1      31.571  23.476  26.656  1.00  0.00     0.118 C 
ATOM     21  C   UNL A   1      31.025  22.338  25.749  1.00  0.00     0.030 C 
ATOM     22  C   UNL A   1      32.702  22.863  27.509  1.00  0.00     0.185 C 
ATOM     23  C   UNL A   1      32.143  21.630  24.996  1.00  0.00     0.031 C 
ATOM     24  O   UNL A   1      33.701  22.164  26.765  1.00  0.00    -0.379 OA
ATOM     25  C   UNL A   1      33.178  21.104  25.975  1.00  0.00     0.160 C 
ENDBRANCH  15  20
ENDBRANCH   8   9
ENDBRANCH   5   8
ENDBRANCH   3   4
ENDBRANCH   2   3
ENDBRANCH   1   2
BRANCH   1  26
ATOM     26  C   UNL A   1      31.638  30.682  25.921  1.00  0.00     0.002 C 
BRANCH  26  27
ATOM     27  C   UNL A   1      31.378  31.984  26.681  1.00  0.00     0.021 C 
BRANCH  27  28
ATOM     28  C   UNL A   1      32.629  32.687  27.197  1.00  0.00     0.116 C 
BRANCH  28  29
ATOM     29  N   UNL A   1      32.365  34.052  27.626  1.00  0.00    -0.352 N 
ATOM     30  C   UNL A   1      32.982  34.807  28.595  1.00  0.00     0.251 C 
ATOM     31  H   UNL A   1      31.632  34.504  27.148  1.00  0.00     0.163 HD
ATOM     32  O   UNL A   1      32.505  35.889  28.923  1.00  0.00    -0.269 OA
BRANCH  30  33
ATOM     33  C   UNL A   1      34.203  34.309  29.267  1.00  0.00     0.039 A 
ATOM     34  C   UNL A   1      35.468  34.542  28.727  1.00  0.00     0.014 A 
ATOM     35  C   UNL A   1      34.078  33.607  30.470  1.00  0.00     0.014 A 
ATOM     36  C   UNL A   1      36.586  33.941  29.299  1.00  0.00     0.010 A 
ATOM     37  C   UNL A   1      35.213  33.073  31.091  1.00  0.00     0.010 A 
ATOM     38  C   UNL A   1      36.472  33.195  30.484  1.00  0.00    -0.014 A 
BRANCH  38  39
ATOM     39  C   UNL A   1      37.689  32.559  31.056  1.00  0.00     0.031 A 
ATOM     40  C   UNL A   1      38.159  32.901  32.444  1.00  0.00     0.074 A 
ATOM     41  C   UNL A   1      38.322  31.602  30.349  1.00  0.00     0.049 A 
ATOM     42  N   UNL A   1      39.140  32.374  33.136  1.00  0.00    -0.248 NA
ATOM     43  C   UNL A   1      37.441  33.974  33.151  1.00  0.00     0.031 C 
ATOM     44  C   UNL A   1      37.962  31.185  28.992  1.00  0.00     0.029 A 
ATOM     45  N   UNL A   1      39.370  30.782  30.682  1.00  0.00    -0.354 N 
ATOM     46  C   UNL A   1      39.157  33.050  34.349  1.00  0.00     0.074 A 
ATOM     47  C   UNL A   1      38.117  34.052  34.291  1.00  0.00     0.031 C 
ATOM     48  C   UNL A   1      38.728  30.142  28.636  1.00  0.00     0.029 A 
ATOM     49  C   UNL A   1      39.665  29.849  29.716  1.00  0.00     0.049 A 
ATOM     50  H   UNL A   1      39.865  30.855  31.530  1.00  0.00     0.167 HD
ATOM     51  C   UNL A   1      39.957  32.839  35.421  1.00  0.00     0.037 A 
ATOM     52  C   UNL A   1      40.582  28.864  29.704  1.00  0.00     0.037 A 
ATOM     53  C   UNL A   1      40.975  31.822  35.492  1.00  0.00     0.049 A 
ATOM     54  C   UNL A   1      41.475  28.674  30.898  1.00  0.00     0.074 A 
ATOM     55  C   UNL A   1      41.818  31.521  36.548  1.00  0.00     0.029 A 
ATOM     56  N   UNL A   1      41.282  30.939  34.469  1.00  0.00    -0.354 N 
ATOM     57  N   UNL A   1      41.464  29.308  32.045  1.00  0.00    -0.248 NA
ATOM     58  C   UNL A   1      42.515  27.642  30.791  1.00  0.00     0.031 C 
ATOM     59  C   UNL A   1      42.659  30.477  36.153  1.00  0.00     0.029 A 
ATOM     60  C   UNL A   1      42.314  30.104  34.864  1.00  0.00     0.049 A 
ATOM     61  H   UNL A   1      40.833  30.910  33.593  1.00  0.00     0.167 HD
ATOM     62  C   UNL A   1      42.481  28.743  32.801  1.00  0.00     0.074 A 
ATOM     63  C   UNL A   1      43.078  27.701  31.991  1.00  0.00     0.031 C 
ATOM     64  C   UNL A   1      42.891  29.067  34.050  1.00  0.00     0.037 A 
BRANCH  51  65
ATOM     65  C   UNL A   1      39.764  33.708  36.628  1.00  0.00     0.064 A 
ATOM     66  C   UNL A   1      40.351  34.979  36.710  1.00  0.00     0.173 A 
ATOM     67  C   UNL A   1      38.905  33.310  37.663  1.00  0.00     0.173 A 
ATOM     68  F   UNL A   1      41.186  35.401  35.749  1.00  0.00    -0.203 F 
ATOM     69  C   UNL A   1      40.084  35.821  37.787  1.00  0.00     0.198 A 
ATOM     70  C   UNL A   1      38.625  34.163  38.728  1.00  0.00     0.198 A 
ATOM     71  F   UNL A   1      38.314  32.107  37.626  1.00  0.00    -0.203 F 
ATOM     72  F   UNL A   1      40.668  37.026  37.853  1.00  0.00    -0.200 F 
ATOM     73  C   UNL A   1      39.214  35.417  38.788  1.00  0.00     0.200 A 
ATOM     74  F   UNL A   1      37.773  33.778  39.688  1.00  0.00    -0.200 F 
ATOM     75  F   UNL A   1      38.942  36.238  39.813  1.00  0.00    -0.200 F 
ENDBRANCH  51  65
BRANCH  52  76
ATOM     76  C   UNL A   1      40.688  27.964  28.526  1.00  0.00     0.064 A 
ATOM     77  C   UNL A   1      40.000  26.744  28.490  1.00  0.00     0.173 A 
ATOM     78  C   UNL A   1      41.471  28.306  27.415  1.00  0.00     0.173 A 
ATOM     79  F   UNL A   1      39.255  26.363  29.539  1.00  0.00    -0.203 F 
ATOM     80  C   UNL A   1      40.102  25.893  27.391  1.00  0.00     0.198 A 
ATOM     81  C   UNL A   1      41.551  27.468  26.305  1.00  0.00     0.198 A 
ATOM     82  F   UNL A   1      42.149  29.463  27.402  1.00  0.00    -0.203 F 
ATOM     83  F   UNL A   1      39.466  24.713  27.398  1.00  0.00    -0.200 F 
ATOM     84  C   UNL A   1      40.873  26.259  26.297  1.00  0.00     0.200 A 
ATOM     85  F   UNL A   1      42.287  27.830  25.246  1.00  0.00    -0.200 F 
ATOM     86  F   UNL A   1      40.966  25.443  25.239  1.00  0.00    -0.200 F 
ENDBRANCH  52  76
BRANCH  64  87
ATOM     87  C   UNL A   1      44.029  28.284  34.631  1.00  0.00     0.064 A 
ATOM     88  C   UNL A   1      43.808  27.077  35.310  1.00  0.00     0.173 A 
ATOM     89  C   UNL A   1      45.353  28.703  34.441  1.00  0.00     0.173 A 
ATOM     90  F   UNL A   1      42.557  26.644  35.527  1.00  0.00    -0.203 F 
ATOM     91  C   UNL A   1      44.875  26.322  35.787  1.00  0.00     0.198 A 
ATOM     92  C   UNL A   1      46.419  27.932  34.898  1.00  0.00     0.198 A 
ATOM     93  F   UNL A   1      45.614  29.847  33.790  1.00  0.00    -0.203 F 
ATOM     94  F   UNL A   1      44.642  25.184  36.456  1.00  0.00    -0.200 F 
ATOM     95  C   UNL A   1      46.179  26.744  35.572  1.00  0.00     0.200 A 
ATOM     96  F   UNL A   1      47.678  28.336  34.678  1.00  0.00    -0.200 F 
ATOM     97  F   UNL A   1      47.206  26.007  36.017  1.00  0.00    -0.200 F 
ENDBRANCH  64  87
ENDBRANCH  38  39
ENDBRANCH  30  33
ENDBRANCH  28  29
ENDBRANCH  27  28
ENDBRANCH  26  27
ENDBRANCH   1  26
TORSDOF 17
ENDMDL
MODEL 2
REMARK VINA RESULT:     -12.2      5.171     10.467
REMARK SMILES CCc1nc(=O)n([C@H]2CCCOC2)c(CC)c1CC(=O)NCCCCCCNC(=O)c1ccc(-c2c3nc(c(-c4c(F)c(F)c(F)c(F)c4F)c4ccc([nH]4)c(-c4c(F)c(F)c(F)c(F)c4F)c4nc(c(-c5c(F)c(F)c(F)c(F)c5F)c5ccc2[nH]5)C=C4)C=C3)cc1
REMARK SMILES IDX 24 1 23 2 22 3 21 4 19 5 20 6 18 8 17 9 3 10 4 11 5 12 14 13
REMARK SMILES IDX 6 14 7 15 2 16 1 17 15 18 16 19 8 20 9 21 13 22 10 23 12 24
REMARK SMILES IDX 11 25 25 26 26 27 27 28 28 29 29 30 30 32 31 33 32 34 93 35
REMARK SMILES IDX 33 36 92 37 34 38 35 39 36 40 86 41 37 42 91 43 85 44 87 45
REMARK SMILES IDX 38 46 90 47 84 48 83 49 39 51 71 52 51 53 70 54 52 55 55 56
REMARK SMILES IDX 69 57 88 58 53 59 54 60 68 62 89 63 56 64 40 65 41 66 49 67
REMARK SMILES IDX 42 68 43 69 47 70 50 71 44 72 45 73 48 74 46 75 72 76 73 77
REMARK SMILES IDX 81 78 74 79 75 80 79 81 82 82 76 83 77 84 80 85 78 86 57 87
REMARK SMILES IDX 58 88 66 89 59 90 60 91 64 92 67 93 61 94 62 95 65 96 63 97
REMARK H PARENT 21 7 28 31 87 50 55 61
REMARK Flexibility Score: inf
ROOT
ATOM      1  C   UNL A   1      37.489  22.135  24.792  1.00  0.00     0.002 C 
ENDROOT
BRANCH   1   2
ATOM      2  C   UNL A   1      36.434  23.245  24.705  1.00  0.00     0.021 C 
BRANCH   2   3
ATOM      3  C   UNL A   1      36.021  23.818  26.061  1.00  0.00     0.116 C 
BRANCH   3   4
ATOM      4  N   UNL A   1      35.349  22.827  26.875  1.00  0.00    -0.356 N 
ATOM      5  C   UNL A   1      34.038  22.736  27.232  1.00  0.00     0.224 C 
ATOM      6  O   UNL A   1      33.699  21.811  27.972  1.00  0.00    -0.275 OA
ATOM      7  H   UNL A   1      35.927  22.111  27.225  1.00  0.00     0.163 HD
BRANCH   5   8
ATOM      8  C   UNL A   1      33.002  23.704  26.663  1.00  0.00     0.139 C 
BRANCH   8   9
ATOM      9  C   UNL A   1      32.916  23.811  25.161  1.00  0.00     0.003 A 
ATOM     10  C   UNL A   1      32.649  22.602  24.320  1.00  0.00     0.051 A 
ATOM     11  N   UNL A   1      32.856  22.582  23.050  1.00  0.00    -0.198 NA
ATOM     12  C   UNL A   1      33.208  23.709  22.374  1.00  0.00     0.348 A 
ATOM     13  C   UNL A   1      33.095  24.970  24.460  1.00  0.00     0.028 A 
ATOM     14  O   UNL A   1      33.528  23.630  21.198  1.00  0.00    -0.246 OA
ATOM     15  N   UNL A   1      33.109  24.955  23.049  1.00  0.00    -0.291 N 
BRANCH  10  16
ATOM     16  C   UNL A   1      32.124  21.229  24.808  1.00  0.00     0.053 C 
ATOM     17  C   UNL A   1      32.950  19.977  24.989  1.00  0.00     0.011 C 
ENDBRANCH  10  16
BRANCH  13  18
ATOM     18  C   UNL A   1      33.401  26.252  25.212  1.00  0.00     0.051 C 
ATOM     19  C   UNL A   1      32.194  26.785  25.985  1.00  0.00     0.010 C 
ENDBRANCH  13  18
BRANCH  15  20
ATOM     20  C   UNL A   1      33.020  26.094  22.080  1.00  0.00     0.118 C 
ATOM     21  C   UNL A   1      31.544  26.301  21.641  1.00  0.00     0.030 C 
ATOM     22  C   UNL A   1      33.621  27.497  22.304  1.00  0.00     0.185 C 
ATOM     23  C   UNL A   1      30.795  27.222  22.596  1.00  0.00     0.031 C 
ATOM     24  O   UNL A   1      32.858  28.344  23.166  1.00  0.00    -0.379 OA
ATOM     25  C   UNL A   1      31.524  28.548  22.719  1.00  0.00     0.160 C 
ENDBRANCH  15  20
ENDBRANCH   8   9
ENDBRANCH   5   8
ENDBRANCH   3   4
ENDBRANCH   2   3
ENDBRANCH   1   2
BRANCH   1  26
ATOM     26  C   UNL A   1      36.952  20.706  24.652  1.00  0.00     0.002 C 
BRANCH  26  27
ATOM     27  C   UNL A   1      37.951  19.597  24.986  1.00  0.00     0.021 C 
BRANCH  27  28
ATOM     28  C   UNL A   1      39.165  20.047  25.791  1.00  0.00     0.116 C 
BRANCH  28  29
ATOM     29  N   UNL A   1      40.221  19.046  25.817  1.00  0.00    -0.352 N 
ATOM     30  C   UNL A   1      41.567  19.189  26.055  1.00  0.00     0.251 C 
ATOM     31  H   UNL A   1      39.925  18.125  25.634  1.00  0.00     0.163 HD
ATOM     32  O   UNL A   1      42.325  18.242  25.870  1.00  0.00    -0.269 OA
BRANCH  30  33
ATOM     33  C   UNL A   1      42.113  20.489  26.507  1.00  0.00     0.039 A 
ATOM     34  C   UNL A   1      42.236  20.786  27.865  1.00  0.00     0.014 A 
ATOM     35  C   UNL A   1      42.522  21.424  25.550  1.00  0.00     0.014 A 
ATOM     36  C   UNL A   1      42.614  22.065  28.262  1.00  0.00     0.010 A 
ATOM     37  C   UNL A   1      42.982  22.682  25.952  1.00  0.00     0.010 A 
ATOM     38  C   UNL A   1      42.987  23.030  27.311  1.00  0.00    -0.014 A 
BRANCH  38  39
ATOM     39  C   UNL A   1      43.374  24.389  27.776  1.00  0.00     0.031 A 
ATOM     40  C   UNL A   1      44.814  24.823  27.782  1.00  0.00     0.074 A 
ATOM     41  C   UNL A   1      42.407  25.265  28.114  1.00  0.00     0.049 A 
ATOM     42  N   UNL A   1      45.321  25.999  28.063  1.00  0.00    -0.248 NA
ATOM     43  C   UNL A   1      45.822  23.809  27.430  1.00  0.00     0.031 C 
ATOM     44  C   UNL A   1      40.975  24.962  28.151  1.00  0.00     0.029 A 
ATOM     45  N   UNL A   1      42.474  26.594  28.450  1.00  0.00    -0.354 N 
ATOM     46  C   UNL A   1      46.696  25.865  27.925  1.00  0.00     0.074 A 
ATOM     47  C   UNL A   1      46.954  24.486  27.574  1.00  0.00     0.031 C 
ATOM     48  C   UNL A   1      40.294  26.087  28.421  1.00  0.00     0.029 A 
ATOM     49  C   UNL A   1      41.242  27.178  28.625  1.00  0.00     0.049 A 
ATOM     50  H   UNL A   1      43.322  27.082  28.557  1.00  0.00     0.167 HD
ATOM     51  C   UNL A   1      47.654  26.812  28.061  1.00  0.00     0.037 A 
ATOM     52  C   UNL A   1      40.911  28.451  28.912  1.00  0.00     0.037 A 
ATOM     53  C   UNL A   1      47.396  28.192  28.382  1.00  0.00     0.049 A 
ATOM     54  C   UNL A   1      42.000  29.473  29.087  1.00  0.00     0.074 A 
ATOM     55  C   UNL A   1      48.305  29.228  28.518  1.00  0.00     0.029 A 
ATOM     56  N   UNL A   1      46.140  28.729  28.612  1.00  0.00    -0.354 N 
ATOM     57  N   UNL A   1      43.293  29.335  28.932  1.00  0.00    -0.248 NA
ATOM     58  C   UNL A   1      41.583  30.825  29.486  1.00  0.00     0.031 C 
ATOM     59  C   UNL A   1      47.602  30.385  28.862  1.00  0.00     0.029 A 
ATOM     60  C   UNL A   1      46.252  30.078  28.905  1.00  0.00     0.049 A 
ATOM     61  H   UNL A   1      45.294  28.226  28.572  1.00  0.00     0.167 HD
ATOM     62  C   UNL A   1      43.843  30.580  29.200  1.00  0.00     0.074 A 
ATOM     63  C   UNL A   1      42.741  31.469  29.507  1.00  0.00     0.031 C 
ATOM     64  C   UNL A   1      45.145  30.950  29.201  1.00  0.00     0.037 A 
BRANCH  51  65
ATOM     65  C   UNL A   1      49.082  26.409  27.846  1.00  0.00     0.064 A 
ATOM     66  C   UNL A   1      49.627  26.319  26.558  1.00  0.00     0.173 A 
ATOM     67  C   UNL A   1      49.938  26.210  28.940  1.00  0.00     0.173 A 
ATOM     68  F   UNL A   1      48.847  26.493  25.481  1.00  0.00    -0.203 F 
ATOM     69  C   UNL A   1      50.980  26.044  26.372  1.00  0.00     0.198 A 
ATOM     70  C   UNL A   1      51.294  25.956  28.750  1.00  0.00     0.198 A 
ATOM     71  F   UNL A   1      49.466  26.293  30.192  1.00  0.00    -0.203 F 
ATOM     72  F   UNL A   1      51.478  25.948  25.131  1.00  0.00    -0.200 F 
ATOM     73  C   UNL A   1      51.813  25.874  27.467  1.00  0.00     0.200 A 
ATOM     74  F   UNL A   1      52.102  25.806  29.809  1.00  0.00    -0.200 F 
ATOM     75  F   UNL A   1      53.120  25.631  27.286  1.00  0.00    -0.200 F 
ENDBRANCH  51  65
BRANCH  52  76
ATOM     76  C   UNL A   1      39.481  28.837  29.032  1.00  0.00     0.064 A 
ATOM     77  C   UNL A   1      38.764  29.292  27.917  1.00  0.00     0.173 A 
ATOM     78  C   UNL A   1      38.803  28.753  30.256  1.00  0.00     0.173 A 
ATOM     79  F   UNL A   1      39.376  29.410  26.730  1.00  0.00    -0.203 F 
ATOM     80  C   UNL A   1      37.425  29.663  28.027  1.00  0.00     0.198 A 
ATOM     81  C   UNL A   1      37.457  29.097  30.359  1.00  0.00     0.198 A 
ATOM     82  F   UNL A   1      39.446  28.323  31.352  1.00  0.00    -0.203 F 
ATOM     83  F   UNL A   1      36.772  30.133  26.955  1.00  0.00    -0.200 F 
ATOM     84  C   UNL A   1      36.771  29.559  29.246  1.00  0.00     0.200 A 
ATOM     85  F   UNL A   1      36.826  28.984  31.535  1.00  0.00    -0.200 F 
ATOM     86  F   UNL A   1      35.482  29.909  29.349  1.00  0.00    -0.200 F 
ENDBRANCH  52  76
BRANCH  64  87
ATOM     87  C   UNL A   1      45.460  32.378  29.532  1.00  0.00     0.064 A 
ATOM     88  C   UNL A   1      45.776  32.766  30.842  1.00  0.00     0.173 A 
ATOM     89  C   UNL A   1      45.523  33.348  28.522  1.00  0.00     0.173 A 
ATOM     90  F   UNL A   1      45.716  31.874  31.843  1.00  0.00    -0.203 F 
ATOM     91  C   UNL A   1      46.134  34.079  31.130  1.00  0.00     0.198 A 
ATOM     92  C   UNL A   1      45.906  34.655  28.810  1.00  0.00     0.198 A 
ATOM     93  F   UNL A   1      45.237  33.022  27.252  1.00  0.00    -0.203 F 
ATOM     94  F   UNL A   1      46.407  34.435  32.393  1.00  0.00    -0.200 F 
ATOM     95  C   UNL A   1      46.209  35.019  30.113  1.00  0.00     0.200 A 
ATOM     96  F   UNL A   1      45.989  35.559  27.824  1.00  0.00    -0.200 F 
ATOM     97  F   UNL A   1      46.570  36.280  30.389  1.00  0.00    -0.200 F 
ENDBRANCH  64  87
ENDBRANCH  38  39
ENDBRANCH  30  33
ENDBRANCH  28  29
ENDBRANCH  27  28
ENDBRANCH  26  27
ENDBRANCH   1  26
TORSDOF 17
ENDMDL
MODEL 3
REMARK VINA RESULT:     -12.1      5.219     10.825
REMARK SMILES CCc1nc(=O)n([C@H]2CCCOC2)c(CC)c1CC(=O)NCCCCCCNC(=O)c1ccc(-c2c3nc(c(-c4c(F)c(F)c(F)c(F)c4F)c4ccc([nH]4)c(-c4c(F)c(F)c(F)c(F)c4F)c4nc(c(-c5c(F)c(F)c(F)c(F)c5F)c5ccc2[nH]5)C=C4)C=C3)cc1
REMARK SMILES IDX 24 1 23 2 22 3 21 4 19 5 20 6 18 8 17 9 3 10 4 11 5 12 14 13
REMARK SMILES IDX 6 14 7 15 2 16 1 17 15 18 16 19 8 20 9 21 13 22 10 23 12 24
REMARK SMILES IDX 11 25 25 26 26 27 27 28 28 29 29 30 30 32 31 33 32 34 93 35
REMARK SMILES IDX 33 36 92 37 34 38 35 39 36 40 86 41 37 42 91 43 85 44 87 45
REMARK SMILES IDX 38 46 90 47 84 48 83 49 39 51 71 52 51 53 70 54 52 55 55 56
REMARK SMILES IDX 69 57 88 58 53 59 54 60 68 62 89 63 56 64 40 65 41 66 49 67
REMARK SMILES IDX 42 68 43 69 47 70 50 71 44 72 45 73 48 74 46 75 72 76 73 77
REMARK SMILES IDX 81 78 74 79 75 80 79 81 82 82 76 83 77 84 80 85 78 86 57 87
REMARK SMILES IDX 58 88 66 89 59 90 60 91 64 92 67 93 61 94 62 95 65 96 63 97
REMARK H PARENT 21 7 28 31 87 50 55 61
REMARK Flexibility Score: inf
ROOT
ATOM      1  C   UNL A   1      37.578  22.097  24.983  1.00  0.00     0.002 C 
ENDROOT
BRANCH   1   2
ATOM      2  C   UNL A   1      36.539  23.199  24.745  1.00  0.00     0.021 C 
BRANCH   2   3
ATOM      3  C   UNL A   1      35.982  23.815  26.029  1.00  0.00     0.116 C 
BRANCH   3   4
ATOM      4  N   UNL A   1      35.306  22.828  26.844  1.00  0.00    -0.356 N 
ATOM      5  C   UNL A   1      33.992  22.735  27.191  1.00  0.00     0.224 C 
ATOM      6  O   UNL A   1      33.650  21.813  27.934  1.00  0.00    -0.275 OA
ATOM      7  H   UNL A   1      35.884  22.116  27.203  1.00  0.00     0.163 HD
BRANCH   5   8
ATOM      8  C   UNL A   1      32.958  23.695  26.607  1.00  0.00     0.139 C 
BRANCH   8   9
ATOM      9  C   UNL A   1      32.892  23.801  25.104  1.00  0.00     0.003 A 
ATOM     10  C   UNL A   1      32.655  22.589  24.259  1.00  0.00     0.051 A 
ATOM     11  N   UNL A   1      32.881  22.573  22.993  1.00  0.00    -0.198 NA
ATOM     12  C   UNL A   1      33.225  23.704  22.322  1.00  0.00     0.348 A 
ATOM     13  C   UNL A   1      33.064  24.963  24.406  1.00  0.00     0.028 A 
ATOM     14  O   UNL A   1      33.563  23.630  21.150  1.00  0.00    -0.246 OA
ATOM     15  N   UNL A   1      33.098  24.948  22.995  1.00  0.00    -0.291 N 
BRANCH  10  16
ATOM     16  C   UNL A   1      32.143  21.208  24.741  1.00  0.00     0.053 C 
ATOM     17  C   UNL A   1      32.964  19.944  24.842  1.00  0.00     0.011 C 
ENDBRANCH  10  16
BRANCH  13  18
ATOM     18  C   UNL A   1      33.340  26.250  25.162  1.00  0.00     0.051 C 
ATOM     19  C   UNL A   1      32.126  26.744  25.949  1.00  0.00     0.010 C 
ENDBRANCH  13  18
BRANCH  15  20
ATOM     20  C   UNL A   1      33.006  26.086  22.025  1.00  0.00     0.118 C 
ATOM     21  C   UNL A   1      31.523  26.329  21.633  1.00  0.00     0.030 C 
ATOM     22  C   UNL A   1      33.650  27.475  22.224  1.00  0.00     0.185 C 
ATOM     23  C   UNL A   1      30.828  27.271  22.608  1.00  0.00     0.031 C 
ATOM     24  O   UNL A   1      32.936  28.343  23.106  1.00  0.00    -0.379 OA
ATOM     25  C   UNL A   1      31.594  28.579  22.702  1.00  0.00     0.160 C 
ENDBRANCH  15  20
ENDBRANCH   8   9
ENDBRANCH   5   8
ENDBRANCH   3   4
ENDBRANCH   2   3
ENDBRANCH   1   2
BRANCH   1  26
ATOM     26  C   UNL A   1      37.115  20.674  24.649  1.00  0.00     0.002 C 
BRANCH  26  27
ATOM     27  C   UNL A   1      38.105  19.563  25.004  1.00  0.00     0.021 C 
BRANCH  27  28
ATOM     28  C   UNL A   1      39.299  20.011  25.839  1.00  0.00     0.116 C 
BRANCH  28  29
ATOM     29  N   UNL A   1      40.370  19.026  25.855  1.00  0.00    -0.352 N 
ATOM     30  C   UNL A   1      41.723  19.197  26.027  1.00  0.00     0.251 C 
ATOM     31  H   UNL A   1      40.080  18.095  25.720  1.00  0.00     0.163 HD
ATOM     32  O   UNL A   1      42.487  18.254  25.843  1.00  0.00    -0.269 OA
BRANCH  30  33
ATOM     33  C   UNL A   1      42.269  20.520  26.405  1.00  0.00     0.039 A 
ATOM     34  C   UNL A   1      42.374  20.900  27.744  1.00  0.00     0.014 A 
ATOM     35  C   UNL A   1      42.696  21.392  25.398  1.00  0.00     0.014 A 
ATOM     36  C   UNL A   1      42.752  22.200  28.066  1.00  0.00     0.010 A 
ATOM     37  C   UNL A   1      43.156  22.671  25.728  1.00  0.00     0.010 A 
ATOM     38  C   UNL A   1      43.143  23.103  27.063  1.00  0.00    -0.014 A 
BRANCH  38  39
ATOM     39  C   UNL A   1      43.529  24.487  27.448  1.00  0.00     0.031 A 
ATOM     40  C   UNL A   1      44.912  25.009  27.168  1.00  0.00     0.074 A 
ATOM     41  C   UNL A   1      42.597  25.304  27.977  1.00  0.00     0.049 A 
ATOM     42  N   UNL A   1      45.390  26.217  27.348  1.00  0.00    -0.248 NA
ATOM     43  C   UNL A   1      45.891  24.058  26.616  1.00  0.00     0.031 C 
ATOM     44  C   UNL A   1      41.223  24.912  28.298  1.00  0.00     0.029 A 
ATOM     45  N   UNL A   1      42.646  26.636  28.301  1.00  0.00    -0.354 N 
ATOM     46  C   UNL A   1      46.715  26.167  26.937  1.00  0.00     0.074 A 
ATOM     47  C   UNL A   1      46.984  24.805  26.534  1.00  0.00     0.031 C 
ATOM     48  C   UNL A   1      40.541  25.995  28.705  1.00  0.00     0.029 A 
ATOM     49  C   UNL A   1      41.440  27.144  28.722  1.00  0.00     0.049 A 
ATOM     50  H   UNL A   1      43.467  27.177  28.238  1.00  0.00     0.167 HD
ATOM     51  C   UNL A   1      47.620  27.174  26.883  1.00  0.00     0.037 A 
ATOM     52  C   UNL A   1      41.095  28.396  29.075  1.00  0.00     0.037 A 
ATOM     53  C   UNL A   1      47.346  28.537  27.257  1.00  0.00     0.049 A 
ATOM     54  C   UNL A   1      42.130  29.485  29.034  1.00  0.00     0.074 A 
ATOM     55  C   UNL A   1      48.197  29.629  27.213  1.00  0.00     0.029 A 
ATOM     56  N   UNL A   1      46.130  28.996  27.736  1.00  0.00    -0.354 N 
ATOM     57  N   UNL A   1      43.373  29.426  28.622  1.00  0.00    -0.248 NA
ATOM     58  C   UNL A   1      41.718  30.811  29.516  1.00  0.00     0.031 C 
ATOM     59  C   UNL A   1      47.506  30.742  27.697  1.00  0.00     0.029 A 
ATOM     60  C   UNL A   1      46.214  30.352  28.008  1.00  0.00     0.049 A 
ATOM     61  H   UNL A   1      45.326  28.441  27.864  1.00  0.00     0.167 HD
ATOM     62  C   UNL A   1      43.886  30.705  28.781  1.00  0.00     0.074 A 
ATOM     63  C   UNL A   1      42.815  31.526  29.308  1.00  0.00     0.031 C 
ATOM     64  C   UNL A   1      45.137  31.156  28.524  1.00  0.00     0.037 A 
BRANCH  51  65
ATOM     65  C   UNL A   1      48.999  26.858  26.385  1.00  0.00     0.064 A 
ATOM     66  C   UNL A   1      49.964  26.289  27.227  1.00  0.00     0.173 A 
ATOM     67  C   UNL A   1      49.324  27.031  25.031  1.00  0.00     0.173 A 
ATOM     68  F   UNL A   1      49.702  26.111  28.531  1.00  0.00    -0.203 F 
ATOM     69  C   UNL A   1      51.207  25.904  26.732  1.00  0.00     0.198 A 
ATOM     70  C   UNL A   1      50.561  26.626  24.536  1.00  0.00     0.198 A 
ATOM     71  F   UNL A   1      48.432  27.564  24.184  1.00  0.00    -0.203 F 
ATOM     72  F   UNL A   1      52.121  25.376  27.559  1.00  0.00    -0.200 F 
ATOM     73  C   UNL A   1      51.501  26.063  25.387  1.00  0.00     0.200 A 
ATOM     74  F   UNL A   1      50.839  26.766  23.232  1.00  0.00    -0.200 F 
ATOM     75  F   UNL A   1      52.691  25.671  24.908  1.00  0.00    -0.200 F 
ENDBRANCH  51  65
BRANCH  52  76
ATOM     76  C   UNL A   1      39.696  28.692  29.482  1.00  0.00     0.064 A 
ATOM     77  C   UNL A   1      39.282  28.514  30.808  1.00  0.00     0.173 A 
ATOM     78  C   UNL A   1      38.752  29.163  28.559  1.00  0.00     0.173 A 
ATOM     79  F   UNL A   1      40.144  28.045  31.722  1.00  0.00    -0.203 F 
ATOM     80  C   UNL A   1      37.969  28.783  31.193  1.00  0.00     0.198 A 
ATOM     81  C   UNL A   1      37.448  29.458  28.950  1.00  0.00     0.198 A 
ATOM     82  F   UNL A   1      39.101  29.350  27.277  1.00  0.00    -0.203 F 
ATOM     83  F   UNL A   1      37.587  28.566  32.459  1.00  0.00    -0.200 F 
ATOM     84  C   UNL A   1      37.056  29.261  30.265  1.00  0.00     0.200 A 
ATOM     85  F   UNL A   1      36.572  29.931  28.053  1.00  0.00    -0.200 F 
ATOM     86  F   UNL A   1      35.796  29.524  30.637  1.00  0.00    -0.200 F 
ENDBRANCH  52  76
BRANCH  64  87
ATOM     87  C   UNL A   1      45.422  32.602  28.793  1.00  0.00     0.064 A 
ATOM     88  C   UNL A   1      45.153  33.586  27.831  1.00  0.00     0.173 A 
ATOM     89  C   UNL A   1      45.893  33.016  30.047  1.00  0.00     0.173 A 
ATOM     90  F   UNL A   1      44.713  33.237  26.612  1.00  0.00    -0.203 F 
ATOM     91  C   UNL A   1      45.355  34.934  28.113  1.00  0.00     0.198 A 
ATOM     92  C   UNL A   1      46.071  34.366  30.334  1.00  0.00     0.198 A 
ATOM     93  F   UNL A   1      46.157  32.110  31.002  1.00  0.00    -0.203 F 
ATOM     94  F   UNL A   1      45.117  35.857  27.171  1.00  0.00    -0.200 F 
ATOM     95  C   UNL A   1      45.804  35.323  29.367  1.00  0.00     0.200 A 
ATOM     96  F   UNL A   1      46.493  34.741  31.550  1.00  0.00    -0.200 F 
ATOM     97  F   UNL A   1      45.983  36.622  29.642  1.00  0.00    -0.200 F 
ENDBRANCH  64  87
ENDBRANCH  38  39
ENDBRANCH  30  33
ENDBRANCH  28  29
ENDBRANCH  27  28
ENDBRANCH  26  27
ENDBRANCH   1  26
TORSDOF 17
ENDMDL
