MODEL 1
REMARK VINA RESULT:     -12.9      0.000      0.000
REMARK SMILES Cc1cc(F)c(-c2ccc(F)c(C(=O)NCCCCCCNC(=O)c3ccc(-c4c5nc(c(-c6c(F)c(F)c(F)c(F)c6F)c6ccc([nH]6)c(-c6c(F)c(F)c(F)c(F)c6F)c6nc(c(-c7c(F)c(F)c(F)c(F)c7F)c7ccc4[nH]7)C=C6)C=C5)cc3)c2)cc1F
REMARK SMILES IDX 19 1 18 2 17 3 16 4 15 5 13 6 14 7 12 9 7 10 8 11 88 12 9 13
REMARK SMILES IDX 10 14 11 15 6 16 1 17 2 18 3 19 90 20 4 21 89 22 91 23 5 24
REMARK SMILES IDX 20 25 21 26 22 27 23 28 24 30 25 31 26 32 87 33 27 34 86 35
REMARK SMILES IDX 28 36 29 37 30 38 80 39 31 40 85 41 79 42 81 43 32 44 84 45
REMARK SMILES IDX 78 46 77 47 33 49 65 50 45 51 64 52 46 53 49 54 63 55 82 56
REMARK SMILES IDX 47 57 48 58 62 60 83 61 50 62 34 63 35 64 43 65 36 66 37 67
REMARK SMILES IDX 41 68 44 69 38 70 39 71 42 72 40 73 66 74 67 75 75 76 68 77
REMARK SMILES IDX 69 78 73 79 76 80 70 81 71 82 74 83 72 84 51 85 52 86 60 87
REMARK SMILES IDX 53 88 54 89 58 90 61 91 55 92 56 93 59 94 57 95
REMARK H PARENT 15 8 22 29 81 48 49 59
REMARK Flexibility Score: inf
ROOT
ATOM      1  C   UNL A   1      33.370  26.754  24.747  1.00  0.00     0.002 C 
ENDROOT
BRANCH   1   2
ATOM      2  C   UNL A   1      34.061  25.678  25.585  1.00  0.00     0.002 C 
BRANCH   2   3
ATOM      3  C   UNL A   1      34.624  24.461  24.851  1.00  0.00     0.021 C 
BRANCH   3   4
ATOM      4  C   UNL A   1      34.333  24.340  23.360  1.00  0.00     0.116 C 
BRANCH   4   5
ATOM      5  N   UNL A   1      33.539  23.187  22.981  1.00  0.00    -0.352 N 
ATOM      6  C   UNL A   1      32.203  22.902  23.175  1.00  0.00     0.254 C 
ATOM      7  O   UNL A   1      31.754  21.878  22.668  1.00  0.00    -0.269 OA
ATOM      8  H   UNL A   1      34.040  22.487  22.504  1.00  0.00     0.163 HD
BRANCH   6   9
ATOM      9  C   UNL A   1      31.320  23.773  23.992  1.00  0.00     0.076 A 
ATOM     10  C   UNL A   1      29.904  25.759  24.244  1.00  0.00    -0.014 A 
ATOM     11  C   UNL A   1      29.853  25.515  25.626  1.00  0.00     0.012 A 
ATOM     12  C   UNL A   1      30.565  24.815  23.436  1.00  0.00     0.025 A 
ATOM     13  C   UNL A   1      30.506  24.414  26.183  1.00  0.00     0.041 A 
ATOM     14  C   UNL A   1      31.259  23.569  25.372  1.00  0.00     0.135 A 
ATOM     15  F   UNL A   1      31.950  22.587  25.966  1.00  0.00    -0.206 F 
BRANCH  10  16
ATOM     16  C   UNL A   1      29.416  27.029  23.666  1.00  0.00     0.020 A 
ATOM     17  C   UNL A   1      28.040  30.615  21.636  1.00  0.00     0.047 C 
ATOM     18  C   UNL A   1      28.513  29.375  22.330  1.00  0.00    -0.012 A 
ATOM     19  C   UNL A   1      27.615  28.561  23.028  1.00  0.00     0.046 A 
ATOM     20  C   UNL A   1      29.860  29.019  22.326  1.00  0.00     0.126 A 
ATOM     21  C   UNL A   1      28.065  27.408  23.678  1.00  0.00     0.131 A 
ATOM     22  C   UNL A   1      30.309  27.869  22.975  1.00  0.00     0.051 A 
ATOM     23  F   UNL A   1      30.753  29.772  21.670  1.00  0.00    -0.207 F 
ATOM     24  F   UNL A   1      27.155  26.646  24.306  1.00  0.00    -0.206 F 
ENDBRANCH  10  16
ENDBRANCH   6   9
ENDBRANCH   4   5
ENDBRANCH   3   4
ENDBRANCH   2   3
ENDBRANCH   1   2
BRANCH   1  25
ATOM     25  C   UNL A   1      32.819  27.968  25.491  1.00  0.00     0.021 C 
BRANCH  25  26
ATOM     26  C   UNL A   1      33.333  29.332  25.046  1.00  0.00     0.116 C 
BRANCH  26  27
ATOM     27  N   UNL A   1      32.743  30.446  25.766  1.00  0.00    -0.352 N 
ATOM     28  C   UNL A   1      33.205  31.115  26.879  1.00  0.00     0.251 C 
ATOM     29  H   UNL A   1      31.887  30.772  25.406  1.00  0.00     0.163 HD
ATOM     30  O   UNL A   1      32.532  31.991  27.399  1.00  0.00    -0.269 OA
BRANCH  28  31
ATOM     31  C   UNL A   1      34.506  30.734  27.478  1.00  0.00     0.039 A 
ATOM     32  C   UNL A   1      34.777  29.414  27.847  1.00  0.00     0.014 A 
ATOM     33  C   UNL A   1      35.460  31.732  27.700  1.00  0.00     0.014 A 
ATOM     34  C   UNL A   1      35.918  29.127  28.591  1.00  0.00     0.010 A 
ATOM     35  C   UNL A   1      36.644  31.425  28.380  1.00  0.00     0.010 A 
ATOM     36  C   UNL A   1      36.857  30.131  28.878  1.00  0.00    -0.014 A 
BRANCH  36  37
ATOM     37  C   UNL A   1      38.044  29.817  29.716  1.00  0.00     0.031 A 
ATOM     38  C   UNL A   1      39.147  28.940  29.184  1.00  0.00     0.074 A 
ATOM     39  C   UNL A   1      38.154  30.361  30.943  1.00  0.00     0.049 A 
ATOM     40  N   UNL A   1      40.247  28.543  29.776  1.00  0.00    -0.248 NA
ATOM     41  C   UNL A   1      38.997  28.442  27.807  1.00  0.00     0.031 C 
ATOM     42  C   UNL A   1      37.165  31.243  31.561  1.00  0.00     0.029 A 
ATOM     43  N   UNL A   1      39.150  30.266  31.881  1.00  0.00    -0.354 N 
ATOM     44  C   UNL A   1      40.906  27.740  28.856  1.00  0.00     0.074 A 
ATOM     45  C   UNL A   1      40.076  27.682  27.672  1.00  0.00     0.031 C 
ATOM     46  C   UNL A   1      37.623  31.646  32.756  1.00  0.00     0.029 A 
ATOM     47  C   UNL A   1      38.908  31.002  33.014  1.00  0.00     0.049 A 
ATOM     48  H   UNL A   1      39.961  29.723  31.753  1.00  0.00     0.167 HD
ATOM     49  C   UNL A   1      42.102  27.115  28.984  1.00  0.00     0.037 A 
ATOM     50  C   UNL A   1      39.629  31.133  34.142  1.00  0.00     0.037 A 
ATOM     51  C   UNL A   1      42.939  27.188  30.153  1.00  0.00     0.049 A 
ATOM     52  C   UNL A   1      40.929  30.391  34.276  1.00  0.00     0.074 A 
ATOM     53  C   UNL A   1      44.171  26.595  30.371  1.00  0.00     0.029 A 
ATOM     54  N   UNL A   1      42.631  27.900  31.302  1.00  0.00    -0.354 N 
ATOM     55  N   UNL A   1      41.535  29.624  33.403  1.00  0.00    -0.248 NA
ATOM     56  C   UNL A   1      41.638  30.524  35.555  1.00  0.00     0.031 C 
ATOM     57  C   UNL A   1      44.592  26.920  31.664  1.00  0.00     0.029 A 
ATOM     58  C   UNL A   1      43.643  27.751  32.237  1.00  0.00     0.049 A 
ATOM     59  H   UNL A   1      41.814  28.434  31.435  1.00  0.00     0.167 HD
ATOM     60  C   UNL A   1      42.699  29.191  34.021  1.00  0.00     0.074 A 
ATOM     61  C   UNL A   1      42.726  29.799  35.336  1.00  0.00     0.031 C 
ATOM     62  C   UNL A   1      43.656  28.359  33.543  1.00  0.00     0.037 A 
BRANCH  49  63
ATOM     63  C   UNL A   1      42.587  26.287  27.829  1.00  0.00     0.064 A 
ATOM     64  C   UNL A   1      42.150  24.967  27.639  1.00  0.00     0.173 A 
ATOM     65  C   UNL A   1      43.438  26.843  26.862  1.00  0.00     0.173 A 
ATOM     66  F   UNL A   1      41.344  24.387  28.542  1.00  0.00    -0.203 F 
ATOM     67  C   UNL A   1      42.560  24.230  26.531  1.00  0.00     0.198 A 
ATOM     68  C   UNL A   1      43.826  26.111  25.743  1.00  0.00     0.198 A 
ATOM     69  F   UNL A   1      43.878  28.103  26.993  1.00  0.00    -0.203 F 
ATOM     70  F   UNL A   1      42.153  22.961  26.385  1.00  0.00    -0.200 F 
ATOM     71  C   UNL A   1      43.390  24.805  25.580  1.00  0.00     0.200 A 
ATOM     72  F   UNL A   1      44.618  26.672  24.818  1.00  0.00    -0.200 F 
ATOM     73  F   UNL A   1      43.770  24.099  24.506  1.00  0.00    -0.200 F 
ENDBRANCH  49  63
BRANCH  50  74
ATOM     74  C   UNL A   1      39.131  32.009  35.232  1.00  0.00     0.064 A 
ATOM     75  C   UNL A   1      38.392  31.480  36.298  1.00  0.00     0.173 A 
ATOM     76  C   UNL A   1      39.410  33.384  35.247  1.00  0.00     0.173 A 
ATOM     77  F   UNL A   1      38.082  30.175  36.315  1.00  0.00    -0.203 F 
ATOM     78  C   UNL A   1      37.950  32.294  37.339  1.00  0.00     0.198 A 
ATOM     79  C   UNL A   1      38.991  34.191  36.301  1.00  0.00     0.198 A 
ATOM     80  F   UNL A   1      40.116  33.937  34.249  1.00  0.00    -0.203 F 
ATOM     81  F   UNL A   1      37.222  31.768  38.334  1.00  0.00    -0.200 F 
ATOM     82  C   UNL A   1      38.257  33.646  37.345  1.00  0.00     0.200 A 
ATOM     83  F   UNL A   1      39.303  35.494  36.310  1.00  0.00    -0.200 F 
ATOM     84  F   UNL A   1      37.845  34.424  38.354  1.00  0.00    -0.200 F 
ENDBRANCH  50  74
BRANCH  62  85
ATOM     85  C   UNL A   1      44.823  28.067  34.437  1.00  0.00     0.064 A 
ATOM     86  C   UNL A   1      44.830  26.953  35.288  1.00  0.00     0.173 A 
ATOM     87  C   UNL A   1      45.966  28.879  34.406  1.00  0.00     0.173 A 
ATOM     88  F   UNL A   1      43.755  26.154  35.364  1.00  0.00    -0.203 F 
ATOM     89  C   UNL A   1      45.934  26.673  36.090  1.00  0.00     0.198 A 
ATOM     90  C   UNL A   1      47.077  28.583  35.189  1.00  0.00     0.198 A 
ATOM     91  F   UNL A   1      46.009  29.953  33.603  1.00  0.00    -0.203 F 
ATOM     92  F   UNL A   1      45.905  25.625  36.924  1.00  0.00    -0.200 F 
ATOM     93  C   UNL A   1      47.058  27.484  36.034  1.00  0.00     0.200 A 
ATOM     94  F   UNL A   1      48.167  29.360  35.126  1.00  0.00    -0.200 F 
ATOM     95  F   UNL A   1      48.123  27.208  36.800  1.00  0.00    -0.200 F 
ENDBRANCH  62  85
ENDBRANCH  36  37
ENDBRANCH  28  31
ENDBRANCH  26  27
ENDBRANCH  25  26
ENDBRANCH   1  25
TORSDOF 14
ENDMDL
MODEL 2
REMARK VINA RESULT:     -12.8      0.396      7.318
REMARK SMILES Cc1cc(F)c(-c2ccc(F)c(C(=O)NCCCCCCNC(=O)c3ccc(-c4c5nc(c(-c6c(F)c(F)c(F)c(F)c6F)c6ccc([nH]6)c(-c6c(F)c(F)c(F)c(F)c6F)c6nc(c(-c7c(F)c(F)c(F)c(F)c7F)c7ccc4[nH]7)C=C6)C=C5)cc3)c2)cc1F
REMARK SMILES IDX 19 1 18 2 17 3 16 4 15 5 13 6 14 7 12 9 7 10 8 11 88 12 9 13
REMARK SMILES IDX 10 14 11 15 6 16 1 17 2 18 3 19 90 20 4 21 89 22 91 23 5 24
REMARK SMILES IDX 20 25 21 26 22 27 23 28 24 30 25 31 26 32 87 33 27 34 86 35
REMARK SMILES IDX 28 36 29 37 30 38 80 39 31 40 85 41 79 42 81 43 32 44 84 45
REMARK SMILES IDX 78 46 77 47 33 49 65 50 45 51 64 52 46 53 49 54 63 55 82 56
REMARK SMILES IDX 47 57 48 58 62 60 83 61 50 62 34 63 35 64 43 65 36 66 37 67
REMARK SMILES IDX 41 68 44 69 38 70 39 71 42 72 40 73 66 74 67 75 75 76 68 77
REMARK SMILES IDX 69 78 73 79 76 80 70 81 71 82 74 83 72 84 51 85 52 86 60 87
REMARK SMILES IDX 53 88 54 89 58 90 61 91 55 92 56 93 59 94 57 95
REMARK H PARENT 15 8 22 29 81 48 49 59
REMARK Flexibility Score: inf
ROOT
ATOM      1  C   UNL A   1      33.144  26.958  25.980  1.00  0.00     0.002 C 
ENDROOT
BRANCH   1   2
ATOM      2  C   UNL A   1      33.649  26.619  24.577  1.00  0.00     0.002 C 
BRANCH   2   3
ATOM      3  C   UNL A   1      34.169  25.201  24.336  1.00  0.00     0.021 C 
BRANCH   3   4
ATOM      4  C   UNL A   1      34.039  24.632  22.929  1.00  0.00     0.116 C 
BRANCH   4   5
ATOM      5  N   UNL A   1      33.379  23.344  22.846  1.00  0.00    -0.352 N 
ATOM      6  C   UNL A   1      32.133  22.934  23.275  1.00  0.00     0.254 C 
ATOM      7  O   UNL A   1      31.777  21.792  22.997  1.00  0.00    -0.269 OA
ATOM      8  H   UNL A   1      33.912  22.640  22.410  1.00  0.00     0.163 HD
BRANCH   6   9
ATOM      9  C   UNL A   1      31.243  23.814  24.074  1.00  0.00     0.076 A 
ATOM     10  C   UNL A   1      29.836  25.810  24.295  1.00  0.00    -0.014 A 
ATOM     11  C   UNL A   1      29.763  25.574  25.678  1.00  0.00     0.012 A 
ATOM     12  C   UNL A   1      30.503  24.858  23.502  1.00  0.00     0.025 A 
ATOM     13  C   UNL A   1      30.402  24.472  26.250  1.00  0.00     0.041 A 
ATOM     14  C   UNL A   1      31.161  23.618  25.454  1.00  0.00     0.135 A 
ATOM     15  F   UNL A   1      31.838  22.634  26.063  1.00  0.00    -0.206 F 
BRANCH  10  16
ATOM     16  C   UNL A   1      29.364  27.079  23.704  1.00  0.00     0.020 A 
ATOM     17  C   UNL A   1      28.050  30.667  21.636  1.00  0.00     0.047 C 
ATOM     18  C   UNL A   1      28.502  29.426  22.343  1.00  0.00    -0.012 A 
ATOM     19  C   UNL A   1      27.581  28.605  23.002  1.00  0.00     0.046 A 
ATOM     20  C   UNL A   1      29.850  29.077  22.391  1.00  0.00     0.126 A 
ATOM     21  C   UNL A   1      28.012  27.451  23.665  1.00  0.00     0.131 A 
ATOM     22  C   UNL A   1      30.279  27.927  23.051  1.00  0.00     0.051 A 
ATOM     23  F   UNL A   1      30.764  29.838  21.772  1.00  0.00    -0.207 F 
ATOM     24  F   UNL A   1      27.082  26.682  24.253  1.00  0.00    -0.206 F 
ENDBRANCH  10  16
ENDBRANCH   6   9
ENDBRANCH   4   5
ENDBRANCH   3   4
ENDBRANCH   2   3
ENDBRANCH   1   2
BRANCH   1  25
ATOM     25  C   UNL A   1      32.375  28.267  26.144  1.00  0.00     0.021 C 
BRANCH  25  26
ATOM     26  C   UNL A   1      33.001  29.508  25.521  1.00  0.00     0.116 C 
BRANCH  26  27
ATOM     27  N   UNL A   1      32.601  30.751  26.157  1.00  0.00    -0.352 N 
ATOM     28  C   UNL A   1      33.237  31.476  27.142  1.00  0.00     0.251 C 
ATOM     29  H   UNL A   1      31.751  31.132  25.838  1.00  0.00     0.163 HD
ATOM     30  O   UNL A   1      32.710  32.472  27.615  1.00  0.00    -0.269 OA
BRANCH  28  31
ATOM     31  C   UNL A   1      34.545  31.017  27.665  1.00  0.00     0.039 A 
ATOM     32  C   UNL A   1      34.740  29.695  28.071  1.00  0.00     0.014 A 
ATOM     33  C   UNL A   1      35.585  31.945  27.778  1.00  0.00     0.014 A 
ATOM     34  C   UNL A   1      35.907  29.347  28.746  1.00  0.00     0.010 A 
ATOM     35  C   UNL A   1      36.788  31.571  28.387  1.00  0.00     0.010 A 
ATOM     36  C   UNL A   1      36.938  30.284  28.924  1.00  0.00    -0.014 A 
BRANCH  36  37
ATOM     37  C   UNL A   1      38.155  29.909  29.691  1.00  0.00     0.031 A 
ATOM     38  C   UNL A   1      38.372  30.430  31.087  1.00  0.00     0.074 A 
ATOM     39  C   UNL A   1      39.047  29.060  29.147  1.00  0.00     0.049 A 
ATOM     40  N   UNL A   1      39.380  30.227  31.899  1.00  0.00    -0.248 NA
ATOM     41  C   UNL A   1      37.320  31.294  31.647  1.00  0.00     0.031 C 
ATOM     42  C   UNL A   1      38.939  28.469  27.813  1.00  0.00     0.029 A 
ATOM     43  N   UNL A   1      40.208  28.532  29.652  1.00  0.00    -0.354 N 
ATOM     44  C   UNL A   1      39.093  30.946  33.051  1.00  0.00     0.074 A 
ATOM     45  C   UNL A   1      37.829  31.614  32.829  1.00  0.00     0.031 C 
ATOM     46  C   UNL A   1      39.965  27.627  27.623  1.00  0.00     0.029 A 
ATOM     47  C   UNL A   1      40.835  27.664  28.794  1.00  0.00     0.049 A 
ATOM     48  H   UNL A   1      40.557  28.754  30.546  1.00  0.00     0.167 HD
ATOM     49  C   UNL A   1      39.816  31.033  34.195  1.00  0.00     0.037 A 
ATOM     50  C   UNL A   1      41.989  26.986  28.926  1.00  0.00     0.037 A 
ATOM     51  C   UNL A   1      41.064  30.354  34.424  1.00  0.00     0.049 A 
ATOM     52  C   UNL A   1      42.793  27.138  30.186  1.00  0.00     0.074 A 
ATOM     53  C   UNL A   1      41.863  30.375  35.555  1.00  0.00     0.029 A 
ATOM     54  N   UNL A   1      41.693  29.527  33.507  1.00  0.00    -0.354 N 
ATOM     55  N   UNL A   1      42.518  27.832  31.263  1.00  0.00    -0.248 NA
ATOM     56  C   UNL A   1      44.075  26.421  30.244  1.00  0.00     0.031 C 
ATOM     57  C   UNL A   1      42.993  29.589  35.308  1.00  0.00     0.029 A 
ATOM     58  C   UNL A   1      42.877  29.043  34.041  1.00  0.00     0.049 A 
ATOM     59  H   UNL A   1      41.351  29.313  32.608  1.00  0.00     0.167 HD
ATOM     60  C   UNL A   1      43.583  27.631  32.128  1.00  0.00     0.074 A 
ATOM     61  C   UNL A   1      44.500  26.730  31.461  1.00  0.00     0.031 C 
ATOM     62  C   UNL A   1      43.783  28.150  33.364  1.00  0.00     0.037 A 
BRANCH  49  63
ATOM     63  C   UNL A   1      39.280  31.901  35.296  1.00  0.00     0.064 A 
ATOM     64  C   UNL A   1      38.495  31.371  36.331  1.00  0.00     0.173 A 
ATOM     65  C   UNL A   1      39.616  33.263  35.357  1.00  0.00     0.173 A 
ATOM     66  F   UNL A   1      38.138  30.078  36.313  1.00  0.00    -0.203 F 
ATOM     67  C   UNL A   1      38.055  32.177  37.379  1.00  0.00     0.198 A 
ATOM     68  C   UNL A   1      39.194  34.058  36.419  1.00  0.00     0.198 A 
ATOM     69  F   UNL A   1      40.369  33.816  34.395  1.00  0.00    -0.203 F 
ATOM     70  F   UNL A   1      37.282  31.655  38.342  1.00  0.00    -0.200 F 
ATOM     71  C   UNL A   1      38.411  33.516  37.427  1.00  0.00     0.200 A 
ATOM     72  F   UNL A   1      39.550  35.350  36.470  1.00  0.00    -0.200 F 
ATOM     73  F   UNL A   1      38.000  34.285  38.444  1.00  0.00    -0.200 F 
ENDBRANCH  49  63
BRANCH  50  74
ATOM     74  C   UNL A   1      42.446  26.097  27.828  1.00  0.00     0.064 A 
ATOM     75  C   UNL A   1      43.348  26.557  26.859  1.00  0.00     0.173 A 
ATOM     76  C   UNL A   1      42.017  24.763  27.743  1.00  0.00     0.173 A 
ATOM     77  F   UNL A   1      43.767  27.830  26.888  1.00  0.00    -0.203 F 
ATOM     78  C   UNL A   1      43.802  25.717  25.845  1.00  0.00     0.198 A 
ATOM     79  C   UNL A   1      42.494  23.918  26.745  1.00  0.00     0.198 A 
ATOM     80  F   UNL A   1      41.156  24.277  28.649  1.00  0.00    -0.203 F 
ATOM     81  F   UNL A   1      44.644  26.188  24.915  1.00  0.00    -0.200 F 
ATOM     82  C   UNL A   1      43.383  24.396  25.795  1.00  0.00     0.200 A 
ATOM     83  F   UNL A   1      42.097  22.638  26.709  1.00  0.00    -0.200 F 
ATOM     84  F   UNL A   1      43.833  23.585  24.828  1.00  0.00    -0.200 F 
ENDBRANCH  50  74
BRANCH  62  85
ATOM     85  C   UNL A   1      45.035  27.748  34.085  1.00  0.00     0.064 A 
ATOM     86  C   UNL A   1      46.208  28.510  33.991  1.00  0.00     0.173 A 
ATOM     87  C   UNL A   1      45.047  26.619  34.917  1.00  0.00     0.173 A 
ATOM     88  F   UNL A   1      46.250  29.590  33.197  1.00  0.00    -0.203 F 
ATOM     89  C   UNL A   1      47.355  28.145  34.692  1.00  0.00     0.198 A 
ATOM     90  C   UNL A   1      46.187  26.271  35.635  1.00  0.00     0.198 A 
ATOM     91  F   UNL A   1      43.947  25.861  35.044  1.00  0.00    -0.203 F 
ATOM     92  F   UNL A   1      48.477  28.865  34.558  1.00  0.00    -0.200 F 
ATOM     93  C   UNL A   1      47.341  27.031  35.518  1.00  0.00     0.200 A 
ATOM     94  F   UNL A   1      46.169  25.201  36.442  1.00  0.00    -0.200 F 
ATOM     95  F   UNL A   1      48.443  26.686  36.198  1.00  0.00    -0.200 F 
ENDBRANCH  62  85
ENDBRANCH  36  37
ENDBRANCH  28  31
ENDBRANCH  26  27
ENDBRANCH  25  26
ENDBRANCH   1  25
TORSDOF 14
ENDMDL
MODEL 3
REMARK VINA RESULT:     -12.6      2.481      8.505
REMARK SMILES Cc1cc(F)c(-c2ccc(F)c(C(=O)NCCCCCCNC(=O)c3ccc(-c4c5nc(c(-c6c(F)c(F)c(F)c(F)c6F)c6ccc([nH]6)c(-c6c(F)c(F)c(F)c(F)c6F)c6nc(c(-c7c(F)c(F)c(F)c(F)c7F)c7ccc4[nH]7)C=C6)C=C5)cc3)c2)cc1F
REMARK SMILES IDX 19 1 18 2 17 3 16 4 15 5 13 6 14 7 12 9 7 10 8 11 88 12 9 13
REMARK SMILES IDX 10 14 11 15 6 16 1 17 2 18 3 19 90 20 4 21 89 22 91 23 5 24
REMARK SMILES IDX 20 25 21 26 22 27 23 28 24 30 25 31 26 32 87 33 27 34 86 35
REMARK SMILES IDX 28 36 29 37 30 38 80 39 31 40 85 41 79 42 81 43 32 44 84 45
REMARK SMILES IDX 78 46 77 47 33 49 65 50 45 51 64 52 46 53 49 54 63 55 82 56
REMARK SMILES IDX 47 57 48 58 62 60 83 61 50 62 34 63 35 64 43 65 36 66 37 67
REMARK SMILES IDX 41 68 44 69 38 70 39 71 42 72 40 73 66 74 67 75 75 76 68 77
REMARK SMILES IDX 69 78 73 79 76 80 70 81 71 82 74 83 72 84 51 85 52 86 60 87
REMARK SMILES IDX 53 88 54 89 58 90 61 91 55 92 56 93 59 94 57 95
REMARK H PARENT 15 8 22 29 81 48 49 59
REMARK Flexibility Score: inf
ROOT
ATOM      1  C   UNL A   1      31.780  30.655  26.103  1.00  0.00     0.002 C 
ENDROOT
BRANCH   1   2
ATOM      2  C   UNL A   1      31.788  29.412  26.992  1.00  0.00     0.002 C 
BRANCH   2   3
ATOM      3  C   UNL A   1      33.132  28.726  27.237  1.00  0.00     0.021 C 
BRANCH   3   4
ATOM      4  C   UNL A   1      34.099  28.628  26.064  1.00  0.00     0.116 C 
BRANCH   4   5
ATOM      5  N   UNL A   1      33.499  28.237  24.805  1.00  0.00    -0.352 N 
ATOM      6  C   UNL A   1      32.918  27.050  24.406  1.00  0.00     0.254 C 
ATOM      7  O   UNL A   1      32.397  27.009  23.295  1.00  0.00    -0.269 OA
ATOM      8  H   UNL A   1      33.507  28.938  24.114  1.00  0.00     0.163 HD
BRANCH   6   9
ATOM      9  C   UNL A   1      32.936  25.836  25.261  1.00  0.00     0.076 A 
ATOM     10  C   UNL A   1      33.976  23.737  25.985  1.00  0.00    -0.014 A 
ATOM     11  C   UNL A   1      32.814  23.444  26.718  1.00  0.00     0.012 A 
ATOM     12  C   UNL A   1      34.049  24.987  25.343  1.00  0.00     0.025 A 
ATOM     13  C   UNL A   1      31.738  24.334  26.740  1.00  0.00     0.041 A 
ATOM     14  C   UNL A   1      31.791  25.506  25.990  1.00  0.00     0.135 A 
ATOM     15  F   UNL A   1      30.696  26.278  25.961  1.00  0.00    -0.206 F 
BRANCH  10  16
ATOM     16  C   UNL A   1      35.025  22.720  25.765  1.00  0.00     0.020 A 
ATOM     17  C   UNL A   1      38.030  19.747  24.759  1.00  0.00     0.047 C 
ATOM     18  C   UNL A   1      36.994  20.775  25.099  1.00  0.00    -0.012 A 
ATOM     19  C   UNL A   1      37.370  22.051  25.533  1.00  0.00     0.046 A 
ATOM     20  C   UNL A   1      35.635  20.477  25.024  1.00  0.00     0.126 A 
ATOM     21  C   UNL A   1      36.397  23.002  25.854  1.00  0.00     0.131 A 
ATOM     22  C   UNL A   1      34.665  21.426  25.345  1.00  0.00     0.051 A 
ATOM     23  F   UNL A   1      35.234  19.266  24.614  1.00  0.00    -0.207 F 
ATOM     24  F   UNL A   1      36.813  24.221  26.233  1.00  0.00    -0.206 F 
ENDBRANCH  10  16
ENDBRANCH   6   9
ENDBRANCH   4   5
ENDBRANCH   3   4
ENDBRANCH   2   3
ENDBRANCH   1   2
BRANCH   1  25
ATOM     25  C   UNL A   1      31.486  31.993  26.780  1.00  0.00     0.021 C 
BRANCH  25  26
ATOM     26  C   UNL A   1      32.689  32.784  27.277  1.00  0.00     0.116 C 
BRANCH  26  27
ATOM     27  N   UNL A   1      32.379  34.152  27.651  1.00  0.00    -0.352 N 
ATOM     28  C   UNL A   1      32.999  34.973  28.569  1.00  0.00     0.251 C 
ATOM     29  H   UNL A   1      31.612  34.553  27.181  1.00  0.00     0.163 HD
ATOM     30  O   UNL A   1      32.550  36.083  28.810  1.00  0.00    -0.269 OA
BRANCH  28  31
ATOM     31  C   UNL A   1      34.191  34.486  29.303  1.00  0.00     0.039 A 
ATOM     32  C   UNL A   1      35.479  34.661  28.793  1.00  0.00     0.014 A 
ATOM     33  C   UNL A   1      34.003  33.813  30.514  1.00  0.00     0.014 A 
ATOM     34  C   UNL A   1      36.554  34.015  29.399  1.00  0.00     0.010 A 
ATOM     35  C   UNL A   1      35.097  33.231  31.164  1.00  0.00     0.010 A 
ATOM     36  C   UNL A   1      36.373  33.282  30.583  1.00  0.00    -0.014 A 
BRANCH  36  37
ATOM     37  C   UNL A   1      37.522  32.558  31.188  1.00  0.00     0.031 A 
ATOM     38  C   UNL A   1      37.993  32.895  32.578  1.00  0.00     0.074 A 
ATOM     39  C   UNL A   1      38.114  31.561  30.503  1.00  0.00     0.049 A 
ATOM     40  N   UNL A   1      38.988  32.385  33.261  1.00  0.00    -0.248 NA
ATOM     41  C   UNL A   1      37.251  33.943  33.298  1.00  0.00     0.031 C 
ATOM     42  C   UNL A   1      37.736  31.126  29.159  1.00  0.00     0.029 A 
ATOM     43  N   UNL A   1      39.146  30.725  30.848  1.00  0.00    -0.354 N 
ATOM     44  C   UNL A   1      39.002  33.057  34.475  1.00  0.00     0.074 A 
ATOM     45  C   UNL A   1      37.933  34.031  34.432  1.00  0.00     0.031 C 
ATOM     46  C   UNL A   1      38.492  30.074  28.811  1.00  0.00     0.029 A 
ATOM     47  C   UNL A   1      39.449  29.802  29.879  1.00  0.00     0.049 A 
ATOM     48  H   UNL A   1      39.622  30.782  31.707  1.00  0.00     0.167 HD
ATOM     49  C   UNL A   1      39.827  32.871  35.535  1.00  0.00     0.037 A 
ATOM     50  C   UNL A   1      40.401  28.851  29.845  1.00  0.00     0.037 A 
ATOM     51  C   UNL A   1      40.878  31.889  35.587  1.00  0.00     0.049 A 
ATOM     52  C   UNL A   1      41.331  28.698  31.014  1.00  0.00     0.074 A 
ATOM     53  C   UNL A   1      41.758  31.621  36.622  1.00  0.00     0.029 A 
ATOM     54  N   UNL A   1      41.188  31.009  34.562  1.00  0.00    -0.354 N 
ATOM     55  N   UNL A   1      41.343  29.350  32.151  1.00  0.00    -0.248 NA
ATOM     56  C   UNL A   1      42.389  27.686  30.891  1.00  0.00     0.031 C 
ATOM     57  C   UNL A   1      42.624  30.603  36.209  1.00  0.00     0.029 A 
ATOM     58  C   UNL A   1      42.256  30.207  34.935  1.00  0.00     0.049 A 
ATOM     59  H   UNL A   1      40.720  30.960  33.697  1.00  0.00     0.167 HD
ATOM     60  C   UNL A   1      42.398  28.823  32.881  1.00  0.00     0.074 A 
ATOM     61  C   UNL A   1      42.990  27.781  32.068  1.00  0.00     0.031 C 
ATOM     62  C   UNL A   1      42.838  29.176  34.114  1.00  0.00     0.037 A 
BRANCH  49  63
ATOM     63  C   UNL A   1      39.634  33.753  36.735  1.00  0.00     0.064 A 
ATOM     64  C   UNL A   1      40.196  35.037  36.799  1.00  0.00     0.173 A 
ATOM     65  C   UNL A   1      38.818  33.338  37.799  1.00  0.00     0.173 A 
ATOM     66  F   UNL A   1      40.992  35.475  35.812  1.00  0.00    -0.203 F 
ATOM     67  C   UNL A   1      39.959  35.867  37.892  1.00  0.00     0.198 A 
ATOM     68  C   UNL A   1      38.565  34.181  38.878  1.00  0.00     0.198 A 
ATOM     69  F   UNL A   1      38.252  32.122  37.783  1.00  0.00    -0.203 F 
ATOM     70  F   UNL A   1      40.530  37.079  37.946  1.00  0.00    -0.200 F 
ATOM     71  C   UNL A   1      39.138  35.443  38.926  1.00  0.00     0.200 A 
ATOM     72  F   UNL A   1      37.761  33.773  39.871  1.00  0.00    -0.200 F 
ATOM     73  F   UNL A   1      38.899  36.249  39.969  1.00  0.00    -0.200 F 
ENDBRANCH  49  63
BRANCH  50  74
ATOM     74  C   UNL A   1      40.512  27.969  28.656  1.00  0.00     0.064 A 
ATOM     75  C   UNL A   1      39.855  26.731  28.617  1.00  0.00     0.173 A 
ATOM     76  C   UNL A   1      41.246  28.357  27.526  1.00  0.00     0.173 A 
ATOM     77  F   UNL A   1      39.160  26.308  29.683  1.00  0.00    -0.203 F 
ATOM     78  C   UNL A   1      39.932  25.914  27.491  1.00  0.00     0.198 A 
ATOM     79  C   UNL A   1      41.299  27.551  26.392  1.00  0.00     0.198 A 
ATOM     80  F   UNL A   1      41.890  29.534  27.515  1.00  0.00    -0.203 F 
ATOM     81  F   UNL A   1      39.318  24.723  27.488  1.00  0.00    -0.200 F 
ATOM     82  C   UNL A   1      40.645  26.329  26.376  1.00  0.00     0.200 A 
ATOM     83  F   UNL A   1      41.976  27.963  25.312  1.00  0.00    -0.200 F 
ATOM     84  F   UNL A   1      40.704  25.549  25.289  1.00  0.00    -0.200 F 
ENDBRANCH  50  74
BRANCH  62  85
ATOM     85  C   UNL A   1      44.008  28.421  34.668  1.00  0.00     0.064 A 
ATOM     86  C   UNL A   1      45.324  28.865  34.471  1.00  0.00     0.173 A 
ATOM     87  C   UNL A   1      43.811  27.271  35.446  1.00  0.00     0.173 A 
ATOM     88  F   UNL A   1      45.564  29.953  33.723  1.00  0.00    -0.203 F 
ATOM     89  C   UNL A   1      46.401  28.174  35.020  1.00  0.00     0.198 A 
ATOM     90  C   UNL A   1      44.888  26.597  36.013  1.00  0.00     0.198 A 
ATOM     91  F   UNL A   1      42.571  26.810  35.668  1.00  0.00    -0.203 F 
ATOM     92  F   UNL A   1      47.652  28.595  34.787  1.00  0.00    -0.200 F 
ATOM     93  C   UNL A   1      46.182  27.045  35.795  1.00  0.00     0.200 A 
ATOM     94  F   UNL A   1      44.675  25.512  36.772  1.00  0.00    -0.200 F 
ATOM     95  F   UNL A   1      47.220  26.387  36.329  1.00  0.00    -0.200 F 
ENDBRANCH  62  85
ENDBRANCH  36  37
ENDBRANCH  28  31
ENDBRANCH  26  27
ENDBRANCH  25  26
ENDBRANCH   1  25
TORSDOF 14
ENDMDL
