MODEL 1
REMARK VINA RESULT:     -11.5      0.000      0.000
REMARK SMILES CCC[NH2+][C@]1(C(=O)NCCCCCCNC(=O)c2ccc(-c3c4nc(c(-c5c(F)c(F)c(F)c(F)c5F)c5ccc([nH]5)c(-c5c(F)c(F)c(F)c(F)c5F)c5nc(c(-c6c(F)c(F)c(F)c(F)c6F)c6ccc3[nH]6)C=C5)C=C4)cc2)CC[C@H](n2nc(C)c(CC)c2C)C1
REMARK SMILES IDX 11 1 10 2 9 3 8 4 6 5 7 6 5 8 81 9 93 10 82 11 83 12 4 13
REMARK SMILES IDX 3 16 2 17 1 18 84 19 85 20 91 21 86 22 88 23 92 24 87 25
REMARK SMILES IDX 89 26 90 27 12 28 13 29 14 30 15 31 16 32 17 34 18 35 19 36
REMARK SMILES IDX 80 37 20 38 79 39 21 40 22 41 23 42 73 43 24 44 78 45 72 46
REMARK SMILES IDX 74 47 25 48 77 49 71 50 70 51 26 53 58 54 38 55 57 56 39 57
REMARK SMILES IDX 42 58 56 59 75 60 40 61 41 62 55 64 76 65 43 66 27 67 28 68
REMARK SMILES IDX 36 69 29 70 30 71 34 72 37 73 31 74 32 75 35 76 33 77 59 78
REMARK SMILES IDX 60 79 68 80 61 81 62 82 66 83 69 84 63 85 64 86 67 87 65 88
REMARK SMILES IDX 44 89 45 90 53 91 46 92 47 93 51 94 54 95 48 96 49 97 52 98
REMARK SMILES IDX 50 99
REMARK H PARENT 8 7 4 14 4 15 15 33 74 52 42 63
REMARK Flexibility Score: inf
ROOT
ATOM      1  C   UNL A   1      31.049  30.198  25.011  1.00  0.00     0.002 C 
ENDROOT
BRANCH   1   2
ATOM      2  C   UNL A   1      31.363  28.747  24.641  1.00  0.00     0.021 C 
BRANCH   2   3
ATOM      3  C   UNL A   1      32.858  28.503  24.446  1.00  0.00     0.116 C 
BRANCH   3   4
ATOM      4  N   UNL A   1      33.094  27.783  23.206  1.00  0.00    -0.351 N 
ATOM      5  C   UNL A   1      33.554  26.546  22.882  1.00  0.00     0.281 C 
ATOM      6  O   UNL A   1      33.843  26.389  21.686  1.00  0.00    -0.268 OA
ATOM      7  H   UNL A   1      32.865  28.317  22.411  1.00  0.00     0.163 HD
BRANCH   5   8
ATOM      8  C   UNL A   1      33.558  25.297  23.828  1.00  0.00     0.177 C 
ATOM      9  C   UNL A   1      34.139  25.635  25.213  1.00  0.00     0.081 C 
ATOM     10  C   UNL A   1      32.162  24.864  24.302  1.00  0.00     0.106 C 
ATOM     11  C   UNL A   1      33.612  24.519  26.153  1.00  0.00     0.034 C 
ATOM     12  C   UNL A   1      32.371  23.901  25.444  1.00  0.00     0.114 C 
BRANCH   8  13
ATOM     13  N   UNL A   1      34.336  24.252  23.074  1.00  0.00    -0.334 N 
ATOM     14  H   UNL A   1      33.769  23.404  23.066  1.00  0.00     0.347 HD
ATOM     15  H   UNL A   1      34.516  24.685  22.169  1.00  0.00     0.347 HD
BRANCH  13  16
ATOM     16  C   UNL A   1      35.670  23.876  23.560  1.00  0.00     0.261 C 
BRANCH  16  17
ATOM     17  C   UNL A   1      35.827  22.370  23.796  1.00  0.00     0.058 C 
ATOM     18  C   UNL A   1      36.533  22.039  25.100  1.00  0.00     0.010 C 
ENDBRANCH  16  17
ENDBRANCH  13  16
ENDBRANCH   8  13
BRANCH  12  19
ATOM     19  N   UNL A   1      32.417  22.484  25.093  1.00  0.00    -0.266 N 
ATOM     20  N   UNL A   1      32.052  22.203  23.818  1.00  0.00    -0.178 NA
ATOM     21  C   UNL A   1      32.914  21.360  25.743  1.00  0.00     0.039 A 
ATOM     22  C   UNL A   1      32.301  20.903  23.657  1.00  0.00     0.063 A 
ATOM     23  C   UNL A   1      32.825  20.320  24.830  1.00  0.00    -0.004 A 
ATOM     24  C   UNL A   1      33.457  21.208  27.128  1.00  0.00     0.066 C 
ATOM     25  C   UNL A   1      32.029  20.255  22.353  1.00  0.00     0.069 C 
BRANCH  23  26
ATOM     26  C   UNL A   1      33.216  18.895  25.064  1.00  0.00     0.036 C 
ATOM     27  C   UNL A   1      34.637  18.608  24.606  1.00  0.00     0.009 C 
ENDBRANCH  23  26
ENDBRANCH  12  19
ENDBRANCH   5   8
ENDBRANCH   3   4
ENDBRANCH   2   3
ENDBRANCH   1   2
BRANCH   1  28
ATOM     28  C   UNL A   1      31.651  30.658  26.346  1.00  0.00     0.002 C 
BRANCH  28  29
ATOM     29  C   UNL A   1      31.477  32.148  26.651  1.00  0.00     0.021 C 
BRANCH  29  30
ATOM     30  C   UNL A   1      32.709  32.798  27.269  1.00  0.00     0.116 C 
BRANCH  30  31
ATOM     31  N   UNL A   1      32.462  34.191  27.611  1.00  0.00    -0.352 N 
ATOM     32  C   UNL A   1      33.004  34.935  28.625  1.00  0.00     0.251 C 
ATOM     33  H   UNL A   1      31.817  34.662  27.036  1.00  0.00     0.163 HD
ATOM     34  O   UNL A   1      32.515  36.020  28.937  1.00  0.00    -0.269 OA
BRANCH  32  35
ATOM     35  C   UNL A   1      34.180  34.419  29.348  1.00  0.00     0.039 A 
ATOM     36  C   UNL A   1      33.998  33.741  30.555  1.00  0.00     0.014 A 
ATOM     37  C   UNL A   1      35.461  34.597  28.820  1.00  0.00     0.014 A 
ATOM     38  C   UNL A   1      35.102  33.192  31.208  1.00  0.00     0.010 A 
ATOM     39  C   UNL A   1      36.548  33.984  29.431  1.00  0.00     0.010 A 
ATOM     40  C   UNL A   1      36.381  33.282  30.634  1.00  0.00    -0.014 A 
BRANCH  40  41
ATOM     41  C   UNL A   1      37.567  32.666  31.276  1.00  0.00     0.031 A 
ATOM     42  C   UNL A   1      38.279  31.533  30.591  1.00  0.00     0.074 A 
ATOM     43  C   UNL A   1      37.948  33.066  32.504  1.00  0.00     0.049 A 
ATOM     44  N   UNL A   1      39.257  30.781  31.031  1.00  0.00    -0.248 NA
ATOM     45  C   UNL A   1      37.809  31.175  29.243  1.00  0.00     0.031 C 
ATOM     46  C   UNL A   1      37.315  34.133  33.282  1.00  0.00     0.029 A 
ATOM     47  N   UNL A   1      38.951  32.610  33.323  1.00  0.00    -0.354 N 
ATOM     48  C   UNL A   1      39.498  29.852  30.028  1.00  0.00     0.074 A 
ATOM     49  C   UNL A   1      38.537  30.101  28.977  1.00  0.00     0.031 C 
ATOM     50  C   UNL A   1      37.958  34.264  34.453  1.00  0.00     0.029 A 
ATOM     51  C   UNL A   1      39.014  33.260  34.532  1.00  0.00     0.049 A 
ATOM     52  H   UNL A   1      39.567  31.886  33.068  1.00  0.00     0.167 HD
ATOM     53  C   UNL A   1      40.449  28.890  29.981  1.00  0.00     0.037 A 
ATOM     54  C   UNL A   1      39.822  33.055  35.589  1.00  0.00     0.037 A 
ATOM     55  C   UNL A   1      41.424  28.672  31.016  1.00  0.00     0.049 A 
ATOM     56  C   UNL A   1      40.857  31.961  35.518  1.00  0.00     0.074 A 
ATOM     57  C   UNL A   1      42.476  27.773  31.034  1.00  0.00     0.029 A 
ATOM     58  N   UNL A   1      41.464  29.358  32.222  1.00  0.00    -0.354 N 
ATOM     59  N   UNL A   1      41.124  31.136  34.536  1.00  0.00    -0.248 NA
ATOM     60  C   UNL A   1      41.703  31.772  36.704  1.00  0.00     0.031 C 
ATOM     61  C   UNL A   1      43.114  27.872  32.274  1.00  0.00     0.029 A 
ATOM     62  C   UNL A   1      42.503  28.878  33.004  1.00  0.00     0.049 A 
ATOM     63  H   UNL A   1      40.845  30.078  32.483  1.00  0.00     0.167 HD
ATOM     64  C   UNL A   1      42.194  30.362  34.966  1.00  0.00     0.074 A 
ATOM     65  C   UNL A   1      42.530  30.820  36.297  1.00  0.00     0.031 C 
ATOM     66  C   UNL A   1      42.840  29.363  34.317  1.00  0.00     0.037 A 
BRANCH  53  67
ATOM     67  C   UNL A   1      40.483  27.993  28.778  1.00  0.00     0.064 A 
ATOM     68  C   UNL A   1      41.233  28.313  27.636  1.00  0.00     0.173 A 
ATOM     69  C   UNL A   1      39.795  26.769  28.788  1.00  0.00     0.173 A 
ATOM     70  F   UNL A   1      41.901  29.474  27.570  1.00  0.00    -0.203 F 
ATOM     71  C   UNL A   1      41.274  27.453  26.542  1.00  0.00     0.198 A 
ATOM     72  C   UNL A   1      39.866  25.897  27.706  1.00  0.00     0.198 A 
ATOM     73  F   UNL A   1      39.067  26.412  29.856  1.00  0.00    -0.203 F 
ATOM     74  F   UNL A   1      41.960  27.801  25.444  1.00  0.00    -0.200 F 
ATOM     75  C   UNL A   1      40.599  26.242  26.580  1.00  0.00     0.200 A 
ATOM     76  F   UNL A   1      39.224  24.721  27.752  1.00  0.00    -0.200 F 
ATOM     77  F   UNL A   1      40.650  25.411  25.531  1.00  0.00    -0.200 F 
ENDBRANCH  53  67
BRANCH  54  78
ATOM     78  C   UNL A   1      39.705  33.908  36.801  1.00  0.00     0.064 A 
ATOM     79  C   UNL A   1      38.910  33.509  37.886  1.00  0.00     0.173 A 
ATOM     80  C   UNL A   1      40.356  35.146  36.895  1.00  0.00     0.173 A 
ATOM     81  F   UNL A   1      38.251  32.341  37.836  1.00  0.00    -0.203 F 
ATOM     82  C   UNL A   1      38.746  34.327  39.001  1.00  0.00     0.198 A 
ATOM     83  C   UNL A   1      40.218  35.950  38.025  1.00  0.00     0.198 A 
ATOM     84  F   UNL A   1      41.133  35.576  35.889  1.00  0.00    -0.203 F 
ATOM     85  F   UNL A   1      37.935  33.945  39.996  1.00  0.00    -0.200 F 
ATOM     86  C   UNL A   1      39.405  35.545  39.072  1.00  0.00     0.200 A 
ATOM     87  F   UNL A   1      40.868  37.119  38.097  1.00  0.00    -0.200 F 
ATOM     88  F   UNL A   1      39.245  36.333  40.145  1.00  0.00    -0.200 F 
ENDBRANCH  54  78
BRANCH  66  89
ATOM     89  C   UNL A   1      44.017  28.734  35.006  1.00  0.00     0.064 A 
ATOM     90  C   UNL A   1      45.313  29.253  34.883  1.00  0.00     0.173 A 
ATOM     91  C   UNL A   1      43.829  27.629  35.852  1.00  0.00     0.173 A 
ATOM     92  F   UNL A   1      45.549  30.298  34.076  1.00  0.00    -0.203 F 
ATOM     93  C   UNL A   1      46.382  28.674  35.564  1.00  0.00     0.198 A 
ATOM     94  C   UNL A   1      44.893  27.076  36.558  1.00  0.00     0.198 A 
ATOM     95  F   UNL A   1      42.606  27.100  36.011  1.00  0.00    -0.203 F 
ATOM     96  F   UNL A   1      47.620  29.159  35.395  1.00  0.00    -0.200 F 
ATOM     97  C   UNL A   1      46.169  27.596  36.408  1.00  0.00     0.200 A 
ATOM     98  F   UNL A   1      44.681  26.045  37.387  1.00  0.00    -0.200 F 
ATOM     99  F   UNL A   1      47.197  27.051  37.074  1.00  0.00    -0.200 F 
ENDBRANCH  66  89
ENDBRANCH  40  41
ENDBRANCH  32  35
ENDBRANCH  30  31
ENDBRANCH  29  30
ENDBRANCH  28  29
ENDBRANCH   1  28
TORSDOF 18
ENDMDL
MODEL 2
REMARK VINA RESULT:     -11.4      0.902      2.101
REMARK SMILES CCC[NH2+][C@]1(C(=O)NCCCCCCNC(=O)c2ccc(-c3c4nc(c(-c5c(F)c(F)c(F)c(F)c5F)c5ccc([nH]5)c(-c5c(F)c(F)c(F)c(F)c5F)c5nc(c(-c6c(F)c(F)c(F)c(F)c6F)c6ccc3[nH]6)C=C5)C=C4)cc2)CC[C@H](n2nc(C)c(CC)c2C)C1
REMARK SMILES IDX 11 1 10 2 9 3 8 4 6 5 7 6 5 8 81 9 93 10 82 11 83 12 4 13
REMARK SMILES IDX 3 16 2 17 1 18 84 19 85 20 91 21 86 22 88 23 92 24 87 25
REMARK SMILES IDX 89 26 90 27 12 28 13 29 14 30 15 31 16 32 17 34 18 35 19 36
REMARK SMILES IDX 80 37 20 38 79 39 21 40 22 41 23 42 73 43 24 44 78 45 72 46
REMARK SMILES IDX 74 47 25 48 77 49 71 50 70 51 26 53 58 54 38 55 57 56 39 57
REMARK SMILES IDX 42 58 56 59 75 60 40 61 41 62 55 64 76 65 43 66 27 67 28 68
REMARK SMILES IDX 36 69 29 70 30 71 34 72 37 73 31 74 32 75 35 76 33 77 59 78
REMARK SMILES IDX 60 79 68 80 61 81 62 82 66 83 69 84 63 85 64 86 67 87 65 88
REMARK SMILES IDX 44 89 45 90 53 91 46 92 47 93 51 94 54 95 48 96 49 97 52 98
REMARK SMILES IDX 50 99
REMARK H PARENT 8 7 4 14 4 15 15 33 74 52 42 63
REMARK Flexibility Score: inf
ROOT
ATOM      1  C   UNL A   1      31.641  29.990  25.205  1.00  0.00     0.002 C 
ENDROOT
BRANCH   1   2
ATOM      2  C   UNL A   1      30.403  30.143  24.317  1.00  0.00     0.021 C 
BRANCH   2   3
ATOM      3  C   UNL A   1      30.481  29.289  23.053  1.00  0.00     0.116 C 
BRANCH   3   4
ATOM      4  N   UNL A   1      31.850  29.233  22.567  1.00  0.00    -0.351 N 
ATOM      5  C   UNL A   1      32.871  28.342  22.663  1.00  0.00     0.281 C 
ATOM      6  O   UNL A   1      33.980  28.773  22.309  1.00  0.00    -0.268 OA
ATOM      7  H   UNL A   1      32.095  30.029  22.042  1.00  0.00     0.163 HD
BRANCH   5   8
ATOM      8  C   UNL A   1      32.725  26.816  22.984  1.00  0.00     0.177 C 
ATOM      9  C   UNL A   1      31.308  26.303  22.670  1.00  0.00     0.081 C 
ATOM     10  C   UNL A   1      33.485  25.895  22.017  1.00  0.00     0.106 C 
ATOM     11  C   UNL A   1      31.459  24.765  22.532  1.00  0.00     0.034 C 
ATOM     12  C   UNL A   1      32.968  24.499  22.251  1.00  0.00     0.114 C 
BRANCH   8  13
ATOM     13  N   UNL A   1      33.116  26.693  24.432  1.00  0.00    -0.334 N 
ATOM     14  H   UNL A   1      33.702  25.863  24.515  1.00  0.00     0.347 HD
ATOM     15  H   UNL A   1      33.562  27.586  24.643  1.00  0.00     0.347 HD
BRANCH  13  16
ATOM     16  C   UNL A   1      32.057  26.578  25.443  1.00  0.00     0.261 C 
BRANCH  16  17
ATOM     17  C   UNL A   1      32.296  25.445  26.447  1.00  0.00     0.058 C 
ATOM     18  C   UNL A   1      31.479  24.199  26.148  1.00  0.00     0.010 C 
ENDBRANCH  16  17
ENDBRANCH  13  16
ENDBRANCH   8  13
BRANCH  12  19
ATOM     19  N   UNL A   1      33.710  23.687  23.212  1.00  0.00    -0.266 N 
ATOM     20  N   UNL A   1      34.745  24.325  23.813  1.00  0.00    -0.178 NA
ATOM     21  C   UNL A   1      33.487  22.434  23.771  1.00  0.00     0.039 A 
ATOM     22  C   UNL A   1      35.189  23.479  24.742  1.00  0.00     0.063 A 
ATOM     23  C   UNL A   1      34.454  22.275  24.752  1.00  0.00    -0.004 A 
ATOM     24  C   UNL A   1      32.448  21.407  23.453  1.00  0.00     0.066 C 
ATOM     25  C   UNL A   1      36.325  23.867  25.612  1.00  0.00     0.069 C 
BRANCH  23  26
ATOM     26  C   UNL A   1      34.647  21.076  25.625  1.00  0.00     0.036 C 
ATOM     27  C   UNL A   1      33.766  21.121  26.863  1.00  0.00     0.009 C 
ENDBRANCH  23  26
ENDBRANCH  12  19
ENDBRANCH   5   8
ENDBRANCH   3   4
ENDBRANCH   2   3
ENDBRANCH   1   2
BRANCH   1  28
ATOM     28  C   UNL A   1      31.502  30.612  26.602  1.00  0.00     0.002 C 
BRANCH  28  29
ATOM     29  C   UNL A   1      31.474  32.142  26.625  1.00  0.00     0.021 C 
BRANCH  29  30
ATOM     30  C   UNL A   1      32.694  32.769  27.289  1.00  0.00     0.116 C 
BRANCH  30  31
ATOM     31  N   UNL A   1      32.475  34.178  27.584  1.00  0.00    -0.352 N 
ATOM     32  C   UNL A   1      33.030  34.944  28.574  1.00  0.00     0.251 C 
ATOM     33  H   UNL A   1      31.841  34.642  26.991  1.00  0.00     0.163 HD
ATOM     34  O   UNL A   1      32.563  36.048  28.849  1.00  0.00    -0.269 OA
BRANCH  32  35
ATOM     35  C   UNL A   1      34.193  34.427  29.317  1.00  0.00     0.039 A 
ATOM     36  C   UNL A   1      33.988  33.703  30.493  1.00  0.00     0.014 A 
ATOM     37  C   UNL A   1      35.487  34.653  28.839  1.00  0.00     0.014 A 
ATOM     38  C   UNL A   1      35.083  33.155  31.162  1.00  0.00     0.010 A 
ATOM     39  C   UNL A   1      36.568  34.043  29.463  1.00  0.00     0.010 A 
ATOM     40  C   UNL A   1      36.378  33.294  30.635  1.00  0.00    -0.014 A 
BRANCH  40  41
ATOM     41  C   UNL A   1      37.556  32.681  31.293  1.00  0.00     0.031 A 
ATOM     42  C   UNL A   1      38.284  31.553  30.617  1.00  0.00     0.074 A 
ATOM     43  C   UNL A   1      37.916  33.079  32.528  1.00  0.00     0.049 A 
ATOM     44  N   UNL A   1      39.258  30.805  31.069  1.00  0.00    -0.248 NA
ATOM     45  C   UNL A   1      37.837  31.198  29.260  1.00  0.00     0.031 C 
ATOM     46  C   UNL A   1      37.266  34.141  33.299  1.00  0.00     0.029 A 
ATOM     47  N   UNL A   1      38.908  32.625  33.362  1.00  0.00    -0.354 N 
ATOM     48  C   UNL A   1      39.520  29.880  30.067  1.00  0.00     0.074 A 
ATOM     49  C   UNL A   1      38.574  30.128  29.002  1.00  0.00     0.031 C 
ATOM     50  C   UNL A   1      37.889  34.271  34.481  1.00  0.00     0.029 A 
ATOM     51  C   UNL A   1      38.948  33.272  34.574  1.00  0.00     0.049 A 
ATOM     52  H   UNL A   1      39.531  31.906  33.114  1.00  0.00     0.167 HD
ATOM     53  C   UNL A   1      40.476  28.923  30.033  1.00  0.00     0.037 A 
ATOM     54  C   UNL A   1      39.741  33.068  35.643  1.00  0.00     0.037 A 
ATOM     55  C   UNL A   1      41.436  28.706  31.083  1.00  0.00     0.049 A 
ATOM     56  C   UNL A   1      40.782  31.979  35.585  1.00  0.00     0.074 A 
ATOM     57  C   UNL A   1      42.492  27.812  31.115  1.00  0.00     0.029 A 
ATOM     58  N   UNL A   1      41.453  29.388  32.291  1.00  0.00    -0.354 N 
ATOM     59  N   UNL A   1      41.069  31.158  34.604  1.00  0.00    -0.248 NA
ATOM     60  C   UNL A   1      41.610  31.790  36.784  1.00  0.00     0.031 C 
ATOM     61  C   UNL A   1      43.109  27.910  32.364  1.00  0.00     0.029 A 
ATOM     62  C   UNL A   1      42.482  28.911  33.088  1.00  0.00     0.049 A 
ATOM     63  H   UNL A   1      40.827  30.105  32.545  1.00  0.00     0.167 HD
ATOM     64  C   UNL A   1      42.134  30.387  35.049  1.00  0.00     0.074 A 
ATOM     65  C   UNL A   1      42.448  30.843  36.387  1.00  0.00     0.031 C 
ATOM     66  C   UNL A   1      42.796  29.394  34.408  1.00  0.00     0.037 A 
BRANCH  53  67
ATOM     67  C   UNL A   1      40.533  28.030  28.828  1.00  0.00     0.064 A 
ATOM     68  C   UNL A   1      39.821  26.823  28.765  1.00  0.00     0.173 A 
ATOM     69  C   UNL A   1      41.273  28.413  27.698  1.00  0.00     0.173 A 
ATOM     70  F   UNL A   1      39.107  26.404  29.821  1.00  0.00    -0.203 F 
ATOM     71  C   UNL A   1      39.865  26.023  27.627  1.00  0.00     0.198 A 
ATOM     72  C   UNL A   1      41.288  27.626  26.549  1.00  0.00     0.198 A 
ATOM     73  F   UNL A   1      41.970  29.559  27.702  1.00  0.00    -0.203 F 
ATOM     74  F   UNL A   1      39.213  24.851  27.608  1.00  0.00    -0.200 F 
ATOM     75  C   UNL A   1      40.590  26.429  26.517  1.00  0.00     0.200 A 
ATOM     76  F   UNL A   1      41.977  28.029  25.472  1.00  0.00    -0.200 F 
ATOM     77  F   UNL A   1      40.621  25.664  25.417  1.00  0.00    -0.200 F 
ENDBRANCH  53  67
BRANCH  54  78
ATOM     78  C   UNL A   1      39.601  33.916  36.856  1.00  0.00     0.064 A 
ATOM     79  C   UNL A   1      38.811  33.499  37.937  1.00  0.00     0.173 A 
ATOM     80  C   UNL A   1      40.224  35.169  36.953  1.00  0.00     0.173 A 
ATOM     81  F   UNL A   1      38.177  32.317  37.883  1.00  0.00    -0.203 F 
ATOM     82  C   UNL A   1      38.625  34.311  39.052  1.00  0.00     0.198 A 
ATOM     83  C   UNL A   1      40.064  35.968  38.084  1.00  0.00     0.198 A 
ATOM     84  F   UNL A   1      40.995  35.616  35.951  1.00  0.00    -0.203 F 
ATOM     85  F   UNL A   1      37.818  33.911  40.043  1.00  0.00    -0.200 F 
ATOM     86  C   UNL A   1      39.256  35.544  39.127  1.00  0.00     0.200 A 
ATOM     87  F   UNL A   1      40.688  37.151  38.159  1.00  0.00    -0.200 F 
ATOM     88  F   UNL A   1      39.075  36.327  40.200  1.00  0.00    -0.200 F 
ENDBRANCH  54  78
BRANCH  66  89
ATOM     89  C   UNL A   1      43.964  28.768  35.113  1.00  0.00     0.064 A 
ATOM     90  C   UNL A   1      45.263  29.283  34.997  1.00  0.00     0.173 A 
ATOM     91  C   UNL A   1      43.766  27.671  35.967  1.00  0.00     0.173 A 
ATOM     92  F   UNL A   1      45.509  30.320  34.183  1.00  0.00    -0.203 F 
ATOM     93  C   UNL A   1      46.324  28.708  35.694  1.00  0.00     0.198 A 
ATOM     94  C   UNL A   1      44.822  27.122  36.688  1.00  0.00     0.198 A 
ATOM     95  F   UNL A   1      42.540  27.147  36.120  1.00  0.00    -0.203 F 
ATOM     96  F   UNL A   1      47.565  29.188  35.532  1.00  0.00    -0.200 F 
ATOM     97  C   UNL A   1      46.100  27.637  36.546  1.00  0.00     0.200 A 
ATOM     98  F   UNL A   1      44.600  26.099  37.524  1.00  0.00    -0.200 F 
ATOM     99  F   UNL A   1      47.120  27.096  37.227  1.00  0.00    -0.200 F 
ENDBRANCH  66  89
ENDBRANCH  40  41
ENDBRANCH  32  35
ENDBRANCH  30  31
ENDBRANCH  29  30
ENDBRANCH  28  29
ENDBRANCH   1  28
TORSDOF 18
ENDMDL
MODEL 3
REMARK VINA RESULT:     -11.4      1.028      2.408
REMARK SMILES CCC[NH2+][C@]1(C(=O)NCCCCCCNC(=O)c2ccc(-c3c4nc(c(-c5c(F)c(F)c(F)c(F)c5F)c5ccc([nH]5)c(-c5c(F)c(F)c(F)c(F)c5F)c5nc(c(-c6c(F)c(F)c(F)c(F)c6F)c6ccc3[nH]6)C=C5)C=C4)cc2)CC[C@H](n2nc(C)c(CC)c2C)C1
REMARK SMILES IDX 11 1 10 2 9 3 8 4 6 5 7 6 5 8 81 9 93 10 82 11 83 12 4 13
REMARK SMILES IDX 3 16 2 17 1 18 84 19 85 20 91 21 86 22 88 23 92 24 87 25
REMARK SMILES IDX 89 26 90 27 12 28 13 29 14 30 15 31 16 32 17 34 18 35 19 36
REMARK SMILES IDX 80 37 20 38 79 39 21 40 22 41 23 42 73 43 24 44 78 45 72 46
REMARK SMILES IDX 74 47 25 48 77 49 71 50 70 51 26 53 58 54 38 55 57 56 39 57
REMARK SMILES IDX 42 58 56 59 75 60 40 61 41 62 55 64 76 65 43 66 27 67 28 68
REMARK SMILES IDX 36 69 29 70 30 71 34 72 37 73 31 74 32 75 35 76 33 77 59 78
REMARK SMILES IDX 60 79 68 80 61 81 62 82 66 83 69 84 63 85 64 86 67 87 65 88
REMARK SMILES IDX 44 89 45 90 53 91 46 92 47 93 51 94 54 95 48 96 49 97 52 98
REMARK SMILES IDX 50 99
REMARK H PARENT 8 7 4 14 4 15 15 33 74 52 42 63
REMARK Flexibility Score: inf
ROOT
ATOM      1  C   UNL A   1      31.766  29.522  25.679  1.00  0.00     0.002 C 
ENDROOT
BRANCH   1   2
ATOM      2  C   UNL A   1      30.956  30.190  24.565  1.00  0.00     0.021 C 
BRANCH   2   3
ATOM      3  C   UNL A   1      30.767  29.280  23.353  1.00  0.00     0.116 C 
BRANCH   3   4
ATOM      4  N   UNL A   1      32.017  29.148  22.623  1.00  0.00    -0.351 N 
ATOM      5  C   UNL A   1      32.983  28.197  22.530  1.00  0.00     0.281 C 
ATOM      6  O   UNL A   1      34.032  28.566  21.978  1.00  0.00    -0.268 OA
ATOM      7  H   UNL A   1      32.210  29.934  22.061  1.00  0.00     0.163 HD
BRANCH   5   8
ATOM      8  C   UNL A   1      32.807  26.680  22.874  1.00  0.00     0.177 C 
ATOM      9  C   UNL A   1      31.321  26.278  22.926  1.00  0.00     0.081 C 
ATOM     10  C   UNL A   1      33.228  25.726  21.745  1.00  0.00     0.106 C 
ATOM     11  C   UNL A   1      31.316  24.736  22.750  1.00  0.00     0.034 C 
ATOM     12  C   UNL A   1      32.681  24.367  22.098  1.00  0.00     0.114 C 
BRANCH   8  13
ATOM     13  N   UNL A   1      33.538  26.498  24.177  1.00  0.00    -0.334 N 
ATOM     14  H   UNL A   1      34.160  25.698  24.062  1.00  0.00     0.347 HD
ATOM     15  H   UNL A   1      33.984  27.400  24.337  1.00  0.00     0.347 HD
BRANCH  13  16
ATOM     16  C   UNL A   1      32.758  26.266  25.399  1.00  0.00     0.261 C 
BRANCH  16  17
ATOM     17  C   UNL A   1      33.142  24.975  26.130  1.00  0.00     0.058 C 
ATOM     18  C   UNL A   1      31.951  24.084  26.437  1.00  0.00     0.010 C 
ENDBRANCH  16  17
ENDBRANCH  13  16
ENDBRANCH   8  13
BRANCH  12  19
ATOM     19  N   UNL A   1      33.577  23.482  22.839  1.00  0.00    -0.266 N 
ATOM     20  N   UNL A   1      34.835  23.962  23.008  1.00  0.00    -0.178 NA
ATOM     21  C   UNL A   1      33.375  22.310  23.557  1.00  0.00     0.039 A 
ATOM     22  C   UNL A   1      35.438  23.093  23.819  1.00  0.00     0.063 A 
ATOM     23  C   UNL A   1      34.582  22.032  24.182  1.00  0.00    -0.004 A 
ATOM     24  C   UNL A   1      32.153  21.461  23.694  1.00  0.00     0.066 C 
ATOM     25  C   UNL A   1      36.842  23.320  24.232  1.00  0.00     0.069 C 
BRANCH  23  26
ATOM     26  C   UNL A   1      34.881  20.855  25.057  1.00  0.00     0.036 C 
ATOM     27  C   UNL A   1      34.430  21.078  26.491  1.00  0.00     0.009 C 
ENDBRANCH  23  26
ENDBRANCH  12  19
ENDBRANCH   5   8
ENDBRANCH   3   4
ENDBRANCH   2   3
ENDBRANCH   1   2
BRANCH   1  28
ATOM     28  C   UNL A   1      31.780  30.295  27.006  1.00  0.00     0.002 C 
BRANCH  28  29
ATOM     29  C   UNL A   1      31.418  31.778  26.890  1.00  0.00     0.021 C 
BRANCH  29  30
ATOM     30  C   UNL A   1      32.623  32.692  26.701  1.00  0.00     0.116 C 
BRANCH  30  31
ATOM     31  N   UNL A   1      32.406  33.993  27.315  1.00  0.00    -0.352 N 
ATOM     32  C   UNL A   1      32.991  34.523  28.435  1.00  0.00     0.251 C 
ATOM     33  H   UNL A   1      31.749  34.572  26.864  1.00  0.00     0.163 HD
ATOM     34  O   UNL A   1      32.527  35.529  28.968  1.00  0.00    -0.269 OA
BRANCH  32  35
ATOM     35  C   UNL A   1      34.182  33.867  29.003  1.00  0.00     0.039 A 
ATOM     36  C   UNL A   1      35.447  34.401  28.745  1.00  0.00     0.014 A 
ATOM     37  C   UNL A   1      34.043  32.729  29.801  1.00  0.00     0.014 A 
ATOM     38  C   UNL A   1      36.571  33.823  29.336  1.00  0.00     0.010 A 
ATOM     39  C   UNL A   1      35.152  32.202  30.450  1.00  0.00     0.010 A 
ATOM     40  C   UNL A   1      36.428  32.739  30.218  1.00  0.00    -0.014 A 
BRANCH  40  41
ATOM     41  C   UNL A   1      37.596  32.134  30.903  1.00  0.00     0.031 A 
ATOM     42  C   UNL A   1      38.396  31.068  30.208  1.00  0.00     0.074 A 
ATOM     43  C   UNL A   1      37.882  32.482  32.172  1.00  0.00     0.049 A 
ATOM     44  N   UNL A   1      39.375  30.332  30.670  1.00  0.00    -0.248 NA
ATOM     45  C   UNL A   1      38.026  30.767  28.815  1.00  0.00     0.031 C 
ATOM     46  C   UNL A   1      37.158  33.479  32.961  1.00  0.00     0.029 A 
ATOM     47  N   UNL A   1      38.851  32.020  33.029  1.00  0.00    -0.354 N 
ATOM     48  C   UNL A   1      39.717  29.469  29.638  1.00  0.00     0.074 A 
ATOM     49  C   UNL A   1      38.814  29.737  28.541  1.00  0.00     0.031 C 
ATOM     50  C   UNL A   1      37.720  33.571  34.177  1.00  0.00     0.029 A 
ATOM     51  C   UNL A   1      38.810  32.606  34.272  1.00  0.00     0.049 A 
ATOM     52  H   UNL A   1      39.511  31.336  32.777  1.00  0.00     0.167 HD
ATOM     53  C   UNL A   1      40.709  28.548  29.603  1.00  0.00     0.037 A 
ATOM     54  C   UNL A   1      39.559  32.375  35.367  1.00  0.00     0.037 A 
ATOM     55  C   UNL A   1      41.626  28.311  30.686  1.00  0.00     0.049 A 
ATOM     56  C   UNL A   1      40.641  31.327  35.306  1.00  0.00     0.074 A 
ATOM     57  C   UNL A   1      42.711  27.454  30.725  1.00  0.00     0.029 A 
ATOM     58  N   UNL A   1      41.561  28.932  31.926  1.00  0.00    -0.354 N 
ATOM     59  N   UNL A   1      41.004  30.567  34.302  1.00  0.00    -0.248 NA
ATOM     60  C   UNL A   1      41.419  31.107  36.533  1.00  0.00     0.031 C 
ATOM     61  C   UNL A   1      43.266  27.510  32.007  1.00  0.00     0.029 A 
ATOM     62  C   UNL A   1      42.568  28.451  32.747  1.00  0.00     0.049 A 
ATOM     63  H   UNL A   1      40.898  29.613  32.183  1.00  0.00     0.167 HD
ATOM     64  C   UNL A   1      42.075  29.813  34.760  1.00  0.00     0.074 A 
ATOM     65  C   UNL A   1      42.309  30.211  36.132  1.00  0.00     0.031 C 
ATOM     66  C   UNL A   1      42.802  28.877  34.103  1.00  0.00     0.037 A 
BRANCH  53  67
ATOM     67  C   UNL A   1      40.856  27.720  28.360  1.00  0.00     0.064 A 
ATOM     68  C   UNL A   1      41.678  28.119  27.296  1.00  0.00     0.173 A 
ATOM     69  C   UNL A   1      40.202  26.481  28.254  1.00  0.00     0.173 A 
ATOM     70  F   UNL A   1      42.317  29.298  27.341  1.00  0.00    -0.203 F 
ATOM     71  C   UNL A   1      41.822  27.322  26.163  1.00  0.00     0.198 A 
ATOM     72  C   UNL A   1      40.376  25.672  27.134  1.00  0.00     0.198 A 
ATOM     73  F   UNL A   1      39.407  26.049  29.244  1.00  0.00    -0.203 F 
ATOM     74  F   UNL A   1      42.577  27.747  25.139  1.00  0.00    -0.200 F 
ATOM     75  C   UNL A   1      41.179  26.096  26.087  1.00  0.00     0.200 A 
ATOM     76  F   UNL A   1      39.765  24.481  27.069  1.00  0.00    -0.200 F 
ATOM     77  F   UNL A   1      41.330  25.324  25.002  1.00  0.00    -0.200 F 
ENDBRANCH  53  67
BRANCH  54  78
ATOM     78  C   UNL A   1      39.331  33.156  36.612  1.00  0.00     0.064 A 
ATOM     79  C   UNL A   1      40.010  34.362  36.837  1.00  0.00     0.173 A 
ATOM     80  C   UNL A   1      38.457  32.706  37.612  1.00  0.00     0.173 A 
ATOM     81  F   UNL A   1      40.872  34.825  35.918  1.00  0.00    -0.203 F 
ATOM     82  C   UNL A   1      39.848  35.071  38.024  1.00  0.00     0.198 A 
ATOM     83  C   UNL A   1      38.271  33.433  38.786  1.00  0.00     0.198 A 
ATOM     84  F   UNL A   1      37.778  31.561  37.447  1.00  0.00    -0.203 F 
ATOM     85  F   UNL A   1      40.554  36.189  38.236  1.00  0.00    -0.200 F 
ATOM     86  C   UNL A   1      38.975  34.608  38.997  1.00  0.00     0.200 A 
ATOM     87  F   UNL A   1      37.414  32.990  39.717  1.00  0.00    -0.200 F 
ATOM     88  F   UNL A   1      38.821  35.289  40.141  1.00  0.00    -0.200 F 
ENDBRANCH  54  78
BRANCH  66  89
ATOM     89  C   UNL A   1      43.959  28.256  34.833  1.00  0.00     0.064 A 
ATOM     90  C   UNL A   1      43.823  27.068  35.564  1.00  0.00     0.173 A 
ATOM     91  C   UNL A   1      45.237  28.833  34.746  1.00  0.00     0.173 A 
ATOM     92  F   UNL A   1      42.622  26.485  35.690  1.00  0.00    -0.203 F 
ATOM     93  C   UNL A   1      44.921  26.491  36.200  1.00  0.00     0.198 A 
ATOM     94  C   UNL A   1      46.336  28.235  35.353  1.00  0.00     0.198 A 
ATOM     95  F   UNL A   1      45.421  29.966  34.051  1.00  0.00    -0.203 F 
ATOM     96  F   UNL A   1      44.759  25.380  36.931  1.00  0.00    -0.200 F 
ATOM     97  C   UNL A   1      46.176  27.068  36.084  1.00  0.00     0.200 A 
ATOM     98  F   UNL A   1      47.552  28.785  35.226  1.00  0.00    -0.200 F 
ATOM     99  F   UNL A   1      47.233  26.503  36.684  1.00  0.00    -0.200 F 
ENDBRANCH  66  89
ENDBRANCH  40  41
ENDBRANCH  32  35
ENDBRANCH  30  31
ENDBRANCH  29  30
ENDBRANCH  28  29
ENDBRANCH   1  28
TORSDOF 18
ENDMDL
