MODEL 1
REMARK VINA RESULT:     -12.7      0.000      0.000
REMARK SMILES C[C@H]1[NH2+]CC[C@H]1C(=O)N1CCC(C(=O)NCCCCCCNC(=O)c2ccc(-c3c4nc(c(-c5c(F)c(F)c(F)c(F)c5F)c5ccc([nH]5)c(-c5c(F)c(F)c(F)c(F)c5F)c5nc(c(-c6c(F)c(F)c(F)c(F)c6F)c6ccc3[nH]6)C=C5)C=C4)cc2)CC1
REMARK SMILES IDX 19 1 18 2 17 3 16 4 15 5 13 6 14 7 12 9 7 10 8 11 9 12 10 13
REMARK SMILES IDX 89 14 11 15 88 16 6 17 1 18 2 19 3 20 4 21 5 24 20 25 21 26
REMARK SMILES IDX 22 27 23 28 24 30 25 31 26 32 87 33 27 34 86 35 28 36 29 37
REMARK SMILES IDX 30 38 80 39 31 40 85 41 79 42 81 43 32 44 84 45 78 46 77 47
REMARK SMILES IDX 33 49 65 50 45 51 64 52 46 53 49 54 63 55 82 56 47 57 48 58
REMARK SMILES IDX 62 60 83 61 50 62 34 63 35 64 43 65 36 66 37 67 41 68 44 69
REMARK SMILES IDX 38 70 39 71 42 72 40 73 66 74 67 75 75 76 68 77 69 78 73 79
REMARK SMILES IDX 76 80 70 81 71 82 74 83 72 84 51 85 52 86 60 87 53 88 54 89
REMARK SMILES IDX 58 90 61 91 55 92 56 93 59 94 57 95
REMARK H PARENT 15 8 3 22 3 23 22 29 81 48 49 59
REMARK Flexibility Score: inf
ROOT
ATOM      1  C   UNL A   1      31.458  30.774  26.858  1.00  0.00     0.002 C 
ENDROOT
BRANCH   1   2
ATOM      2  C   UNL A   1      32.805  30.107  27.158  1.00  0.00     0.002 C 
BRANCH   2   3
ATOM      3  C   UNL A   1      33.420  29.352  25.974  1.00  0.00     0.021 C 
BRANCH   3   4
ATOM      4  C   UNL A   1      32.577  29.434  24.704  1.00  0.00     0.116 C 
BRANCH   4   5
ATOM      5  N   UNL A   1      33.419  29.282  23.529  1.00  0.00    -0.356 N 
ATOM      6  C   UNL A   1      33.750  28.177  22.810  1.00  0.00     0.223 C 
ATOM      7  O   UNL A   1      34.587  28.301  21.913  1.00  0.00    -0.275 OA
ATOM      8  H   UNL A   1      33.817  30.120  23.200  1.00  0.00     0.163 HD
BRANCH   6   9
ATOM      9  C   UNL A   1      33.059  26.843  23.040  1.00  0.00     0.082 C 
ATOM     10  C   UNL A   1      34.440  23.168  23.447  1.00  0.00     0.231 C 
ATOM     11  O   UNL A   1      35.460  23.487  22.832  1.00  0.00    -0.274 OA
ATOM     12  N   UNL A   1      33.324  23.991  23.452  1.00  0.00    -0.342 N 
ATOM     13  C   UNL A   1      32.762  24.449  22.188  1.00  0.00     0.120 C 
ATOM     14  C   UNL A   1      33.031  24.846  24.585  1.00  0.00     0.120 C 
ATOM     15  C   UNL A   1      33.137  25.888  21.841  1.00  0.00     0.035 C 
ATOM     16  C   UNL A   1      33.543  26.255  24.366  1.00  0.00     0.035 C 
BRANCH  10  17
ATOM     17  C   UNL A   1      34.291  21.765  24.060  1.00  0.00     0.142 C 
ATOM     18  C   UNL A   1      34.805  22.370  26.579  1.00  0.00     0.076 C 
ATOM     19  C   UNL A   1      34.881  21.387  25.422  1.00  0.00     0.192 C 
ATOM     20  N   UNL A   1      34.159  20.156  25.810  1.00  0.00    -0.343 N 
ATOM     21  C   UNL A   1      32.919  20.064  25.041  1.00  0.00     0.261 C 
ATOM     22  H   UNL A   1      33.940  20.188  26.806  1.00  0.00     0.346 HD
ATOM     23  H   UNL A   1      34.742  19.341  25.619  1.00  0.00     0.346 HD
ATOM     24  C   UNL A   1      32.856  21.270  24.126  1.00  0.00     0.081 C 
ENDBRANCH  10  17
ENDBRANCH   6   9
ENDBRANCH   4   5
ENDBRANCH   3   4
ENDBRANCH   2   3
ENDBRANCH   1   2
BRANCH   1  25
ATOM     25  C   UNL A   1      31.533  32.285  26.628  1.00  0.00     0.021 C 
BRANCH  25  26
ATOM     26  C   UNL A   1      32.740  32.953  27.274  1.00  0.00     0.116 C 
BRANCH  26  27
ATOM     27  N   UNL A   1      32.462  34.330  27.650  1.00  0.00    -0.352 N 
ATOM     28  C   UNL A   1      33.002  35.076  28.668  1.00  0.00     0.251 C 
ATOM     29  H   UNL A   1      31.792  34.793  27.096  1.00  0.00     0.163 HD
ATOM     30  O   UNL A   1      32.513  36.151  28.983  1.00  0.00    -0.269 OA
BRANCH  28  31
ATOM     31  C   UNL A   1      34.176  34.552  29.397  1.00  0.00     0.039 A 
ATOM     32  C   UNL A   1      33.985  33.938  30.636  1.00  0.00     0.014 A 
ATOM     33  C   UNL A   1      35.457  34.659  28.849  1.00  0.00     0.014 A 
ATOM     34  C   UNL A   1      35.075  33.376  31.301  1.00  0.00     0.010 A 
ATOM     35  C   UNL A   1      36.528  34.030  29.474  1.00  0.00     0.010 A 
ATOM     36  C   UNL A   1      36.348  33.385  30.708  1.00  0.00    -0.014 A 
BRANCH  36  37
ATOM     37  C   UNL A   1      37.510  32.732  31.361  1.00  0.00     0.031 A 
ATOM     38  C   UNL A   1      38.196  31.575  30.692  1.00  0.00     0.074 A 
ATOM     39  C   UNL A   1      37.898  33.135  32.586  1.00  0.00     0.049 A 
ATOM     40  N   UNL A   1      39.164  30.815  31.137  1.00  0.00    -0.248 NA
ATOM     41  C   UNL A   1      37.709  31.204  29.353  1.00  0.00     0.031 C 
ATOM     42  C   UNL A   1      37.285  34.218  33.355  1.00  0.00     0.029 A 
ATOM     43  N   UNL A   1      38.894  32.667  33.409  1.00  0.00    -0.354 N 
ATOM     44  C   UNL A   1      39.389  29.872  30.144  1.00  0.00     0.074 A 
ATOM     45  C   UNL A   1      38.423  30.118  29.097  1.00  0.00     0.031 C 
ATOM     46  C   UNL A   1      37.927  34.345  34.527  1.00  0.00     0.029 A 
ATOM     47  C   UNL A   1      38.964  33.322  34.613  1.00  0.00     0.049 A 
ATOM     48  H   UNL A   1      39.499  31.932  33.158  1.00  0.00     0.167 HD
ATOM     49  C   UNL A   1      40.333  28.902  30.100  1.00  0.00     0.037 A 
ATOM     50  C   UNL A   1      39.766  33.112  35.675  1.00  0.00     0.037 A 
ATOM     51  C   UNL A   1      41.305  28.674  31.138  1.00  0.00     0.049 A 
ATOM     52  C   UNL A   1      40.792  32.010  35.611  1.00  0.00     0.074 A 
ATOM     53  C   UNL A   1      42.340  27.756  31.164  1.00  0.00     0.029 A 
ATOM     54  N   UNL A   1      41.354  29.368  32.340  1.00  0.00    -0.354 N 
ATOM     55  N   UNL A   1      41.044  31.170  34.638  1.00  0.00    -0.248 NA
ATOM     56  C   UNL A   1      41.648  31.833  36.792  1.00  0.00     0.031 C 
ATOM     57  C   UNL A   1      42.978  27.853  32.404  1.00  0.00     0.029 A 
ATOM     58  C   UNL A   1      42.385  28.877  33.126  1.00  0.00     0.049 A 
ATOM     59  H   UNL A   1      40.748  30.100  32.595  1.00  0.00     0.167 HD
ATOM     60  C   UNL A   1      42.105  30.387  35.073  1.00  0.00     0.074 A 
ATOM     61  C   UNL A   1      42.458  30.863  36.395  1.00  0.00     0.031 C 
ATOM     62  C   UNL A   1      42.732  29.369  34.435  1.00  0.00     0.037 A 
BRANCH  49  63
ATOM     63  C   UNL A   1      40.359  28.006  28.894  1.00  0.00     0.064 A 
ATOM     64  C   UNL A   1      41.106  28.329  27.751  1.00  0.00     0.173 A 
ATOM     65  C   UNL A   1      39.660  26.790  28.896  1.00  0.00     0.173 A 
ATOM     66  F   UNL A   1      41.786  29.484  27.692  1.00  0.00    -0.203 F 
ATOM     67  C   UNL A   1      41.128  27.483  26.645  1.00  0.00     0.198 A 
ATOM     68  C   UNL A   1      39.712  25.930  27.803  1.00  0.00     0.198 A 
ATOM     69  F   UNL A   1      38.935  26.428  29.965  1.00  0.00    -0.203 F 
ATOM     70  F   UNL A   1      41.806  27.838  25.545  1.00  0.00    -0.200 F 
ATOM     71  C   UNL A   1      40.438  26.281  26.675  1.00  0.00     0.200 A 
ATOM     72  F   UNL A   1      39.058  24.761  27.840  1.00  0.00    -0.200 F 
ATOM     73  F   UNL A   1      40.468  25.463  25.614  1.00  0.00    -0.200 F 
ENDBRANCH  49  63
BRANCH  50  74
ATOM     74  C   UNL A   1      39.640  33.967  36.884  1.00  0.00     0.064 A 
ATOM     75  C   UNL A   1      38.845  33.571  37.969  1.00  0.00     0.173 A 
ATOM     76  C   UNL A   1      40.303  35.201  36.979  1.00  0.00     0.173 A 
ATOM     77  F   UNL A   1      38.175  32.410  37.918  1.00  0.00    -0.203 F 
ATOM     78  C   UNL A   1      38.698  34.386  39.091  1.00  0.00     0.198 A 
ATOM     79  C   UNL A   1      40.181  35.999  38.115  1.00  0.00     0.198 A 
ATOM     80  F   UNL A   1      41.080  35.625  35.972  1.00  0.00    -0.203 F 
ATOM     81  F   UNL A   1      37.891  34.005  40.090  1.00  0.00    -0.200 F 
ATOM     82  C   UNL A   1      39.372  35.595  39.165  1.00  0.00     0.200 A 
ATOM     83  F   UNL A   1      40.846  37.159  38.190  1.00  0.00    -0.200 F 
ATOM     84  F   UNL A   1      39.233  36.376  40.246  1.00  0.00    -0.200 F 
ENDBRANCH  50  74
BRANCH  62  85
ATOM     85  C   UNL A   1      43.896  28.724  35.133  1.00  0.00     0.064 A 
ATOM     86  C   UNL A   1      45.198  29.234  35.026  1.00  0.00     0.173 A 
ATOM     87  C   UNL A   1      43.692  27.612  35.965  1.00  0.00     0.173 A 
ATOM     88  F   UNL A   1      45.449  30.286  34.233  1.00  0.00    -0.203 F 
ATOM     89  C   UNL A   1      46.257  28.639  35.708  1.00  0.00     0.198 A 
ATOM     90  C   UNL A   1      44.747  27.042  36.672  1.00  0.00     0.198 A 
ATOM     91  F   UNL A   1      42.465  27.090  36.108  1.00  0.00    -0.203 F 
ATOM     92  F   UNL A   1      47.501  29.114  35.555  1.00  0.00    -0.200 F 
ATOM     93  C   UNL A   1      46.029  27.551  36.538  1.00  0.00     0.200 A 
ATOM     94  F   UNL A   1      44.520  26.003  37.487  1.00  0.00    -0.200 F 
ATOM     95  F   UNL A   1      47.048  26.990  37.204  1.00  0.00    -0.200 F 
ENDBRANCH  62  85
ENDBRANCH  36  37
ENDBRANCH  28  31
ENDBRANCH  26  27
ENDBRANCH  25  26
ENDBRANCH   1  25
TORSDOF 14
ENDMDL
MODEL 2
REMARK VINA RESULT:     -12.6      1.043      2.049
REMARK SMILES C[C@H]1[NH2+]CC[C@H]1C(=O)N1CCC(C(=O)NCCCCCCNC(=O)c2ccc(-c3c4nc(c(-c5c(F)c(F)c(F)c(F)c5F)c5ccc([nH]5)c(-c5c(F)c(F)c(F)c(F)c5F)c5nc(c(-c6c(F)c(F)c(F)c(F)c6F)c6ccc3[nH]6)C=C5)C=C4)cc2)CC1
REMARK SMILES IDX 19 1 18 2 17 3 16 4 15 5 13 6 14 7 12 9 7 10 8 11 9 12 10 13
REMARK SMILES IDX 89 14 11 15 88 16 6 17 1 18 2 19 3 20 4 21 5 24 20 25 21 26
REMARK SMILES IDX 22 27 23 28 24 30 25 31 26 32 87 33 27 34 86 35 28 36 29 37
REMARK SMILES IDX 30 38 80 39 31 40 85 41 79 42 81 43 32 44 84 45 78 46 77 47
REMARK SMILES IDX 33 49 65 50 45 51 64 52 46 53 49 54 63 55 82 56 47 57 48 58
REMARK SMILES IDX 62 60 83 61 50 62 34 63 35 64 43 65 36 66 37 67 41 68 44 69
REMARK SMILES IDX 38 70 39 71 42 72 40 73 66 74 67 75 75 76 68 77 69 78 73 79
REMARK SMILES IDX 76 80 70 81 71 82 74 83 72 84 51 85 52 86 60 87 53 88 54 89
REMARK SMILES IDX 58 90 61 91 55 92 56 93 59 94 57 95
REMARK H PARENT 15 8 3 22 3 23 22 29 81 48 49 59
REMARK Flexibility Score: inf
ROOT
ATOM      1  C   UNL A   1      31.778  30.589  26.808  1.00  0.00     0.002 C 
ENDROOT
BRANCH   1   2
ATOM      2  C   UNL A   1      31.764  30.038  25.377  1.00  0.00     0.002 C 
BRANCH   2   3
ATOM      3  C   UNL A   1      33.035  29.282  24.974  1.00  0.00     0.021 C 
BRANCH   3   4
ATOM      4  C   UNL A   1      33.050  28.869  23.505  1.00  0.00     0.116 C 
BRANCH   4   5
ATOM      5  N   UNL A   1      31.825  29.295  22.848  1.00  0.00    -0.356 N 
ATOM      6  C   UNL A   1      30.772  28.576  22.376  1.00  0.00     0.223 C 
ATOM      7  O   UNL A   1      29.897  29.176  21.748  1.00  0.00    -0.275 OA
ATOM      8  H   UNL A   1      31.744  30.269  22.724  1.00  0.00     0.163 HD
BRANCH   6   9
ATOM      9  C   UNL A   1      30.626  27.093  22.676  1.00  0.00     0.082 C 
ATOM     10  C   UNL A   1      32.611  24.654  25.063  1.00  0.00     0.231 C 
ATOM     11  O   UNL A   1      33.586  25.407  25.013  1.00  0.00    -0.274 OA
ATOM     12  N   UNL A   1      31.554  24.799  24.176  1.00  0.00    -0.342 N 
ATOM     13  C   UNL A   1      31.817  24.830  22.743  1.00  0.00     0.120 C 
ATOM     14  C   UNL A   1      30.327  25.457  24.577  1.00  0.00     0.120 C 
ATOM     15  C   UNL A   1      31.785  26.236  22.148  1.00  0.00     0.035 C 
ATOM     16  C   UNL A   1      30.316  26.915  24.163  1.00  0.00     0.035 C 
BRANCH  10  17
ATOM     17  C   UNL A   1      32.614  23.411  25.968  1.00  0.00     0.142 C 
ATOM     18  C   UNL A   1      33.045  21.571  24.123  1.00  0.00     0.076 C 
ATOM     19  C   UNL A   1      32.397  21.993  25.433  1.00  0.00     0.192 C 
ATOM     20  N   UNL A   1      32.902  21.109  26.506  1.00  0.00    -0.343 N 
ATOM     21  C   UNL A   1      33.793  21.874  27.378  1.00  0.00     0.261 C 
ATOM     22  H   UNL A   1      33.415  20.330  26.094  1.00  0.00     0.346 HD
ATOM     23  H   UNL A   1      32.118  20.748  27.049  1.00  0.00     0.346 HD
ATOM     24  C   UNL A   1      33.848  23.292  26.847  1.00  0.00     0.081 C 
ENDBRANCH  10  17
ENDBRANCH   6   9
ENDBRANCH   4   5
ENDBRANCH   3   4
ENDBRANCH   2   3
ENDBRANCH   1   2
BRANCH   1  25
ATOM     25  C   UNL A   1      31.566  32.100  26.910  1.00  0.00     0.021 C 
BRANCH  25  26
ATOM     26  C   UNL A   1      32.827  32.884  27.251  1.00  0.00     0.116 C 
BRANCH  26  27
ATOM     27  N   UNL A   1      32.528  34.255  27.632  1.00  0.00    -0.352 N 
ATOM     28  C   UNL A   1      33.036  34.996  28.671  1.00  0.00     0.251 C 
ATOM     29  H   UNL A   1      31.869  34.718  27.065  1.00  0.00     0.163 HD
ATOM     30  O   UNL A   1      32.530  36.065  28.982  1.00  0.00    -0.269 OA
BRANCH  28  31
ATOM     31  C   UNL A   1      34.194  34.475  29.425  1.00  0.00     0.039 A 
ATOM     32  C   UNL A   1      33.977  33.869  30.664  1.00  0.00     0.014 A 
ATOM     33  C   UNL A   1      35.485  34.576  28.903  1.00  0.00     0.014 A 
ATOM     34  C   UNL A   1      35.053  33.309  31.354  1.00  0.00     0.010 A 
ATOM     35  C   UNL A   1      36.543  33.949  29.552  1.00  0.00     0.010 A 
ATOM     36  C   UNL A   1      36.338  33.313  30.786  1.00  0.00    -0.014 A 
BRANCH  36  37
ATOM     37  C   UNL A   1      37.485  32.662  31.466  1.00  0.00     0.031 A 
ATOM     38  C   UNL A   1      38.175  31.493  30.822  1.00  0.00     0.074 A 
ATOM     39  C   UNL A   1      37.856  33.077  32.692  1.00  0.00     0.049 A 
ATOM     40  N   UNL A   1      39.133  30.734  31.292  1.00  0.00    -0.248 NA
ATOM     41  C   UNL A   1      37.709  31.108  29.480  1.00  0.00     0.031 C 
ATOM     42  C   UNL A   1      37.236  34.173  33.438  1.00  0.00     0.029 A 
ATOM     43  N   UNL A   1      38.835  32.614  33.537  1.00  0.00    -0.354 N 
ATOM     44  C   UNL A   1      39.369  29.776  30.314  1.00  0.00     0.074 A 
ATOM     45  C   UNL A   1      38.421  30.015  29.249  1.00  0.00     0.031 C 
ATOM     46  C   UNL A   1      37.859  34.311  34.619  1.00  0.00     0.029 A 
ATOM     47  C   UNL A   1      38.890  33.284  34.734  1.00  0.00     0.049 A 
ATOM     48  H   UNL A   1      39.440  31.873  33.305  1.00  0.00     0.167 HD
ATOM     49  C   UNL A   1      40.308  28.801  30.298  1.00  0.00     0.037 A 
ATOM     50  C   UNL A   1      39.673  33.082  35.811  1.00  0.00     0.037 A 
ATOM     51  C   UNL A   1      41.262  28.581  31.355  1.00  0.00     0.049 A 
ATOM     52  C   UNL A   1      40.694  31.974  35.778  1.00  0.00     0.074 A 
ATOM     53  C   UNL A   1      42.291  27.659  31.408  1.00  0.00     0.029 A 
ATOM     54  N   UNL A   1      41.295  29.290  32.548  1.00  0.00    -0.354 N 
ATOM     55  N   UNL A   1      40.957  31.121  34.819  1.00  0.00    -0.248 NA
ATOM     56  C   UNL A   1      41.529  31.807  36.974  1.00  0.00     0.031 C 
ATOM     57  C   UNL A   1      42.909  27.767  32.657  1.00  0.00     0.029 A 
ATOM     58  C   UNL A   1      42.310  28.803  33.357  1.00  0.00     0.049 A 
ATOM     59  H   UNL A   1      40.689  30.028  32.785  1.00  0.00     0.167 HD
ATOM     60  C   UNL A   1      42.007  30.338  35.281  1.00  0.00     0.074 A 
ATOM     61  C   UNL A   1      42.341  30.828  36.602  1.00  0.00     0.031 C 
ATOM     62  C   UNL A   1      42.639  29.309  34.665  1.00  0.00     0.037 A 
BRANCH  49  63
ATOM     63  C   UNL A   1      40.349  27.891  29.104  1.00  0.00     0.064 A 
ATOM     64  C   UNL A   1      39.623  26.691  29.065  1.00  0.00     0.173 A 
ATOM     65  C   UNL A   1      41.092  28.242  27.967  1.00  0.00     0.173 A 
ATOM     66  F   UNL A   1      38.903  26.301  30.129  1.00  0.00    -0.203 F 
ATOM     67  C   UNL A   1      39.663  25.862  27.946  1.00  0.00     0.198 A 
ATOM     68  C   UNL A   1      41.103  27.430  26.837  1.00  0.00     0.198 A 
ATOM     69  F   UNL A   1      41.799  29.382  27.946  1.00  0.00    -0.203 F 
ATOM     70  F   UNL A   1      39.005  24.695  27.954  1.00  0.00    -0.200 F 
ATOM     71  C   UNL A   1      40.397  26.236  26.830  1.00  0.00     0.200 A 
ATOM     72  F   UNL A   1      41.798  27.801  25.753  1.00  0.00    -0.200 F 
ATOM     73  F   UNL A   1      40.427  25.443  25.750  1.00  0.00    -0.200 F 
ENDBRANCH  49  63
BRANCH  50  74
ATOM     74  C   UNL A   1      39.532  33.953  37.008  1.00  0.00     0.064 A 
ATOM     75  C   UNL A   1      38.761  33.549  38.108  1.00  0.00     0.173 A 
ATOM     76  C   UNL A   1      40.155  35.209  37.075  1.00  0.00     0.173 A 
ATOM     77  F   UNL A   1      38.130  32.367  38.083  1.00  0.00    -0.203 F 
ATOM     78  C   UNL A   1      38.600  34.377  39.218  1.00  0.00     0.198 A 
ATOM     79  C   UNL A   1      40.019  36.021  38.199  1.00  0.00     0.198 A 
ATOM     80  F   UNL A   1      40.907  35.641  36.053  1.00  0.00    -0.203 F 
ATOM     81  F   UNL A   1      37.816  33.987  40.232  1.00  0.00    -0.200 F 
ATOM     82  C   UNL A   1      39.235  35.609  39.265  1.00  0.00     0.200 A 
ATOM     83  F   UNL A   1      40.647  37.203  38.248  1.00  0.00    -0.200 F 
ATOM     84  F   UNL A   1      39.082  36.402  40.334  1.00  0.00    -0.200 F 
ENDBRANCH  50  74
BRANCH  62  85
ATOM     85  C   UNL A   1      43.788  28.667  35.390  1.00  0.00     0.064 A 
ATOM     86  C   UNL A   1      43.597  27.612  36.293  1.00  0.00     0.173 A 
ATOM     87  C   UNL A   1      45.104  29.082  35.133  1.00  0.00     0.173 A 
ATOM     88  F   UNL A   1      42.358  27.187  36.584  1.00  0.00    -0.203 F 
ATOM     89  C   UNL A   1      44.680  27.010  36.929  1.00  0.00     0.198 A 
ATOM     90  C   UNL A   1      46.186  28.455  35.744  1.00  0.00     0.198 A 
ATOM     91  F   UNL A   1      45.343  30.082  34.272  1.00  0.00    -0.203 F 
ATOM     92  F   UNL A   1      44.471  26.034  37.824  1.00  0.00    -0.200 F 
ATOM     93  C   UNL A   1      45.974  27.424  36.647  1.00  0.00     0.200 A 
ATOM     94  F   UNL A   1      47.435  28.845  35.456  1.00  0.00    -0.200 F 
ATOM     95  F   UNL A   1      47.015  26.834  37.250  1.00  0.00    -0.200 F 
ENDBRANCH  62  85
ENDBRANCH  36  37
ENDBRANCH  28  31
ENDBRANCH  26  27
ENDBRANCH  25  26
ENDBRANCH   1  25
TORSDOF 14
ENDMDL
MODEL 3
REMARK VINA RESULT:     -12.4      5.486     11.318
REMARK SMILES C[C@H]1[NH2+]CC[C@H]1C(=O)N1CCC(C(=O)NCCCCCCNC(=O)c2ccc(-c3c4nc(c(-c5c(F)c(F)c(F)c(F)c5F)c5ccc([nH]5)c(-c5c(F)c(F)c(F)c(F)c5F)c5nc(c(-c6c(F)c(F)c(F)c(F)c6F)c6ccc3[nH]6)C=C5)C=C4)cc2)CC1
REMARK SMILES IDX 19 1 18 2 17 3 16 4 15 5 13 6 14 7 12 9 7 10 8 11 9 12 10 13
REMARK SMILES IDX 89 14 11 15 88 16 6 17 1 18 2 19 3 20 4 21 5 24 20 25 21 26
REMARK SMILES IDX 22 27 23 28 24 30 25 31 26 32 87 33 27 34 86 35 28 36 29 37
REMARK SMILES IDX 30 38 80 39 31 40 85 41 79 42 81 43 32 44 84 45 78 46 77 47
REMARK SMILES IDX 33 49 65 50 45 51 64 52 46 53 49 54 63 55 82 56 47 57 48 58
REMARK SMILES IDX 62 60 83 61 50 62 34 63 35 64 43 65 36 66 37 67 41 68 44 69
REMARK SMILES IDX 38 70 39 71 42 72 40 73 66 74 67 75 75 76 68 77 69 78 73 79
REMARK SMILES IDX 76 80 70 81 71 82 74 83 72 84 51 85 52 86 60 87 53 88 54 89
REMARK SMILES IDX 58 90 61 91 55 92 56 93 59 94 57 95
REMARK H PARENT 15 8 3 22 3 23 22 29 81 48 49 59
REMARK Flexibility Score: inf
ROOT
ATOM      1  C   UNL A   1      37.406  21.416  24.570  1.00  0.00     0.002 C 
ENDROOT
BRANCH   1   2
ATOM      2  C   UNL A   1      35.875  21.430  24.634  1.00  0.00     0.002 C 
BRANCH   2   3
ATOM      3  C   UNL A   1      35.241  20.083  25.001  1.00  0.00     0.021 C 
BRANCH   3   4
ATOM      4  C   UNL A   1      33.758  20.190  25.348  1.00  0.00     0.116 C 
BRANCH   4   5
ATOM      5  N   UNL A   1      33.590  20.773  26.669  1.00  0.00    -0.356 N 
ATOM      6  C   UNL A   1      33.018  21.944  27.058  1.00  0.00     0.223 C 
ATOM      7  O   UNL A   1      33.109  22.265  28.245  1.00  0.00    -0.275 OA
ATOM      8  H   UNL A   1      33.952  20.230  27.406  1.00  0.00     0.163 HD
BRANCH   6   9
ATOM      9  C   UNL A   1      32.220  22.798  26.086  1.00  0.00     0.082 C 
ATOM     10  C   UNL A   1      31.349  26.647  26.027  1.00  0.00     0.231 C 
ATOM     11  O   UNL A   1      31.514  26.699  27.248  1.00  0.00    -0.274 OA
ATOM     12  N   UNL A   1      31.249  25.429  25.373  1.00  0.00    -0.342 N 
ATOM     13  C   UNL A   1      30.278  24.444  25.833  1.00  0.00     0.120 C 
ATOM     14  C   UNL A   1      32.376  24.872  24.653  1.00  0.00     0.120 C 
ATOM     15  C   UNL A   1      30.896  23.320  26.662  1.00  0.00     0.035 C 
ATOM     16  C   UNL A   1      33.138  23.872  25.500  1.00  0.00     0.035 C 
BRANCH  10  17
ATOM     17  C   UNL A   1      31.049  27.918  25.214  1.00  0.00     0.142 C 
ATOM     18  C   UNL A   1      33.486  28.412  24.324  1.00  0.00     0.076 C 
ATOM     19  C   UNL A   1      32.134  28.917  24.803  1.00  0.00     0.192 C 
ATOM     20  N   UNL A   1      31.520  29.704  23.711  1.00  0.00    -0.343 N 
ATOM     21  C   UNL A   1      30.390  28.959  23.159  1.00  0.00     0.261 C 
ATOM     22  H   UNL A   1      32.211  29.869  22.979  1.00  0.00     0.346 HD
ATOM     23  H   UNL A   1      31.195  30.599  24.076  1.00  0.00     0.346 HD
ATOM     24  C   UNL A   1      30.276  27.660  23.931  1.00  0.00     0.081 C 
ENDBRANCH  10  17
ENDBRANCH   6   9
ENDBRANCH   4   5
ENDBRANCH   3   4
ENDBRANCH   2   3
ENDBRANCH   1   2
BRANCH   1  25
ATOM     25  C   UNL A   1      38.051  20.098  25.002  1.00  0.00     0.021 C 
BRANCH  25  26
ATOM     26  C   UNL A   1      39.089  20.245  26.106  1.00  0.00     0.116 C 
BRANCH  26  27
ATOM     27  N   UNL A   1      40.101  19.203  26.043  1.00  0.00    -0.352 N 
ATOM     28  C   UNL A   1      41.468  19.322  26.038  1.00  0.00     0.251 C 
ATOM     29  H   UNL A   1      39.756  18.281  25.999  1.00  0.00     0.163 HD
ATOM     30  O   UNL A   1      42.178  18.362  25.772  1.00  0.00    -0.269 OA
BRANCH  28  31
ATOM     31  C   UNL A   1      42.076  20.634  26.339  1.00  0.00     0.039 A 
ATOM     32  C   UNL A   1      42.437  21.471  25.281  1.00  0.00     0.014 A 
ATOM     33  C   UNL A   1      42.275  21.038  27.661  1.00  0.00     0.014 A 
ATOM     34  C   UNL A   1      42.945  22.742  25.552  1.00  0.00     0.010 A 
ATOM     35  C   UNL A   1      42.706  22.332  27.930  1.00  0.00     0.010 A 
ATOM     36  C   UNL A   1      43.049  23.196  26.878  1.00  0.00    -0.014 A 
BRANCH  36  37
ATOM     37  C   UNL A   1      43.519  24.568  27.190  1.00  0.00     0.031 A 
ATOM     38  C   UNL A   1      42.557  25.586  27.735  1.00  0.00     0.074 A 
ATOM     39  C   UNL A   1      44.791  24.916  26.914  1.00  0.00     0.049 A 
ATOM     40  N   UNL A   1      42.749  26.857  27.985  1.00  0.00    -0.248 NA
ATOM     41  C   UNL A   1      41.189  25.120  28.010  1.00  0.00     0.031 C 
ATOM     42  C   UNL A   1      45.806  24.029  26.345  1.00  0.00     0.029 A 
ATOM     43  N   UNL A   1      45.443  26.116  27.061  1.00  0.00    -0.354 N 
ATOM     44  C   UNL A   1      41.526  27.341  28.429  1.00  0.00     0.074 A 
ATOM     45  C   UNL A   1      40.586  26.245  28.363  1.00  0.00     0.031 C 
ATOM     46  C   UNL A   1      46.956  24.707  26.207  1.00  0.00     0.029 A 
ATOM     47  C   UNL A   1      46.747  26.087  26.633  1.00  0.00     0.049 A 
ATOM     48  H   UNL A   1      45.016  26.919  27.437  1.00  0.00     0.167 HD
ATOM     49  C   UNL A   1      41.222  28.584  28.873  1.00  0.00     0.037 A 
ATOM     50  C   UNL A   1      47.667  27.069  26.575  1.00  0.00     0.037 A 
ATOM     51  C   UNL A   1      42.169  29.666  28.954  1.00  0.00     0.049 A 
ATOM     52  C   UNL A   1      47.297  28.450  27.053  1.00  0.00     0.074 A 
ATOM     53  C   UNL A   1      41.976  30.945  29.444  1.00  0.00     0.029 A 
ATOM     54  N   UNL A   1      43.486  29.596  28.523  1.00  0.00    -0.354 N 
ATOM     55  N   UNL A   1      46.158  28.879  27.538  1.00  0.00    -0.248 NA
ATOM     56  C   UNL A   1      48.343  29.479  26.979  1.00  0.00     0.031 C 
ATOM     57  C   UNL A   1      43.158  31.668  29.256  1.00  0.00     0.029 A 
ATOM     58  C   UNL A   1      44.109  30.820  28.710  1.00  0.00     0.049 A 
ATOM     59  H   UNL A   1      43.915  28.796  28.142  1.00  0.00     0.167 HD
ATOM     60  C   UNL A   1      46.358  30.216  27.858  1.00  0.00     0.074 A 
ATOM     61  C   UNL A   1      47.734  30.522  27.522  1.00  0.00     0.031 C 
ATOM     62  C   UNL A   1      45.483  31.107  28.383  1.00  0.00     0.037 A 
BRANCH  49  63
ATOM     63  C   UNL A   1      39.806  28.845  29.301  1.00  0.00     0.064 A 
ATOM     64  C   UNL A   1      39.383  28.634  30.623  1.00  0.00     0.173 A 
ATOM     65  C   UNL A   1      38.869  29.352  28.389  1.00  0.00     0.173 A 
ATOM     66  F   UNL A   1      40.236  28.142  31.535  1.00  0.00    -0.203 F 
ATOM     67  C   UNL A   1      38.069  28.891  31.007  1.00  0.00     0.198 A 
ATOM     68  C   UNL A   1      37.566  29.641  28.783  1.00  0.00     0.198 A 
ATOM     69  F   UNL A   1      39.220  29.579  27.114  1.00  0.00    -0.203 F 
ATOM     70  F   UNL A   1      37.676  28.631  32.261  1.00  0.00    -0.200 F 
ATOM     71  C   UNL A   1      37.164  29.402  30.089  1.00  0.00     0.200 A 
ATOM     72  F   UNL A   1      36.697  30.151  27.899  1.00  0.00    -0.200 F 
ATOM     73  F   UNL A   1      35.902  29.658  30.462  1.00  0.00    -0.200 F 
ENDBRANCH  49  63
BRANCH  50  74
ATOM     74  C   UNL A   1      49.031  26.782  26.056  1.00  0.00     0.064 A 
ATOM     75  C   UNL A   1      50.029  26.267  26.896  1.00  0.00     0.173 A 
ATOM     76  C   UNL A   1      49.369  27.025  24.716  1.00  0.00     0.173 A 
ATOM     77  F   UNL A   1      49.761  26.037  28.189  1.00  0.00    -0.203 F 
ATOM     78  C   UNL A   1      51.318  26.028  26.421  1.00  0.00     0.198 A 
ATOM     79  C   UNL A   1      50.648  26.755  24.235  1.00  0.00     0.198 A 
ATOM     80  F   UNL A   1      48.451  27.513  23.869  1.00  0.00    -0.203 F 
ATOM     81  F   UNL A   1      52.265  25.584  27.258  1.00  0.00    -0.200 F 
ATOM     82  C   UNL A   1      51.624  26.265  25.089  1.00  0.00     0.200 A 
ATOM     83  F   UNL A   1      50.936  26.971  22.945  1.00  0.00    -0.200 F 
ATOM     84  F   UNL A   1      52.862  26.032  24.633  1.00  0.00    -0.200 F 
ENDBRANCH  50  74
BRANCH  62  85
ATOM     85  C   UNL A   1      45.992  32.490  28.675  1.00  0.00     0.064 A 
ATOM     86  C   UNL A   1      46.602  32.813  29.895  1.00  0.00     0.173 A 
ATOM     87  C   UNL A   1      45.916  33.492  27.693  1.00  0.00     0.173 A 
ATOM     88  F   UNL A   1      46.687  31.897  30.871  1.00  0.00    -0.203 F 
ATOM     89  C   UNL A   1      47.096  34.094  30.131  1.00  0.00     0.198 A 
ATOM     90  C   UNL A   1      46.442  34.760  27.920  1.00  0.00     0.198 A 
ATOM     91  F   UNL A   1      45.348  33.233  26.506  1.00  0.00    -0.203 F 
ATOM     92  F   UNL A   1      47.633  34.393  31.322  1.00  0.00    -0.200 F 
ATOM     93  C   UNL A   1      47.025  35.063  29.140  1.00  0.00     0.200 A 
ATOM     94  F   UNL A   1      46.388  35.688  26.955  1.00  0.00    -0.200 F 
ATOM     95  F   UNL A   1      47.514  36.290  29.365  1.00  0.00    -0.200 F 
ENDBRANCH  62  85
ENDBRANCH  36  37
ENDBRANCH  28  31
ENDBRANCH  26  27
ENDBRANCH  25  26
ENDBRANCH   1  25
TORSDOF 14
ENDMDL
