MODEL 1
REMARK VINA RESULT:     -12.1      0.000      0.000
REMARK SMILES Cc1ccc(NC(=O)C[C@H]([NH2+]Cc2cccnc2)C(=O)NCCCCCCNC(=O)c2ccc(-c3c4nc(c(-c5c(F)c(F)c(F)c(F)c5F)c5ccc([nH]5)c(-c5c(F)c(F)c(F)c(F)c5F)c5nc(c(-c6c(F)c(F)c(F)c(F)c6F)c6ccc3[nH]6)C=C5)C=C4)cc2)cc1Cl
REMARK SMILES IDX 24 1 23 2 22 3 21 4 19 5 20 6 10 8 9 9 7 10 6 11 8 13 5 14
REMARK SMILES IDX 1 15 2 16 3 17 95 18 4 19 94 20 96 21 11 22 12 25 13 26
REMARK SMILES IDX 14 27 18 28 15 29 17 30 16 31 25 32 26 33 27 34 28 35 29 36
REMARK SMILES IDX 30 38 31 39 32 40 93 41 33 42 92 43 34 44 35 45 36 46 86 47
REMARK SMILES IDX 37 48 91 49 85 50 87 51 38 52 90 53 84 54 83 55 39 57 71 58
REMARK SMILES IDX 51 59 70 60 52 61 55 62 69 63 88 64 53 65 54 66 68 68 89 69
REMARK SMILES IDX 56 70 40 71 41 72 49 73 42 74 43 75 47 76 50 77 44 78 45 79
REMARK SMILES IDX 48 80 46 81 72 82 73 83 81 84 74 85 75 86 79 87 82 88 76 89
REMARK SMILES IDX 77 90 80 91 78 92 57 93 58 94 66 95 59 96 60 97 64 98 67 99
REMARK SMILES IDX 61 100 62 101 65 102 63 103
REMARK H PARENT 21 7 6 12 11 23 11 24 28 37 87 56 55 67
REMARK Flexibility Score: inf
ROOT
ATOM      1  C   UNL A   1      37.531  22.138  24.993  1.00  0.00     0.002 C 
ENDROOT
BRANCH   1   2
ATOM      2  C   UNL A   1      36.471  23.200  24.702  1.00  0.00     0.021 C 
BRANCH   2   3
ATOM      3  C   UNL A   1      35.820  23.865  25.926  1.00  0.00     0.116 C 
BRANCH   3   4
ATOM      4  N   UNL A   1      35.091  22.904  26.762  1.00  0.00    -0.351 N 
ATOM      5  C   UNL A   1      33.924  22.210  26.710  1.00  0.00     0.278 C 
ATOM      6  O   UNL A   1      33.717  21.468  27.686  1.00  0.00    -0.268 OA
ATOM      7  H   UNL A   1      35.585  22.708  27.591  1.00  0.00     0.163 HD
BRANCH   5   8
ATOM      8  C   UNL A   1      32.803  22.311  25.625  1.00  0.00     0.282 C 
BRANCH   8   9
ATOM      9  C   UNL A   1      31.378  22.319  26.131  1.00  0.00     0.175 C 
BRANCH   9  10
ATOM     10  C   UNL A   1      30.585  23.432  26.795  1.00  0.00     0.230 C 
ATOM     11  N   UNL A   1      30.601  24.772  26.695  1.00  0.00    -0.326 N 
ATOM     12  H   UNL A   1      29.924  25.155  27.298  1.00  0.00     0.169 HD
ATOM     13  O   UNL A   1      29.706  23.034  27.590  1.00  0.00    -0.274 OA
BRANCH  11  14
ATOM     14  C   UNL A   1      31.261  25.809  26.017  1.00  0.00     0.042 A 
ATOM     15  C   UNL A   1      33.616  28.774  23.887  1.00  0.00     0.046 C 
ATOM     16  C   UNL A   1      32.798  27.780  24.654  1.00  0.00    -0.032 A 
ATOM     17  C   UNL A   1      33.419  26.782  25.412  1.00  0.00     0.007 A 
ATOM     18  C   UNL A   1      31.405  27.791  24.607  1.00  0.00     0.046 A 
ATOM     19  C   UNL A   1      32.660  25.812  26.082  1.00  0.00     0.026 A 
ATOM     20  C   UNL A   1      30.667  26.833  25.307  1.00  0.00     0.047 A 
ATOM     21  Cl  UNL A   1      30.529  28.973  23.699  1.00  0.00    -0.084 Cl
ENDBRANCH  11  14
ENDBRANCH   9  10
ENDBRANCH   8   9
BRANCH   8  22
ATOM     22  N   UNL A   1      33.167  21.468  24.475  1.00  0.00    -0.332 N 
ATOM     23  H   UNL A   1      34.047  21.006  24.707  1.00  0.00     0.347 HD
ATOM     24  H   UNL A   1      33.194  22.116  23.688  1.00  0.00     0.347 HD
BRANCH  22  25
ATOM     25  C   UNL A   1      32.237  20.431  24.051  1.00  0.00     0.299 C 
BRANCH  25  26
ATOM     26  C   UNL A   1      32.977  19.129  23.848  1.00  0.00     0.024 A 
ATOM     27  C   UNL A   1      34.085  18.771  24.623  1.00  0.00     0.013 A 
ATOM     28  C   UNL A   1      32.532  18.191  22.917  1.00  0.00     0.120 A 
ATOM     29  C   UNL A   1      34.667  17.515  24.467  1.00  0.00     0.021 A 
ATOM     30  N   UNL A   1      33.082  16.965  22.735  1.00  0.00    -0.264 NA
ATOM     31  C   UNL A   1      34.131  16.654  23.525  1.00  0.00     0.111 A 
ENDBRANCH  25  26
ENDBRANCH  22  25
ENDBRANCH   8  22
ENDBRANCH   5   8
ENDBRANCH   3   4
ENDBRANCH   2   3
ENDBRANCH   1   2
BRANCH   1  32
ATOM     32  C   UNL A   1      37.193  20.713  24.548  1.00  0.00     0.002 C 
BRANCH  32  33
ATOM     33  C   UNL A   1      38.161  19.602  24.977  1.00  0.00     0.021 C 
BRANCH  33  34
ATOM     34  C   UNL A   1      39.134  19.934  26.112  1.00  0.00     0.116 C 
BRANCH  34  35
ATOM     35  N   UNL A   1      40.382  19.188  26.028  1.00  0.00    -0.352 N 
ATOM     36  C   UNL A   1      41.690  19.581  26.086  1.00  0.00     0.251 C 
ATOM     37  H   UNL A   1      40.261  18.218  25.906  1.00  0.00     0.163 HD
ATOM     38  O   UNL A   1      42.571  18.752  25.822  1.00  0.00    -0.269 OA
BRANCH  36  39
ATOM     39  C   UNL A   1      42.100  20.959  26.441  1.00  0.00     0.039 A 
ATOM     40  C   UNL A   1      42.206  21.904  25.410  1.00  0.00     0.014 A 
ATOM     41  C   UNL A   1      42.474  21.321  27.739  1.00  0.00     0.014 A 
ATOM     42  C   UNL A   1      42.630  23.208  25.685  1.00  0.00     0.010 A 
ATOM     43  C   UNL A   1      42.845  22.642  28.022  1.00  0.00     0.010 A 
ATOM     44  C   UNL A   1      42.929  23.598  27.000  1.00  0.00    -0.014 A 
BRANCH  44  45
ATOM     45  C   UNL A   1      43.308  25.006  27.303  1.00  0.00     0.031 A 
ATOM     46  C   UNL A   1      44.693  25.517  27.015  1.00  0.00     0.074 A 
ATOM     47  C   UNL A   1      42.404  25.825  27.877  1.00  0.00     0.049 A 
ATOM     48  N   UNL A   1      45.195  26.711  27.218  1.00  0.00    -0.248 NA
ATOM     49  C   UNL A   1      45.647  24.558  26.441  1.00  0.00     0.031 C 
ATOM     50  C   UNL A   1      41.041  25.445  28.252  1.00  0.00     0.029 A 
ATOM     51  N   UNL A   1      42.493  27.144  28.247  1.00  0.00    -0.354 N 
ATOM     52  C   UNL A   1      46.522  26.642  26.812  1.00  0.00     0.074 A 
ATOM     53  C   UNL A   1      46.759  25.277  26.389  1.00  0.00     0.031 C 
ATOM     54  C   UNL A   1      40.415  26.511  28.772  1.00  0.00     0.029 A 
ATOM     55  C   UNL A   1      41.337  27.642  28.796  1.00  0.00     0.049 A 
ATOM     56  H   UNL A   1      43.310  27.682  28.131  1.00  0.00     0.167 HD
ATOM     57  C   UNL A   1      47.451  27.628  26.779  1.00  0.00     0.037 A 
ATOM     58  C   UNL A   1      41.049  28.872  29.262  1.00  0.00     0.037 A 
ATOM     59  C   UNL A   1      47.211  28.993  27.174  1.00  0.00     0.049 A 
ATOM     60  C   UNL A   1      42.096  29.950  29.201  1.00  0.00     0.074 A 
ATOM     61  C   UNL A   1      48.069  30.077  27.105  1.00  0.00     0.029 A 
ATOM     62  N   UNL A   1      46.023  29.461  27.716  1.00  0.00    -0.354 N 
ATOM     63  N   UNL A   1      43.321  29.890  28.743  1.00  0.00    -0.248 NA
ATOM     64  C   UNL A   1      41.711  31.273  29.715  1.00  0.00     0.031 C 
ATOM     65  C   UNL A   1      47.416  31.191  27.646  1.00  0.00     0.029 A 
ATOM     66  C   UNL A   1      46.135  30.812  28.008  1.00  0.00     0.049 A 
ATOM     67  H   UNL A   1      45.218  28.915  27.870  1.00  0.00     0.167 HD
ATOM     68  C   UNL A   1      43.846  31.167  28.889  1.00  0.00     0.074 A 
ATOM     69  C   UNL A   1      42.798  31.986  29.461  1.00  0.00     0.031 C 
ATOM     70  C   UNL A   1      45.086  31.618  28.579  1.00  0.00     0.037 A 
BRANCH  57  71
ATOM     71  C   UNL A   1      48.828  27.268  26.297  1.00  0.00     0.064 A 
ATOM     72  C   UNL A   1      49.175  27.335  24.939  1.00  0.00     0.173 A 
ATOM     73  C   UNL A   1      49.827  26.897  27.210  1.00  0.00     0.173 A 
ATOM     74  F   UNL A   1      48.255  27.678  24.024  1.00  0.00    -0.203 F 
ATOM     75  C   UNL A   1      50.460  27.015  24.510  1.00  0.00     0.198 A 
ATOM     76  C   UNL A   1      51.119  26.605  26.781  1.00  0.00     0.198 A 
ATOM     77  F   UNL A   1      49.553  26.826  28.522  1.00  0.00    -0.203 F 
ATOM     78  F   UNL A   1      50.754  27.042  23.203  1.00  0.00    -0.200 F 
ATOM     79  C   UNL A   1      51.433  26.656  25.431  1.00  0.00     0.200 A 
ATOM     80  F   UNL A   1      52.062  26.270  27.674  1.00  0.00    -0.200 F 
ATOM     81  F   UNL A   1      52.671  26.354  25.017  1.00  0.00    -0.200 F 
ENDBRANCH  57  71
BRANCH  58  82
ATOM     82  C   UNL A   1      39.693  29.162  29.795  1.00  0.00     0.064 A 
ATOM     83  C   UNL A   1      39.419  29.034  31.164  1.00  0.00     0.173 A 
ATOM     84  C   UNL A   1      38.647  29.564  28.952  1.00  0.00     0.173 A 
ATOM     85  F   UNL A   1      40.382  28.629  32.005  1.00  0.00    -0.203 F 
ATOM     86  C   UNL A   1      38.144  29.281  31.668  1.00  0.00     0.198 A 
ATOM     87  C   UNL A   1      37.380  29.837  29.462  1.00  0.00     0.198 A 
ATOM     88  F   UNL A   1      38.860  29.702  27.636  1.00  0.00    -0.203 F 
ATOM     89  F   UNL A   1      37.899  29.111  32.974  1.00  0.00    -0.200 F 
ATOM     90  C   UNL A   1      37.127  29.689  30.818  1.00  0.00     0.200 A 
ATOM     91  F   UNL A   1      36.402  30.241  28.640  1.00  0.00    -0.200 F 
ATOM     92  F   UNL A   1      35.902  29.930  31.304  1.00  0.00    -0.200 F 
ENDBRANCH  58  82
BRANCH  70  93
ATOM     93  C   UNL A   1      45.365  33.072  28.830  1.00  0.00     0.064 A 
ATOM     94  C   UNL A   1      45.917  33.517  30.042  1.00  0.00     0.173 A 
ATOM     95  C   UNL A   1      45.085  34.032  27.846  1.00  0.00     0.173 A 
ATOM     96  F   UNL A   1      46.186  32.641  31.022  1.00  0.00    -0.203 F 
ATOM     97  C   UNL A   1      46.146  34.871  30.269  1.00  0.00     0.198 A 
ATOM     98  C   UNL A   1      45.343  35.382  28.065  1.00  0.00     0.198 A 
ATOM     99  F   UNL A   1      44.562  33.659  26.668  1.00  0.00    -0.203 F 
ATOM    100  F   UNL A   1      46.619  35.278  31.455  1.00  0.00    -0.200 F 
ATOM    101  C   UNL A   1      45.863  35.801  29.281  1.00  0.00     0.200 A 
ATOM    102  F   UNL A   1      45.080  36.279  27.105  1.00  0.00    -0.200 F 
ATOM    103  F   UNL A   1      46.082  37.105  29.503  1.00  0.00    -0.200 F 
ENDBRANCH  70  93
ENDBRANCH  44  45
ENDBRANCH  36  39
ENDBRANCH  34  35
ENDBRANCH  33  34
ENDBRANCH  32  33
ENDBRANCH   1  32
TORSDOF 19
ENDMDL
MODEL 2
REMARK VINA RESULT:     -12.1      0.722      7.230
REMARK SMILES Cc1ccc(NC(=O)C[C@H]([NH2+]Cc2cccnc2)C(=O)NCCCCCCNC(=O)c2ccc(-c3c4nc(c(-c5c(F)c(F)c(F)c(F)c5F)c5ccc([nH]5)c(-c5c(F)c(F)c(F)c(F)c5F)c5nc(c(-c6c(F)c(F)c(F)c(F)c6F)c6ccc3[nH]6)C=C5)C=C4)cc2)cc1Cl
REMARK SMILES IDX 24 1 23 2 22 3 21 4 19 5 20 6 10 8 9 9 7 10 6 11 8 13 5 14
REMARK SMILES IDX 1 15 2 16 3 17 95 18 4 19 94 20 96 21 11 22 12 25 13 26
REMARK SMILES IDX 14 27 18 28 15 29 17 30 16 31 25 32 26 33 27 34 28 35 29 36
REMARK SMILES IDX 30 38 31 39 32 40 93 41 33 42 92 43 34 44 35 45 36 46 86 47
REMARK SMILES IDX 37 48 91 49 85 50 87 51 38 52 90 53 84 54 83 55 39 57 71 58
REMARK SMILES IDX 51 59 70 60 52 61 55 62 69 63 88 64 53 65 54 66 68 68 89 69
REMARK SMILES IDX 56 70 40 71 41 72 49 73 42 74 43 75 47 76 50 77 44 78 45 79
REMARK SMILES IDX 48 80 46 81 72 82 73 83 81 84 74 85 75 86 79 87 82 88 76 89
REMARK SMILES IDX 77 90 80 91 78 92 57 93 58 94 66 95 59 96 60 97 64 98 67 99
REMARK SMILES IDX 61 100 62 101 65 102 63 103
REMARK H PARENT 21 7 6 12 11 23 11 24 28 37 87 56 55 67
REMARK Flexibility Score: inf
ROOT
ATOM      1  C   UNL A   1      37.595  22.097  24.988  1.00  0.00     0.002 C 
ENDROOT
BRANCH   1   2
ATOM      2  C   UNL A   1      36.637  23.218  24.583  1.00  0.00     0.021 C 
BRANCH   2   3
ATOM      3  C   UNL A   1      35.961  23.984  25.732  1.00  0.00     0.116 C 
BRANCH   3   4
ATOM      4  N   UNL A   1      35.264  23.091  26.664  1.00  0.00    -0.351 N 
ATOM      5  C   UNL A   1      34.180  22.272  26.651  1.00  0.00     0.278 C 
ATOM      6  O   UNL A   1      33.968  21.674  27.720  1.00  0.00    -0.268 OA
ATOM      7  H   UNL A   1      35.705  23.083  27.545  1.00  0.00     0.163 HD
BRANCH   5   8
ATOM      8  C   UNL A   1      33.149  22.076  25.492  1.00  0.00     0.282 C 
BRANCH   8   9
ATOM      9  C   UNL A   1      31.698  22.333  25.834  1.00  0.00     0.175 C 
BRANCH   9  10
ATOM     10  C   UNL A   1      31.081  23.392  26.733  1.00  0.00     0.230 C 
ATOM     11  N   UNL A   1      31.096  24.736  26.731  1.00  0.00    -0.326 N 
ATOM     12  H   UNL A   1      30.568  25.071  27.491  1.00  0.00     0.169 HD
ATOM     13  O   UNL A   1      30.385  22.935  27.665  1.00  0.00    -0.274 OA
BRANCH  11  14
ATOM     14  C   UNL A   1      31.612  25.822  26.007  1.00  0.00     0.042 A 
ATOM     15  C   UNL A   1      33.538  28.963  23.705  1.00  0.00     0.046 C 
ATOM     16  C   UNL A   1      32.868  27.908  24.531  1.00  0.00    -0.032 A 
ATOM     17  C   UNL A   1      33.628  26.960  25.226  1.00  0.00     0.007 A 
ATOM     18  C   UNL A   1      31.480  27.810  24.605  1.00  0.00     0.046 A 
ATOM     19  C   UNL A   1      33.007  25.934  25.950  1.00  0.00     0.026 A 
ATOM     20  C   UNL A   1      30.881  26.797  25.359  1.00  0.00     0.047 A 
ATOM     21  Cl  UNL A   1      30.440  28.921  23.784  1.00  0.00    -0.084 Cl
ENDBRANCH  11  14
ENDBRANCH   9  10
ENDBRANCH   8   9
BRANCH   8  22
ATOM     22  N   UNL A   1      33.517  20.882  24.714  1.00  0.00    -0.332 N 
ATOM     23  H   UNL A   1      34.057  20.276  25.332  1.00  0.00     0.347 HD
ATOM     24  H   UNL A   1      34.011  21.254  23.904  1.00  0.00     0.347 HD
BRANCH  22  25
ATOM     25  C   UNL A   1      32.453  20.070  24.141  1.00  0.00     0.299 C 
BRANCH  25  26
ATOM     26  C   UNL A   1      32.787  18.604  24.290  1.00  0.00     0.024 A 
ATOM     27  C   UNL A   1      33.346  17.856  23.249  1.00  0.00     0.013 A 
ATOM     28  C   UNL A   1      32.615  17.952  25.510  1.00  0.00     0.120 A 
ATOM     29  C   UNL A   1      33.732  16.535  23.470  1.00  0.00     0.021 A 
ATOM     30  N   UNL A   1      32.972  16.667  25.754  1.00  0.00    -0.264 NA
ATOM     31  C   UNL A   1      33.533  15.994  24.728  1.00  0.00     0.111 A 
ENDBRANCH  25  26
ENDBRANCH  22  25
ENDBRANCH   8  22
ENDBRANCH   5   8
ENDBRANCH   3   4
ENDBRANCH   2   3
ENDBRANCH   1   2
BRANCH   1  32
ATOM     32  C   UNL A   1      37.189  20.683  24.566  1.00  0.00     0.002 C 
BRANCH  32  33
ATOM     33  C   UNL A   1      38.175  19.552  24.888  1.00  0.00     0.021 C 
BRANCH  33  34
ATOM     34  C   UNL A   1      39.144  19.790  26.050  1.00  0.00     0.116 C 
BRANCH  34  35
ATOM     35  N   UNL A   1      40.370  19.011  25.937  1.00  0.00    -0.352 N 
ATOM     36  C   UNL A   1      41.688  19.367  25.994  1.00  0.00     0.251 C 
ATOM     37  H   UNL A   1      40.221  18.048  25.793  1.00  0.00     0.163 HD
ATOM     38  O   UNL A   1      42.544  18.520  25.702  1.00  0.00    -0.269 OA
BRANCH  36  39
ATOM     39  C   UNL A   1      42.140  20.723  26.378  1.00  0.00     0.039 A 
ATOM     40  C   UNL A   1      42.323  21.673  25.362  1.00  0.00     0.014 A 
ATOM     41  C   UNL A   1      42.478  21.058  27.693  1.00  0.00     0.014 A 
ATOM     42  C   UNL A   1      42.789  22.955  25.666  1.00  0.00     0.010 A 
ATOM     43  C   UNL A   1      42.891  22.360  28.004  1.00  0.00     0.010 A 
ATOM     44  C   UNL A   1      43.052  23.321  26.995  1.00  0.00    -0.014 A 
BRANCH  44  45
ATOM     45  C   UNL A   1      43.476  24.709  27.328  1.00  0.00     0.031 A 
ATOM     46  C   UNL A   1      42.500  25.705  27.893  1.00  0.00     0.074 A 
ATOM     47  C   UNL A   1      44.747  25.088  27.087  1.00  0.00     0.049 A 
ATOM     48  N   UNL A   1      42.696  26.955  28.237  1.00  0.00    -0.248 NA
ATOM     49  C   UNL A   1      41.117  25.245  28.080  1.00  0.00     0.031 C 
ATOM     50  C   UNL A   1      45.782  24.238  26.499  1.00  0.00     0.029 A 
ATOM     51  N   UNL A   1      45.384  26.285  27.303  1.00  0.00    -0.354 N 
ATOM     52  C   UNL A   1      41.464  27.433  28.664  1.00  0.00     0.074 A 
ATOM     53  C   UNL A   1      40.516  26.350  28.498  1.00  0.00     0.031 C 
ATOM     54  C   UNL A   1      46.930  24.929  26.427  1.00  0.00     0.029 A 
ATOM     55  C   UNL A   1      46.708  26.279  26.935  1.00  0.00     0.049 A 
ATOM     56  H   UNL A   1      44.935  27.074  27.686  1.00  0.00     0.167 HD
ATOM     57  C   UNL A   1      41.154  28.654  29.164  1.00  0.00     0.037 A 
ATOM     58  C   UNL A   1      47.639  27.249  27.002  1.00  0.00     0.037 A 
ATOM     59  C   UNL A   1      42.100  29.724  29.355  1.00  0.00     0.049 A 
ATOM     60  C   UNL A   1      47.270  28.591  27.574  1.00  0.00     0.074 A 
ATOM     61  C   UNL A   1      41.894  30.969  29.924  1.00  0.00     0.029 A 
ATOM     62  N   UNL A   1      43.434  29.676  28.979  1.00  0.00    -0.354 N 
ATOM     63  N   UNL A   1      46.120  29.002  28.045  1.00  0.00    -0.248 NA
ATOM     64  C   UNL A   1      48.338  29.600  27.630  1.00  0.00     0.031 C 
ATOM     65  C   UNL A   1      43.091  31.691  29.851  1.00  0.00     0.029 A 
ATOM     66  C   UNL A   1      44.056  30.879  29.280  1.00  0.00     0.049 A 
ATOM     67  H   UNL A   1      43.875  28.902  28.559  1.00  0.00     0.167 HD
ATOM     68  C   UNL A   1      46.328  30.305  28.476  1.00  0.00     0.074 A 
ATOM     69  C   UNL A   1      47.722  30.609  28.228  1.00  0.00     0.031 C 
ATOM     70  C   UNL A   1      45.443  31.172  29.027  1.00  0.00     0.037 A 
BRANCH  57  71
ATOM     71  C   UNL A   1      39.722  28.906  29.544  1.00  0.00     0.064 A 
ATOM     72  C   UNL A   1      39.254  28.681  30.847  1.00  0.00     0.173 A 
ATOM     73  C   UNL A   1      38.817  29.423  28.604  1.00  0.00     0.173 A 
ATOM     74  F   UNL A   1      40.077  28.180  31.782  1.00  0.00    -0.203 F 
ATOM     75  C   UNL A   1      37.928  28.935  31.188  1.00  0.00     0.198 A 
ATOM     76  C   UNL A   1      37.499  29.703  28.955  1.00  0.00     0.198 A 
ATOM     77  F   UNL A   1      39.213  29.666  27.345  1.00  0.00    -0.203 F 
ATOM     78  F   UNL A   1      37.494  28.668  32.427  1.00  0.00    -0.200 F 
ATOM     79  C   UNL A   1      37.054  29.451  30.244  1.00  0.00     0.200 A 
ATOM     80  F   UNL A   1      36.658  30.214  28.045  1.00  0.00    -0.200 F 
ATOM     81  F   UNL A   1      35.779  29.701  30.574  1.00  0.00    -0.200 F 
ENDBRANCH  57  71
BRANCH  58  82
ATOM     82  C   UNL A   1      49.026  26.975  26.549  1.00  0.00     0.064 A 
ATOM     83  C   UNL A   1      49.392  27.157  25.208  1.00  0.00     0.173 A 
ATOM     84  C   UNL A   1      50.010  26.520  27.439  1.00  0.00     0.173 A 
ATOM     85  F   UNL A   1      48.478  27.568  24.316  1.00  0.00    -0.203 F 
ATOM     86  C   UNL A   1      50.684  26.879  24.770  1.00  0.00     0.198 A 
ATOM     87  C   UNL A   1      51.310  26.269  27.006  1.00  0.00     0.198 A 
ATOM     88  F   UNL A   1      49.710  26.332  28.732  1.00  0.00    -0.203 F 
ATOM     89  F   UNL A   1      50.995  27.022  23.475  1.00  0.00    -0.200 F 
ATOM     90  C   UNL A   1      51.644  26.442  25.670  1.00  0.00     0.200 A 
ATOM     91  F   UNL A   1      52.237  25.857  27.880  1.00  0.00    -0.200 F 
ATOM     92  F   UNL A   1      52.889  26.178  25.250  1.00  0.00    -0.200 F 
ENDBRANCH  58  82
BRANCH  70  93
ATOM     93  C   UNL A   1      45.966  32.523  29.420  1.00  0.00     0.064 A 
ATOM     94  C   UNL A   1      45.941  33.609  28.530  1.00  0.00     0.173 A 
ATOM     95  C   UNL A   1      46.492  32.739  30.702  1.00  0.00     0.173 A 
ATOM     96  F   UNL A   1      45.464  33.451  27.286  1.00  0.00    -0.203 F 
ATOM     97  C   UNL A   1      46.453  34.849  28.901  1.00  0.00     0.198 A 
ATOM     98  C   UNL A   1      46.977  33.988  31.079  1.00  0.00     0.198 A 
ATOM     99  F   UNL A   1      46.535  31.735  31.593  1.00  0.00    -0.203 F 
ATOM    100  F   UNL A   1      46.471  35.856  28.016  1.00  0.00    -0.200 F 
ATOM    101  C   UNL A   1      46.967  35.039  30.175  1.00  0.00     0.200 A 
ATOM    102  F   UNL A   1      47.462  34.173  32.314  1.00  0.00    -0.200 F 
ATOM    103  F   UNL A   1      47.462  36.233  30.528  1.00  0.00    -0.200 F 
ENDBRANCH  70  93
ENDBRANCH  44  45
ENDBRANCH  36  39
ENDBRANCH  34  35
ENDBRANCH  33  34
ENDBRANCH  32  33
ENDBRANCH   1  32
TORSDOF 19
ENDMDL
MODEL 3
REMARK VINA RESULT:     -11.6      1.195      7.090
REMARK SMILES Cc1ccc(NC(=O)C[C@H]([NH2+]Cc2cccnc2)C(=O)NCCCCCCNC(=O)c2ccc(-c3c4nc(c(-c5c(F)c(F)c(F)c(F)c5F)c5ccc([nH]5)c(-c5c(F)c(F)c(F)c(F)c5F)c5nc(c(-c6c(F)c(F)c(F)c(F)c6F)c6ccc3[nH]6)C=C5)C=C4)cc2)cc1Cl
REMARK SMILES IDX 24 1 23 2 22 3 21 4 19 5 20 6 10 8 9 9 7 10 6 11 8 13 5 14
REMARK SMILES IDX 1 15 2 16 3 17 95 18 4 19 94 20 96 21 11 22 12 25 13 26
REMARK SMILES IDX 14 27 18 28 15 29 17 30 16 31 25 32 26 33 27 34 28 35 29 36
REMARK SMILES IDX 30 38 31 39 32 40 93 41 33 42 92 43 34 44 35 45 36 46 86 47
REMARK SMILES IDX 37 48 91 49 85 50 87 51 38 52 90 53 84 54 83 55 39 57 71 58
REMARK SMILES IDX 51 59 70 60 52 61 55 62 69 63 88 64 53 65 54 66 68 68 89 69
REMARK SMILES IDX 56 70 40 71 41 72 49 73 42 74 43 75 47 76 50 77 44 78 45 79
REMARK SMILES IDX 48 80 46 81 72 82 73 83 81 84 74 85 75 86 79 87 82 88 76 89
REMARK SMILES IDX 77 90 80 91 78 92 57 93 58 94 66 95 59 96 60 97 64 98 67 99
REMARK SMILES IDX 61 100 62 101 65 102 63 103
REMARK H PARENT 21 7 6 12 11 23 11 24 28 37 87 56 55 67
REMARK Flexibility Score: inf
ROOT
ATOM      1  C   UNL A   1      38.614  23.386  26.442  1.00  0.00     0.002 C 
ENDROOT
BRANCH   1   2
ATOM      2  C   UNL A   1      37.262  24.100  26.419  1.00  0.00     0.021 C 
BRANCH   2   3
ATOM      3  C   UNL A   1      36.072  23.287  25.885  1.00  0.00     0.116 C 
BRANCH   3   4
ATOM      4  N   UNL A   1      35.393  23.958  24.771  1.00  0.00    -0.351 N 
ATOM      5  C   UNL A   1      34.145  24.004  24.235  1.00  0.00     0.278 C 
ATOM      6  O   UNL A   1      34.028  24.760  23.254  1.00  0.00    -0.268 OA
ATOM      7  H   UNL A   1      36.015  24.537  24.273  1.00  0.00     0.163 HD
BRANCH   5   8
ATOM      8  C   UNL A   1      32.897  23.161  24.655  1.00  0.00     0.282 C 
BRANCH   8   9
ATOM      9  C   UNL A   1      32.432  23.319  26.086  1.00  0.00     0.175 C 
BRANCH   9  10
ATOM     10  C   UNL A   1      31.136  23.894  26.632  1.00  0.00     0.230 C 
ATOM     11  N   UNL A   1      30.408  24.987  26.341  1.00  0.00    -0.326 N 
ATOM     12  H   UNL A   1      29.616  25.018  26.923  1.00  0.00     0.169 HD
ATOM     13  O   UNL A   1      30.601  23.203  27.526  1.00  0.00    -0.274 OA
BRANCH  11  14
ATOM     14  C   UNL A   1      30.402  26.100  25.484  1.00  0.00     0.042 A 
ATOM     15  C   UNL A   1      30.008  29.446  22.742  1.00  0.00     0.046 C 
ATOM     16  C   UNL A   1      30.179  28.279  23.666  1.00  0.00    -0.032 A 
ATOM     17  C   UNL A   1      29.410  27.121  23.499  1.00  0.00     0.007 A 
ATOM     18  C   UNL A   1      31.071  28.319  24.736  1.00  0.00     0.046 A 
ATOM     19  C   UNL A   1      29.521  26.050  24.397  1.00  0.00     0.026 A 
ATOM     20  C   UNL A   1      31.189  27.228  25.600  1.00  0.00     0.047 A 
ATOM     21  Cl  UNL A   1      32.068  29.698  25.043  1.00  0.00    -0.084 Cl
ENDBRANCH  11  14
ENDBRANCH   9  10
ENDBRANCH   8   9
BRANCH   8  22
ATOM     22  N   UNL A   1      33.001  21.817  24.064  1.00  0.00    -0.332 N 
ATOM     23  H   UNL A   1      33.990  21.569  24.056  1.00  0.00     0.347 HD
ATOM     24  H   UNL A   1      32.553  21.911  23.152  1.00  0.00     0.347 HD
BRANCH  22  25
ATOM     25  C   UNL A   1      32.287  20.720  24.701  1.00  0.00     0.299 C 
BRANCH  25  26
ATOM     26  C   UNL A   1      32.839  19.399  24.218  1.00  0.00     0.024 A 
ATOM     27  C   UNL A   1      32.203  18.641  23.229  1.00  0.00     0.013 A 
ATOM     28  C   UNL A   1      34.056  18.914  24.695  1.00  0.00     0.120 A 
ATOM     29  C   UNL A   1      32.807  17.481  22.745  1.00  0.00     0.021 A 
ATOM     30  N   UNL A   1      34.664  17.787  24.252  1.00  0.00    -0.264 NA
ATOM     31  C   UNL A   1      34.028  17.104  23.277  1.00  0.00     0.111 A 
ENDBRANCH  25  26
ENDBRANCH  22  25
ENDBRANCH   8  22
ENDBRANCH   5   8
ENDBRANCH   3   4
ENDBRANCH   2   3
ENDBRANCH   1   2
BRANCH   1  32
ATOM     32  C   UNL A   1      38.684  22.057  25.685  1.00  0.00     0.002 C 
BRANCH  32  33
ATOM     33  C   UNL A   1      39.527  20.941  26.316  1.00  0.00     0.021 C 
BRANCH  33  34
ATOM     34  C   UNL A   1      39.503  19.578  25.619  1.00  0.00     0.116 C 
BRANCH  34  35
ATOM     35  N   UNL A   1      40.684  18.773  25.902  1.00  0.00    -0.352 N 
ATOM     36  C   UNL A   1      41.974  19.114  26.196  1.00  0.00     0.251 C 
ATOM     37  H   UNL A   1      40.522  17.802  25.875  1.00  0.00     0.163 HD
ATOM     38  O   UNL A   1      42.830  18.219  26.233  1.00  0.00    -0.269 OA
BRANCH  36  39
ATOM     39  C   UNL A   1      42.398  20.508  26.460  1.00  0.00     0.039 A 
ATOM     40  C   UNL A   1      42.837  21.283  25.378  1.00  0.00     0.014 A 
ATOM     41  C   UNL A   1      42.467  21.039  27.753  1.00  0.00     0.014 A 
ATOM     42  C   UNL A   1      43.288  22.591  25.580  1.00  0.00     0.010 A 
ATOM     43  C   UNL A   1      42.865  22.368  27.947  1.00  0.00     0.010 A 
ATOM     44  C   UNL A   1      43.281  23.157  26.865  1.00  0.00    -0.014 A 
BRANCH  44  45
ATOM     45  C   UNL A   1      43.691  24.574  27.069  1.00  0.00     0.031 A 
ATOM     46  C   UNL A   1      42.709  25.604  27.558  1.00  0.00     0.074 A 
ATOM     47  C   UNL A   1      44.953  24.946  26.779  1.00  0.00     0.049 A 
ATOM     48  N   UNL A   1      42.892  26.881  27.789  1.00  0.00    -0.248 NA
ATOM     49  C   UNL A   1      41.334  25.144  27.803  1.00  0.00     0.031 C 
ATOM     50  C   UNL A   1      45.993  24.060  26.254  1.00  0.00     0.029 A 
ATOM     51  N   UNL A   1      45.578  26.165  26.881  1.00  0.00    -0.354 N 
ATOM     52  C   UNL A   1      41.659  27.379  28.189  1.00  0.00     0.074 A 
ATOM     53  C   UNL A   1      40.724  26.274  28.131  1.00  0.00     0.031 C 
ATOM     54  C   UNL A   1      47.130  24.755  26.106  1.00  0.00     0.029 A 
ATOM     55  C   UNL A   1      46.896  26.142  26.498  1.00  0.00     0.049 A 
ATOM     56  H   UNL A   1      45.122  26.978  27.200  1.00  0.00     0.167 HD
ATOM     57  C   UNL A   1      41.339  28.635  28.585  1.00  0.00     0.037 A 
ATOM     58  C   UNL A   1      47.815  27.126  26.468  1.00  0.00     0.037 A 
ATOM     59  C   UNL A   1      42.273  29.730  28.669  1.00  0.00     0.049 A 
ATOM     60  C   UNL A   1      47.435  28.508  26.925  1.00  0.00     0.074 A 
ATOM     61  C   UNL A   1      42.057  31.017  29.129  1.00  0.00     0.029 A 
ATOM     62  N   UNL A   1      43.603  29.665  28.281  1.00  0.00    -0.354 N 
ATOM     63  N   UNL A   1      46.286  28.945  27.374  1.00  0.00    -0.248 NA
ATOM     64  C   UNL A   1      48.490  29.531  26.878  1.00  0.00     0.031 C 
ATOM     65  C   UNL A   1      43.243  31.744  28.978  1.00  0.00     0.029 A 
ATOM     66  C   UNL A   1      44.212  30.897  28.468  1.00  0.00     0.049 A 
ATOM     67  H   UNL A   1      44.049  28.863  27.924  1.00  0.00     0.167 HD
ATOM     68  C   UNL A   1      46.482  30.283  27.687  1.00  0.00     0.074 A 
ATOM     69  C   UNL A   1      47.868  30.581  27.394  1.00  0.00     0.031 C 
ATOM     70  C   UNL A   1      45.592  31.183  28.171  1.00  0.00     0.037 A 
BRANCH  57  71
ATOM     71  C   UNL A   1      39.908  28.902  28.960  1.00  0.00     0.064 A 
ATOM     72  C   UNL A   1      38.964  29.324  28.011  1.00  0.00     0.173 A 
ATOM     73  C   UNL A   1      39.466  28.688  30.274  1.00  0.00     0.173 A 
ATOM     74  F   UNL A   1      39.338  29.550  26.742  1.00  0.00    -0.203 F 
ATOM     75  C   UNL A   1      37.638  29.550  28.370  1.00  0.00     0.198 A 
ATOM     76  C   UNL A   1      38.133  28.888  30.624  1.00  0.00     0.198 A 
ATOM     77  F   UNL A   1      40.324  28.276  31.219  1.00  0.00    -0.203 F 
ATOM     78  F   UNL A   1      36.766  29.997  27.457  1.00  0.00    -0.200 F 
ATOM     79  C   UNL A   1      37.222  29.327  29.674  1.00  0.00     0.200 A 
ATOM     80  F   UNL A   1      37.729  28.659  31.882  1.00  0.00    -0.200 F 
ATOM     81  F   UNL A   1      35.944  29.539  30.018  1.00  0.00    -0.200 F 
ENDBRANCH  57  71
BRANCH  58  82
ATOM     82  C   UNL A   1      49.201  26.830  26.022  1.00  0.00     0.064 A 
ATOM     83  C   UNL A   1      50.161  26.364  26.930  1.00  0.00     0.173 A 
ATOM     84  C   UNL A   1      49.595  27.013  24.689  1.00  0.00     0.173 A 
ATOM     85  F   UNL A   1      49.837  26.197  28.221  1.00  0.00    -0.203 F 
ATOM     86  C   UNL A   1      51.469  26.107  26.525  1.00  0.00     0.198 A 
ATOM     87  C   UNL A   1      50.896  26.730  24.279  1.00  0.00     0.198 A 
ATOM     88  F   UNL A   1      48.712  27.455  23.782  1.00  0.00    -0.203 F 
ATOM     89  F   UNL A   1      52.379  25.703  27.423  1.00  0.00    -0.200 F 
ATOM     90  C   UNL A   1      51.834  26.284  25.199  1.00  0.00     0.200 A 
ATOM     91  F   UNL A   1      51.242  26.891  22.995  1.00  0.00    -0.200 F 
ATOM     92  F   UNL A   1      53.091  26.034  24.809  1.00  0.00    -0.200 F 
ENDBRANCH  58  82
BRANCH  70  93
ATOM     93  C   UNL A   1      46.102  32.571  28.438  1.00  0.00     0.064 A 
ATOM     94  C   UNL A   1      46.659  32.925  29.676  1.00  0.00     0.173 A 
ATOM     95  C   UNL A   1      46.039  33.556  27.441  1.00  0.00     0.173 A 
ATOM     96  F   UNL A   1      46.725  32.023  30.668  1.00  0.00    -0.203 F 
ATOM     97  C   UNL A   1      47.103  34.222  29.917  1.00  0.00     0.198 A 
ATOM     98  C   UNL A   1      46.512  34.844  27.675  1.00  0.00     0.198 A 
ATOM     99  F   UNL A   1      45.521  33.269  26.237  1.00  0.00    -0.203 F 
ATOM    100  F   UNL A   1      47.578  34.552  31.125  1.00  0.00    -0.200 F 
ATOM    101  C   UNL A   1      47.033  35.179  28.916  1.00  0.00     0.200 A 
ATOM    102  F   UNL A   1      46.454  35.766  26.703  1.00  0.00    -0.200 F 
ATOM    103  F   UNL A   1      47.459  36.428  29.150  1.00  0.00    -0.200 F 
ENDBRANCH  70  93
ENDBRANCH  44  45
ENDBRANCH  36  39
ENDBRANCH  34  35
ENDBRANCH  33  34
ENDBRANCH  32  33
ENDBRANCH   1  32
TORSDOF 19
ENDMDL
