MODEL 1
REMARK VINA RESULT:     -12.3      0.000      0.000
REMARK SMILES CCOC(=O)c1c(-c2cccc3ccccc23)csc1NC(=O)[C@H]1CC=CC[C@H]1C(=O)NCCCCCCNC(=O)c1ccc(-c2c3nc(c(-c4c(F)c(F)c(F)c(F)c4F)c4ccc([nH]4)c(-c4c(F)c(F)c(F)c(F)c4F)c4nc(c(-c5c(F)c(F)c(F)c(F)c5F)c5ccc2[nH]5)C=C4)C=C3)cc1
REMARK SMILES IDX 34 1 33 2 32 3 30 4 31 5 29 7 24 8 25 9 26 10 28 11 27 12
REMARK SMILES IDX 22 13 21 14 23 16 20 17 6 18 7 19 18 20 19 21 4 22 5 23 3 24
REMARK SMILES IDX 2 25 1 26 8 27 9 28 17 29 10 30 12 31 16 32 11 33 13 34
REMARK SMILES IDX 15 35 14 36 35 37 36 38 37 39 38 40 39 41 40 42 41 44 42 45
REMARK SMILES IDX 43 46 104 47 44 48 103 49 45 50 46 51 47 52 97 53 48 54
REMARK SMILES IDX 102 55 96 56 98 57 49 58 101 59 95 60 94 61 50 63 82 64
REMARK SMILES IDX 62 65 81 66 63 67 66 68 80 69 99 70 64 71 65 72 79 74 100 75
REMARK SMILES IDX 67 76 51 77 52 78 60 79 53 80 54 81 58 82 61 83 55 84 56 85
REMARK SMILES IDX 59 86 57 87 83 88 84 89 92 90 85 91 86 92 90 93 93 94 87 95
REMARK SMILES IDX 88 96 91 97 89 98 68 99 69 100 77 101 70 102 71 103 75 104
REMARK SMILES IDX 78 105 72 106 73 107 76 108 74 109
REMARK H PARENT 32 6 21 15 39 43 98 62 66 73
REMARK Flexibility Score: inf
ROOT
ATOM      1  C   UNL A   1      34.769  29.530  27.430  1.00  0.00     0.021 C 
ENDROOT
BRANCH   1   2
ATOM      2  C   UNL A   1      34.311  28.774  26.182  1.00  0.00     0.116 C 
BRANCH   2   3
ATOM      3  N   UNL A   1      33.472  27.669  26.572  1.00  0.00    -0.356 N 
ATOM      4  C   UNL A   1      32.243  27.305  26.150  1.00  0.00     0.224 C 
ATOM      5  O   UNL A   1      31.625  26.526  26.886  1.00  0.00    -0.275 OA
ATOM      6  H   UNL A   1      33.860  27.082  27.261  1.00  0.00     0.163 HD
BRANCH   4   7
ATOM      7  C   UNL A   1      31.637  27.720  24.817  1.00  0.00     0.095 C 
ATOM      8  C   UNL A   1      31.197  26.663  23.785  1.00  0.00     0.095 C 
ATOM      9  C   UNL A   1      31.212  27.304  22.385  1.00  0.00     0.041 C 
ATOM     10  C   UNL A   1      30.849  28.774  22.364  1.00  0.00    -0.030 C 
ATOM     11  C   UNL A   1      30.723  28.940  24.861  1.00  0.00     0.041 C 
ATOM     12  C   UNL A   1      30.575  29.494  23.468  1.00  0.00    -0.030 C 
BRANCH   8  13
ATOM     13  C   UNL A   1      30.011  25.729  24.112  1.00  0.00     0.229 C 
ATOM     14  N   UNL A   1      30.015  24.413  24.455  1.00  0.00    -0.317 N 
ATOM     15  H   UNL A   1      29.164  23.965  24.245  1.00  0.00     0.170 HD
ATOM     16  O   UNL A   1      28.871  26.188  23.918  1.00  0.00    -0.274 OA
BRANCH  14  17
ATOM     17  C   UNL A   1      30.932  23.560  25.028  1.00  0.00     0.110 A 
ATOM     18  C   UNL A   1      31.862  22.728  24.407  1.00  0.00     0.102 A 
ATOM     19  C   UNL A   1      32.743  22.124  25.392  1.00  0.00     0.010 A 
ATOM     20  C   UNL A   1      32.232  22.307  26.665  1.00  0.00     0.076 A 
ATOM     21  S   UNL A   1      30.703  23.043  26.624  1.00  0.00    -0.125 S 
BRANCH  18  22
ATOM     22  C   UNL A   1      31.925  22.555  22.962  1.00  0.00     0.341 C 
ATOM     23  O   UNL A   1      31.783  21.473  22.409  1.00  0.00    -0.246 OA
BRANCH  22  24
ATOM     24  O   UNL A   1      32.289  23.713  22.344  1.00  0.00    -0.462 OA
BRANCH  24  25
ATOM     25  C   UNL A   1      33.691  23.975  22.192  1.00  0.00     0.230 C 
ATOM     26  C   UNL A   1      34.160  25.108  23.091  1.00  0.00     0.049 C 
ENDBRANCH  24  25
ENDBRANCH  22  24
ENDBRANCH  18  22
BRANCH  19  27
ATOM     27  C   UNL A   1      33.976  21.334  25.216  1.00  0.00    -0.009 A 
ATOM     28  C   UNL A   1      33.819  19.966  24.911  1.00  0.00     0.009 A 
ATOM     29  C   UNL A   1      35.291  21.875  25.369  1.00  0.00    -0.010 A 
ATOM     30  C   UNL A   1      34.916  19.128  24.766  1.00  0.00     0.001 A 
ATOM     31  C   UNL A   1      36.400  21.005  25.169  1.00  0.00    -0.018 A 
ATOM     32  C   UNL A   1      35.594  23.214  25.726  1.00  0.00     0.009 A 
ATOM     33  C   UNL A   1      36.197  19.648  24.885  1.00  0.00     0.009 A 
ATOM     34  C   UNL A   1      37.716  21.488  25.264  1.00  0.00     0.009 A 
ATOM     35  C   UNL A   1      36.911  23.683  25.808  1.00  0.00     0.001 A 
ATOM     36  C   UNL A   1      37.971  22.822  25.567  1.00  0.00     0.001 A 
ENDBRANCH  19  27
ENDBRANCH  14  17
ENDBRANCH   8  13
ENDBRANCH   4   7
ENDBRANCH   2   3
ENDBRANCH   1   2
BRANCH   1  37
ATOM     37  C   UNL A   1      34.100  30.898  27.603  1.00  0.00     0.002 C 
BRANCH  37  38
ATOM     38  C   UNL A   1      32.614  30.940  27.234  1.00  0.00     0.002 C 
BRANCH  38  39
ATOM     39  C   UNL A   1      31.989  32.337  27.222  1.00  0.00     0.021 C 
BRANCH  39  40
ATOM     40  C   UNL A   1      32.990  33.483  27.106  1.00  0.00     0.116 C 
BRANCH  40  41
ATOM     41  N   UNL A   1      32.571  34.649  27.867  1.00  0.00    -0.352 N 
ATOM     42  C   UNL A   1      33.008  35.098  29.086  1.00  0.00     0.251 C 
ATOM     43  H   UNL A   1      31.869  35.196  27.445  1.00  0.00     0.163 HD
ATOM     44  O   UNL A   1      32.396  35.980  29.679  1.00  0.00    -0.269 OA
BRANCH  42  45
ATOM     45  C   UNL A   1      34.217  34.510  29.698  1.00  0.00     0.039 A 
ATOM     46  C   UNL A   1      34.100  33.855  30.927  1.00  0.00     0.014 A 
ATOM     47  C   UNL A   1      35.465  34.629  29.081  1.00  0.00     0.014 A 
ATOM     48  C   UNL A   1      35.227  33.278  31.515  1.00  0.00     0.010 A 
ATOM     49  C   UNL A   1      36.578  34.003  29.638  1.00  0.00     0.010 A 
ATOM     50  C   UNL A   1      36.469  33.328  30.863  1.00  0.00    -0.014 A 
BRANCH  50  51
ATOM     51  C   UNL A   1      37.669  32.686  31.451  1.00  0.00     0.031 A 
ATOM     52  C   UNL A   1      38.309  31.511  30.765  1.00  0.00     0.074 A 
ATOM     53  C   UNL A   1      38.144  33.120  32.634  1.00  0.00     0.049 A 
ATOM     54  N   UNL A   1      39.315  30.772  31.155  1.00  0.00    -0.248 NA
ATOM     55  C   UNL A   1      37.724  31.099  29.479  1.00  0.00     0.031 C 
ATOM     56  C   UNL A   1      37.586  34.226  33.414  1.00  0.00     0.029 A 
ATOM     57  N   UNL A   1      39.200  32.678  33.391  1.00  0.00    -0.354 N 
ATOM     58  C   UNL A   1      39.467  29.795  30.179  1.00  0.00     0.074 A 
ATOM     59  C   UNL A   1      38.429  30.013  29.196  1.00  0.00     0.031 C 
ATOM     60  C   UNL A   1      38.317  34.389  34.529  1.00  0.00     0.029 A 
ATOM     61  C   UNL A   1      39.371  33.379  34.559  1.00  0.00     0.049 A 
ATOM     62  H   UNL A   1      39.778  31.928  33.123  1.00  0.00     0.167 HD
ATOM     63  C   UNL A   1      40.400  28.817  30.104  1.00  0.00     0.037 A 
ATOM     64  C   UNL A   1      40.275  33.221  35.543  1.00  0.00     0.037 A 
ATOM     65  C   UNL A   1      41.457  28.628  31.062  1.00  0.00     0.049 A 
ATOM     66  C   UNL A   1      41.308  32.133  35.426  1.00  0.00     0.074 A 
ATOM     67  C   UNL A   1      42.496  27.714  31.032  1.00  0.00     0.029 A 
ATOM     68  N   UNL A   1      41.611  29.372  32.222  1.00  0.00    -0.354 N 
ATOM     69  N   UNL A   1      41.481  31.258  34.467  1.00  0.00    -0.248 NA
ATOM     70  C   UNL A   1      42.270  32.012  36.530  1.00  0.00     0.031 C 
ATOM     71  C   UNL A   1      43.257  27.879  32.194  1.00  0.00     0.029 A 
ATOM     72  C   UNL A   1      42.716  28.924  32.927  1.00  0.00     0.049 A 
ATOM     73  H   UNL A   1      41.022  30.109  32.503  1.00  0.00     0.167 HD
ATOM     74  C   UNL A   1      42.589  30.505  34.833  1.00  0.00     0.074 A 
ATOM     75  C   UNL A   1      43.052  31.031  36.100  1.00  0.00     0.031 C 
ATOM     76  C   UNL A   1      43.170  29.469  34.180  1.00  0.00     0.037 A 
BRANCH  63  77
ATOM     77  C   UNL A   1      40.324  27.870  28.943  1.00  0.00     0.064 A 
ATOM     78  C   UNL A   1      41.004  28.123  27.742  1.00  0.00     0.173 A 
ATOM     79  C   UNL A   1      39.601  26.673  29.049  1.00  0.00     0.173 A 
ATOM     80  F   UNL A   1      41.701  29.259  27.588  1.00  0.00    -0.203 F 
ATOM     81  C   UNL A   1      40.946  27.221  26.683  1.00  0.00     0.198 A 
ATOM     82  C   UNL A   1      39.567  25.761  27.998  1.00  0.00     0.198 A 
ATOM     83  F   UNL A   1      38.938  26.381  30.178  1.00  0.00    -0.203 F 
ATOM     84  F   UNL A   1      41.572  27.502  25.532  1.00  0.00    -0.200 F 
ATOM     85  C   UNL A   1      40.234  26.038  26.814  1.00  0.00     0.200 A 
ATOM     86  F   UNL A   1      38.888  24.613  28.129  1.00  0.00    -0.200 F 
ATOM     87  F   UNL A   1      40.186  25.167  25.797  1.00  0.00    -0.200 F 
ENDBRANCH  63  77
BRANCH  64  88
ATOM     88  C   UNL A   1      40.266  34.134  36.715  1.00  0.00     0.064 A 
ATOM     89  C   UNL A   1      39.459  33.861  37.829  1.00  0.00     0.173 A 
ATOM     90  C   UNL A   1      41.049  35.296  36.744  1.00  0.00     0.173 A 
ATOM     91  F   UNL A   1      38.677  32.771  37.837  1.00  0.00    -0.203 F 
ATOM     92  C   UNL A   1      39.421  34.727  38.918  1.00  0.00     0.198 A 
ATOM     93  C   UNL A   1      41.029  36.149  37.845  1.00  0.00     0.198 A 
ATOM     94  F   UNL A   1      41.843  35.599  35.705  1.00  0.00    -0.203 F 
ATOM     95  F   UNL A   1      38.608  34.465  39.951  1.00  0.00    -0.200 F 
ATOM     96  C   UNL A   1      40.209  35.869  38.928  1.00  0.00     0.200 A 
ATOM     97  F   UNL A   1      41.801  37.244  37.856  1.00  0.00    -0.200 F 
ATOM     98  F   UNL A   1      40.172  36.701  39.976  1.00  0.00    -0.200 F 
ENDBRANCH  64  88
BRANCH  76  99
ATOM     99  C   UNL A   1      44.391  28.862  34.803  1.00  0.00     0.064 A 
ATOM    100  C   UNL A   1      44.301  27.780  35.690  1.00  0.00     0.173 A 
ATOM    101  C   UNL A   1      45.667  29.343  34.477  1.00  0.00     0.173 A 
ATOM    102  F   UNL A   1      43.100  27.296  36.045  1.00  0.00    -0.203 F 
ATOM    103  C   UNL A   1      45.445  27.215  36.246  1.00  0.00     0.198 A 
ATOM    104  C   UNL A   1      46.810  28.759  35.014  1.00  0.00     0.198 A 
ATOM    105  F   UNL A   1      45.806  30.374  33.630  1.00  0.00    -0.203 F 
ATOM    106  F   UNL A   1      45.335  26.209  37.124  1.00  0.00    -0.200 F 
ATOM    107  C   UNL A   1      46.698  27.700  35.902  1.00  0.00     0.200 A 
ATOM    108  F   UNL A   1      48.021  29.222  34.673  1.00  0.00    -0.200 F 
ATOM    109  F   UNL A   1      47.799  27.150  36.433  1.00  0.00    -0.200 F 
ENDBRANCH  76  99
ENDBRANCH  50  51
ENDBRANCH  42  45
ENDBRANCH  40  41
ENDBRANCH  39  40
ENDBRANCH  38  39
ENDBRANCH  37  38
ENDBRANCH   1  37
TORSDOF 19
ENDMDL
MODEL 2
REMARK VINA RESULT:     -12.2      0.444      6.766
REMARK SMILES CCOC(=O)c1c(-c2cccc3ccccc23)csc1NC(=O)[C@H]1CC=CC[C@H]1C(=O)NCCCCCCNC(=O)c1ccc(-c2c3nc(c(-c4c(F)c(F)c(F)c(F)c4F)c4ccc([nH]4)c(-c4c(F)c(F)c(F)c(F)c4F)c4nc(c(-c5c(F)c(F)c(F)c(F)c5F)c5ccc2[nH]5)C=C4)C=C3)cc1
REMARK SMILES IDX 34 1 33 2 32 3 30 4 31 5 29 7 24 8 25 9 26 10 28 11 27 12
REMARK SMILES IDX 22 13 21 14 23 16 20 17 6 18 7 19 18 20 19 21 4 22 5 23 3 24
REMARK SMILES IDX 2 25 1 26 8 27 9 28 17 29 10 30 12 31 16 32 11 33 13 34
REMARK SMILES IDX 15 35 14 36 35 37 36 38 37 39 38 40 39 41 40 42 41 44 42 45
REMARK SMILES IDX 43 46 104 47 44 48 103 49 45 50 46 51 47 52 97 53 48 54
REMARK SMILES IDX 102 55 96 56 98 57 49 58 101 59 95 60 94 61 50 63 82 64
REMARK SMILES IDX 62 65 81 66 63 67 66 68 80 69 99 70 64 71 65 72 79 74 100 75
REMARK SMILES IDX 67 76 51 77 52 78 60 79 53 80 54 81 58 82 61 83 55 84 56 85
REMARK SMILES IDX 59 86 57 87 83 88 84 89 92 90 85 91 86 92 90 93 93 94 87 95
REMARK SMILES IDX 88 96 91 97 89 98 68 99 69 100 77 101 70 102 71 103 75 104
REMARK SMILES IDX 78 105 72 106 73 107 76 108 74 109
REMARK H PARENT 32 6 21 15 39 43 98 62 66 73
REMARK Flexibility Score: inf
ROOT
ATOM      1  C   UNL A   1      34.743  29.780  27.456  1.00  0.00     0.021 C 
ENDROOT
BRANCH   1   2
ATOM      2  C   UNL A   1      34.278  29.025  26.211  1.00  0.00     0.116 C 
BRANCH   2   3
ATOM      3  N   UNL A   1      33.474  27.896  26.607  1.00  0.00    -0.356 N 
ATOM      4  C   UNL A   1      32.252  27.500  26.197  1.00  0.00     0.224 C 
ATOM      5  O   UNL A   1      31.663  26.702  26.937  1.00  0.00    -0.275 OA
ATOM      6  H   UNL A   1      33.885  27.319  27.291  1.00  0.00     0.163 HD
BRANCH   4   7
ATOM      7  C   UNL A   1      31.620  27.900  24.870  1.00  0.00     0.095 C 
ATOM      8  C   UNL A   1      31.152  26.832  23.864  1.00  0.00     0.095 C 
ATOM      9  C   UNL A   1      31.141  27.452  22.454  1.00  0.00     0.041 C 
ATOM     10  C   UNL A   1      30.788  28.924  22.420  1.00  0.00    -0.030 C 
ATOM     11  C   UNL A   1      30.716  29.127  24.916  1.00  0.00     0.041 C 
ATOM     12  C   UNL A   1      30.542  29.662  23.518  1.00  0.00    -0.030 C 
BRANCH   8  13
ATOM     13  C   UNL A   1      29.966  25.911  24.229  1.00  0.00     0.229 C 
ATOM     14  N   UNL A   1      29.967  24.597  24.583  1.00  0.00    -0.317 N 
ATOM     15  H   UNL A   1      29.107  24.156  24.399  1.00  0.00     0.170 HD
ATOM     16  O   UNL A   1      28.825  26.378  24.060  1.00  0.00    -0.274 OA
BRANCH  14  17
ATOM     17  C   UNL A   1      30.891  23.741  25.140  1.00  0.00     0.110 A 
ATOM     18  C   UNL A   1      31.811  22.911  24.504  1.00  0.00     0.102 A 
ATOM     19  C   UNL A   1      32.705  22.302  25.475  1.00  0.00     0.010 A 
ATOM     20  C   UNL A   1      32.211  22.481  26.755  1.00  0.00     0.076 A 
ATOM     21  S   UNL A   1      30.683  23.219  26.737  1.00  0.00    -0.125 S 
BRANCH  18  22
ATOM     22  C   UNL A   1      31.854  22.743  23.057  1.00  0.00     0.341 C 
ATOM     23  O   UNL A   1      31.781  21.654  22.506  1.00  0.00    -0.246 OA
BRANCH  22  24
ATOM     24  O   UNL A   1      32.115  23.925  22.433  1.00  0.00    -0.462 OA
BRANCH  24  25
ATOM     25  C   UNL A   1      33.471  24.189  22.046  1.00  0.00     0.230 C 
ATOM     26  C   UNL A   1      34.096  25.295  22.881  1.00  0.00     0.049 C 
ENDBRANCH  24  25
ENDBRANCH  22  24
ENDBRANCH  18  22
BRANCH  19  27
ATOM     27  C   UNL A   1      33.934  21.511  25.278  1.00  0.00    -0.009 A 
ATOM     28  C   UNL A   1      33.772  20.137  25.003  1.00  0.00     0.009 A 
ATOM     29  C   UNL A   1      35.252  22.057  25.385  1.00  0.00    -0.010 A 
ATOM     30  C   UNL A   1      34.867  19.299  24.842  1.00  0.00     0.001 A 
ATOM     31  C   UNL A   1      36.357  21.186  25.170  1.00  0.00    -0.018 A 
ATOM     32  C   UNL A   1      35.562  23.403  25.709  1.00  0.00     0.009 A 
ATOM     33  C   UNL A   1      36.149  19.824  24.917  1.00  0.00     0.009 A 
ATOM     34  C   UNL A   1      37.673  21.673  25.219  1.00  0.00     0.009 A 
ATOM     35  C   UNL A   1      36.879  23.876  25.746  1.00  0.00     0.001 A 
ATOM     36  C   UNL A   1      37.934  23.013  25.491  1.00  0.00     0.001 A 
ENDBRANCH  19  27
ENDBRANCH  14  17
ENDBRANCH   8  13
ENDBRANCH   4   7
ENDBRANCH   2   3
ENDBRANCH   1   2
BRANCH   1  37
ATOM     37  C   UNL A   1      34.082  31.153  27.629  1.00  0.00     0.002 C 
BRANCH  37  38
ATOM     38  C   UNL A   1      32.599  31.206  27.249  1.00  0.00     0.002 C 
BRANCH  38  39
ATOM     39  C   UNL A   1      31.976  32.604  27.266  1.00  0.00     0.021 C 
BRANCH  39  40
ATOM     40  C   UNL A   1      32.981  33.751  27.193  1.00  0.00     0.116 C 
BRANCH  40  41
ATOM     41  N   UNL A   1      32.585  34.872  28.030  1.00  0.00    -0.352 N 
ATOM     42  C   UNL A   1      32.995  35.203  29.295  1.00  0.00     0.251 C 
ATOM     43  H   UNL A   1      31.926  35.483  27.629  1.00  0.00     0.163 HD
ATOM     44  O   UNL A   1      32.400  36.065  29.935  1.00  0.00    -0.269 OA
BRANCH  42  45
ATOM     45  C   UNL A   1      34.152  34.512  29.901  1.00  0.00     0.039 A 
ATOM     46  C   UNL A   1      33.965  33.798  31.087  1.00  0.00     0.014 A 
ATOM     47  C   UNL A   1      35.421  34.594  29.320  1.00  0.00     0.014 A 
ATOM     48  C   UNL A   1      35.042  33.124  31.667  1.00  0.00     0.010 A 
ATOM     49  C   UNL A   1      36.481  33.874  29.866  1.00  0.00     0.010 A 
ATOM     50  C   UNL A   1      36.301  33.138  31.047  1.00  0.00    -0.014 A 
BRANCH  50  51
ATOM     51  C   UNL A   1      37.448  32.395  31.625  1.00  0.00     0.031 A 
ATOM     52  C   UNL A   1      38.000  32.788  32.967  1.00  0.00     0.074 A 
ATOM     53  C   UNL A   1      38.031  31.411  30.915  1.00  0.00     0.049 A 
ATOM     54  N   UNL A   1      39.037  32.312  33.607  1.00  0.00    -0.248 NA
ATOM     55  C   UNL A   1      37.306  33.876  33.674  1.00  0.00     0.031 C 
ATOM     56  C   UNL A   1      37.609  30.966  29.585  1.00  0.00     0.029 A 
ATOM     57  N   UNL A   1      39.108  30.614  31.207  1.00  0.00    -0.354 N 
ATOM     58  C   UNL A   1      39.135  33.057  34.775  1.00  0.00     0.074 A 
ATOM     59  C   UNL A   1      38.074  34.040  34.741  1.00  0.00     0.031 C 
ATOM     60  C   UNL A   1      38.407  29.961  29.187  1.00  0.00     0.029 A 
ATOM     61  C   UNL A   1      39.414  29.716  30.215  1.00  0.00     0.049 A 
ATOM     62  H   UNL A   1      39.615  30.681  32.049  1.00  0.00     0.167 HD
ATOM     63  C   UNL A   1      40.020  32.921  35.790  1.00  0.00     0.037 A 
ATOM     64  C   UNL A   1      40.399  28.801  30.143  1.00  0.00     0.037 A 
ATOM     65  C   UNL A   1      41.049  31.914  35.840  1.00  0.00     0.049 A 
ATOM     66  C   UNL A   1      41.360  28.664  31.292  1.00  0.00     0.074 A 
ATOM     67  C   UNL A   1      41.945  31.646  36.861  1.00  0.00     0.029 A 
ATOM     68  N   UNL A   1      41.315  31.009  34.824  1.00  0.00    -0.354 N 
ATOM     69  N   UNL A   1      41.402  29.330  32.419  1.00  0.00    -0.248 NA
ATOM     70  C   UNL A   1      42.411  27.645  31.157  1.00  0.00     0.031 C 
ATOM     71  C   UNL A   1      42.778  30.602  36.447  1.00  0.00     0.029 A 
ATOM     72  C   UNL A   1      42.375  30.193  35.186  1.00  0.00     0.049 A 
ATOM     73  H   UNL A   1      40.823  30.954  33.974  1.00  0.00     0.167 HD
ATOM     74  C   UNL A   1      42.459  28.792  33.141  1.00  0.00     0.074 A 
ATOM     75  C   UNL A   1      43.028  27.738  32.328  1.00  0.00     0.031 C 
ATOM     76  C   UNL A   1      42.919  29.141  34.368  1.00  0.00     0.037 A 
BRANCH  63  77
ATOM     77  C   UNL A   1      39.918  33.882  36.937  1.00  0.00     0.064 A 
ATOM     78  C   UNL A   1      40.613  35.101  36.940  1.00  0.00     0.173 A 
ATOM     79  C   UNL A   1      39.077  33.602  38.024  1.00  0.00     0.173 A 
ATOM     80  F   UNL A   1      41.437  35.409  35.927  1.00  0.00    -0.203 F 
ATOM     81  C   UNL A   1      40.486  35.995  38.000  1.00  0.00     0.198 A 
ATOM     82  C   UNL A   1      38.932  34.510  39.070  1.00  0.00     0.198 A 
ATOM     83  F   UNL A   1      38.386  32.454  38.067  1.00  0.00    -0.203 F 
ATOM     84  F   UNL A   1      41.189  37.135  37.999  1.00  0.00    -0.200 F 
ATOM     85  C   UNL A   1      39.640  35.702  39.060  1.00  0.00     0.200 A 
ATOM     86  F   UNL A   1      38.107  34.232  40.088  1.00  0.00    -0.200 F 
ATOM     87  F   UNL A   1      39.513  36.568  40.075  1.00  0.00    -0.200 F 
ENDBRANCH  63  77
BRANCH  64  88
ATOM     88  C   UNL A   1      40.510  27.921  28.952  1.00  0.00     0.064 A 
ATOM     89  C   UNL A   1      41.290  28.302  27.850  1.00  0.00     0.173 A 
ATOM     90  C   UNL A   1      39.838  26.693  28.884  1.00  0.00     0.173 A 
ATOM     91  F   UNL A   1      41.934  29.478  27.862  1.00  0.00    -0.203 F 
ATOM     92  C   UNL A   1      41.375  27.497  26.717  1.00  0.00     0.198 A 
ATOM     93  C   UNL A   1      39.944  25.877  27.760  1.00  0.00     0.198 A 
ATOM     94  F   UNL A   1      39.085  26.280  29.914  1.00  0.00    -0.203 F 
ATOM     95  F   UNL A   1      42.091  27.905  25.661  1.00  0.00    -0.200 F 
ATOM     96  C   UNL A   1      40.706  26.283  26.674  1.00  0.00     0.200 A 
ATOM     97  F   UNL A   1      39.307  24.699  27.727  1.00  0.00    -0.200 F 
ATOM     98  F   UNL A   1      40.789  25.509  25.584  1.00  0.00    -0.200 F 
ENDBRANCH  64  88
BRANCH  76  99
ATOM     99  C   UNL A   1      44.069  28.352  34.920  1.00  0.00     0.064 A 
ATOM    100  C   UNL A   1      43.865  27.175  35.653  1.00  0.00     0.173 A 
ATOM    101  C   UNL A   1      45.389  28.759  34.678  1.00  0.00     0.173 A 
ATOM    102  F   UNL A   1      42.620  26.755  35.924  1.00  0.00    -0.203 F 
ATOM    103  C   UNL A   1      44.944  26.443  36.143  1.00  0.00     0.198 A 
ATOM    104  C   UNL A   1      46.465  28.012  35.146  1.00  0.00     0.198 A 
ATOM    105  F   UNL A   1      45.635  29.877  33.978  1.00  0.00    -0.203 F 
ATOM    106  F   UNL A   1      44.727  25.343  36.877  1.00  0.00    -0.200 F 
ATOM    107  C   UNL A   1      46.241  26.858  35.883  1.00  0.00     0.200 A 
ATOM    108  F   UNL A   1      47.719  28.408  34.886  1.00  0.00    -0.200 F 
ATOM    109  F   UNL A   1      47.279  26.149  36.350  1.00  0.00    -0.200 F 
ENDBRANCH  76  99
ENDBRANCH  50  51
ENDBRANCH  42  45
ENDBRANCH  40  41
ENDBRANCH  39  40
ENDBRANCH  38  39
ENDBRANCH  37  38
ENDBRANCH   1  37
TORSDOF 19
ENDMDL
MODEL 3
REMARK VINA RESULT:     -11.8      0.840      7.042
REMARK SMILES CCOC(=O)c1c(-c2cccc3ccccc23)csc1NC(=O)[C@H]1CC=CC[C@H]1C(=O)NCCCCCCNC(=O)c1ccc(-c2c3nc(c(-c4c(F)c(F)c(F)c(F)c4F)c4ccc([nH]4)c(-c4c(F)c(F)c(F)c(F)c4F)c4nc(c(-c5c(F)c(F)c(F)c(F)c5F)c5ccc2[nH]5)C=C4)C=C3)cc1
REMARK SMILES IDX 34 1 33 2 32 3 30 4 31 5 29 7 24 8 25 9 26 10 28 11 27 12
REMARK SMILES IDX 22 13 21 14 23 16 20 17 6 18 7 19 18 20 19 21 4 22 5 23 3 24
REMARK SMILES IDX 2 25 1 26 8 27 9 28 17 29 10 30 12 31 16 32 11 33 13 34
REMARK SMILES IDX 15 35 14 36 35 37 36 38 37 39 38 40 39 41 40 42 41 44 42 45
REMARK SMILES IDX 43 46 104 47 44 48 103 49 45 50 46 51 47 52 97 53 48 54
REMARK SMILES IDX 102 55 96 56 98 57 49 58 101 59 95 60 94 61 50 63 82 64
REMARK SMILES IDX 62 65 81 66 63 67 66 68 80 69 99 70 64 71 65 72 79 74 100 75
REMARK SMILES IDX 67 76 51 77 52 78 60 79 53 80 54 81 58 82 61 83 55 84 56 85
REMARK SMILES IDX 59 86 57 87 83 88 84 89 92 90 85 91 86 92 90 93 93 94 87 95
REMARK SMILES IDX 88 96 91 97 89 98 68 99 69 100 77 101 70 102 71 103 75 104
REMARK SMILES IDX 78 105 72 106 73 107 76 108 74 109
REMARK H PARENT 32 6 21 15 39 43 98 62 66 73
REMARK Flexibility Score: inf
ROOT
ATOM      1  C   UNL A   1      34.862  29.611  27.259  1.00  0.00     0.021 C 
ENDROOT
BRANCH   1   2
ATOM      2  C   UNL A   1      34.361  28.890  26.007  1.00  0.00     0.116 C 
BRANCH   2   3
ATOM      3  N   UNL A   1      33.571  27.750  26.395  1.00  0.00    -0.356 N 
ATOM      4  C   UNL A   1      32.318  27.388  26.047  1.00  0.00     0.224 C 
ATOM      5  O   UNL A   1      31.769  26.558  26.782  1.00  0.00    -0.275 OA
ATOM      6  H   UNL A   1      34.018  27.132  27.018  1.00  0.00     0.163 HD
BRANCH   4   7
ATOM      7  C   UNL A   1      31.605  27.866  24.790  1.00  0.00     0.095 C 
ATOM      8  C   UNL A   1      31.108  26.862  23.733  1.00  0.00     0.095 C 
ATOM      9  C   UNL A   1      31.005  27.583  22.376  1.00  0.00     0.041 C 
ATOM     10  C   UNL A   1      30.616  29.043  22.471  1.00  0.00    -0.030 C 
ATOM     11  C   UNL A   1      30.676  29.060  24.975  1.00  0.00     0.041 C 
ATOM     12  C   UNL A   1      30.412  29.692  23.632  1.00  0.00    -0.030 C 
BRANCH   8  13
ATOM     13  C   UNL A   1      29.967  25.884  24.091  1.00  0.00     0.229 C 
ATOM     14  N   UNL A   1      30.033  24.583  24.485  1.00  0.00    -0.317 N 
ATOM     15  H   UNL A   1      29.206  24.087  24.288  1.00  0.00     0.170 HD
ATOM     16  O   UNL A   1      28.807  26.278  23.874  1.00  0.00    -0.274 OA
BRANCH  14  17
ATOM     17  C   UNL A   1      30.988  23.799  25.094  1.00  0.00     0.110 A 
ATOM     18  C   UNL A   1      32.019  23.065  24.513  1.00  0.00     0.102 A 
ATOM     19  C   UNL A   1      32.893  22.516  25.537  1.00  0.00     0.010 A 
ATOM     20  C   UNL A   1      32.297  22.625  26.780  1.00  0.00     0.076 A 
ATOM     21  S   UNL A   1      30.714  23.227  26.664  1.00  0.00    -0.125 S 
BRANCH  18  22
ATOM     22  C   UNL A   1      32.178  22.932  23.071  1.00  0.00     0.341 C 
ATOM     23  O   UNL A   1      32.069  21.867  22.479  1.00  0.00    -0.246 OA
BRANCH  22  24
ATOM     24  O   UNL A   1      32.588  24.104  22.512  1.00  0.00    -0.462 OA
BRANCH  24  25
ATOM     25  C   UNL A   1      32.693  24.160  21.082  1.00  0.00     0.230 C 
ATOM     26  C   UNL A   1      32.903  25.580  20.581  1.00  0.00     0.049 C 
ENDBRANCH  24  25
ENDBRANCH  22  24
ENDBRANCH  18  22
BRANCH  19  27
ATOM     27  C   UNL A   1      34.198  21.839  25.417  1.00  0.00    -0.009 A 
ATOM     28  C   UNL A   1      35.346  22.618  25.671  1.00  0.00     0.009 A 
ATOM     29  C   UNL A   1      34.346  20.469  25.033  1.00  0.00    -0.010 A 
ATOM     30  C   UNL A   1      36.622  22.085  25.545  1.00  0.00     0.001 A 
ATOM     31  C   UNL A   1      35.664  19.934  24.957  1.00  0.00    -0.018 A 
ATOM     32  C   UNL A   1      33.286  19.589  24.697  1.00  0.00     0.009 A 
ATOM     33  C   UNL A   1      36.777  20.750  25.200  1.00  0.00     0.009 A 
ATOM     34  C   UNL A   1      35.871  18.585  24.627  1.00  0.00     0.009 A 
ATOM     35  C   UNL A   1      33.508  18.243  24.379  1.00  0.00     0.001 A 
ATOM     36  C   UNL A   1      34.799  17.740  24.353  1.00  0.00     0.001 A 
ENDBRANCH  19  27
ENDBRANCH  14  17
ENDBRANCH   8  13
ENDBRANCH   4   7
ENDBRANCH   2   3
ENDBRANCH   1   2
BRANCH   1  37
ATOM     37  C   UNL A   1      34.128  30.926  27.550  1.00  0.00     0.002 C 
BRANCH  37  38
ATOM     38  C   UNL A   1      32.621  30.894  27.279  1.00  0.00     0.002 C 
BRANCH  38  39
ATOM     39  C   UNL A   1      31.940  32.265  27.249  1.00  0.00     0.021 C 
BRANCH  39  40
ATOM     40  C   UNL A   1      32.871  33.433  26.930  1.00  0.00     0.116 C 
BRANCH  40  41
ATOM     41  N   UNL A   1      32.604  34.585  27.775  1.00  0.00    -0.352 N 
ATOM     42  C   UNL A   1      33.104  34.894  29.012  1.00  0.00     0.251 C 
ATOM     43  H   UNL A   1      31.970  35.240  27.403  1.00  0.00     0.163 HD
ATOM     44  O   UNL A   1      32.609  35.801  29.674  1.00  0.00    -0.269 OA
BRANCH  42  45
ATOM     45  C   UNL A   1      34.239  34.124  29.562  1.00  0.00     0.039 A 
ATOM     46  C   UNL A   1      35.535  34.449  29.152  1.00  0.00     0.014 A 
ATOM     47  C   UNL A   1      34.026  33.067  30.451  1.00  0.00     0.014 A 
ATOM     48  C   UNL A   1      36.623  33.745  29.673  1.00  0.00     0.010 A 
ATOM     49  C   UNL A   1      35.114  32.404  31.014  1.00  0.00     0.010 A 
ATOM     50  C   UNL A   1      36.421  32.734  30.625  1.00  0.00    -0.014 A 
BRANCH  50  51
ATOM     51  C   UNL A   1      37.566  32.002  31.219  1.00  0.00     0.031 A 
ATOM     52  C   UNL A   1      38.040  32.342  32.605  1.00  0.00     0.074 A 
ATOM     53  C   UNL A   1      38.216  31.077  30.489  1.00  0.00     0.049 A 
ATOM     54  N   UNL A   1      39.064  31.869  33.269  1.00  0.00    -0.248 NA
ATOM     55  C   UNL A   1      37.275  33.367  33.332  1.00  0.00     0.031 C 
ATOM     56  C   UNL A   1      37.874  30.688  29.120  1.00  0.00     0.029 A 
ATOM     57  N   UNL A   1      39.308  30.302  30.792  1.00  0.00    -0.354 N 
ATOM     58  C   UNL A   1      39.080  32.554  34.477  1.00  0.00     0.074 A 
ATOM     59  C   UNL A   1      37.987  33.500  34.442  1.00  0.00     0.031 C 
ATOM     60  C   UNL A   1      38.725  29.733  28.709  1.00  0.00     0.029 A 
ATOM     61  C   UNL A   1      39.692  29.468  29.771  1.00  0.00     0.049 A 
ATOM     62  H   UNL A   1      39.772  30.342  31.659  1.00  0.00     0.167 HD
ATOM     63  C   UNL A   1      39.922  32.395  35.524  1.00  0.00     0.037 A 
ATOM     64  C   UNL A   1      40.711  28.593  29.700  1.00  0.00     0.037 A 
ATOM     65  C   UNL A   1      40.983  31.423  35.573  1.00  0.00     0.049 A 
ATOM     66  C   UNL A   1      41.623  28.428  30.885  1.00  0.00     0.074 A 
ATOM     67  C   UNL A   1      41.840  31.132  36.620  1.00  0.00     0.029 A 
ATOM     68  N   UNL A   1      41.328  30.581  34.526  1.00  0.00    -0.354 N 
ATOM     69  N   UNL A   1      41.588  29.035  32.046  1.00  0.00    -0.248 NA
ATOM     70  C   UNL A   1      42.716  27.455  30.750  1.00  0.00     0.031 C 
ATOM     71  C   UNL A   1      42.729  30.140  36.194  1.00  0.00     0.029 A 
ATOM     72  C   UNL A   1      42.399  29.785  34.896  1.00  0.00     0.049 A 
ATOM     73  H   UNL A   1      40.879  30.554  33.651  1.00  0.00     0.167 HD
ATOM     74  C   UNL A   1      42.629  28.496  32.789  1.00  0.00     0.074 A 
ATOM     75  C   UNL A   1      43.274  27.507  31.952  1.00  0.00     0.031 C 
ATOM     76  C   UNL A   1      43.019  28.796  34.053  1.00  0.00     0.037 A 
BRANCH  63  77
ATOM     77  C   UNL A   1      39.732  33.290  36.713  1.00  0.00     0.064 A 
ATOM     78  C   UNL A   1      38.839  32.963  37.745  1.00  0.00     0.173 A 
ATOM     79  C   UNL A   1      40.486  34.465  36.844  1.00  0.00     0.173 A 
ATOM     80  F   UNL A   1      38.088  31.854  37.661  1.00  0.00    -0.203 F 
ATOM     81  C   UNL A   1      38.695  33.791  38.855  1.00  0.00     0.198 A 
ATOM     82  C   UNL A   1      40.357  35.277  37.968  1.00  0.00     0.198 A 
ATOM     83  F   UNL A   1      41.357  34.820  35.888  1.00  0.00    -0.203 F 
ATOM     84  F   UNL A   1      37.808  33.478  39.810  1.00  0.00    -0.200 F 
ATOM     85  C   UNL A   1      39.458  34.943  38.969  1.00  0.00     0.200 A 
ATOM     86  F   UNL A   1      41.104  36.384  38.083  1.00  0.00    -0.200 F 
ATOM     87  F   UNL A   1      39.323  35.734  40.042  1.00  0.00    -0.200 F 
ENDBRANCH  63  77
BRANCH  64  88
ATOM     88  C   UNL A   1      40.910  27.781  28.472  1.00  0.00     0.064 A 
ATOM     89  C   UNL A   1      41.761  28.225  27.450  1.00  0.00     0.173 A 
ATOM     90  C   UNL A   1      40.252  26.557  28.290  1.00  0.00     0.173 A 
ATOM     91  F   UNL A   1      42.395  29.400  27.571  1.00  0.00    -0.203 F 
ATOM     92  C   UNL A   1      41.928  27.485  26.282  1.00  0.00     0.198 A 
ATOM     93  C   UNL A   1      40.440  25.805  27.132  1.00  0.00     0.198 A 
ATOM     94  F   UNL A   1      39.433  26.085  29.242  1.00  0.00    -0.203 F 
ATOM     95  F   UNL A   1      42.713  27.953  25.302  1.00  0.00    -0.200 F 
ATOM     96  C   UNL A   1      41.272  26.273  26.126  1.00  0.00     0.200 A 
ATOM     97  F   UNL A   1      39.814  24.629  26.991  1.00  0.00    -0.200 F 
ATOM     98  F   UNL A   1      41.434  25.562  25.003  1.00  0.00    -0.200 F 
ENDBRANCH  64  88
BRANCH  76  99
ATOM     99  C   UNL A   1      44.170  28.019  34.619  1.00  0.00     0.064 A 
ATOM    100  C   UNL A   1      45.487  28.492  34.533  1.00  0.00     0.173 A 
ATOM    101  C   UNL A   1      43.947  26.807  35.289  1.00  0.00     0.173 A 
ATOM    102  F   UNL A   1      45.752  29.638  33.887  1.00  0.00    -0.203 F 
ATOM    103  C   UNL A   1      46.542  27.768  35.081  1.00  0.00     0.198 A 
ATOM    104  C   UNL A   1      45.001  26.100  35.858  1.00  0.00     0.198 A 
ATOM    105  F   UNL A   1      42.704  26.315  35.401  1.00  0.00    -0.203 F 
ATOM    106  F   UNL A   1      47.799  28.217  34.951  1.00  0.00    -0.200 F 
ATOM    107  C   UNL A   1      46.298  26.578  35.748  1.00  0.00     0.200 A 
ATOM    108  F   UNL A   1      44.762  24.954  36.512  1.00  0.00    -0.200 F 
ATOM    109  F   UNL A   1      47.315  25.885  36.281  1.00  0.00    -0.200 F 
ENDBRANCH  76  99
ENDBRANCH  50  51
ENDBRANCH  42  45
ENDBRANCH  40  41
ENDBRANCH  39  40
ENDBRANCH  38  39
ENDBRANCH  37  38
ENDBRANCH   1  37
TORSDOF 19
ENDMDL
