MODEL 1
REMARK VINA RESULT:     -11.7      0.000      0.000
REMARK SMILES Cc1cc(C(=O)N2C[C@@H](C(=O)NCCCCCCNC(=O)c3ccc(-c4c5nc(c(-c6c(F)c(F)c(F)c(F)c6F)c6ccc([nH]6)c(-c6c(F)c(F)c(F)c(F)c6F)c6nc(c(-c7c(F)c(F)c(F)c(F)c7F)c7ccc4[nH]7)C=C6)C=C5)cc3)[C@H](C(C)C)C2)cs1
REMARK SMILES IDX 15 1 14 2 13 3 12 4 10 5 11 6 9 8 7 9 8 10 89 11 85 12 5 13
REMARK SMILES IDX 6 14 4 15 1 16 2 17 3 18 91 19 90 20 86 21 87 22 88 23 16 24
REMARK SMILES IDX 17 25 18 26 19 27 20 28 21 30 22 31 23 32 84 33 24 34 83 35
REMARK SMILES IDX 25 36 26 37 27 38 77 39 28 40 82 41 76 42 78 43 29 44 81 45
REMARK SMILES IDX 75 46 74 47 30 49 62 50 42 51 61 52 43 53 46 54 60 55 79 56
REMARK SMILES IDX 44 57 45 58 59 60 80 61 47 62 31 63 32 64 40 65 33 66 34 67
REMARK SMILES IDX 38 68 41 69 35 70 36 71 39 72 37 73 63 74 64 75 72 76 65 77
REMARK SMILES IDX 66 78 70 79 73 80 67 81 68 82 71 83 69 84 48 85 49 86 57 87
REMARK SMILES IDX 50 88 51 89 55 90 58 91 52 92 53 93 56 94 54 95
REMARK H PARENT 12 7 19 29 78 48 46 59
REMARK Flexibility Score: inf
ROOT
ATOM      1  C   UNL A   1      32.819  29.452  26.512  1.00  0.00     0.002 C 
ENDROOT
BRANCH   1   2
ATOM      2  C   UNL A   1      33.677  28.654  25.520  1.00  0.00     0.021 C 
BRANCH   2   3
ATOM      3  C   UNL A   1      33.594  29.179  24.083  1.00  0.00     0.116 C 
BRANCH   3   4
ATOM      4  N   UNL A   1      33.814  28.093  23.150  1.00  0.00    -0.356 N 
ATOM      5  C   UNL A   1      33.115  26.951  22.921  1.00  0.00     0.225 C 
ATOM      6  O   UNL A   1      33.787  26.001  22.511  1.00  0.00    -0.275 OA
ATOM      7  H   UNL A   1      34.610  28.201  22.582  1.00  0.00     0.163 HD
BRANCH   5   8
ATOM      8  C   UNL A   1      31.587  26.879  22.983  1.00  0.00     0.103 C 
ATOM      9  N   UNL A   1      29.582  28.005  23.415  1.00  0.00    -0.337 N 
ATOM     10  C   UNL A   1      30.839  28.173  22.725  1.00  0.00     0.133 C 
ATOM     11  C   UNL A   1      29.784  27.254  24.626  1.00  0.00     0.124 C 
ATOM     12  C   UNL A   1      31.073  26.434  24.396  1.00  0.00     0.025 C 
BRANCH   9  13
ATOM     13  C   UNL A   1      28.364  28.600  23.139  1.00  0.00     0.254 C 
ATOM     14  O   UNL A   1      27.311  27.962  23.192  1.00  0.00    -0.269 OA
BRANCH  13  15
ATOM     15  C   UNL A   1      28.367  30.003  22.715  1.00  0.00     0.050 A 
ATOM     16  C   UNL A   1      29.110  33.695  23.244  1.00  0.00     0.056 C 
ATOM     17  C   UNL A   1      28.740  32.328  22.779  1.00  0.00     0.002 A 
ATOM     18  C   UNL A   1      28.807  31.142  23.479  1.00  0.00     0.029 A 
ATOM     19  S   UNL A   1      28.191  32.078  21.182  1.00  0.00    -0.148 S 
ATOM     20  C   UNL A   1      28.054  30.392  21.425  1.00  0.00     0.079 A 
ENDBRANCH  13  15
ENDBRANCH   9  13
BRANCH  12  21
ATOM     21  C   UNL A   1      30.806  24.909  24.541  1.00  0.00    -0.012 C 
ATOM     22  C   UNL A   1      30.651  24.178  23.206  1.00  0.00     0.008 C 
ATOM     23  C   UNL A   1      31.936  24.228  25.329  1.00  0.00     0.008 C 
ENDBRANCH  12  21
ENDBRANCH   5   8
ENDBRANCH   3   4
ENDBRANCH   2   3
ENDBRANCH   1   2
BRANCH   1  24
ATOM     24  C   UNL A   1      31.676  30.255  25.879  1.00  0.00     0.002 C 
BRANCH  24  25
ATOM     25  C   UNL A   1      31.447  31.642  26.487  1.00  0.00     0.021 C 
BRANCH  25  26
ATOM     26  C   UNL A   1      32.694  32.278  27.092  1.00  0.00     0.116 C 
BRANCH  26  27
ATOM     27  N   UNL A   1      32.481  33.676  27.428  1.00  0.00    -0.352 N 
ATOM     28  C   UNL A   1      33.085  34.437  28.398  1.00  0.00     0.251 C 
ATOM     29  H   UNL A   1      31.807  34.143  26.883  1.00  0.00     0.163 HD
ATOM     30  O   UNL A   1      32.643  35.542  28.683  1.00  0.00    -0.269 OA
BRANCH  28  31
ATOM     31  C   UNL A   1      34.268  33.911  29.112  1.00  0.00     0.039 A 
ATOM     32  C   UNL A   1      34.076  33.025  30.175  1.00  0.00     0.014 A 
ATOM     33  C   UNL A   1      35.558  34.307  28.749  1.00  0.00     0.014 A 
ATOM     34  C   UNL A   1      35.181  32.499  30.846  1.00  0.00     0.010 A 
ATOM     35  C   UNL A   1      36.661  33.736  29.377  1.00  0.00     0.010 A 
ATOM     36  C   UNL A   1      36.482  32.833  30.437  1.00  0.00    -0.014 A 
BRANCH  36  37
ATOM     37  C   UNL A   1      37.669  32.256  31.112  1.00  0.00     0.031 A 
ATOM     38  C   UNL A   1      38.421  31.122  30.476  1.00  0.00     0.074 A 
ATOM     39  C   UNL A   1      38.020  32.699  32.334  1.00  0.00     0.049 A 
ATOM     40  N   UNL A   1      39.435  30.438  30.940  1.00  0.00    -0.248 NA
ATOM     41  C   UNL A   1      37.947  30.679  29.156  1.00  0.00     0.031 C 
ATOM     42  C   UNL A   1      37.328  33.748  33.080  1.00  0.00     0.029 A 
ATOM     43  N   UNL A   1      39.034  32.305  33.170  1.00  0.00    -0.354 N 
ATOM     44  C   UNL A   1      39.706  29.471  29.980  1.00  0.00     0.074 A 
ATOM     45  C   UNL A   1      38.720  29.626  28.933  1.00  0.00     0.031 C 
ATOM     46  C   UNL A   1      37.939  33.919  34.264  1.00  0.00     0.029 A 
ATOM     47  C   UNL A   1      39.049  32.975  34.367  1.00  0.00     0.049 A 
ATOM     48  H   UNL A   1      39.689  31.610  32.933  1.00  0.00     0.167 HD
ATOM     49  C   UNL A   1      40.700  28.550  29.966  1.00  0.00     0.037 A 
ATOM     50  C   UNL A   1      39.860  32.838  35.432  1.00  0.00     0.037 A 
ATOM     51  C   UNL A   1      41.697  28.421  30.997  1.00  0.00     0.049 A 
ATOM     52  C   UNL A   1      40.978  31.836  35.381  1.00  0.00     0.074 A 
ATOM     53  C   UNL A   1      42.797  27.582  31.035  1.00  0.00     0.029 A 
ATOM     54  N   UNL A   1      41.710  29.151  32.177  1.00  0.00    -0.354 N 
ATOM     55  N   UNL A   1      41.282  30.985  34.431  1.00  0.00    -0.248 NA
ATOM     56  C   UNL A   1      41.876  31.784  36.543  1.00  0.00     0.031 C 
ATOM     57  C   UNL A   1      43.451  27.775  32.257  1.00  0.00     0.029 A 
ATOM     58  C   UNL A   1      42.785  28.765  32.961  1.00  0.00     0.049 A 
ATOM     59  H   UNL A   1      41.051  29.841  32.421  1.00  0.00     0.167 HD
ATOM     60  C   UNL A   1      42.410  30.307  34.869  1.00  0.00     0.074 A 
ATOM     61  C   UNL A   1      42.749  30.859  36.166  1.00  0.00     0.031 C 
ATOM     62  C   UNL A   1      43.103  29.318  34.254  1.00  0.00     0.037 A 
BRANCH  49  63
ATOM     63  C   UNL A   1      40.750  27.610  28.797  1.00  0.00     0.064 A 
ATOM     64  C   UNL A   1      41.624  27.820  27.719  1.00  0.00     0.173 A 
ATOM     65  C   UNL A   1      39.916  26.483  28.755  1.00  0.00     0.173 A 
ATOM     66  F   UNL A   1      42.433  28.890  27.704  1.00  0.00    -0.203 F 
ATOM     67  C   UNL A   1      41.631  26.960  26.624  1.00  0.00     0.198 A 
ATOM     68  C   UNL A   1      39.948  25.607  27.673  1.00  0.00     0.198 A 
ATOM     69  F   UNL A   1      39.067  26.231  29.762  1.00  0.00    -0.203 F 
ATOM     70  F   UNL A   1      42.430  27.215  25.579  1.00  0.00    -0.200 F 
ATOM     71  C   UNL A   1      40.797  25.853  26.603  1.00  0.00     0.200 A 
ATOM     72  F   UNL A   1      39.149  24.531  27.659  1.00  0.00    -0.200 F 
ATOM     73  F   UNL A   1      40.802  25.027  25.547  1.00  0.00    -0.200 F 
ENDBRANCH  49  63
BRANCH  50  74
ATOM     74  C   UNL A   1      39.649  33.698  36.623  1.00  0.00     0.064 A 
ATOM     75  C   UNL A   1      40.226  34.972  36.702  1.00  0.00     0.173 A 
ATOM     76  C   UNL A   1      38.829  33.283  37.682  1.00  0.00     0.173 A 
ATOM     77  F   UNL A   1      41.029  35.404  35.719  1.00  0.00    -0.203 F 
ATOM     78  C   UNL A   1      39.997  35.797  37.801  1.00  0.00     0.198 A 
ATOM     79  C   UNL A   1      38.582  34.117  38.769  1.00  0.00     0.198 A 
ATOM     80  F   UNL A   1      38.247  32.075  37.646  1.00  0.00    -0.203 F 
ATOM     81  F   UNL A   1      40.579  37.002  37.864  1.00  0.00    -0.200 F 
ATOM     82  C   UNL A   1      39.169  35.372  38.829  1.00  0.00     0.200 A 
ATOM     83  F   UNL A   1      37.769  33.710  39.753  1.00  0.00    -0.200 F 
ATOM     84  F   UNL A   1      38.935  36.173  39.878  1.00  0.00    -0.200 F 
ENDBRANCH  50  74
BRANCH  62  85
ATOM     85  C   UNL A   1      44.304  28.775  34.969  1.00  0.00     0.064 A 
ATOM     86  C   UNL A   1      44.208  27.670  35.827  1.00  0.00     0.173 A 
ATOM     87  C   UNL A   1      45.572  29.340  34.761  1.00  0.00     0.173 A 
ATOM     88  F   UNL A   1      43.016  27.105  36.069  1.00  0.00    -0.203 F 
ATOM     89  C   UNL A   1      45.336  27.161  36.466  1.00  0.00     0.198 A 
ATOM     90  C   UNL A   1      46.700  28.813  35.381  1.00  0.00     0.198 A 
ATOM     91  F   UNL A   1      45.716  30.396  33.946  1.00  0.00    -0.203 F 
ATOM     92  F   UNL A   1      45.215  26.129  37.312  1.00  0.00    -0.200 F 
ATOM     93  C   UNL A   1      46.581  27.728  36.238  1.00  0.00     0.200 A 
ATOM     94  F   UNL A   1      47.905  29.355  35.152  1.00  0.00    -0.200 F 
ATOM     95  F   UNL A   1      47.666  27.233  36.848  1.00  0.00    -0.200 F 
ENDBRANCH  62  85
ENDBRANCH  36  37
ENDBRANCH  28  31
ENDBRANCH  26  27
ENDBRANCH  25  26
ENDBRANCH  24  25
ENDBRANCH   1  24
TORSDOF 16
ENDMDL
MODEL 2
REMARK VINA RESULT:     -11.7      5.495     10.735
REMARK SMILES Cc1cc(C(=O)N2C[C@@H](C(=O)NCCCCCCNC(=O)c3ccc(-c4c5nc(c(-c6c(F)c(F)c(F)c(F)c6F)c6ccc([nH]6)c(-c6c(F)c(F)c(F)c(F)c6F)c6nc(c(-c7c(F)c(F)c(F)c(F)c7F)c7ccc4[nH]7)C=C6)C=C5)cc3)[C@H](C(C)C)C2)cs1
REMARK SMILES IDX 15 1 14 2 13 3 12 4 10 5 11 6 9 8 7 9 8 10 89 11 85 12 5 13
REMARK SMILES IDX 6 14 4 15 1 16 2 17 3 18 91 19 90 20 86 21 87 22 88 23 16 24
REMARK SMILES IDX 17 25 18 26 19 27 20 28 21 30 22 31 23 32 84 33 24 34 83 35
REMARK SMILES IDX 25 36 26 37 27 38 77 39 28 40 82 41 76 42 78 43 29 44 81 45
REMARK SMILES IDX 75 46 74 47 30 49 62 50 42 51 61 52 43 53 46 54 60 55 79 56
REMARK SMILES IDX 44 57 45 58 59 60 80 61 47 62 31 63 32 64 40 65 33 66 34 67
REMARK SMILES IDX 38 68 41 69 35 70 36 71 39 72 37 73 63 74 64 75 72 76 65 77
REMARK SMILES IDX 66 78 70 79 73 80 67 81 68 82 71 83 69 84 48 85 49 86 57 87
REMARK SMILES IDX 50 88 51 89 55 90 58 91 52 92 53 93 56 94 54 95
REMARK H PARENT 12 7 19 29 78 48 46 59
REMARK Flexibility Score: inf
ROOT
ATOM      1  C   UNL A   1      35.319  19.956  24.948  1.00  0.00     0.002 C 
ENDROOT
BRANCH   1   2
ATOM      2  C   UNL A   1      34.248  20.600  25.840  1.00  0.00     0.021 C 
BRANCH   2   3
ATOM      3  C   UNL A   1      32.824  20.430  25.301  1.00  0.00     0.116 C 
BRANCH   3   4
ATOM      4  N   UNL A   1      32.803  20.693  23.877  1.00  0.00    -0.356 N 
ATOM      5  C   UNL A   1      32.188  21.662  23.152  1.00  0.00     0.225 C 
ATOM      6  O   UNL A   1      31.885  21.340  22.000  1.00  0.00    -0.275 OA
ATOM      7  H   UNL A   1      33.328  20.056  23.340  1.00  0.00     0.163 HD
BRANCH   5   8
ATOM      8  C   UNL A   1      32.038  23.105  23.641  1.00  0.00     0.103 C 
ATOM      9  N   UNL A   1      30.897  25.138  23.443  1.00  0.00    -0.337 N 
ATOM     10  C   UNL A   1      30.655  23.718  23.523  1.00  0.00     0.133 C 
ATOM     11  C   UNL A   1      32.108  25.389  22.707  1.00  0.00     0.124 C 
ATOM     12  C   UNL A   1      32.948  24.098  22.837  1.00  0.00     0.025 C 
BRANCH   9  13
ATOM     13  C   UNL A   1      30.058  26.174  23.811  1.00  0.00     0.254 C 
ATOM     14  O   UNL A   1      28.865  26.176  23.501  1.00  0.00    -0.269 OA
BRANCH  13  15
ATOM     15  C   UNL A   1      30.645  27.310  24.529  1.00  0.00     0.050 A 
ATOM     16  C   UNL A   1      32.566  28.851  27.426  1.00  0.00     0.056 C 
ATOM     17  C   UNL A   1      31.816  28.508  26.185  1.00  0.00     0.002 A 
ATOM     18  C   UNL A   1      31.321  27.279  25.800  1.00  0.00     0.029 A 
ATOM     19  S   UNL A   1      31.511  29.700  25.001  1.00  0.00    -0.148 S 
ATOM     20  C   UNL A   1      30.732  28.575  23.977  1.00  0.00     0.079 A 
ENDBRANCH  13  15
ENDBRANCH   9  13
BRANCH  12  21
ATOM     21  C   UNL A   1      34.330  24.387  23.489  1.00  0.00    -0.012 C 
ATOM     22  C   UNL A   1      34.284  24.501  25.014  1.00  0.00     0.008 C 
ATOM     23  C   UNL A   1      35.347  23.295  23.123  1.00  0.00     0.008 C 
ENDBRANCH  12  21
ENDBRANCH   5   8
ENDBRANCH   3   4
ENDBRANCH   2   3
ENDBRANCH   1   2
BRANCH   1  24
ATOM     24  C   UNL A   1      36.694  20.633  24.997  1.00  0.00     0.002 C 
BRANCH  24  25
ATOM     25  C   UNL A   1      37.886  19.672  25.027  1.00  0.00     0.021 C 
BRANCH  25  26
ATOM     26  C   UNL A   1      39.113  20.213  25.755  1.00  0.00     0.116 C 
BRANCH  26  27
ATOM     27  N   UNL A   1      40.147  19.202  25.899  1.00  0.00    -0.352 N 
ATOM     28  C   UNL A   1      41.497  19.363  26.085  1.00  0.00     0.251 C 
ATOM     29  H   UNL A   1      39.834  18.269  25.857  1.00  0.00     0.163 HD
ATOM     30  O   UNL A   1      42.255  18.407  25.983  1.00  0.00    -0.269 OA
BRANCH  28  31
ATOM     31  C   UNL A   1      42.040  20.703  26.397  1.00  0.00     0.039 A 
ATOM     32  C   UNL A   1      42.430  21.535  25.344  1.00  0.00     0.014 A 
ATOM     33  C   UNL A   1      42.184  21.126  27.721  1.00  0.00     0.014 A 
ATOM     34  C   UNL A   1      42.923  22.812  25.617  1.00  0.00     0.010 A 
ATOM     35  C   UNL A   1      42.617  22.422  27.990  1.00  0.00     0.010 A 
ATOM     36  C   UNL A   1      42.999  23.272  26.941  1.00  0.00    -0.014 A 
BRANCH  36  37
ATOM     37  C   UNL A   1      43.483  24.639  27.250  1.00  0.00     0.031 A 
ATOM     38  C   UNL A   1      42.531  25.676  27.772  1.00  0.00     0.074 A 
ATOM     39  C   UNL A   1      44.761  24.968  26.983  1.00  0.00     0.049 A 
ATOM     40  N   UNL A   1      42.745  26.941  28.032  1.00  0.00    -0.248 NA
ATOM     41  C   UNL A   1      41.146  25.240  28.002  1.00  0.00     0.031 C 
ATOM     42  C   UNL A   1      45.762  24.066  26.414  1.00  0.00     0.029 A 
ATOM     43  N   UNL A   1      45.430  26.156  27.136  1.00  0.00    -0.354 N 
ATOM     44  C   UNL A   1      41.519  27.455  28.434  1.00  0.00     0.074 A 
ATOM     45  C   UNL A   1      40.557  26.379  28.337  1.00  0.00     0.031 C 
ATOM     46  C   UNL A   1      46.918  24.732  26.268  1.00  0.00     0.029 A 
ATOM     47  C   UNL A   1      46.733  26.111  26.711  1.00  0.00     0.049 A 
ATOM     48  H   UNL A   1      45.013  26.964  27.516  1.00  0.00     0.167 HD
ATOM     49  C   UNL A   1      41.228  28.707  28.864  1.00  0.00     0.037 A 
ATOM     50  C   UNL A   1      47.671  27.075  26.673  1.00  0.00     0.037 A 
ATOM     51  C   UNL A   1      42.196  29.765  28.988  1.00  0.00     0.049 A 
ATOM     52  C   UNL A   1      47.337  28.447  27.189  1.00  0.00     0.074 A 
ATOM     53  C   UNL A   1      42.022  31.040  29.496  1.00  0.00     0.029 A 
ATOM     54  N   UNL A   1      43.523  29.670  28.592  1.00  0.00    -0.354 N 
ATOM     55  N   UNL A   1      46.197  28.900  27.650  1.00  0.00    -0.248 NA
ATOM     56  C   UNL A   1      48.423  29.437  27.192  1.00  0.00     0.031 C 
ATOM     57  C   UNL A   1      43.234  31.729  29.369  1.00  0.00     0.029 A 
ATOM     58  C   UNL A   1      44.174  30.871  28.822  1.00  0.00     0.049 A 
ATOM     59  H   UNL A   1      43.939  28.866  28.203  1.00  0.00     0.167 HD
ATOM     60  C   UNL A   1      46.428  30.220  28.012  1.00  0.00     0.074 A 
ATOM     61  C   UNL A   1      47.824  30.490  27.732  1.00  0.00     0.031 C 
ATOM     62  C   UNL A   1      45.562  31.126  28.530  1.00  0.00     0.037 A 
BRANCH  49  63
ATOM     63  C   UNL A   1      39.800  28.993  29.227  1.00  0.00     0.064 A 
ATOM     64  C   UNL A   1      39.331  28.854  30.543  1.00  0.00     0.173 A 
ATOM     65  C   UNL A   1      38.889  29.417  28.248  1.00  0.00     0.173 A 
ATOM     66  F   UNL A   1      40.160  28.440  31.514  1.00  0.00    -0.203 F 
ATOM     67  C   UNL A   1      37.995  29.088  30.856  1.00  0.00     0.198 A 
ATOM     68  C   UNL A   1      37.560  29.680  28.571  1.00  0.00     0.198 A 
ATOM     69  F   UNL A   1      39.285  29.573  26.977  1.00  0.00    -0.203 F 
ATOM     70  F   UNL A   1      37.558  28.888  32.107  1.00  0.00    -0.200 F 
ATOM     71  C   UNL A   1      37.112  29.504  29.872  1.00  0.00     0.200 A 
ATOM     72  F   UNL A   1      36.709  30.093  27.621  1.00  0.00    -0.200 F 
ATOM     73  F   UNL A   1      35.825  29.725  30.175  1.00  0.00    -0.200 F 
ENDBRANCH  49  63
BRANCH  50  74
ATOM     74  C   UNL A   1      49.022  26.756  26.149  1.00  0.00     0.064 A 
ATOM     75  C   UNL A   1      49.992  26.166  26.969  1.00  0.00     0.173 A 
ATOM     76  C   UNL A   1      49.354  26.992  24.807  1.00  0.00     0.173 A 
ATOM     77  F   UNL A   1      49.722  25.936  28.263  1.00  0.00    -0.203 F 
ATOM     78  C   UNL A   1      51.247  25.829  26.469  1.00  0.00     0.198 A 
ATOM     79  C   UNL A   1      50.601  26.634  24.302  1.00  0.00     0.198 A 
ATOM     80  F   UNL A   1      48.455  27.547  23.981  1.00  0.00    -0.203 F 
ATOM     81  F   UNL A   1      52.165  25.286  27.281  1.00  0.00    -0.200 F 
ATOM     82  C   UNL A   1      51.548  26.055  25.135  1.00  0.00     0.200 A 
ATOM     83  F   UNL A   1      50.883  26.839  23.008  1.00  0.00    -0.200 F 
ATOM     84  F   UNL A   1      52.750  25.715  24.650  1.00  0.00    -0.200 F 
ENDBRANCH  50  74
BRANCH  62  85
ATOM     85  C   UNL A   1      46.101  32.490  28.839  1.00  0.00     0.064 A 
ATOM     86  C   UNL A   1      46.058  33.526  27.894  1.00  0.00     0.173 A 
ATOM     87  C   UNL A   1      46.628  32.778  30.107  1.00  0.00     0.173 A 
ATOM     88  F   UNL A   1      45.578  33.297  26.663  1.00  0.00    -0.203 F 
ATOM     89  C   UNL A   1      46.541  34.795  28.202  1.00  0.00     0.198 A 
ATOM     90  C   UNL A   1      47.086  34.053  30.419  1.00  0.00     0.198 A 
ATOM     91  F   UNL A   1      46.688  31.821  31.047  1.00  0.00    -0.203 F 
ATOM     92  F   UNL A   1      46.526  35.759  27.271  1.00  0.00    -0.200 F 
ATOM     93  C   UNL A   1      47.047  35.060  29.465  1.00  0.00     0.200 A 
ATOM     94  F   UNL A   1      47.565  34.312  31.645  1.00  0.00    -0.200 F 
ATOM     95  F   UNL A   1      47.504  36.284  29.762  1.00  0.00    -0.200 F 
ENDBRANCH  62  85
ENDBRANCH  36  37
ENDBRANCH  28  31
ENDBRANCH  26  27
ENDBRANCH  25  26
ENDBRANCH  24  25
ENDBRANCH   1  24
TORSDOF 16
ENDMDL
MODEL 3
REMARK VINA RESULT:     -11.7      5.420     10.610
REMARK SMILES Cc1cc(C(=O)N2C[C@@H](C(=O)NCCCCCCNC(=O)c3ccc(-c4c5nc(c(-c6c(F)c(F)c(F)c(F)c6F)c6ccc([nH]6)c(-c6c(F)c(F)c(F)c(F)c6F)c6nc(c(-c7c(F)c(F)c(F)c(F)c7F)c7ccc4[nH]7)C=C6)C=C5)cc3)[C@H](C(C)C)C2)cs1
REMARK SMILES IDX 15 1 14 2 13 3 12 4 10 5 11 6 9 8 7 9 8 10 89 11 85 12 5 13
REMARK SMILES IDX 6 14 4 15 1 16 2 17 3 18 91 19 90 20 86 21 87 22 88 23 16 24
REMARK SMILES IDX 17 25 18 26 19 27 20 28 21 30 22 31 23 32 84 33 24 34 83 35
REMARK SMILES IDX 25 36 26 37 27 38 77 39 28 40 82 41 76 42 78 43 29 44 81 45
REMARK SMILES IDX 75 46 74 47 30 49 62 50 42 51 61 52 43 53 46 54 60 55 79 56
REMARK SMILES IDX 44 57 45 58 59 60 80 61 47 62 31 63 32 64 40 65 33 66 34 67
REMARK SMILES IDX 38 68 41 69 35 70 36 71 39 72 37 73 63 74 64 75 72 76 65 77
REMARK SMILES IDX 66 78 70 79 73 80 67 81 68 82 71 83 69 84 48 85 49 86 57 87
REMARK SMILES IDX 50 88 51 89 55 90 58 91 52 92 53 93 56 94 54 95
REMARK H PARENT 12 7 19 29 78 48 46 59
REMARK Flexibility Score: inf
ROOT
ATOM      1  C   UNL A   1      36.222  21.515  25.784  1.00  0.00     0.002 C 
ENDROOT
BRANCH   1   2
ATOM      2  C   UNL A   1      34.744  21.235  26.091  1.00  0.00     0.021 C 
BRANCH   2   3
ATOM      3  C   UNL A   1      34.219  21.998  27.311  1.00  0.00     0.116 C 
BRANCH   3   4
ATOM      4  N   UNL A   1      32.792  22.212  27.180  1.00  0.00    -0.356 N 
ATOM      5  C   UNL A   1      32.079  23.314  26.835  1.00  0.00     0.225 C 
ATOM      6  O   UNL A   1      30.948  23.379  27.325  1.00  0.00    -0.275 OA
ATOM      7  H   UNL A   1      32.244  21.418  27.376  1.00  0.00     0.163 HD
BRANCH   5   8
ATOM      8  C   UNL A   1      32.547  24.317  25.777  1.00  0.00     0.103 C 
ATOM      9  N   UNL A   1      32.044  26.225  24.519  1.00  0.00    -0.337 N 
ATOM     10  C   UNL A   1      31.965  25.715  25.867  1.00  0.00     0.133 C 
ATOM     11  C   UNL A   1      31.812  25.162  23.578  1.00  0.00     0.124 C 
ATOM     12  C   UNL A   1      32.177  23.859  24.324  1.00  0.00     0.025 C 
BRANCH   9  13
ATOM     13  C   UNL A   1      32.131  27.541  24.103  1.00  0.00     0.254 C 
ATOM     14  O   UNL A   1      33.153  28.206  24.280  1.00  0.00    -0.269 OA
BRANCH  13  15
ATOM     15  C   UNL A   1      30.941  28.148  23.498  1.00  0.00     0.050 A 
ATOM     16  C   UNL A   1      27.181  28.578  23.126  1.00  0.00     0.056 C 
ATOM     17  C   UNL A   1      28.671  28.620  23.086  1.00  0.00     0.002 A 
ATOM     18  C   UNL A   1      29.565  27.830  23.777  1.00  0.00     0.029 A 
ATOM     19  S   UNL A   1      29.477  29.782  22.130  1.00  0.00    -0.148 S 
ATOM     20  C   UNL A   1      31.012  29.236  22.646  1.00  0.00     0.079 A 
ENDBRANCH  13  15
ENDBRANCH   9  13
BRANCH  12  21
ATOM     21  C   UNL A   1      33.299  23.078  23.581  1.00  0.00    -0.012 C 
ATOM     22  C   UNL A   1      32.904  22.612  22.178  1.00  0.00     0.008 C 
ATOM     23  C   UNL A   1      34.571  23.932  23.459  1.00  0.00     0.008 C 
ENDBRANCH  12  21
ENDBRANCH   5   8
ENDBRANCH   3   4
ENDBRANCH   2   3
ENDBRANCH   1   2
BRANCH   1  24
ATOM     24  C   UNL A   1      36.802  20.716  24.611  1.00  0.00     0.002 C 
BRANCH  24  25
ATOM     25  C   UNL A   1      37.834  19.653  24.999  1.00  0.00     0.021 C 
BRANCH  25  26
ATOM     26  C   UNL A   1      39.048  20.197  25.746  1.00  0.00     0.116 C 
BRANCH  26  27
ATOM     27  N   UNL A   1      40.076  19.185  25.917  1.00  0.00    -0.352 N 
ATOM     28  C   UNL A   1      41.424  19.344  26.122  1.00  0.00     0.251 C 
ATOM     29  H   UNL A   1      39.762  18.252  25.881  1.00  0.00     0.163 HD
ATOM     30  O   UNL A   1      42.180  18.385  26.042  1.00  0.00    -0.269 OA
BRANCH  28  31
ATOM     31  C   UNL A   1      41.966  20.685  26.427  1.00  0.00     0.039 A 
ATOM     32  C   UNL A   1      42.254  21.553  25.370  1.00  0.00     0.014 A 
ATOM     33  C   UNL A   1      42.211  21.076  27.747  1.00  0.00     0.014 A 
ATOM     34  C   UNL A   1      42.744  22.832  25.639  1.00  0.00     0.010 A 
ATOM     35  C   UNL A   1      42.641  22.372  28.017  1.00  0.00     0.010 A 
ATOM     36  C   UNL A   1      42.919  23.258  26.965  1.00  0.00    -0.014 A 
BRANCH  36  37
ATOM     37  C   UNL A   1      43.403  24.626  27.273  1.00  0.00     0.031 A 
ATOM     38  C   UNL A   1      42.449  25.663  27.792  1.00  0.00     0.074 A 
ATOM     39  C   UNL A   1      44.681  24.955  27.007  1.00  0.00     0.049 A 
ATOM     40  N   UNL A   1      42.663  26.928  28.050  1.00  0.00    -0.248 NA
ATOM     41  C   UNL A   1      41.064  25.227  28.020  1.00  0.00     0.031 C 
ATOM     42  C   UNL A   1      45.683  24.053  26.441  1.00  0.00     0.029 A 
ATOM     43  N   UNL A   1      45.348  26.144  27.159  1.00  0.00    -0.354 N 
ATOM     44  C   UNL A   1      41.436  27.442  28.450  1.00  0.00     0.074 A 
ATOM     45  C   UNL A   1      40.474  26.365  28.353  1.00  0.00     0.031 C 
ATOM     46  C   UNL A   1      46.839  24.719  26.295  1.00  0.00     0.029 A 
ATOM     47  C   UNL A   1      46.652  26.099  26.735  1.00  0.00     0.049 A 
ATOM     48  H   UNL A   1      44.931  26.951  27.537  1.00  0.00     0.167 HD
ATOM     49  C   UNL A   1      41.143  28.694  28.877  1.00  0.00     0.037 A 
ATOM     50  C   UNL A   1      47.590  27.064  26.698  1.00  0.00     0.037 A 
ATOM     51  C   UNL A   1      42.110  29.753  29.001  1.00  0.00     0.049 A 
ATOM     52  C   UNL A   1      47.255  28.435  27.211  1.00  0.00     0.074 A 
ATOM     53  C   UNL A   1      41.935  31.029  29.507  1.00  0.00     0.029 A 
ATOM     54  N   UNL A   1      43.438  29.658  28.607  1.00  0.00    -0.354 N 
ATOM     55  N   UNL A   1      46.114  28.889  27.670  1.00  0.00    -0.248 NA
ATOM     56  C   UNL A   1      48.340  29.426  27.214  1.00  0.00     0.031 C 
ATOM     57  C   UNL A   1      43.146  31.719  29.381  1.00  0.00     0.029 A 
ATOM     58  C   UNL A   1      44.088  30.861  28.837  1.00  0.00     0.049 A 
ATOM     59  H   UNL A   1      43.855  28.855  28.220  1.00  0.00     0.167 HD
ATOM     60  C   UNL A   1      46.343  30.209  28.031  1.00  0.00     0.074 A 
ATOM     61  C   UNL A   1      47.739  30.479  27.752  1.00  0.00     0.031 C 
ATOM     62  C   UNL A   1      45.476  31.115  28.545  1.00  0.00     0.037 A 
BRANCH  49  63
ATOM     63  C   UNL A   1      39.715  28.981  29.238  1.00  0.00     0.064 A 
ATOM     64  C   UNL A   1      39.226  28.774  30.538  1.00  0.00     0.173 A 
ATOM     65  C   UNL A   1      38.823  29.473  28.273  1.00  0.00     0.173 A 
ATOM     66  F   UNL A   1      40.036  28.293  31.494  1.00  0.00    -0.203 F 
ATOM     67  C   UNL A   1      37.889  29.009  30.847  1.00  0.00     0.198 A 
ATOM     68  C   UNL A   1      37.493  29.736  28.594  1.00  0.00     0.198 A 
ATOM     69  F   UNL A   1      39.238  29.695  27.018  1.00  0.00    -0.203 F 
ATOM     70  F   UNL A   1      37.432  28.744  32.079  1.00  0.00    -0.200 F 
ATOM     71  C   UNL A   1      37.025  29.492  29.877  1.00  0.00     0.200 A 
ATOM     72  F   UNL A   1      36.661  30.214  27.658  1.00  0.00    -0.200 F 
ATOM     73  F   UNL A   1      35.737  29.715  30.175  1.00  0.00    -0.200 F 
ENDBRANCH  49  63
BRANCH  50  74
ATOM     74  C   UNL A   1      48.941  26.744  26.176  1.00  0.00     0.064 A 
ATOM     75  C   UNL A   1      49.265  26.966  24.831  1.00  0.00     0.173 A 
ATOM     76  C   UNL A   1      49.949  26.256  27.020  1.00  0.00     0.173 A 
ATOM     77  F   UNL A   1      48.328  27.418  23.984  1.00  0.00    -0.203 F 
ATOM     78  C   UNL A   1      50.544  26.704  24.347  1.00  0.00     0.198 A 
ATOM     79  C   UNL A   1      51.235  26.016  26.541  1.00  0.00     0.198 A 
ATOM     80  F   UNL A   1      49.690  26.036  28.318  1.00  0.00    -0.203 F 
ATOM     81  F   UNL A   1      50.822  26.903  23.051  1.00  0.00    -0.200 F 
ATOM     82  C   UNL A   1      51.530  26.238  25.204  1.00  0.00     0.200 A 
ATOM     83  F   UNL A   1      52.189  25.580  27.374  1.00  0.00    -0.200 F 
ATOM     84  F   UNL A   1      52.766  26.003  24.741  1.00  0.00    -0.200 F 
ENDBRANCH  50  74
BRANCH  62  85
ATOM     85  C   UNL A   1      46.014  32.481  28.853  1.00  0.00     0.064 A 
ATOM     86  C   UNL A   1      45.954  33.520  27.914  1.00  0.00     0.173 A 
ATOM     87  C   UNL A   1      46.557  32.764  30.115  1.00  0.00     0.173 A 
ATOM     88  F   UNL A   1      45.457  33.295  26.688  1.00  0.00    -0.203 F 
ATOM     89  C   UNL A   1      46.436  34.790  28.220  1.00  0.00     0.198 A 
ATOM     90  C   UNL A   1      47.014  34.041  30.427  1.00  0.00     0.198 A 
ATOM     91  F   UNL A   1      46.633  31.804  31.050  1.00  0.00    -0.203 F 
ATOM     92  F   UNL A   1      46.404  35.758  27.295  1.00  0.00    -0.200 F 
ATOM     93  C   UNL A   1      46.958  35.051  29.478  1.00  0.00     0.200 A 
ATOM     94  F   UNL A   1      47.509  34.295  31.647  1.00  0.00    -0.200 F 
ATOM     95  F   UNL A   1      47.415  36.276  29.775  1.00  0.00    -0.200 F 
ENDBRANCH  62  85
ENDBRANCH  36  37
ENDBRANCH  28  31
ENDBRANCH  26  27
ENDBRANCH  25  26
ENDBRANCH  24  25
ENDBRANCH   1  24
TORSDOF 16
ENDMDL
