MODEL 1
REMARK VINA RESULT:     -11.8      0.000      0.000
REMARK SMILES Cc1nc(Oc2ccc(F)cc2)c(C(=O)NCCCCCCNC(=O)c2ccc(-c3c4nc(c(-c5c(F)c(F)c(F)c(F)c5F)c5ccc([nH]5)c(-c5c(F)c(F)c(F)c(F)c5F)c5nc(c(-c6c(F)c(F)c(F)c(F)c6F)c6ccc3[nH]6)C=C5)C=C4)cc2)c(C)c1Cl
REMARK SMILES IDX 19 1 18 2 17 3 16 4 14 5 15 6 13 8 1 9 2 10 3 11 91 12 4 13
REMARK SMILES IDX 89 14 92 15 90 16 5 17 6 18 7 19 12 20 8 21 11 22 9 23 10 24
REMARK SMILES IDX 20 25 21 26 22 27 23 28 24 29 25 31 26 32 27 33 88 34 28 35
REMARK SMILES IDX 87 36 29 37 30 38 31 39 81 40 32 41 86 42 80 43 82 44 33 45
REMARK SMILES IDX 85 46 79 47 78 48 34 50 66 51 46 52 65 53 47 54 50 55 64 56
REMARK SMILES IDX 83 57 48 58 49 59 63 61 84 62 51 63 35 64 36 65 44 66 37 67
REMARK SMILES IDX 38 68 42 69 45 70 39 71 40 72 43 73 41 74 67 75 68 76 76 77
REMARK SMILES IDX 69 78 70 79 74 80 77 81 71 82 72 83 75 84 73 85 52 86 53 87
REMARK SMILES IDX 61 88 54 89 55 90 59 91 62 92 56 93 57 94 60 95 58 96
REMARK H PARENT 16 7 23 30 82 49 50 60
REMARK Flexibility Score: inf
ROOT
ATOM      1  C   UNL A   1      30.879  27.088  24.451  1.00  0.00     0.002 C 
ENDROOT
BRANCH   1   2
ATOM      2  C   UNL A   1      31.575  27.213  23.091  1.00  0.00     0.021 C 
BRANCH   2   3
ATOM      3  C   UNL A   1      33.096  27.122  23.035  1.00  0.00     0.116 C 
BRANCH   3   4
ATOM      4  N   UNL A   1      33.653  25.981  22.340  1.00  0.00    -0.352 N 
ATOM      5  C   UNL A   1      33.533  24.644  22.673  1.00  0.00     0.257 C 
ATOM      6  O   UNL A   1      33.633  23.789  21.797  1.00  0.00    -0.269 OA
ATOM      7  H   UNL A   1      34.180  26.181  21.533  1.00  0.00     0.163 HD
BRANCH   5   8
ATOM      8  C   UNL A   1      33.292  24.212  24.070  1.00  0.00     0.106 A 
ATOM      9  C   UNL A   1      32.948  22.578  28.002  1.00  0.00     0.068 C 
ATOM     10  C   UNL A   1      32.991  23.200  26.634  1.00  0.00     0.060 A 
ATOM     11  N   UNL A   1      34.197  23.674  26.246  1.00  0.00    -0.216 NA
ATOM     12  C   UNL A   1      31.885  23.214  25.787  1.00  0.00     0.066 A 
ATOM     13  C   UNL A   1      34.353  24.167  24.989  1.00  0.00     0.232 A 
ATOM     14  C   UNL A   1      32.037  23.676  24.463  1.00  0.00    -0.012 A 
ATOM     15  Cl  UNL A   1      30.351  22.643  26.359  1.00  0.00    -0.082 Cl
ATOM     16  C   UNL A   1      30.885  23.536  23.502  1.00  0.00     0.047 C 
BRANCH  13  17
ATOM     17  O   UNL A   1      35.683  24.406  24.750  1.00  0.00    -0.438 OA
BRANCH  17  18
ATOM     18  C   UNL A   1      36.646  23.479  25.024  1.00  0.00     0.129 A 
ATOM     19  C   UNL A   1      36.478  22.226  24.424  1.00  0.00     0.050 A 
ATOM     20  C   UNL A   1      37.694  23.702  25.917  1.00  0.00     0.050 A 
ATOM     21  C   UNL A   1      37.403  21.213  24.652  1.00  0.00     0.043 A 
ATOM     22  C   UNL A   1      38.619  22.681  26.148  1.00  0.00     0.043 A 
ATOM     23  C   UNL A   1      38.472  21.453  25.505  1.00  0.00     0.123 A 
ATOM     24  F   UNL A   1      39.374  20.487  25.717  1.00  0.00    -0.207 F 
ENDBRANCH  17  18
ENDBRANCH  13  17
ENDBRANCH   5   8
ENDBRANCH   3   4
ENDBRANCH   2   3
ENDBRANCH   1   2
BRANCH   1  25
ATOM     25  C   UNL A   1      31.404  27.905  25.636  1.00  0.00     0.002 C 
BRANCH  25  26
ATOM     26  C   UNL A   1      32.487  27.286  26.520  1.00  0.00     0.021 C 
BRANCH  26  27
ATOM     27  C   UNL A   1      33.768  28.091  26.697  1.00  0.00     0.116 C 
BRANCH  27  28
ATOM     28  N   UNL A   1      33.525  29.496  26.967  1.00  0.00    -0.352 N 
ATOM     29  C   UNL A   1      34.311  30.412  27.625  1.00  0.00     0.251 C 
ATOM     30  H   UNL A   1      32.670  29.846  26.626  1.00  0.00     0.163 HD
ATOM     31  O   UNL A   1      33.889  31.534  27.866  1.00  0.00    -0.269 OA
BRANCH  29  32
ATOM     32  C   UNL A   1      35.671  30.033  28.071  1.00  0.00     0.039 A 
ATOM     33  C   UNL A   1      35.847  29.589  29.384  1.00  0.00     0.014 A 
ATOM     34  C   UNL A   1      36.768  30.139  27.209  1.00  0.00     0.014 A 
ATOM     35  C   UNL A   1      37.115  29.197  29.819  1.00  0.00     0.010 A 
ATOM     36  C   UNL A   1      38.023  29.699  27.627  1.00  0.00     0.010 A 
ATOM     37  C   UNL A   1      38.207  29.230  28.937  1.00  0.00    -0.014 A 
BRANCH  37  38
ATOM     38  C   UNL A   1      39.558  28.814  29.386  1.00  0.00     0.031 A 
ATOM     39  C   UNL A   1      40.319  29.668  30.358  1.00  0.00     0.074 A 
ATOM     40  C   UNL A   1      40.108  27.685  28.901  1.00  0.00     0.049 A 
ATOM     41  N   UNL A   1      41.512  29.486  30.862  1.00  0.00    -0.248 NA
ATOM     42  C   UNL A   1      39.654  30.899  30.813  1.00  0.00     0.031 C 
ATOM     43  C   UNL A   1      39.474  26.784  27.938  1.00  0.00     0.029 A 
ATOM     44  N   UNL A   1      41.325  27.103  29.152  1.00  0.00    -0.354 N 
ATOM     45  C   UNL A   1      41.735  30.570  31.700  1.00  0.00     0.074 A 
ATOM     46  C   UNL A   1      40.584  31.439  31.587  1.00  0.00     0.031 C 
ATOM     47  C   UNL A   1      40.298  25.750  27.699  1.00  0.00     0.029 A 
ATOM     48  C   UNL A   1      41.525  25.928  28.470  1.00  0.00     0.049 A 
ATOM     49  H   UNL A   1      41.992  27.491  29.764  1.00  0.00     0.167 HD
ATOM     50  C   UNL A   1      42.793  30.804  32.512  1.00  0.00     0.037 A 
ATOM     51  C   UNL A   1      42.579  25.089  28.472  1.00  0.00     0.037 A 
ATOM     52  C   UNL A   1      43.934  29.938  32.626  1.00  0.00     0.049 A 
ATOM     53  C   UNL A   1      43.767  25.400  29.342  1.00  0.00     0.074 A 
ATOM     54  C   UNL A   1      45.043  30.074  33.441  1.00  0.00     0.029 A 
ATOM     55  N   UNL A   1      44.114  28.772  31.895  1.00  0.00    -0.354 N 
ATOM     56  N   UNL A   1      43.946  26.401  30.167  1.00  0.00    -0.248 NA
ATOM     57  C   UNL A   1      44.898  24.462  29.283  1.00  0.00     0.031 C 
ATOM     58  C   UNL A   1      45.912  29.012  33.176  1.00  0.00     0.029 A 
ATOM     59  C   UNL A   1      45.327  28.191  32.225  1.00  0.00     0.049 A 
ATOM     60  H   UNL A   1      43.474  28.412  31.239  1.00  0.00     0.167 HD
ATOM     61  C   UNL A   1      45.194  26.204  30.744  1.00  0.00     0.074 A 
ATOM     62  C   UNL A   1      45.726  24.980  30.180  1.00  0.00     0.031 C 
ATOM     63  C   UNL A   1      45.838  26.968  31.658  1.00  0.00     0.037 A 
BRANCH  50  64
ATOM     64  C   UNL A   1      42.753  32.043  33.357  1.00  0.00     0.064 A 
ATOM     65  C   UNL A   1      43.261  33.263  32.884  1.00  0.00     0.173 A 
ATOM     66  C   UNL A   1      42.170  32.024  34.632  1.00  0.00     0.173 A 
ATOM     67  F   UNL A   1      43.840  33.330  31.676  1.00  0.00    -0.203 F 
ATOM     68  C   UNL A   1      43.208  34.412  33.668  1.00  0.00     0.198 A 
ATOM     69  C   UNL A   1      42.094  33.181  35.402  1.00  0.00     0.198 A 
ATOM     70  F   UNL A   1      41.666  30.884  35.128  1.00  0.00    -0.203 F 
ATOM     71  F   UNL A   1      43.739  35.556  33.213  1.00  0.00    -0.200 F 
ATOM     72  C   UNL A   1      42.619  34.373  34.922  1.00  0.00     0.200 A 
ATOM     73  F   UNL A   1      41.515  33.145  36.609  1.00  0.00    -0.200 F 
ATOM     74  F   UNL A   1      42.562  35.482  35.672  1.00  0.00    -0.200 F 
ENDBRANCH  50  64
BRANCH  51  75
ATOM     75  C   UNL A   1      42.532  23.849  27.657  1.00  0.00     0.064 A 
ATOM     76  C   UNL A   1      42.942  23.859  26.317  1.00  0.00     0.173 A 
ATOM     77  C   UNL A   1      42.103  22.629  28.199  1.00  0.00     0.173 A 
ATOM     78  F   UNL A   1      43.342  25.007  25.749  1.00  0.00    -0.203 F 
ATOM     79  C   UNL A   1      42.921  22.697  25.548  1.00  0.00     0.198 A 
ATOM     80  C   UNL A   1      42.102  21.463  27.436  1.00  0.00     0.198 A 
ATOM     81  F   UNL A   1      41.702  22.567  29.478  1.00  0.00    -0.203 F 
ATOM     82  F   UNL A   1      43.295  22.742  24.261  1.00  0.00    -0.200 F 
ATOM     83  C   UNL A   1      42.509  21.499  26.110  1.00  0.00     0.200 A 
ATOM     84  F   UNL A   1      41.714  20.305  27.986  1.00  0.00    -0.200 F 
ATOM     85  F   UNL A   1      42.499  20.380  25.374  1.00  0.00    -0.200 F 
ENDBRANCH  51  75
BRANCH  63  86
ATOM     86  C   UNL A   1      47.186  26.505  32.128  1.00  0.00     0.064 A 
ATOM     87  C   UNL A   1      47.315  25.558  33.153  1.00  0.00     0.173 A 
ATOM     88  C   UNL A   1      48.352  26.948  31.486  1.00  0.00     0.173 A 
ATOM     89  F   UNL A   1      46.229  25.115  33.804  1.00  0.00    -0.203 F 
ATOM     90  C   UNL A   1      48.567  25.073  33.524  1.00  0.00     0.198 A 
ATOM     91  C   UNL A   1      49.600  26.443  31.843  1.00  0.00     0.198 A 
ATOM     92  F   UNL A   1      48.279  27.848  30.495  1.00  0.00    -0.203 F 
ATOM     93  F   UNL A   1      48.671  24.187  34.523  1.00  0.00    -0.200 F 
ATOM     94  C   UNL A   1      49.706  25.508  32.862  1.00  0.00     0.200 A 
ATOM     95  F   UNL A   1      50.698  26.853  31.193  1.00  0.00    -0.200 F 
ATOM     96  F   UNL A   1      50.908  25.026  33.208  1.00  0.00    -0.200 F 
ENDBRANCH  63  86
ENDBRANCH  37  38
ENDBRANCH  29  32
ENDBRANCH  27  28
ENDBRANCH  26  27
ENDBRANCH  25  26
ENDBRANCH   1  25
TORSDOF 15
ENDMDL
MODEL 2
REMARK VINA RESULT:     -11.5      4.136      7.584
REMARK SMILES Cc1nc(Oc2ccc(F)cc2)c(C(=O)NCCCCCCNC(=O)c2ccc(-c3c4nc(c(-c5c(F)c(F)c(F)c(F)c5F)c5ccc([nH]5)c(-c5c(F)c(F)c(F)c(F)c5F)c5nc(c(-c6c(F)c(F)c(F)c(F)c6F)c6ccc3[nH]6)C=C5)C=C4)cc2)c(C)c1Cl
REMARK SMILES IDX 19 1 18 2 17 3 16 4 14 5 15 6 13 8 1 9 2 10 3 11 91 12 4 13
REMARK SMILES IDX 89 14 92 15 90 16 5 17 6 18 7 19 12 20 8 21 11 22 9 23 10 24
REMARK SMILES IDX 20 25 21 26 22 27 23 28 24 29 25 31 26 32 27 33 88 34 28 35
REMARK SMILES IDX 87 36 29 37 30 38 31 39 81 40 32 41 86 42 80 43 82 44 33 45
REMARK SMILES IDX 85 46 79 47 78 48 34 50 66 51 46 52 65 53 47 54 50 55 64 56
REMARK SMILES IDX 83 57 48 58 49 59 63 61 84 62 51 63 35 64 36 65 44 66 37 67
REMARK SMILES IDX 38 68 42 69 45 70 39 71 40 72 43 73 41 74 67 75 68 76 76 77
REMARK SMILES IDX 69 78 70 79 74 80 77 81 71 82 72 83 75 84 73 85 52 86 53 87
REMARK SMILES IDX 61 88 54 89 55 90 59 91 62 92 56 93 57 94 60 95 58 96
REMARK H PARENT 16 7 23 30 82 49 50 60
REMARK Flexibility Score: inf
ROOT
ATOM      1  C   UNL A   1      35.928  21.528  25.105  1.00  0.00     0.002 C 
ENDROOT
BRANCH   1   2
ATOM      2  C   UNL A   1      35.582  22.118  26.477  1.00  0.00     0.021 C 
BRANCH   2   3
ATOM      3  C   UNL A   1      34.417  21.519  27.258  1.00  0.00     0.116 C 
BRANCH   3   4
ATOM      4  N   UNL A   1      33.385  22.438  27.690  1.00  0.00    -0.352 N 
ATOM      5  C   UNL A   1      32.348  22.961  26.939  1.00  0.00     0.257 C 
ATOM      6  O   UNL A   1      31.318  23.325  27.499  1.00  0.00    -0.269 OA
ATOM      7  H   UNL A   1      33.426  22.724  28.631  1.00  0.00     0.163 HD
BRANCH   5   8
ATOM      8  C   UNL A   1      32.450  23.099  25.467  1.00  0.00     0.106 A 
ATOM      9  C   UNL A   1      33.087  23.092  21.243  1.00  0.00     0.068 C 
ATOM     10  C   UNL A   1      32.825  23.179  22.720  1.00  0.00     0.060 A 
ATOM     11  N   UNL A   1      32.290  22.071  23.284  1.00  0.00    -0.216 NA
ATOM     12  C   UNL A   1      33.184  24.292  23.477  1.00  0.00     0.066 A 
ATOM     13  C   UNL A   1      32.108  22.024  24.631  1.00  0.00     0.232 A 
ATOM     14  C   UNL A   1      33.049  24.244  24.881  1.00  0.00    -0.012 A 
ATOM     15  Cl  UNL A   1      33.814  25.704  22.691  1.00  0.00    -0.082 Cl
ATOM     16  C   UNL A   1      33.591  25.382  25.708  1.00  0.00     0.047 C 
BRANCH  13  17
ATOM     17  O   UNL A   1      31.744  20.754  25.001  1.00  0.00    -0.438 OA
BRANCH  17  18
ATOM     18  C   UNL A   1      32.386  19.647  24.524  1.00  0.00     0.129 A 
ATOM     19  C   UNL A   1      32.120  19.314  23.191  1.00  0.00     0.050 A 
ATOM     20  C   UNL A   1      33.187  18.824  25.315  1.00  0.00     0.050 A 
ATOM     21  C   UNL A   1      32.721  18.196  22.619  1.00  0.00     0.043 A 
ATOM     22  C   UNL A   1      33.785  17.701  24.739  1.00  0.00     0.043 A 
ATOM     23  C   UNL A   1      33.556  17.405  23.396  1.00  0.00     0.123 A 
ATOM     24  F   UNL A   1      34.148  16.337  22.847  1.00  0.00    -0.207 F 
ENDBRANCH  17  18
ENDBRANCH  13  17
ENDBRANCH   5   8
ENDBRANCH   3   4
ENDBRANCH   2   3
ENDBRANCH   1   2
BRANCH   1  25
ATOM     25  C   UNL A   1      36.522  20.119  25.025  1.00  0.00     0.002 C 
BRANCH  25  26
ATOM     26  C   UNL A   1      38.014  19.976  24.724  1.00  0.00     0.021 C 
BRANCH  26  27
ATOM     27  C   UNL A   1      38.971  20.188  25.889  1.00  0.00     0.116 C 
BRANCH  27  28
ATOM     28  N   UNL A   1      40.045  19.214  25.929  1.00  0.00    -0.352 N 
ATOM     29  C   UNL A   1      41.396  19.404  26.106  1.00  0.00     0.251 C 
ATOM     30  H   UNL A   1      39.765  18.276  25.814  1.00  0.00     0.163 HD
ATOM     31  O   UNL A   1      42.175  18.468  25.990  1.00  0.00    -0.269 OA
BRANCH  29  32
ATOM     32  C   UNL A   1      41.918  20.754  26.415  1.00  0.00     0.039 A 
ATOM     33  C   UNL A   1      42.183  21.628  25.357  1.00  0.00     0.014 A 
ATOM     34  C   UNL A   1      42.168  21.147  27.733  1.00  0.00     0.014 A 
ATOM     35  C   UNL A   1      42.647  22.918  25.623  1.00  0.00     0.010 A 
ATOM     36  C   UNL A   1      42.581  22.450  28.002  1.00  0.00     0.010 A 
ATOM     37  C   UNL A   1      42.830  23.344  26.948  1.00  0.00    -0.014 A 
BRANCH  37  38
ATOM     38  C   UNL A   1      43.319  24.712  27.244  1.00  0.00     0.031 A 
ATOM     39  C   UNL A   1      42.379  25.736  27.811  1.00  0.00     0.074 A 
ATOM     40  C   UNL A   1      44.598  25.039  26.979  1.00  0.00     0.049 A 
ATOM     41  N   UNL A   1      42.607  26.985  28.126  1.00  0.00    -0.248 NA
ATOM     42  C   UNL A   1      40.993  25.301  28.040  1.00  0.00     0.031 C 
ATOM     43  C   UNL A   1      45.599  24.137  26.411  1.00  0.00     0.029 A 
ATOM     44  N   UNL A   1      45.274  26.222  27.153  1.00  0.00    -0.354 N 
ATOM     45  C   UNL A   1      41.400  27.480  28.600  1.00  0.00     0.074 A 
ATOM     46  C   UNL A   1      40.426  26.418  28.471  1.00  0.00     0.031 C 
ATOM     47  C   UNL A   1      46.768  24.790  26.306  1.00  0.00     0.029 A 
ATOM     48  C   UNL A   1      46.593  26.162  26.776  1.00  0.00     0.049 A 
ATOM     49  H   UNL A   1      44.853  27.034  27.516  1.00  0.00     0.167 HD
ATOM     50  C   UNL A   1      41.137  28.700  29.124  1.00  0.00     0.037 A 
ATOM     51  C   UNL A   1      47.551  27.109  26.809  1.00  0.00     0.037 A 
ATOM     52  C   UNL A   1      42.107  29.752  29.255  1.00  0.00     0.049 A 
ATOM     53  C   UNL A   1      47.218  28.475  27.345  1.00  0.00     0.074 A 
ATOM     54  C   UNL A   1      41.944  31.014  29.798  1.00  0.00     0.029 A 
ATOM     55  N   UNL A   1      43.426  29.664  28.832  1.00  0.00    -0.354 N 
ATOM     56  N   UNL A   1      46.088  28.917  27.837  1.00  0.00    -0.248 NA
ATOM     57  C   UNL A   1      48.298  29.474  27.332  1.00  0.00     0.031 C 
ATOM     58  C   UNL A   1      43.153  31.704  29.668  1.00  0.00     0.029 A 
ATOM     59  C   UNL A   1      44.082  30.858  29.082  1.00  0.00     0.049 A 
ATOM     60  H   UNL A   1      43.834  28.871  28.415  1.00  0.00     0.167 HD
ATOM     61  C   UNL A   1      46.322  30.232  28.215  1.00  0.00     0.074 A 
ATOM     62  C   UNL A   1      47.707  30.516  27.903  1.00  0.00     0.031 C 
ATOM     63  C   UNL A   1      45.464  31.122  28.771  1.00  0.00     0.037 A 
BRANCH  50  64
ATOM     64  C   UNL A   1      39.741  28.954  29.612  1.00  0.00     0.064 A 
ATOM     65  C   UNL A   1      38.747  29.442  28.750  1.00  0.00     0.173 A 
ATOM     66  C   UNL A   1      39.382  28.675  30.938  1.00  0.00     0.173 A 
ATOM     67  F   UNL A   1      39.044  29.738  27.475  1.00  0.00    -0.203 F 
ATOM     68  C   UNL A   1      37.450  29.663  29.205  1.00  0.00     0.198 A 
ATOM     69  C   UNL A   1      38.077  28.871  31.382  1.00  0.00     0.198 A 
ATOM     70  F   UNL A   1      40.294  28.203  31.800  1.00  0.00    -0.203 F 
ATOM     71  F   UNL A   1      36.528  30.171  28.374  1.00  0.00    -0.200 F 
ATOM     72  C   UNL A   1      37.114  29.371  30.517  1.00  0.00     0.200 A 
ATOM     73  F   UNL A   1      37.751  28.578  32.648  1.00  0.00    -0.200 F 
ATOM     74  F   UNL A   1      35.864  29.577  30.952  1.00  0.00    -0.200 F 
ENDBRANCH  50  64
BRANCH  51  75
ATOM     75  C   UNL A   1      48.928  26.776  26.365  1.00  0.00     0.064 A 
ATOM     76  C   UNL A   1      49.324  26.998  25.040  1.00  0.00     0.173 A 
ATOM     77  C   UNL A   1      49.880  26.254  27.253  1.00  0.00     0.173 A 
ATOM     78  F   UNL A   1      48.442  27.476  24.150  1.00  0.00    -0.203 F 
ATOM     79  C   UNL A   1      50.620  26.707  24.617  1.00  0.00     0.198 A 
ATOM     80  C   UNL A   1      51.182  25.984  26.835  1.00  0.00     0.198 A 
ATOM     81  F   UNL A   1      49.550  26.025  28.533  1.00  0.00    -0.203 F 
ATOM     82  F   UNL A   1      50.965  26.906  23.337  1.00  0.00    -0.200 F 
ATOM     83  C   UNL A   1      51.550  26.209  25.516  1.00  0.00     0.200 A 
ATOM     84  F   UNL A   1      52.081  25.513  27.710  1.00  0.00    -0.200 F 
ATOM     85  F   UNL A   1      52.798  25.939  25.113  1.00  0.00    -0.200 F 
ENDBRANCH  51  75
BRANCH  63  86
ATOM     86  C   UNL A   1      45.993  32.487  29.099  1.00  0.00     0.064 A 
ATOM     87  C   UNL A   1      46.628  32.749  30.321  1.00  0.00     0.173 A 
ATOM     88  C   UNL A   1      45.942  33.516  28.147  1.00  0.00     0.173 A 
ATOM     89  F   UNL A   1      46.691  31.799  31.267  1.00  0.00    -0.203 F 
ATOM     90  C   UNL A   1      47.189  33.997  30.581  1.00  0.00     0.198 A 
ATOM     91  C   UNL A   1      46.526  34.754  28.401  1.00  0.00     0.198 A 
ATOM     92  F   UNL A   1      45.352  33.312  26.961  1.00  0.00    -0.203 F 
ATOM     93  F   UNL A   1      47.769  34.234  31.765  1.00  0.00    -0.200 F 
ATOM     94  C   UNL A   1      47.146  34.994  29.617  1.00  0.00     0.200 A 
ATOM     95  F   UNL A   1      46.497  35.712  27.464  1.00  0.00    -0.200 F 
ATOM     96  F   UNL A   1      47.704  36.188  29.863  1.00  0.00    -0.200 F 
ENDBRANCH  63  86
ENDBRANCH  37  38
ENDBRANCH  29  32
ENDBRANCH  27  28
ENDBRANCH  26  27
ENDBRANCH  25  26
ENDBRANCH   1  25
TORSDOF 15
ENDMDL
MODEL 3
REMARK VINA RESULT:     -11.5      3.584      9.044
REMARK SMILES Cc1nc(Oc2ccc(F)cc2)c(C(=O)NCCCCCCNC(=O)c2ccc(-c3c4nc(c(-c5c(F)c(F)c(F)c(F)c5F)c5ccc([nH]5)c(-c5c(F)c(F)c(F)c(F)c5F)c5nc(c(-c6c(F)c(F)c(F)c(F)c6F)c6ccc3[nH]6)C=C5)C=C4)cc2)c(C)c1Cl
REMARK SMILES IDX 19 1 18 2 17 3 16 4 14 5 15 6 13 8 1 9 2 10 3 11 91 12 4 13
REMARK SMILES IDX 89 14 92 15 90 16 5 17 6 18 7 19 12 20 8 21 11 22 9 23 10 24
REMARK SMILES IDX 20 25 21 26 22 27 23 28 24 29 25 31 26 32 27 33 88 34 28 35
REMARK SMILES IDX 87 36 29 37 30 38 31 39 81 40 32 41 86 42 80 43 82 44 33 45
REMARK SMILES IDX 85 46 79 47 78 48 34 50 66 51 46 52 65 53 47 54 50 55 64 56
REMARK SMILES IDX 83 57 48 58 49 59 63 61 84 62 51 63 35 64 36 65 44 66 37 67
REMARK SMILES IDX 38 68 42 69 45 70 39 71 40 72 43 73 41 74 67 75 68 76 76 77
REMARK SMILES IDX 69 78 70 79 74 80 77 81 71 82 72 83 75 84 73 85 52 86 53 87
REMARK SMILES IDX 61 88 54 89 55 90 59 91 62 92 56 93 57 94 60 95 58 96
REMARK H PARENT 16 7 23 30 82 49 50 60
REMARK Flexibility Score: inf
ROOT
ATOM      1  C   UNL A   1      32.172  29.854  26.929  1.00  0.00     0.002 C 
ENDROOT
BRANCH   1   2
ATOM      2  C   UNL A   1      33.447  29.194  26.392  1.00  0.00     0.021 C 
BRANCH   2   3
ATOM      3  C   UNL A   1      33.512  27.673  26.327  1.00  0.00     0.116 C 
BRANCH   3   4
ATOM      4  N   UNL A   1      32.315  26.955  26.708  1.00  0.00    -0.352 N 
ATOM      5  C   UNL A   1      31.918  25.693  26.304  1.00  0.00     0.257 C 
ATOM      6  O   UNL A   1      31.174  25.032  27.023  1.00  0.00    -0.269 OA
ATOM      7  H   UNL A   1      31.711  27.420  27.331  1.00  0.00     0.163 HD
BRANCH   5   8
ATOM      8  C   UNL A   1      32.364  25.117  25.014  1.00  0.00     0.106 A 
ATOM      9  C   UNL A   1      33.205  23.164  21.308  1.00  0.00     0.068 C 
ATOM     10  C   UNL A   1      32.997  23.878  22.614  1.00  0.00     0.060 A 
ATOM     11  N   UNL A   1      31.880  24.637  22.694  1.00  0.00    -0.216 NA
ATOM     12  C   UNL A   1      33.852  23.708  23.701  1.00  0.00     0.066 A 
ATOM     13  C   UNL A   1      31.561  25.243  23.868  1.00  0.00     0.232 A 
ATOM     14  C   UNL A   1      33.514  24.288  24.942  1.00  0.00    -0.012 A 
ATOM     15  Cl  UNL A   1      35.300  22.769  23.523  1.00  0.00    -0.082 Cl
ATOM     16  C   UNL A   1      34.351  23.966  26.153  1.00  0.00     0.047 C 
BRANCH  13  17
ATOM     17  O   UNL A   1      30.305  25.789  23.778  1.00  0.00    -0.438 OA
BRANCH  17  18
ATOM     18  C   UNL A   1      30.106  27.094  23.430  1.00  0.00     0.129 A 
ATOM     19  C   UNL A   1      28.773  27.515  23.374  1.00  0.00     0.050 A 
ATOM     20  C   UNL A   1      31.138  27.954  23.054  1.00  0.00     0.050 A 
ATOM     21  C   UNL A   1      28.469  28.826  23.019  1.00  0.00     0.043 A 
ATOM     22  C   UNL A   1      30.830  29.268  22.694  1.00  0.00     0.043 A 
ATOM     23  C   UNL A   1      29.502  29.694  22.692  1.00  0.00     0.123 A 
ATOM     24  F   UNL A   1      29.217  30.960  22.363  1.00  0.00    -0.207 F 
ENDBRANCH  17  18
ENDBRANCH  13  17
ENDBRANCH   5   8
ENDBRANCH   3   4
ENDBRANCH   2   3
ENDBRANCH   1   2
BRANCH   1  25
ATOM     25  C   UNL A   1      31.422  30.858  26.047  1.00  0.00     0.002 C 
BRANCH  25  26
ATOM     26  C   UNL A   1      31.314  32.306  26.526  1.00  0.00     0.021 C 
BRANCH  26  27
ATOM     27  C   UNL A   1      32.546  32.897  27.199  1.00  0.00     0.116 C 
BRANCH  27  28
ATOM     28  N   UNL A   1      32.349  34.263  27.648  1.00  0.00    -0.352 N 
ATOM     29  C   UNL A   1      32.996  34.962  28.640  1.00  0.00     0.251 C 
ATOM     30  H   UNL A   1      31.649  34.764  27.170  1.00  0.00     0.163 HD
ATOM     31  O   UNL A   1      32.613  36.076  28.965  1.00  0.00    -0.269 OA
BRANCH  29  32
ATOM     32  C   UNL A   1      34.150  34.354  29.340  1.00  0.00     0.039 A 
ATOM     33  C   UNL A   1      33.913  33.595  30.490  1.00  0.00     0.014 A 
ATOM     34  C   UNL A   1      35.457  34.550  28.882  1.00  0.00     0.014 A 
ATOM     35  C   UNL A   1      34.981  32.986  31.151  1.00  0.00     0.010 A 
ATOM     36  C   UNL A   1      36.517  33.900  29.512  1.00  0.00     0.010 A 
ATOM     37  C   UNL A   1      36.288  33.118  30.654  1.00  0.00    -0.014 A 
BRANCH  37  38
ATOM     38  C   UNL A   1      37.431  32.473  31.346  1.00  0.00     0.031 A 
ATOM     39  C   UNL A   1      38.168  31.348  30.680  1.00  0.00     0.074 A 
ATOM     40  C   UNL A   1      37.786  32.881  32.578  1.00  0.00     0.049 A 
ATOM     41  N   UNL A   1      39.182  30.647  31.120  1.00  0.00    -0.248 NA
ATOM     42  C   UNL A   1      37.693  30.947  29.347  1.00  0.00     0.031 C 
ATOM     43  C   UNL A   1      37.133  33.950  33.334  1.00  0.00     0.029 A 
ATOM     44  N   UNL A   1      38.785  32.444  33.412  1.00  0.00    -0.354 N 
ATOM     45  C   UNL A   1      39.472  29.734  30.117  1.00  0.00     0.074 A 
ATOM     46  C   UNL A   1      38.488  29.923  29.073  1.00  0.00     0.031 C 
ATOM     47  C   UNL A   1      37.764  34.103  34.510  1.00  0.00     0.029 A 
ATOM     48  C   UNL A   1      38.847  33.128  34.602  1.00  0.00     0.049 A 
ATOM     49  H   UNL A   1      39.399  31.710  33.180  1.00  0.00     0.167 HD
ATOM     50  C   UNL A   1      40.486  28.839  30.058  1.00  0.00     0.037 A 
ATOM     51  C   UNL A   1      39.688  32.984  35.645  1.00  0.00     0.037 A 
ATOM     52  C   UNL A   1      41.465  28.655  31.095  1.00  0.00     0.049 A 
ATOM     53  C   UNL A   1      40.773  31.944  35.579  1.00  0.00     0.074 A 
ATOM     54  C   UNL A   1      42.547  27.793  31.117  1.00  0.00     0.029 A 
ATOM     55  N   UNL A   1      41.477  29.346  32.299  1.00  0.00    -0.354 N 
ATOM     56  N   UNL A   1      41.069  31.120  34.605  1.00  0.00    -0.248 NA
ATOM     57  C   UNL A   1      41.643  31.816  36.758  1.00  0.00     0.031 C 
ATOM     58  C   UNL A   1      43.190  27.934  32.350  1.00  0.00     0.029 A 
ATOM     59  C   UNL A   1      42.535  28.913  33.080  1.00  0.00     0.049 A 
ATOM     60  H   UNL A   1      40.828  30.039  32.558  1.00  0.00     0.167 HD
ATOM     61  C   UNL A   1      42.170  30.394  35.039  1.00  0.00     0.074 A 
ATOM     62  C   UNL A   1      42.497  30.880  36.363  1.00  0.00     0.031 C 
ATOM     63  C   UNL A   1      42.849  29.413  34.395  1.00  0.00     0.037 A 
BRANCH  50  64
ATOM     64  C   UNL A   1      40.596  28.000  28.819  1.00  0.00     0.064 A 
ATOM     65  C   UNL A   1      39.912  26.780  28.704  1.00  0.00     0.173 A 
ATOM     66  C   UNL A   1      41.357  28.433  27.724  1.00  0.00     0.173 A 
ATOM     67  F   UNL A   1      39.182  26.316  29.729  1.00  0.00    -0.203 F 
ATOM     68  C   UNL A   1      40.007  26.013  27.546  1.00  0.00     0.198 A 
ATOM     69  C   UNL A   1      41.427  27.677  26.558  1.00  0.00     0.198 A 
ATOM     70  F   UNL A   1      42.026  29.595  27.783  1.00  0.00    -0.203 F 
ATOM     71  F   UNL A   1      39.381  24.830  27.475  1.00  0.00    -0.200 F 
ATOM     72  C   UNL A   1      40.757  26.465  26.472  1.00  0.00     0.200 A 
ATOM     73  F   UNL A   1      42.144  28.120  25.516  1.00  0.00    -0.200 F 
ATOM     74  F   UNL A   1      40.842  25.729  25.355  1.00  0.00    -0.200 F 
ENDBRANCH  50  64
BRANCH  51  75
ATOM     75  C   UNL A   1      39.562  33.885  36.819  1.00  0.00     0.064 A 
ATOM     76  C   UNL A   1      38.804  33.504  37.933  1.00  0.00     0.173 A 
ATOM     77  C   UNL A   1      40.211  35.127  36.863  1.00  0.00     0.173 A 
ATOM     78  F   UNL A   1      38.149  32.333  37.928  1.00  0.00    -0.203 F 
ATOM     79  C   UNL A   1      38.695  34.333  39.048  1.00  0.00     0.198 A 
ATOM     80  C   UNL A   1      40.119  35.947  37.987  1.00  0.00     0.198 A 
ATOM     81  F   UNL A   1      40.950  35.537  35.822  1.00  0.00    -0.203 F 
ATOM     82  F   UNL A   1      37.942  33.954  40.090  1.00  0.00    -0.200 F 
ATOM     83  C   UNL A   1      39.359  35.549  39.078  1.00  0.00     0.200 A 
ATOM     84  F   UNL A   1      40.772  37.116  38.017  1.00  0.00    -0.200 F 
ATOM     85  F   UNL A   1      39.264  36.342  40.153  1.00  0.00    -0.200 F 
ENDBRANCH  51  75
BRANCH  63  86
ATOM     86  C   UNL A   1      44.026  28.804  35.098  1.00  0.00     0.064 A 
ATOM     87  C   UNL A   1      45.307  29.363  34.992  1.00  0.00     0.173 A 
ATOM     88  C   UNL A   1      43.853  27.706  35.953  1.00  0.00     0.173 A 
ATOM     89  F   UNL A   1      45.525  30.406  34.176  1.00  0.00    -0.203 F 
ATOM     90  C   UNL A   1      46.377  28.839  35.714  1.00  0.00     0.198 A 
ATOM     91  C   UNL A   1      44.918  27.201  36.693  1.00  0.00     0.198 A 
ATOM     92  F   UNL A   1      42.644  27.142  36.093  1.00  0.00    -0.203 F 
ATOM     93  F   UNL A   1      47.598  29.371  35.580  1.00  0.00    -0.200 F 
ATOM     94  C   UNL A   1      46.179  27.765  36.572  1.00  0.00     0.200 A 
ATOM     95  F   UNL A   1      44.723  26.173  37.531  1.00  0.00    -0.200 F 
ATOM     96  F   UNL A   1      47.205  27.275  37.280  1.00  0.00    -0.200 F 
ENDBRANCH  63  86
ENDBRANCH  37  38
ENDBRANCH  29  32
ENDBRANCH  27  28
ENDBRANCH  26  27
ENDBRANCH  25  26
ENDBRANCH   1  25
TORSDOF 15
ENDMDL
