MODEL 1
REMARK VINA RESULT:     -12.0      0.000      0.000
REMARK SMILES Cc1ccc(S(=O)(=O)n2cc(C(=O)C(=O)NCC(=O)N[C@H](Cc3c[nH]c4ccccc34)C(=O)NCCCCCCNC(=O)c3ccc(-c4c5nc(c(-c6c(F)c(F)c(F)c(F)c6F)c6ccc([nH]6)c(-c6c(F)c(F)c(F)c(F)c6F)c6nc(c(-c7c(F)c(F)c(F)c(F)c7F)c7ccc4[nH]7)C=C6)C=C5)cc3)c3ccccc32)cc1
REMARK SMILES IDX 35 1 34 2 32 3 33 4 21 6 20 7 18 8 19 9 17 11 16 12 14 13
REMARK SMILES IDX 15 14 12 16 13 17 11 18 9 19 10 20 112 21 107 22 111 23
REMARK SMILES IDX 108 24 110 25 109 26 6 27 7 28 8 29 5 30 1 31 2 32 3 33
REMARK SMILES IDX 114 34 4 35 113 36 22 37 23 38 24 39 31 40 25 41 26 42 30 43
REMARK SMILES IDX 27 45 29 46 28 47 36 48 37 49 38 50 39 51 40 52 41 53 42 54
REMARK SMILES IDX 43 56 44 57 45 58 106 59 46 60 105 61 47 62 48 63 49 64
REMARK SMILES IDX 99 65 50 66 104 67 98 68 100 69 51 70 103 71 97 72 96 73
REMARK SMILES IDX 52 75 84 76 64 77 83 78 65 79 68 80 82 81 101 82 66 83 67 84
REMARK SMILES IDX 81 86 102 87 69 88 53 89 54 90 62 91 55 92 56 93 60 94 63 95
REMARK SMILES IDX 57 96 58 97 61 98 59 99 85 100 86 101 94 102 87 103 88 104
REMARK SMILES IDX 92 105 95 106 89 107 90 108 93 109 91 110 70 111 71 112
REMARK SMILES IDX 79 113 72 114 73 115 77 116 80 117 74 118 75 119 78 120
REMARK SMILES IDX 76 121
REMARK H PARENT 34 5 20 10 16 15 25 44 41 55 100 74 68 85
REMARK Flexibility Score: inf
ROOT
ATOM      1  C   UNL A   1      38.648  28.946  28.310  1.00  0.00     0.116 C 
ENDROOT
BRANCH   1   2
ATOM      2  N   UNL A   1      37.933  28.851  29.567  1.00  0.00    -0.354 N 
ATOM      3  C   UNL A   1      36.775  29.402  30.011  1.00  0.00     0.242 C 
ATOM      4  O   UNL A   1      36.573  29.311  31.228  1.00  0.00    -0.273 OA
ATOM      5  H   UNL A   1      38.375  28.273  30.229  1.00  0.00     0.163 HD
BRANCH   3   6
ATOM      6  C   UNL A   1      35.756  30.126  29.117  1.00  0.00     0.175 C 
BRANCH   6   7
ATOM      7  N   UNL A   1      35.828  29.509  27.783  1.00  0.00    -0.342 N 
ATOM      8  C   UNL A   1      34.831  29.300  26.874  1.00  0.00     0.240 C 
ATOM      9  O   UNL A   1      35.122  28.621  25.884  1.00  0.00    -0.273 OA
ATOM     10  H   UNL A   1      36.722  29.203  27.507  1.00  0.00     0.164 HD
BRANCH   8  11
ATOM     11  C   UNL A   1      33.474  30.031  26.962  1.00  0.00     0.216 C 
BRANCH  11  12
ATOM     12  N   UNL A   1      32.404  29.413  27.740  1.00  0.00    -0.340 N 
ATOM     13  C   UNL A   1      31.509  28.426  27.353  1.00  0.00     0.292 C 
ATOM     14  O   UNL A   1      30.709  27.928  28.136  1.00  0.00    -0.265 OA
ATOM     15  H   UNL A   1      32.304  29.742  28.662  1.00  0.00     0.164 HD
BRANCH  13  16
ATOM     16  C   UNL A   1      31.547  27.919  25.916  1.00  0.00     0.252 C 
ATOM     17  O   UNL A   1      31.441  28.780  25.041  1.00  0.00    -0.283 OA
BRANCH  16  18
ATOM     18  C   UNL A   1      31.510  26.484  25.604  1.00  0.00     0.054 A 
ATOM     19  N   UNL A   1      31.146  24.250  25.528  1.00  0.00    -0.240 N 
ATOM     20  C   UNL A   1      30.853  25.419  26.233  1.00  0.00     0.117 A 
ATOM     21  C   UNL A   1      31.783  24.632  24.332  1.00  0.00     0.065 A 
ATOM     22  C   UNL A   1      32.298  25.904  24.566  1.00  0.00     0.012 A 
ATOM     23  C   UNL A   1      32.200  23.864  23.227  1.00  0.00     0.028 A 
ATOM     24  C   UNL A   1      33.386  26.347  23.786  1.00  0.00     0.011 A 
ATOM     25  C   UNL A   1      33.330  24.287  22.527  1.00  0.00     0.002 A 
ATOM     26  C   UNL A   1      33.941  25.495  22.827  1.00  0.00     0.001 A 
BRANCH  19  27
ATOM     27  S   UNL A   1      31.877  22.804  26.186  1.00  0.00     0.268 S 
ATOM     28  O   UNL A   1      30.984  21.752  25.728  1.00  0.00    -0.201 OA
ATOM     29  O   UNL A   1      31.986  23.133  27.602  1.00  0.00    -0.201 OA
BRANCH  27  30
ATOM     30  C   UNL A   1      33.492  22.195  25.866  1.00  0.00     0.088 A 
ATOM     31  C   UNL A   1      37.729  21.796  25.107  1.00  0.00     0.044 C 
ATOM     32  C   UNL A   1      36.257  21.874  25.400  1.00  0.00    -0.051 A 
ATOM     33  C   UNL A   1      35.806  22.995  26.080  1.00  0.00     0.005 A 
ATOM     34  C   UNL A   1      35.317  20.907  24.976  1.00  0.00     0.005 A 
ATOM     35  C   UNL A   1      34.451  23.139  26.316  1.00  0.00     0.022 A 
ATOM     36  C   UNL A   1      33.922  21.061  25.200  1.00  0.00     0.022 A 
ENDBRANCH  27  30
ENDBRANCH  19  27
ENDBRANCH  16  18
ENDBRANCH  13  16
ENDBRANCH  11  12
ENDBRANCH   8  11
ENDBRANCH   6   7
BRANCH   6  37
ATOM     37  C   UNL A   1      35.813  31.671  29.056  1.00  0.00     0.072 C 
BRANCH  37  38
ATOM     38  C   UNL A   1      35.050  32.533  30.034  1.00  0.00    -0.020 A 
ATOM     39  C   UNL A   1      34.795  32.344  31.379  1.00  0.00     0.087 A 
ATOM     40  C   UNL A   1      34.424  33.797  29.712  1.00  0.00     0.003 A 
ATOM     41  N   UNL A   1      34.290  33.499  31.909  1.00  0.00    -0.361 N 
ATOM     42  C   UNL A   1      34.041  34.400  30.911  1.00  0.00     0.046 A 
ATOM     43  C   UNL A   1      34.168  34.499  28.515  1.00  0.00     0.010 A 
ATOM     44  H   UNL A   1      34.130  33.658  32.867  1.00  0.00     0.166 HD
ATOM     45  C   UNL A   1      33.494  35.684  30.990  1.00  0.00     0.026 A 
ATOM     46  C   UNL A   1      33.553  35.760  28.570  1.00  0.00     0.001 A 
ATOM     47  C   UNL A   1      33.245  36.352  29.792  1.00  0.00     0.002 A 
ENDBRANCH  37  38
ENDBRANCH   6  37
ENDBRANCH   3   6
ENDBRANCH   1   2
BRANCH   1  48
ATOM     48  C   UNL A   1      39.064  27.574  27.780  1.00  0.00     0.021 C 
BRANCH  48  49
ATOM     49  C   UNL A   1      40.432  27.536  27.081  1.00  0.00     0.002 C 
BRANCH  49  50
ATOM     50  C   UNL A   1      40.703  26.306  26.202  1.00  0.00     0.002 C 
BRANCH  50  51
ATOM     51  C   UNL A   1      39.879  25.064  26.534  1.00  0.00     0.021 C 
BRANCH  51  52
ATOM     52  C   UNL A   1      40.561  24.103  27.500  1.00  0.00     0.116 C 
BRANCH  52  53
ATOM     53  N   UNL A   1      41.377  23.100  26.845  1.00  0.00    -0.352 N 
ATOM     54  C   UNL A   1      42.695  23.150  26.418  1.00  0.00     0.251 C 
ATOM     55  H   UNL A   1      40.922  22.243  26.677  1.00  0.00     0.163 HD
ATOM     56  O   UNL A   1      43.112  22.289  25.681  1.00  0.00    -0.269 OA
BRANCH  54  57
ATOM     57  C   UNL A   1      43.637  24.148  27.004  1.00  0.00     0.039 A 
ATOM     58  C   UNL A   1      43.997  23.954  28.348  1.00  0.00     0.014 A 
ATOM     59  C   UNL A   1      43.983  25.334  26.367  1.00  0.00     0.014 A 
ATOM     60  C   UNL A   1      44.459  25.028  29.105  1.00  0.00     0.010 A 
ATOM     61  C   UNL A   1      44.355  26.423  27.127  1.00  0.00     0.010 A 
ATOM     62  C   UNL A   1      44.521  26.282  28.505  1.00  0.00    -0.014 A 
BRANCH  62  63
ATOM     63  C   UNL A   1      44.641  27.524  29.247  1.00  0.00     0.031 A 
ATOM     64  C   UNL A   1      43.444  28.180  29.801  1.00  0.00     0.074 A 
ATOM     65  C   UNL A   1      45.878  27.991  29.527  1.00  0.00     0.049 A 
ATOM     66  N   UNL A   1      43.391  29.432  30.105  1.00  0.00    -0.248 NA
ATOM     67  C   UNL A   1      42.187  27.476  30.031  1.00  0.00     0.031 C 
ATOM     68  C   UNL A   1      46.244  29.022  30.493  1.00  0.00     0.029 A 
ATOM     69  N   UNL A   1      47.071  27.722  28.835  1.00  0.00    -0.354 N 
ATOM     70  C   UNL A   1      42.221  29.642  30.794  1.00  0.00     0.074 A 
ATOM     71  C   UNL A   1      41.478  28.408  30.677  1.00  0.00     0.031 C 
ATOM     72  C   UNL A   1      47.452  29.510  30.170  1.00  0.00     0.029 A 
ATOM     73  C   UNL A   1      47.827  28.914  28.899  1.00  0.00     0.049 A 
ATOM     74  H   UNL A   1      47.327  26.879  28.396  1.00  0.00     0.167 HD
ATOM     75  C   UNL A   1      42.059  30.796  31.499  1.00  0.00     0.037 A 
ATOM     76  C   UNL A   1      48.130  29.619  27.770  1.00  0.00     0.037 A 
ATOM     77  C   UNL A   1      43.212  31.675  31.352  1.00  0.00     0.049 A 
ATOM     78  C   UNL A   1      47.582  31.027  27.770  1.00  0.00     0.074 A 
ATOM     79  C   UNL A   1      44.352  31.846  32.118  1.00  0.00     0.029 A 
ATOM     80  N   UNL A   1      43.471  32.260  30.119  1.00  0.00    -0.354 N 
ATOM     81  N   UNL A   1      46.584  31.415  28.516  1.00  0.00    -0.248 NA
ATOM     82  C   UNL A   1      48.095  32.098  26.921  1.00  0.00     0.031 C 
ATOM     83  C   UNL A   1      45.327  32.487  31.317  1.00  0.00     0.029 A 
ATOM     84  C   UNL A   1      44.769  32.730  30.074  1.00  0.00     0.049 A 
ATOM     85  H   UNL A   1      42.822  32.330  29.382  1.00  0.00     0.167 HD
ATOM     86  C   UNL A   1      46.308  32.732  28.260  1.00  0.00     0.074 A 
ATOM     87  C   UNL A   1      47.289  33.119  27.264  1.00  0.00     0.031 C 
ATOM     88  C   UNL A   1      45.289  33.389  28.887  1.00  0.00     0.037 A 
BRANCH  75  89
ATOM     89  C   UNL A   1      40.981  30.974  32.530  1.00  0.00     0.064 A 
ATOM     90  C   UNL A   1      41.099  30.401  33.814  1.00  0.00     0.173 A 
ATOM     91  C   UNL A   1      39.783  31.670  32.288  1.00  0.00     0.173 A 
ATOM     92  F   UNL A   1      42.210  29.756  34.193  1.00  0.00    -0.203 F 
ATOM     93  C   UNL A   1      40.065  30.450  34.750  1.00  0.00     0.198 A 
ATOM     94  C   UNL A   1      38.729  31.675  33.207  1.00  0.00     0.198 A 
ATOM     95  F   UNL A   1      39.615  32.377  31.161  1.00  0.00    -0.203 F 
ATOM     96  F   UNL A   1      40.230  29.882  35.953  1.00  0.00    -0.200 F 
ATOM     97  C   UNL A   1      38.868  31.060  34.436  1.00  0.00     0.200 A 
ATOM     98  F   UNL A   1      37.572  32.274  32.888  1.00  0.00    -0.200 F 
ATOM     99  F   UNL A   1      37.859  31.064  35.316  1.00  0.00    -0.200 F 
ENDBRANCH  75  89
BRANCH  76 100
ATOM    100  C   UNL A   1      48.269  28.753  26.569  1.00  0.00     0.064 A 
ATOM    101  C   UNL A   1      49.399  27.917  26.485  1.00  0.00     0.173 A 
ATOM    102  C   UNL A   1      47.171  28.441  25.759  1.00  0.00     0.173 A 
ATOM    103  F   UNL A   1      50.478  28.172  27.245  1.00  0.00    -0.203 F 
ATOM    104  C   UNL A   1      49.381  26.747  25.729  1.00  0.00     0.198 A 
ATOM    105  C   UNL A   1      47.163  27.275  24.988  1.00  0.00     0.198 A 
ATOM    106  F   UNL A   1      46.061  29.191  25.801  1.00  0.00    -0.203 F 
ATOM    107  F   UNL A   1      50.427  25.909  25.771  1.00  0.00    -0.200 F 
ATOM    108  C   UNL A   1      48.251  26.412  25.005  1.00  0.00     0.200 A 
ATOM    109  F   UNL A   1      46.061  26.938  24.304  1.00  0.00    -0.200 F 
ATOM    110  F   UNL A   1      48.193  25.241  24.356  1.00  0.00    -0.200 F 
ENDBRANCH  76 100
BRANCH  88 111
ATOM    111  C   UNL A   1      44.742  34.745  28.517  1.00  0.00     0.064 A 
ATOM    112  C   UNL A   1      43.888  34.971  27.426  1.00  0.00     0.173 A 
ATOM    113  C   UNL A   1      44.947  35.856  29.373  1.00  0.00     0.173 A 
ATOM    114  F   UNL A   1      43.524  33.976  26.608  1.00  0.00    -0.203 F 
ATOM    115  C   UNL A   1      43.326  36.226  27.177  1.00  0.00     0.198 A 
ATOM    116  C   UNL A   1      44.336  37.090  29.155  1.00  0.00     0.198 A 
ATOM    117  F   UNL A   1      45.721  35.768  30.465  1.00  0.00    -0.203 F 
ATOM    118  F   UNL A   1      42.547  36.401  26.100  1.00  0.00    -0.200 F 
ATOM    119  C   UNL A   1      43.539  37.280  28.048  1.00  0.00     0.200 A 
ATOM    120  F   UNL A   1      44.510  38.083  30.038  1.00  0.00    -0.200 F 
ATOM    121  F   UNL A   1      42.958  38.467  27.831  1.00  0.00    -0.200 F 
ENDBRANCH  88 111
ENDBRANCH  62  63
ENDBRANCH  54  57
ENDBRANCH  52  53
ENDBRANCH  51  52
ENDBRANCH  50  51
ENDBRANCH  49  50
ENDBRANCH  48  49
ENDBRANCH   1  48
TORSDOF 22
ENDMDL
MODEL 2
REMARK VINA RESULT:     -11.4      4.789      7.292
REMARK SMILES Cc1ccc(S(=O)(=O)n2cc(C(=O)C(=O)NCC(=O)N[C@H](Cc3c[nH]c4ccccc34)C(=O)NCCCCCCNC(=O)c3ccc(-c4c5nc(c(-c6c(F)c(F)c(F)c(F)c6F)c6ccc([nH]6)c(-c6c(F)c(F)c(F)c(F)c6F)c6nc(c(-c7c(F)c(F)c(F)c(F)c7F)c7ccc4[nH]7)C=C6)C=C5)cc3)c3ccccc32)cc1
REMARK SMILES IDX 35 1 34 2 32 3 33 4 21 6 20 7 18 8 19 9 17 11 16 12 14 13
REMARK SMILES IDX 15 14 12 16 13 17 11 18 9 19 10 20 112 21 107 22 111 23
REMARK SMILES IDX 108 24 110 25 109 26 6 27 7 28 8 29 5 30 1 31 2 32 3 33
REMARK SMILES IDX 114 34 4 35 113 36 22 37 23 38 24 39 31 40 25 41 26 42 30 43
REMARK SMILES IDX 27 45 29 46 28 47 36 48 37 49 38 50 39 51 40 52 41 53 42 54
REMARK SMILES IDX 43 56 44 57 45 58 106 59 46 60 105 61 47 62 48 63 49 64
REMARK SMILES IDX 99 65 50 66 104 67 98 68 100 69 51 70 103 71 97 72 96 73
REMARK SMILES IDX 52 75 84 76 64 77 83 78 65 79 68 80 82 81 101 82 66 83 67 84
REMARK SMILES IDX 81 86 102 87 69 88 53 89 54 90 62 91 55 92 56 93 60 94 63 95
REMARK SMILES IDX 57 96 58 97 61 98 59 99 85 100 86 101 94 102 87 103 88 104
REMARK SMILES IDX 92 105 95 106 89 107 90 108 93 109 91 110 70 111 71 112
REMARK SMILES IDX 79 113 72 114 73 115 77 116 80 117 74 118 75 119 78 120
REMARK SMILES IDX 76 121
REMARK H PARENT 34 5 20 10 16 15 25 44 41 55 100 74 68 85
REMARK Flexibility Score: inf
ROOT
ATOM      1  C   UNL A   1      39.384  29.364  27.640  1.00  0.00     0.116 C 
ENDROOT
BRANCH   1   2
ATOM      2  N   UNL A   1      38.596  28.946  28.781  1.00  0.00    -0.354 N 
ATOM      3  C   UNL A   1      37.411  29.371  29.288  1.00  0.00     0.242 C 
ATOM      4  O   UNL A   1      37.138  28.962  30.423  1.00  0.00    -0.273 OA
ATOM      5  H   UNL A   1      39.000  28.206  29.289  1.00  0.00     0.163 HD
BRANCH   3   6
ATOM      6  C   UNL A   1      36.444  30.320  28.563  1.00  0.00     0.175 C 
BRANCH   6   7
ATOM      7  N   UNL A   1      36.109  29.699  27.272  1.00  0.00    -0.342 N 
ATOM      8  C   UNL A   1      34.883  29.461  26.720  1.00  0.00     0.240 C 
ATOM      9  O   UNL A   1      34.865  28.786  25.686  1.00  0.00    -0.273 OA
ATOM     10  H   UNL A   1      36.878  29.414  26.728  1.00  0.00     0.164 HD
BRANCH   8  11
ATOM     11  C   UNL A   1      33.604  30.159  27.232  1.00  0.00     0.216 C 
BRANCH  11  12
ATOM     12  N   UNL A   1      32.592  29.346  27.900  1.00  0.00    -0.340 N 
ATOM     13  C   UNL A   1      31.607  28.548  27.335  1.00  0.00     0.292 C 
ATOM     14  O   UNL A   1      30.870  27.842  28.012  1.00  0.00    -0.265 OA
ATOM     15  H   UNL A   1      32.611  29.366  28.885  1.00  0.00     0.164 HD
BRANCH  13  16
ATOM     16  C   UNL A   1      31.461  28.524  25.818  1.00  0.00     0.252 C 
ATOM     17  O   UNL A   1      31.251  29.612  25.281  1.00  0.00    -0.283 OA
BRANCH  16  18
ATOM     18  C   UNL A   1      31.378  27.260  25.072  1.00  0.00     0.054 A 
ATOM     19  N   UNL A   1      30.972  25.162  24.322  1.00  0.00    -0.240 N 
ATOM     20  C   UNL A   1      30.749  26.047  25.378  1.00  0.00     0.117 A 
ATOM     21  C   UNL A   1      31.529  25.907  23.264  1.00  0.00     0.065 A 
ATOM     22  C   UNL A   1      32.081  27.043  23.850  1.00  0.00     0.012 A 
ATOM     23  C   UNL A   1      31.854  25.531  21.946  1.00  0.00     0.028 A 
ATOM     24  C   UNL A   1      33.118  27.717  23.173  1.00  0.00     0.011 A 
ATOM     25  C   UNL A   1      32.939  26.160  21.335  1.00  0.00     0.002 A 
ATOM     26  C   UNL A   1      33.590  27.215  21.957  1.00  0.00     0.001 A 
BRANCH  19  27
ATOM     27  S   UNL A   1      31.723  23.588  24.434  1.00  0.00     0.268 S 
ATOM     28  O   UNL A   1      31.083  22.846  23.360  1.00  0.00    -0.201 OA
ATOM     29  O   UNL A   1      31.492  23.238  25.831  1.00  0.00    -0.201 OA
BRANCH  27  30
ATOM     30  C   UNL A   1      33.432  23.217  24.282  1.00  0.00     0.088 A 
ATOM     31  C   UNL A   1      37.369  21.465  24.616  1.00  0.00     0.044 C 
ATOM     32  C   UNL A   1      36.016  22.094  24.437  1.00  0.00    -0.051 A 
ATOM     33  C   UNL A   1      34.910  21.292  24.669  1.00  0.00     0.005 A 
ATOM     34  C   UNL A   1      35.818  23.454  24.106  1.00  0.00     0.005 A 
ATOM     35  C   UNL A   1      33.646  21.846  24.578  1.00  0.00     0.022 A 
ATOM     36  C   UNL A   1      34.522  24.031  24.030  1.00  0.00     0.022 A 
ENDBRANCH  27  30
ENDBRANCH  19  27
ENDBRANCH  16  18
ENDBRANCH  13  16
ENDBRANCH  11  12
ENDBRANCH   8  11
ENDBRANCH   6   7
BRANCH   6  37
ATOM     37  C   UNL A   1      36.857  31.804  28.414  1.00  0.00     0.072 C 
BRANCH  37  38
ATOM     38  C   UNL A   1      36.087  32.914  29.091  1.00  0.00    -0.020 A 
ATOM     39  C   UNL A   1      35.567  34.083  28.571  1.00  0.00     0.087 A 
ATOM     40  C   UNL A   1      35.728  32.938  30.492  1.00  0.00     0.003 A 
ATOM     41  N   UNL A   1      34.735  34.655  29.493  1.00  0.00    -0.361 N 
ATOM     42  C   UNL A   1      34.824  33.984  30.682  1.00  0.00     0.046 A 
ATOM     43  C   UNL A   1      36.068  32.155  31.616  1.00  0.00     0.010 A 
ATOM     44  H   UNL A   1      34.157  35.435  29.326  1.00  0.00     0.166 HD
ATOM     45  C   UNL A   1      34.184  34.243  31.898  1.00  0.00     0.026 A 
ATOM     46  C   UNL A   1      35.490  32.445  32.862  1.00  0.00     0.001 A 
ATOM     47  C   UNL A   1      34.544  33.458  32.992  1.00  0.00     0.002 A 
ENDBRANCH  37  38
ENDBRANCH   6  37
ENDBRANCH   3   6
ENDBRANCH   1   2
BRANCH   1  48
ATOM     48  C   UNL A   1      40.575  28.439  27.392  1.00  0.00     0.021 C 
BRANCH  48  49
ATOM     49  C   UNL A   1      41.758  28.631  28.355  1.00  0.00     0.002 C 
BRANCH  49  50
ATOM     50  C   UNL A   1      43.147  28.699  27.706  1.00  0.00     0.002 C 
BRANCH  50  51
ATOM     51  C   UNL A   1      43.382  27.731  26.549  1.00  0.00     0.021 C 
BRANCH  51  52
ATOM     52  C   UNL A   1      43.848  26.346  26.979  1.00  0.00     0.116 C 
BRANCH  52  53
ATOM     53  N   UNL A   1      45.212  26.042  26.593  1.00  0.00    -0.352 N 
ATOM     54  C   UNL A   1      46.333  25.791  27.369  1.00  0.00     0.251 C 
ATOM     55  H   UNL A   1      45.368  26.009  25.621  1.00  0.00     0.163 HD
ATOM     56  O   UNL A   1      47.425  25.796  26.851  1.00  0.00    -0.269 OA
BRANCH  54  57
ATOM     57  C   UNL A   1      46.181  25.339  28.782  1.00  0.00     0.039 A 
ATOM     58  C   UNL A   1      45.203  24.360  29.024  1.00  0.00     0.014 A 
ATOM     59  C   UNL A   1      46.790  25.978  29.856  1.00  0.00     0.014 A 
ATOM     60  C   UNL A   1      44.665  24.217  30.300  1.00  0.00     0.010 A 
ATOM     61  C   UNL A   1      46.204  25.908  31.102  1.00  0.00     0.010 A 
ATOM     62  C   UNL A   1      45.096  25.082  31.301  1.00  0.00    -0.014 A 
BRANCH  62  63
ATOM     63  C   UNL A   1      44.390  25.282  32.554  1.00  0.00     0.031 A 
ATOM     64  C   UNL A   1      43.797  26.592  32.874  1.00  0.00     0.074 A 
ATOM     65  C   UNL A   1      44.176  24.212  33.351  1.00  0.00     0.049 A 
ATOM     66  N   UNL A   1      43.520  26.977  34.073  1.00  0.00    -0.248 NA
ATOM     67  C   UNL A   1      43.495  27.596  31.860  1.00  0.00     0.031 C 
ATOM     68  C   UNL A   1      43.252  24.109  34.476  1.00  0.00     0.029 A 
ATOM     69  N   UNL A   1      44.915  23.017  33.396  1.00  0.00    -0.354 N 
ATOM     70  C   UNL A   1      42.784  28.133  33.978  1.00  0.00     0.074 A 
ATOM     71  C   UNL A   1      42.840  28.511  32.584  1.00  0.00     0.031 C 
ATOM     72  C   UNL A   1      43.640  23.095  35.265  1.00  0.00     0.029 A 
ATOM     73  C   UNL A   1      44.912  22.617  34.752  1.00  0.00     0.049 A 
ATOM     74  H   UNL A   1      45.345  22.555  32.641  1.00  0.00     0.167 HD
ATOM     75  C   UNL A   1      42.100  28.580  35.066  1.00  0.00     0.037 A 
ATOM     76  C   UNL A   1      46.069  22.562  35.474  1.00  0.00     0.037 A 
ATOM     77  C   UNL A   1      42.318  27.721  36.222  1.00  0.00     0.049 A 
ATOM     78  C   UNL A   1      46.077  23.477  36.676  1.00  0.00     0.074 A 
ATOM     79  C   UNL A   1      41.608  26.644  36.726  1.00  0.00     0.029 A 
ATOM     80  N   UNL A   1      43.575  27.679  36.814  1.00  0.00    -0.354 N 
ATOM     81  N   UNL A   1      45.296  24.515  36.800  1.00  0.00    -0.248 NA
ATOM     82  C   UNL A   1      46.972  23.311  37.817  1.00  0.00     0.031 C 
ATOM     83  C   UNL A   1      42.467  25.914  37.583  1.00  0.00     0.029 A 
ATOM     84  C   UNL A   1      43.689  26.563  37.620  1.00  0.00     0.049 A 
ATOM     85  H   UNL A   1      44.283  28.348  36.677  1.00  0.00     0.167 HD
ATOM     86  C   UNL A   1      45.569  25.152  37.982  1.00  0.00     0.074 A 
ATOM     87  C   UNL A   1      46.617  24.354  38.589  1.00  0.00     0.031 C 
ATOM     88  C   UNL A   1      44.912  26.290  38.354  1.00  0.00     0.037 A 
BRANCH  75  89
ATOM     89  C   UNL A   1      41.026  29.627  34.977  1.00  0.00     0.064 A 
ATOM     90  C   UNL A   1      41.101  30.815  35.734  1.00  0.00     0.173 A 
ATOM     91  C   UNL A   1      39.872  29.489  34.185  1.00  0.00     0.173 A 
ATOM     92  F   UNL A   1      42.170  31.096  36.491  1.00  0.00    -0.203 F 
ATOM     93  C   UNL A   1      40.064  31.749  35.761  1.00  0.00     0.198 A 
ATOM     94  C   UNL A   1      38.813  30.400  34.250  1.00  0.00     0.198 A 
ATOM     95  F   UNL A   1      39.754  28.476  33.314  1.00  0.00    -0.203 F 
ATOM     96  F   UNL A   1      40.187  32.858  36.505  1.00  0.00    -0.200 F 
ATOM     97  C   UNL A   1      38.907  31.527  35.043  1.00  0.00     0.200 A 
ATOM     98  F   UNL A   1      37.695  30.171  33.546  1.00  0.00    -0.200 F 
ATOM     99  F   UNL A   1      37.892  32.399  35.107  1.00  0.00    -0.200 F 
ENDBRANCH  75  89
BRANCH  76 100
ATOM    100  C   UNL A   1      47.256  22.234  34.638  1.00  0.00     0.064 A 
ATOM    101  C   UNL A   1      48.179  23.263  34.370  1.00  0.00     0.173 A 
ATOM    102  C   UNL A   1      47.690  20.915  34.467  1.00  0.00     0.173 A 
ATOM    103  F   UNL A   1      47.813  24.547  34.524  1.00  0.00    -0.203 F 
ATOM    104  C   UNL A   1      49.512  22.984  34.075  1.00  0.00     0.198 A 
ATOM    105  C   UNL A   1      49.023  20.638  34.154  1.00  0.00     0.198 A 
ATOM    106  F   UNL A   1      46.863  19.890  34.718  1.00  0.00    -0.203 F 
ATOM    107  F   UNL A   1      50.392  23.987  33.950  1.00  0.00    -0.200 F 
ATOM    108  C   UNL A   1      49.939  21.670  33.997  1.00  0.00     0.200 A 
ATOM    109  F   UNL A   1      49.444  19.366  34.100  1.00  0.00    -0.200 F 
ATOM    110  F   UNL A   1      51.238  21.398  33.812  1.00  0.00    -0.200 F 
ENDBRANCH  76 100
BRANCH  88 111
ATOM    111  C   UNL A   1      45.289  27.202  39.495  1.00  0.00     0.064 A 
ATOM    112  C   UNL A   1      44.923  26.975  40.830  1.00  0.00     0.173 A 
ATOM    113  C   UNL A   1      46.190  28.277  39.282  1.00  0.00     0.173 A 
ATOM    114  F   UNL A   1      44.170  25.924  41.177  1.00  0.00    -0.203 F 
ATOM    115  C   UNL A   1      45.376  27.793  41.869  1.00  0.00     0.198 A 
ATOM    116  C   UNL A   1      46.687  29.053  40.327  1.00  0.00     0.198 A 
ATOM    117  F   UNL A   1      46.637  28.585  38.056  1.00  0.00    -0.203 F 
ATOM    118  F   UNL A   1      44.967  27.558  43.123  1.00  0.00    -0.200 F 
ATOM    119  C   UNL A   1      46.268  28.822  41.619  1.00  0.00     0.200 A 
ATOM    120  F   UNL A   1      47.591  30.010  40.074  1.00  0.00    -0.200 F 
ATOM    121  F   UNL A   1      46.736  29.572  42.626  1.00  0.00    -0.200 F 
ENDBRANCH  88 111
ENDBRANCH  62  63
ENDBRANCH  54  57
ENDBRANCH  52  53
ENDBRANCH  51  52
ENDBRANCH  50  51
ENDBRANCH  49  50
ENDBRANCH  48  49
ENDBRANCH   1  48
TORSDOF 22
ENDMDL
MODEL 3
REMARK VINA RESULT:     -11.0      4.039      8.993
REMARK SMILES Cc1ccc(S(=O)(=O)n2cc(C(=O)C(=O)NCC(=O)N[C@H](Cc3c[nH]c4ccccc34)C(=O)NCCCCCCNC(=O)c3ccc(-c4c5nc(c(-c6c(F)c(F)c(F)c(F)c6F)c6ccc([nH]6)c(-c6c(F)c(F)c(F)c(F)c6F)c6nc(c(-c7c(F)c(F)c(F)c(F)c7F)c7ccc4[nH]7)C=C6)C=C5)cc3)c3ccccc32)cc1
REMARK SMILES IDX 35 1 34 2 32 3 33 4 21 6 20 7 18 8 19 9 17 11 16 12 14 13
REMARK SMILES IDX 15 14 12 16 13 17 11 18 9 19 10 20 112 21 107 22 111 23
REMARK SMILES IDX 108 24 110 25 109 26 6 27 7 28 8 29 5 30 1 31 2 32 3 33
REMARK SMILES IDX 114 34 4 35 113 36 22 37 23 38 24 39 31 40 25 41 26 42 30 43
REMARK SMILES IDX 27 45 29 46 28 47 36 48 37 49 38 50 39 51 40 52 41 53 42 54
REMARK SMILES IDX 43 56 44 57 45 58 106 59 46 60 105 61 47 62 48 63 49 64
REMARK SMILES IDX 99 65 50 66 104 67 98 68 100 69 51 70 103 71 97 72 96 73
REMARK SMILES IDX 52 75 84 76 64 77 83 78 65 79 68 80 82 81 101 82 66 83 67 84
REMARK SMILES IDX 81 86 102 87 69 88 53 89 54 90 62 91 55 92 56 93 60 94 63 95
REMARK SMILES IDX 57 96 58 97 61 98 59 99 85 100 86 101 94 102 87 103 88 104
REMARK SMILES IDX 92 105 95 106 89 107 90 108 93 109 91 110 70 111 71 112
REMARK SMILES IDX 79 113 72 114 73 115 77 116 80 117 74 118 75 119 78 120
REMARK SMILES IDX 76 121
REMARK H PARENT 34 5 20 10 16 15 25 44 41 55 100 74 68 85
REMARK Flexibility Score: inf
ROOT
ATOM      1  C   UNL A   1      41.592  27.325  26.070  1.00  0.00     0.116 C 
ENDROOT
BRANCH   1   2
ATOM      2  N   UNL A   1      42.616  26.484  26.657  1.00  0.00    -0.354 N 
ATOM      3  C   UNL A   1      42.658  25.162  26.961  1.00  0.00     0.242 C 
ATOM      4  O   UNL A   1      43.599  24.811  27.684  1.00  0.00    -0.273 OA
ATOM      5  H   UNL A   1      43.443  26.967  26.879  1.00  0.00     0.163 HD
BRANCH   3   6
ATOM      6  C   UNL A   1      41.623  24.127  26.493  1.00  0.00     0.175 C 
BRANCH   6   7
ATOM      7  N   UNL A   1      40.505  24.164  27.449  1.00  0.00    -0.342 N 
ATOM      8  C   UNL A   1      39.164  24.237  27.205  1.00  0.00     0.240 C 
ATOM      9  O   UNL A   1      38.435  24.408  28.187  1.00  0.00    -0.273 OA
ATOM     10  H   UNL A   1      40.760  24.131  28.399  1.00  0.00     0.164 HD
BRANCH   8  11
ATOM     11  C   UNL A   1      38.564  23.923  25.818  1.00  0.00     0.216 C 
BRANCH  11  12
ATOM     12  N   UNL A   1      38.562  22.535  25.363  1.00  0.00    -0.340 N 
ATOM     13  C   UNL A   1      37.490  21.663  25.242  1.00  0.00     0.292 C 
ATOM     14  O   UNL A   1      37.611  20.542  24.761  1.00  0.00    -0.265 OA
ATOM     15  H   UNL A   1      39.440  22.170  25.107  1.00  0.00     0.164 HD
BRANCH  13  16
ATOM     16  C   UNL A   1      36.109  22.126  25.692  1.00  0.00     0.252 C 
ATOM     17  O   UNL A   1      35.727  21.695  26.780  1.00  0.00    -0.283 OA
BRANCH  16  18
ATOM     18  C   UNL A   1      35.218  22.874  24.795  1.00  0.00     0.054 A 
ATOM     19  N   UNL A   1      34.124  24.426  23.561  1.00  0.00    -0.240 N 
ATOM     20  C   UNL A   1      35.159  24.237  24.478  1.00  0.00     0.117 A 
ATOM     21  C   UNL A   1      33.707  23.151  23.133  1.00  0.00     0.065 A 
ATOM     22  C   UNL A   1      34.114  22.266  24.126  1.00  0.00     0.012 A 
ATOM     23  C   UNL A   1      32.768  22.771  22.153  1.00  0.00     0.028 A 
ATOM     24  C   UNL A   1      33.437  21.035  24.256  1.00  0.00     0.011 A 
ATOM     25  C   UNL A   1      32.056  21.589  22.353  1.00  0.00     0.002 A 
ATOM     26  C   UNL A   1      32.358  20.749  23.414  1.00  0.00     0.001 A 
BRANCH  19  27
ATOM     27  S   UNL A   1      32.752  25.493  23.758  1.00  0.00     0.268 S 
ATOM     28  O   UNL A   1      31.687  24.583  24.144  1.00  0.00    -0.201 OA
ATOM     29  O   UNL A   1      32.720  26.189  22.477  1.00  0.00    -0.201 OA
BRANCH  27  30
ATOM     30  C   UNL A   1      32.615  26.845  24.869  1.00  0.00     0.088 A 
ATOM     31  C   UNL A   1      31.910  30.709  26.676  1.00  0.00     0.044 C 
ATOM     32  C   UNL A   1      32.142  29.336  26.107  1.00  0.00    -0.051 A 
ATOM     33  C   UNL A   1      31.430  28.996  24.967  1.00  0.00     0.005 A 
ATOM     34  C   UNL A   1      33.073  28.412  26.634  1.00  0.00     0.005 A 
ATOM     35  C   UNL A   1      31.658  27.768  24.373  1.00  0.00     0.022 A 
ATOM     36  C   UNL A   1      33.323  27.158  26.016  1.00  0.00     0.022 A 
ENDBRANCH  27  30
ENDBRANCH  19  27
ENDBRANCH  16  18
ENDBRANCH  13  16
ENDBRANCH  11  12
ENDBRANCH   8  11
ENDBRANCH   6   7
BRANCH   6  37
ATOM     37  C   UNL A   1      42.114  22.686  26.214  1.00  0.00     0.072 C 
BRANCH  37  38
ATOM     38  C   UNL A   1      43.312  22.411  25.336  1.00  0.00    -0.020 A 
ATOM     39  C   UNL A   1      44.007  23.251  24.488  1.00  0.00     0.087 A 
ATOM     40  C   UNL A   1      43.991  21.137  25.237  1.00  0.00     0.003 A 
ATOM     41  N   UNL A   1      45.167  22.639  24.098  1.00  0.00    -0.361 N 
ATOM     42  C   UNL A   1      45.178  21.341  24.531  1.00  0.00     0.046 A 
ATOM     43  C   UNL A   1      43.722  19.831  25.701  1.00  0.00     0.010 A 
ATOM     44  H   UNL A   1      45.887  23.069  23.583  1.00  0.00     0.166 HD
ATOM     45  C   UNL A   1      46.140  20.347  24.331  1.00  0.00     0.026 A 
ATOM     46  C   UNL A   1      44.644  18.804  25.447  1.00  0.00     0.001 A 
ATOM     47  C   UNL A   1      45.845  19.066  24.793  1.00  0.00     0.002 A 
ENDBRANCH  37  38
ENDBRANCH   6  37
ENDBRANCH   3   6
ENDBRANCH   1   2
BRANCH   1  48
ATOM     48  C   UNL A   1      40.485  27.664  27.068  1.00  0.00     0.021 C 
BRANCH  48  49
ATOM     49  C   UNL A   1      39.857  29.056  26.893  1.00  0.00     0.002 C 
BRANCH  49  50
ATOM     50  C   UNL A   1      38.786  29.444  27.922  1.00  0.00     0.002 C 
BRANCH  50  51
ATOM     51  C   UNL A   1      37.443  29.884  27.343  1.00  0.00     0.021 C 
BRANCH  51  52
ATOM     52  C   UNL A   1      36.272  29.741  28.306  1.00  0.00     0.116 C 
BRANCH  52  53
ATOM     53  N   UNL A   1      35.646  31.002  28.654  1.00  0.00    -0.352 N 
ATOM     54  C   UNL A   1      36.027  31.975  29.565  1.00  0.00     0.251 C 
ATOM     55  H   UNL A   1      34.815  31.199  28.164  1.00  0.00     0.163 HD
ATOM     56  O   UNL A   1      35.239  32.837  29.876  1.00  0.00    -0.269 OA
BRANCH  54  57
ATOM     57  C   UNL A   1      37.446  32.066  30.016  1.00  0.00     0.039 A 
ATOM     58  C   UNL A   1      37.888  31.065  30.897  1.00  0.00     0.014 A 
ATOM     59  C   UNL A   1      38.250  33.176  29.782  1.00  0.00     0.014 A 
ATOM     60  C   UNL A   1      38.984  31.302  31.722  1.00  0.00     0.010 A 
ATOM     61  C   UNL A   1      39.281  33.456  30.653  1.00  0.00     0.010 A 
ATOM     62  C   UNL A   1      39.597  32.550  31.667  1.00  0.00    -0.014 A 
BRANCH  62  63
ATOM     63  C   UNL A   1      40.500  33.050  32.687  1.00  0.00     0.031 A 
ATOM     64  C   UNL A   1      39.970  33.696  33.901  1.00  0.00     0.074 A 
ATOM     65  C   UNL A   1      41.821  32.794  32.561  1.00  0.00     0.049 A 
ATOM     66  N   UNL A   1      40.654  34.501  34.639  1.00  0.00    -0.248 NA
ATOM     67  C   UNL A   1      38.600  33.505  34.367  1.00  0.00     0.031 C 
ATOM     68  C   UNL A   1      42.856  32.922  33.583  1.00  0.00     0.029 A 
ATOM     69  N   UNL A   1      42.530  32.517  31.380  1.00  0.00    -0.354 N 
ATOM     70  C   UNL A   1      39.931  34.727  35.786  1.00  0.00     0.074 A 
ATOM     71  C   UNL A   1      38.637  34.130  35.549  1.00  0.00     0.031 C 
ATOM     72  C   UNL A   1      44.051  33.016  32.981  1.00  0.00     0.029 A 
ATOM     73  C   UNL A   1      43.804  33.105  31.552  1.00  0.00     0.049 A 
ATOM     74  H   UNL A   1      42.207  32.018  30.596  1.00  0.00     0.167 HD
ATOM     75  C   UNL A   1      40.548  35.284  36.864  1.00  0.00     0.037 A 
ATOM     76  C   UNL A   1      44.220  34.132  30.754  1.00  0.00     0.037 A 
ATOM     77  C   UNL A   1      41.941  35.600  36.576  1.00  0.00     0.049 A 
ATOM     78  C   UNL A   1      44.523  35.403  31.513  1.00  0.00     0.074 A 
ATOM     79  C   UNL A   1      43.115  34.896  36.782  1.00  0.00     0.029 A 
ATOM     80  N   UNL A   1      42.237  36.609  35.667  1.00  0.00    -0.354 N 
ATOM     81  N   UNL A   1      44.048  35.669  32.698  1.00  0.00    -0.248 NA
ATOM     82  C   UNL A   1      45.360  36.480  30.991  1.00  0.00     0.031 C 
ATOM     83  C   UNL A   1      44.111  35.449  35.942  1.00  0.00     0.029 A 
ATOM     84  C   UNL A   1      43.549  36.506  35.248  1.00  0.00     0.049 A 
ATOM     85  H   UNL A   1      41.603  37.297  35.364  1.00  0.00     0.167 HD
ATOM     86  C   UNL A   1      44.479  36.907  33.096  1.00  0.00     0.074 A 
ATOM     87  C   UNL A   1      45.308  37.370  31.999  1.00  0.00     0.031 C 
ATOM     88  C   UNL A   1      44.108  37.448  34.293  1.00  0.00     0.037 A 
BRANCH  75  89
ATOM     89  C   UNL A   1      39.948  35.267  38.242  1.00  0.00     0.064 A 
ATOM     90  C   UNL A   1      39.617  34.052  38.877  1.00  0.00     0.173 A 
ATOM     91  C   UNL A   1      39.639  36.431  38.968  1.00  0.00     0.173 A 
ATOM     92  F   UNL A   1      39.905  32.869  38.319  1.00  0.00    -0.203 F 
ATOM     93  C   UNL A   1      38.952  34.009  40.104  1.00  0.00     0.198 A 
ATOM     94  C   UNL A   1      38.929  36.389  40.171  1.00  0.00     0.198 A 
ATOM     95  F   UNL A   1      40.035  37.637  38.534  1.00  0.00    -0.203 F 
ATOM     96  F   UNL A   1      38.656  32.825  40.658  1.00  0.00    -0.200 F 
ATOM     97  C   UNL A   1      38.581  35.178  40.737  1.00  0.00     0.200 A 
ATOM     98  F   UNL A   1      38.576  37.533  40.776  1.00  0.00    -0.200 F 
ATOM     99  F   UNL A   1      37.900  35.136  41.889  1.00  0.00    -0.200 F 
ENDBRANCH  75  89
BRANCH  76 100
ATOM    100  C   UNL A   1      43.646  34.068  29.383  1.00  0.00     0.064 A 
ATOM    101  C   UNL A   1      42.572  34.926  29.076  1.00  0.00     0.173 A 
ATOM    102  C   UNL A   1      44.363  33.519  28.313  1.00  0.00     0.173 A 
ATOM    103  F   UNL A   1      41.855  35.481  30.068  1.00  0.00    -0.203 F 
ATOM    104  C   UNL A   1      42.313  35.322  27.766  1.00  0.00     0.198 A 
ATOM    105  C   UNL A   1      44.089  33.907  26.999  1.00  0.00     0.198 A 
ATOM    106  F   UNL A   1      45.404  32.705  28.539  1.00  0.00    -0.203 F 
ATOM    107  F   UNL A   1      41.365  36.238  27.522  1.00  0.00    -0.200 F 
ATOM    108  C   UNL A   1      43.091  34.835  26.732  1.00  0.00     0.200 A 
ATOM    109  F   UNL A   1      44.857  33.453  25.998  1.00  0.00    -0.200 F 
ATOM    110  F   UNL A   1      42.909  35.290  25.484  1.00  0.00    -0.200 F 
ENDBRANCH  76 100
BRANCH  88 111
ATOM    111  C   UNL A   1      44.315  38.878  34.726  1.00  0.00     0.064 A 
ATOM    112  C   UNL A   1      43.699  39.978  34.110  1.00  0.00     0.173 A 
ATOM    113  C   UNL A   1      45.039  39.168  35.910  1.00  0.00     0.173 A 
ATOM    114  F   UNL A   1      42.894  39.823  33.051  1.00  0.00    -0.203 F 
ATOM    115  C   UNL A   1      43.841  41.277  34.605  1.00  0.00     0.198 A 
ATOM    116  C   UNL A   1      45.129  40.456  36.435  1.00  0.00     0.198 A 
ATOM    117  F   UNL A   1      45.656  38.204  36.610  1.00  0.00    -0.203 F 
ATOM    118  F   UNL A   1      43.265  42.299  33.958  1.00  0.00    -0.200 F 
ATOM    119  C   UNL A   1      44.544  41.514  35.774  1.00  0.00     0.200 A 
ATOM    120  F   UNL A   1      45.767  40.659  37.596  1.00  0.00    -0.200 F 
ATOM    121  F   UNL A   1      44.635  42.754  36.270  1.00  0.00    -0.200 F 
ENDBRANCH  88 111
ENDBRANCH  62  63
ENDBRANCH  54  57
ENDBRANCH  52  53
ENDBRANCH  51  52
ENDBRANCH  50  51
ENDBRANCH  49  50
ENDBRANCH  48  49
ENDBRANCH   1  48
TORSDOF 22
ENDMDL
