MODEL 1
REMARK VINA RESULT:     -14.1      0.000      0.000
REMARK SMILES Cc1c(NC(=O)c2ccc(Br)cc2N)cccc1C(=O)NCCCCCCNC(=O)c1ccc(-c2c3nc(c(-c4c(F)c(F)c(F)c(F)c4F)c4ccc([nH]4)c(-c4c(F)c(F)c(F)c(F)c4F)c4nc(c(-c5c(F)c(F)c(F)c(F)c5F)c5ccc2[nH]5)C=C4)C=C3)cc1
REMARK SMILES IDX 24 1 23 2 22 3 21 4 19 5 20 6 18 8 1 9 2 10 3 11 15 12 17 13
REMARK SMILES IDX 16 14 4 15 5 16 6 18 7 19 8 20 13 21 9 22 12 23 10 24 11 25
REMARK SMILES IDX 14 26 25 29 26 30 27 31 28 32 29 33 30 35 31 36 32 37 93 38
REMARK SMILES IDX 33 39 92 40 34 41 35 42 36 43 86 44 37 45 91 46 85 47 87 48
REMARK SMILES IDX 38 49 90 50 84 51 83 52 39 54 71 55 51 56 70 57 52 58 55 59
REMARK SMILES IDX 69 60 88 61 53 62 54 63 68 65 89 66 56 67 40 68 41 69 49 70
REMARK SMILES IDX 42 71 43 72 47 73 50 74 44 75 45 76 48 77 46 78 72 79 73 80
REMARK SMILES IDX 81 81 74 82 75 83 79 84 82 85 76 86 77 87 80 88 78 89 57 90
REMARK SMILES IDX 58 91 66 92 59 93 60 94 64 95 67 96 61 97 62 98 65 99 63 100
REMARK H PARENT 21 7 4 17 14 27 14 28 28 34 87 53 55 64
REMARK Flexibility Score: inf
ROOT
ATOM      1  C   UNL A   1      35.480  21.050  25.543  1.00  0.00     0.002 C 
ENDROOT
BRANCH   1   2
ATOM      2  C   UNL A   1      34.895  19.802  24.875  1.00  0.00     0.021 C 
BRANCH   2   3
ATOM      3  C   UNL A   1      33.369  19.633  25.001  1.00  0.00     0.116 C 
BRANCH   3   4
ATOM      4  N   UNL A   1      32.729  20.023  23.761  1.00  0.00    -0.352 N 
ATOM      5  C   UNL A   1      32.391  21.219  23.190  1.00  0.00     0.251 C 
ATOM      6  O   UNL A   1      31.786  21.154  22.116  1.00  0.00    -0.269 OA
ATOM      7  H   UNL A   1      32.479  19.251  23.203  1.00  0.00     0.163 HD
BRANCH   5   8
ATOM      8  C   UNL A   1      32.746  22.580  23.707  1.00  0.00     0.044 A 
ATOM      9  C   UNL A   1      30.988  22.750  25.560  1.00  0.00     0.047 C 
ATOM     10  C   UNL A   1      32.151  23.288  24.774  1.00  0.00    -0.015 A 
ATOM     11  C   UNL A   1      32.563  24.627  25.030  1.00  0.00     0.045 A 
ATOM     12  C   UNL A   1      33.479  25.270  24.195  1.00  0.00     0.026 A 
ATOM     13  C   UNL A   1      33.675  23.259  22.889  1.00  0.00     0.014 A 
ATOM     14  C   UNL A   1      34.029  24.588  23.118  1.00  0.00     0.003 A 
BRANCH  11  15
ATOM     15  N   UNL A   1      32.026  25.288  26.149  1.00  0.00    -0.322 N 
ATOM     16  C   UNL A   1      31.488  26.548  26.290  1.00  0.00     0.257 C 
ATOM     17  H   UNL A   1      32.035  24.758  26.978  1.00  0.00     0.170 HD
ATOM     18  O   UNL A   1      31.385  27.022  27.421  1.00  0.00    -0.269 OA
BRANCH  16  19
ATOM     19  C   UNL A   1      30.938  27.314  25.136  1.00  0.00     0.063 A 
ATOM     20  C   UNL A   1      31.478  28.599  24.946  1.00  0.00     0.017 A 
ATOM     21  C   UNL A   1      29.874  26.868  24.321  1.00  0.00     0.045 A 
ATOM     22  C   UNL A   1      30.994  29.433  23.937  1.00  0.00     0.016 A 
ATOM     23  C   UNL A   1      29.409  27.721  23.308  1.00  0.00     0.042 A 
ATOM     24  C   UNL A   1      29.967  28.983  23.115  1.00  0.00     0.020 A 
ATOM     25  Br  UNL A   1      29.287  30.110  21.760  1.00  0.00    -0.051 Br
BRANCH  21  26
ATOM     26  N   UNL A   1      29.126  25.721  24.574  1.00  0.00    -0.398 N 
ATOM     27  H   UNL A   1      28.145  25.740  24.472  1.00  0.00     0.156 HD
ATOM     28  H   UNL A   1      29.575  24.891  24.854  1.00  0.00     0.156 HD
ENDBRANCH  21  26
ENDBRANCH  16  19
ENDBRANCH  11  15
ENDBRANCH   5   8
ENDBRANCH   3   4
ENDBRANCH   2   3
ENDBRANCH   1   2
BRANCH   1  29
ATOM     29  C   UNL A   1      36.614  21.757  24.787  1.00  0.00     0.002 C 
BRANCH  29  30
ATOM     30  C   UNL A   1      38.016  21.591  25.379  1.00  0.00     0.021 C 
BRANCH  30  31
ATOM     31  C   UNL A   1      38.534  22.826  26.109  1.00  0.00     0.116 C 
BRANCH  31  32
ATOM     32  N   UNL A   1      39.988  22.873  26.220  1.00  0.00    -0.352 N 
ATOM     33  C   UNL A   1      40.813  23.936  26.525  1.00  0.00     0.251 C 
ATOM     34  H   UNL A   1      40.449  22.020  26.052  1.00  0.00     0.163 HD
ATOM     35  O   UNL A   1      42.033  23.792  26.521  1.00  0.00    -0.269 OA
BRANCH  33  36
ATOM     36  C   UNL A   1      40.225  25.219  26.974  1.00  0.00     0.039 A 
ATOM     37  C   UNL A   1      40.636  26.396  26.336  1.00  0.00     0.014 A 
ATOM     38  C   UNL A   1      39.412  25.283  28.103  1.00  0.00     0.014 A 
ATOM     39  C   UNL A   1      40.422  27.624  26.957  1.00  0.00     0.010 A 
ATOM     40  C   UNL A   1      39.273  26.489  28.763  1.00  0.00     0.010 A 
ATOM     41  C   UNL A   1      39.836  27.649  28.224  1.00  0.00    -0.014 A 
BRANCH  41  42
ATOM     42  C   UNL A   1      39.864  28.818  29.097  1.00  0.00     0.031 A 
ATOM     43  C   UNL A   1      38.823  29.862  29.003  1.00  0.00     0.074 A 
ATOM     44  C   UNL A   1      40.816  28.898  30.054  1.00  0.00     0.049 A 
ATOM     45  N   UNL A   1      38.953  31.061  29.461  1.00  0.00    -0.248 NA
ATOM     46  C   UNL A   1      37.544  29.633  28.342  1.00  0.00     0.031 C 
ATOM     47  C   UNL A   1      40.874  29.831  31.176  1.00  0.00     0.029 A 
ATOM     48  N   UNL A   1      42.071  28.267  30.059  1.00  0.00    -0.354 N 
ATOM     49  C   UNL A   1      37.733  31.688  29.368  1.00  0.00     0.074 A 
ATOM     50  C   UNL A   1      36.895  30.764  28.636  1.00  0.00     0.031 C 
ATOM     51  C   UNL A   1      42.155  29.961  31.556  1.00  0.00     0.029 A 
ATOM     52  C   UNL A   1      42.963  29.227  30.598  1.00  0.00     0.049 A 
ATOM     53  H   UNL A   1      42.285  27.357  29.753  1.00  0.00     0.167 HD
ATOM     54  C   UNL A   1      37.540  32.879  30.005  1.00  0.00     0.037 A 
ATOM     55  C   UNL A   1      43.963  29.757  29.836  1.00  0.00     0.037 A 
ATOM     56  C   UNL A   1      38.769  33.366  30.625  1.00  0.00     0.049 A 
ATOM     57  C   UNL A   1      43.896  31.257  29.653  1.00  0.00     0.074 A 
ATOM     58  C   UNL A   1      39.300  33.299  31.902  1.00  0.00     0.029 A 
ATOM     59  N   UNL A   1      39.797  33.787  29.803  1.00  0.00    -0.354 N 
ATOM     60  N   UNL A   1      42.901  32.003  30.046  1.00  0.00    -0.248 NA
ATOM     61  C   UNL A   1      44.904  32.018  28.911  1.00  0.00     0.031 C 
ATOM     62  C   UNL A   1      40.677  33.657  31.829  1.00  0.00     0.029 A 
ATOM     63  C   UNL A   1      40.974  33.942  30.508  1.00  0.00     0.049 A 
ATOM     64  H   UNL A   1      39.703  33.955  28.837  1.00  0.00     0.167 HD
ATOM     65  C   UNL A   1      43.093  33.279  29.594  1.00  0.00     0.074 A 
ATOM     66  C   UNL A   1      44.357  33.244  28.889  1.00  0.00     0.031 C 
ATOM     67  C   UNL A   1      42.186  34.275  29.790  1.00  0.00     0.037 A 
BRANCH  54  68
ATOM     68  C   UNL A   1      36.187  33.503  30.244  1.00  0.00     0.064 A 
ATOM     69  C   UNL A   1      35.437  34.028  29.171  1.00  0.00     0.173 A 
ATOM     70  C   UNL A   1      35.593  33.651  31.511  1.00  0.00     0.173 A 
ATOM     71  F   UNL A   1      35.830  33.874  27.899  1.00  0.00    -0.203 F 
ATOM     72  C   UNL A   1      34.251  34.743  29.363  1.00  0.00     0.198 A 
ATOM     73  C   UNL A   1      34.441  34.419  31.711  1.00  0.00     0.198 A 
ATOM     74  F   UNL A   1      36.077  33.013  32.583  1.00  0.00    -0.203 F 
ATOM     75  F   UNL A   1      33.583  35.219  28.304  1.00  0.00    -0.200 F 
ATOM     76  C   UNL A   1      33.775  34.974  30.637  1.00  0.00     0.200 A 
ATOM     77  F   UNL A   1      33.981  34.615  32.954  1.00  0.00    -0.200 F 
ATOM     78  F   UNL A   1      32.670  35.707  30.826  1.00  0.00    -0.200 F 
ENDBRANCH  54  68
BRANCH  55  79
ATOM     79  C   UNL A   1      44.479  28.805  28.814  1.00  0.00     0.064 A 
ATOM     80  C   UNL A   1      45.246  27.704  29.243  1.00  0.00     0.173 A 
ATOM     81  C   UNL A   1      43.946  28.758  27.521  1.00  0.00     0.173 A 
ATOM     82  F   UNL A   1      45.780  27.698  30.476  1.00  0.00    -0.203 F 
ATOM     83  C   UNL A   1      45.364  26.557  28.464  1.00  0.00     0.198 A 
ATOM     84  C   UNL A   1      44.089  27.616  26.732  1.00  0.00     0.198 A 
ATOM     85  F   UNL A   1      43.191  29.765  27.058  1.00  0.00    -0.203 F 
ATOM     86  F   UNL A   1      45.995  25.478  28.952  1.00  0.00    -0.200 F 
ATOM     87  C   UNL A   1      44.764  26.505  27.218  1.00  0.00     0.200 A 
ATOM     88  F   UNL A   1      43.488  27.558  25.536  1.00  0.00    -0.200 F 
ATOM     89  F   UNL A   1      44.799  25.374  26.502  1.00  0.00    -0.200 F 
ENDBRANCH  55  79
BRANCH  67  90
ATOM     90  C   UNL A   1      42.405  35.670  29.304  1.00  0.00     0.064 A 
ATOM     91  C   UNL A   1      41.870  36.119  28.089  1.00  0.00     0.173 A 
ATOM     92  C   UNL A   1      43.259  36.553  29.990  1.00  0.00     0.173 A 
ATOM     93  F   UNL A   1      41.069  35.326  27.361  1.00  0.00    -0.203 F 
ATOM     94  C   UNL A   1      42.158  37.392  27.596  1.00  0.00     0.198 A 
ATOM     95  C   UNL A   1      43.580  37.806  29.476  1.00  0.00     0.198 A 
ATOM     96  F   UNL A   1      43.784  36.223  31.181  1.00  0.00    -0.203 F 
ATOM     97  F   UNL A   1      41.597  37.806  26.451  1.00  0.00    -0.200 F 
ATOM     98  C   UNL A   1      43.022  38.228  28.283  1.00  0.00     0.200 A 
ATOM     99  F   UNL A   1      44.428  38.602  30.142  1.00  0.00    -0.200 F 
ATOM    100  F   UNL A   1      43.316  39.443  27.797  1.00  0.00    -0.200 F 
ENDBRANCH  67  90
ENDBRANCH  41  42
ENDBRANCH  33  36
ENDBRANCH  31  32
ENDBRANCH  30  31
ENDBRANCH  29  30
ENDBRANCH   1  29
TORSDOF 16
ENDMDL
MODEL 2
REMARK VINA RESULT:     -14.0      3.835     10.204
REMARK SMILES Cc1c(NC(=O)c2ccc(Br)cc2N)cccc1C(=O)NCCCCCCNC(=O)c1ccc(-c2c3nc(c(-c4c(F)c(F)c(F)c(F)c4F)c4ccc([nH]4)c(-c4c(F)c(F)c(F)c(F)c4F)c4nc(c(-c5c(F)c(F)c(F)c(F)c5F)c5ccc2[nH]5)C=C4)C=C3)cc1
REMARK SMILES IDX 24 1 23 2 22 3 21 4 19 5 20 6 18 8 1 9 2 10 3 11 15 12 17 13
REMARK SMILES IDX 16 14 4 15 5 16 6 18 7 19 8 20 13 21 9 22 12 23 10 24 11 25
REMARK SMILES IDX 14 26 25 29 26 30 27 31 28 32 29 33 30 35 31 36 32 37 93 38
REMARK SMILES IDX 33 39 92 40 34 41 35 42 36 43 86 44 37 45 91 46 85 47 87 48
REMARK SMILES IDX 38 49 90 50 84 51 83 52 39 54 71 55 51 56 70 57 52 58 55 59
REMARK SMILES IDX 69 60 88 61 53 62 54 63 68 65 89 66 56 67 40 68 41 69 49 70
REMARK SMILES IDX 42 71 43 72 47 73 50 74 44 75 45 76 48 77 46 78 72 79 73 80
REMARK SMILES IDX 81 81 74 82 75 83 79 84 82 85 76 86 77 87 80 88 78 89 57 90
REMARK SMILES IDX 58 91 66 92 59 93 60 94 64 95 67 96 61 97 62 98 65 99 63 100
REMARK H PARENT 21 7 4 17 14 27 14 28 28 34 87 53 55 64
REMARK Flexibility Score: inf
ROOT
ATOM      1  C   UNL A   1      32.008  29.540  25.170  1.00  0.00     0.002 C 
ENDROOT
BRANCH   1   2
ATOM      2  C   UNL A   1      30.656  29.994  24.608  1.00  0.00     0.021 C 
BRANCH   2   3
ATOM      3  C   UNL A   1      30.257  29.375  23.256  1.00  0.00     0.116 C 
BRANCH   3   4
ATOM      4  N   UNL A   1      29.342  28.272  23.473  1.00  0.00    -0.352 N 
ATOM      5  C   UNL A   1      29.487  26.966  23.853  1.00  0.00     0.251 C 
ATOM      6  O   UNL A   1      28.453  26.291  23.876  1.00  0.00    -0.269 OA
ATOM      7  H   UNL A   1      28.404  28.519  23.309  1.00  0.00     0.163 HD
BRANCH   5   8
ATOM      8  C   UNL A   1      30.755  26.309  24.306  1.00  0.00     0.044 A 
ATOM      9  C   UNL A   1      31.765  25.814  22.007  1.00  0.00     0.047 C 
ATOM     10  C   UNL A   1      31.802  25.797  23.510  1.00  0.00    -0.015 A 
ATOM     11  C   UNL A   1      32.873  25.102  24.139  1.00  0.00     0.045 A 
ATOM     12  C   UNL A   1      32.859  24.851  25.513  1.00  0.00     0.026 A 
ATOM     13  C   UNL A   1      30.778  26.044  25.693  1.00  0.00     0.014 A 
ATOM     14  C   UNL A   1      31.806  25.315  26.289  1.00  0.00     0.003 A 
BRANCH  11  15
ATOM     15  N   UNL A   1      33.952  24.675  23.343  1.00  0.00    -0.322 N 
ATOM     16  C   UNL A   1      34.620  23.473  23.286  1.00  0.00     0.257 C 
ATOM     17  H   UNL A   1      34.288  25.355  22.716  1.00  0.00     0.170 HD
ATOM     18  O   UNL A   1      35.729  23.439  22.751  1.00  0.00    -0.269 OA
BRANCH  16  19
ATOM     19  C   UNL A   1      34.010  22.198  23.758  1.00  0.00     0.063 A 
ATOM     20  C   UNL A   1      34.744  21.495  24.731  1.00  0.00     0.017 A 
ATOM     21  C   UNL A   1      32.830  21.636  23.222  1.00  0.00     0.045 A 
ATOM     22  C   UNL A   1      34.303  20.258  25.200  1.00  0.00     0.016 A 
ATOM     23  C   UNL A   1      32.401  20.393  23.714  1.00  0.00     0.042 A 
ATOM     24  C   UNL A   1      33.125  19.718  24.695  1.00  0.00     0.020 A 
ATOM     25  Br  UNL A   1      32.528  18.032  25.304  1.00  0.00    -0.051 Br
BRANCH  21  26
ATOM     26  N   UNL A   1      32.165  22.136  22.105  1.00  0.00    -0.398 N 
ATOM     27  H   UNL A   1      32.681  22.482  21.340  1.00  0.00     0.156 HD
ATOM     28  H   UNL A   1      31.181  22.145  22.080  1.00  0.00     0.156 HD
ENDBRANCH  21  26
ENDBRANCH  16  19
ENDBRANCH  11  15
ENDBRANCH   5   8
ENDBRANCH   3   4
ENDBRANCH   2   3
ENDBRANCH   1   2
BRANCH   1  29
ATOM     29  C   UNL A   1      32.162  29.594  26.697  1.00  0.00     0.002 C 
BRANCH  29  30
ATOM     30  C   UNL A   1      32.906  30.811  27.251  1.00  0.00     0.021 C 
BRANCH  30  31
ATOM     31  C   UNL A   1      34.369  30.546  27.588  1.00  0.00     0.116 C 
BRANCH  31  32
ATOM     32  N   UNL A   1      34.846  31.287  28.750  1.00  0.00    -0.352 N 
ATOM     33  C   UNL A   1      35.883  30.998  29.613  1.00  0.00     0.251 C 
ATOM     34  H   UNL A   1      34.355  32.116  28.949  1.00  0.00     0.163 HD
ATOM     35  O   UNL A   1      36.104  31.726  30.578  1.00  0.00    -0.269 OA
BRANCH  33  36
ATOM     36  C   UNL A   1      36.805  29.880  29.308  1.00  0.00     0.039 A 
ATOM     37  C   UNL A   1      37.103  28.970  30.330  1.00  0.00     0.014 A 
ATOM     38  C   UNL A   1      37.487  29.818  28.095  1.00  0.00     0.014 A 
ATOM     39  C   UNL A   1      38.229  28.157  30.218  1.00  0.00     0.010 A 
ATOM     40  C   UNL A   1      38.651  29.076  28.016  1.00  0.00     0.010 A 
ATOM     41  C   UNL A   1      39.057  28.298  29.104  1.00  0.00    -0.014 A 
BRANCH  41  42
ATOM     42  C   UNL A   1      40.410  27.754  29.036  1.00  0.00     0.031 A 
ATOM     43  C   UNL A   1      40.646  26.352  28.634  1.00  0.00     0.074 A 
ATOM     44  C   UNL A   1      41.458  28.574  29.270  1.00  0.00     0.049 A 
ATOM     45  N   UNL A   1      41.729  25.697  28.882  1.00  0.00    -0.248 NA
ATOM     46  C   UNL A   1      39.641  25.559  27.936  1.00  0.00     0.031 C 
ATOM     47  C   UNL A   1      42.871  28.310  29.012  1.00  0.00     0.029 A 
ATOM     48  N   UNL A   1      41.457  29.761  30.023  1.00  0.00    -0.354 N 
ATOM     49  C   UNL A   1      41.672  24.503  28.204  1.00  0.00     0.074 A 
ATOM     50  C   UNL A   1      40.336  24.452  27.653  1.00  0.00     0.031 C 
ATOM     51  C   UNL A   1      43.606  29.078  29.832  1.00  0.00     0.029 A 
ATOM     52  C   UNL A   1      42.683  29.748  30.732  1.00  0.00     0.049 A 
ATOM     53  H   UNL A   1      40.757  30.451  30.052  1.00  0.00     0.167 HD
ATOM     54  C   UNL A   1      42.794  23.733  28.103  1.00  0.00     0.037 A 
ATOM     55  C   UNL A   1      42.701  29.658  32.094  1.00  0.00     0.037 A 
ATOM     56  C   UNL A   1      43.904  24.292  28.871  1.00  0.00     0.049 A 
ATOM     57  C   UNL A   1      43.417  28.442  32.641  1.00  0.00     0.074 A 
ATOM     58  C   UNL A   1      44.989  25.094  28.559  1.00  0.00     0.029 A 
ATOM     59  N   UNL A   1      43.821  24.277  30.250  1.00  0.00    -0.354 N 
ATOM     60  N   UNL A   1      43.863  27.459  31.910  1.00  0.00    -0.248 NA
ATOM     61  C   UNL A   1      43.587  28.192  34.075  1.00  0.00     0.031 C 
ATOM     62  C   UNL A   1      45.538  25.589  29.776  1.00  0.00     0.029 A 
ATOM     63  C   UNL A   1      44.787  25.082  30.820  1.00  0.00     0.049 A 
ATOM     64  H   UNL A   1      43.157  23.760  30.762  1.00  0.00     0.167 HD
ATOM     65  C   UNL A   1      44.318  26.463  32.728  1.00  0.00     0.074 A 
ATOM     66  C   UNL A   1      44.127  26.963  34.074  1.00  0.00     0.031 C 
ATOM     67  C   UNL A   1      44.785  25.274  32.256  1.00  0.00     0.037 A 
BRANCH  54  68
ATOM     68  C   UNL A   1      42.948  22.581  27.141  1.00  0.00     0.064 A 
ATOM     69  C   UNL A   1      42.193  21.401  27.304  1.00  0.00     0.173 A 
ATOM     70  C   UNL A   1      43.851  22.563  26.062  1.00  0.00     0.173 A 
ATOM     71  F   UNL A   1      41.227  21.308  28.227  1.00  0.00    -0.203 F 
ATOM     72  C   UNL A   1      42.410  20.259  26.527  1.00  0.00     0.198 A 
ATOM     73  C   UNL A   1      44.112  21.403  25.325  1.00  0.00     0.198 A 
ATOM     74  F   UNL A   1      44.467  23.680  25.654  1.00  0.00    -0.203 F 
ATOM     75  F   UNL A   1      41.662  19.166  26.730  1.00  0.00    -0.200 F 
ATOM     76  C   UNL A   1      43.398  20.247  25.565  1.00  0.00     0.200 A 
ATOM     77  F   UNL A   1      45.062  21.416  24.380  1.00  0.00    -0.200 F 
ATOM     78  F   UNL A   1      43.644  19.136  24.858  1.00  0.00    -0.200 F 
ENDBRANCH  54  68
BRANCH  55  79
ATOM     79  C   UNL A   1      41.520  30.299  32.732  1.00  0.00     0.064 A 
ATOM     80  C   UNL A   1      41.439  31.706  32.743  1.00  0.00     0.173 A 
ATOM     81  C   UNL A   1      40.348  29.581  32.993  1.00  0.00     0.173 A 
ATOM     82  F   UNL A   1      42.534  32.443  32.499  1.00  0.00    -0.203 F 
ATOM     83  C   UNL A   1      40.217  32.358  32.879  1.00  0.00     0.198 A 
ATOM     84  C   UNL A   1      39.129  30.240  33.154  1.00  0.00     0.198 A 
ATOM     85  F   UNL A   1      40.352  28.240  32.979  1.00  0.00    -0.203 F 
ATOM     86  F   UNL A   1      40.154  33.693  32.758  1.00  0.00    -0.200 F 
ATOM     87  C   UNL A   1      39.058  31.623  33.060  1.00  0.00     0.200 A 
ATOM     88  F   UNL A   1      38.004  29.527  33.306  1.00  0.00    -0.200 F 
ATOM     89  F   UNL A   1      37.870  32.240  33.101  1.00  0.00    -0.200 F 
ENDBRANCH  55  79
BRANCH  67  90
ATOM     90  C   UNL A   1      45.291  24.195  33.153  1.00  0.00     0.064 A 
ATOM     91  C   UNL A   1      44.485  23.111  33.529  1.00  0.00     0.173 A 
ATOM     92  C   UNL A   1      46.560  24.284  33.755  1.00  0.00     0.173 A 
ATOM     93  F   UNL A   1      43.251  22.971  33.022  1.00  0.00    -0.203 F 
ATOM     94  C   UNL A   1      44.933  22.157  34.443  1.00  0.00     0.198 A 
ATOM     95  C   UNL A   1      46.988  23.355  34.699  1.00  0.00     0.198 A 
ATOM     96  F   UNL A   1      47.415  25.265  33.424  1.00  0.00    -0.203 F 
ATOM     97  F   UNL A   1      44.153  21.112  34.750  1.00  0.00    -0.200 F 
ATOM     98  C   UNL A   1      46.177  22.287  35.037  1.00  0.00     0.200 A 
ATOM     99  F   UNL A   1      48.189  23.498  35.276  1.00  0.00    -0.200 F 
ATOM    100  F   UNL A   1      46.597  21.382  35.932  1.00  0.00    -0.200 F 
ENDBRANCH  67  90
ENDBRANCH  41  42
ENDBRANCH  33  36
ENDBRANCH  31  32
ENDBRANCH  30  31
ENDBRANCH  29  30
ENDBRANCH   1  29
TORSDOF 16
ENDMDL
MODEL 3
REMARK VINA RESULT:     -13.9      1.339      1.786
REMARK SMILES Cc1c(NC(=O)c2ccc(Br)cc2N)cccc1C(=O)NCCCCCCNC(=O)c1ccc(-c2c3nc(c(-c4c(F)c(F)c(F)c(F)c4F)c4ccc([nH]4)c(-c4c(F)c(F)c(F)c(F)c4F)c4nc(c(-c5c(F)c(F)c(F)c(F)c5F)c5ccc2[nH]5)C=C4)C=C3)cc1
REMARK SMILES IDX 24 1 23 2 22 3 21 4 19 5 20 6 18 8 1 9 2 10 3 11 15 12 17 13
REMARK SMILES IDX 16 14 4 15 5 16 6 18 7 19 8 20 13 21 9 22 12 23 10 24 11 25
REMARK SMILES IDX 14 26 25 29 26 30 27 31 28 32 29 33 30 35 31 36 32 37 93 38
REMARK SMILES IDX 33 39 92 40 34 41 35 42 36 43 86 44 37 45 91 46 85 47 87 48
REMARK SMILES IDX 38 49 90 50 84 51 83 52 39 54 71 55 51 56 70 57 52 58 55 59
REMARK SMILES IDX 69 60 88 61 53 62 54 63 68 65 89 66 56 67 40 68 41 69 49 70
REMARK SMILES IDX 42 71 43 72 47 73 50 74 44 75 45 76 48 77 46 78 72 79 73 80
REMARK SMILES IDX 81 81 74 82 75 83 79 84 82 85 76 86 77 87 80 88 78 89 57 90
REMARK SMILES IDX 58 91 66 92 59 93 60 94 64 95 67 96 61 97 62 98 65 99 63 100
REMARK H PARENT 21 7 4 17 14 27 14 28 28 34 87 53 55 64
REMARK Flexibility Score: inf
ROOT
ATOM      1  C   UNL A   1      35.680  22.332  26.116  1.00  0.00     0.002 C 
ENDROOT
BRANCH   1   2
ATOM      2  C   UNL A   1      34.767  22.711  27.287  1.00  0.00     0.021 C 
BRANCH   2   3
ATOM      3  C   UNL A   1      33.598  21.746  27.558  1.00  0.00     0.116 C 
BRANCH   3   4
ATOM      4  N   UNL A   1      32.358  22.490  27.641  1.00  0.00    -0.352 N 
ATOM      5  C   UNL A   1      31.708  23.368  26.818  1.00  0.00     0.251 C 
ATOM      6  O   UNL A   1      30.666  23.858  27.264  1.00  0.00    -0.269 OA
ATOM      7  H   UNL A   1      31.872  22.327  28.482  1.00  0.00     0.163 HD
BRANCH   5   8
ATOM      8  C   UNL A   1      32.101  23.727  25.418  1.00  0.00     0.044 A 
ATOM      9  C   UNL A   1      33.311  25.926  25.918  1.00  0.00     0.047 C 
ATOM     10  C   UNL A   1      32.831  24.854  24.981  1.00  0.00    -0.015 A 
ATOM     11  C   UNL A   1      32.998  25.070  23.584  1.00  0.00     0.045 A 
ATOM     12  C   UNL A   1      32.384  24.235  22.647  1.00  0.00     0.026 A 
ATOM     13  C   UNL A   1      31.501  22.899  24.443  1.00  0.00     0.014 A 
ATOM     14  C   UNL A   1      31.628  23.154  23.078  1.00  0.00     0.003 A 
BRANCH  11  15
ATOM     15  N   UNL A   1      33.802  26.147  23.166  1.00  0.00    -0.322 N 
ATOM     16  C   UNL A   1      33.473  27.399  22.698  1.00  0.00     0.257 C 
ATOM     17  H   UNL A   1      34.769  25.976  23.218  1.00  0.00     0.170 HD
ATOM     18  O   UNL A   1      34.328  28.046  22.092  1.00  0.00    -0.269 OA
BRANCH  16  19
ATOM     19  C   UNL A   1      32.157  28.037  22.984  1.00  0.00     0.063 A 
ATOM     20  C   UNL A   1      31.091  27.630  22.161  1.00  0.00     0.017 A 
ATOM     21  C   UNL A   1      31.961  29.063  23.936  1.00  0.00     0.045 A 
ATOM     22  C   UNL A   1      29.829  28.208  22.293  1.00  0.00     0.016 A 
ATOM     23  C   UNL A   1      30.680  29.624  24.057  1.00  0.00     0.042 A 
ATOM     24  C   UNL A   1      29.627  29.195  23.250  1.00  0.00     0.020 A 
ATOM     25  Br  UNL A   1      27.928  30.002  23.425  1.00  0.00    -0.051 Br
BRANCH  21  26
ATOM     26  N   UNL A   1      32.993  29.690  24.630  1.00  0.00    -0.398 N 
ATOM     27  H   UNL A   1      33.356  30.547  24.304  1.00  0.00     0.156 HD
ATOM     28  H   UNL A   1      33.361  29.278  25.445  1.00  0.00     0.156 HD
ENDBRANCH  21  26
ENDBRANCH  16  19
ENDBRANCH  11  15
ENDBRANCH   5   8
ENDBRANCH   3   4
ENDBRANCH   2   3
ENDBRANCH   1   2
BRANCH   1  29
ATOM     29  C   UNL A   1      36.265  23.497  25.306  1.00  0.00     0.002 C 
BRANCH  29  30
ATOM     30  C   UNL A   1      37.792  23.544  25.210  1.00  0.00     0.021 C 
BRANCH  30  31
ATOM     31  C   UNL A   1      38.510  22.855  26.366  1.00  0.00     0.116 C 
BRANCH  31  32
ATOM     32  N   UNL A   1      39.963  22.962  26.299  1.00  0.00    -0.352 N 
ATOM     33  C   UNL A   1      40.772  24.068  26.461  1.00  0.00     0.251 C 
ATOM     34  H   UNL A   1      40.437  22.121  26.111  1.00  0.00     0.163 HD
ATOM     35  O   UNL A   1      41.988  23.970  26.316  1.00  0.00    -0.269 OA
BRANCH  33  36
ATOM     36  C   UNL A   1      40.187  25.346  26.927  1.00  0.00     0.039 A 
ATOM     37  C   UNL A   1      40.573  26.527  26.279  1.00  0.00     0.014 A 
ATOM     38  C   UNL A   1      39.403  25.404  28.077  1.00  0.00     0.014 A 
ATOM     39  C   UNL A   1      40.367  27.753  26.907  1.00  0.00     0.010 A 
ATOM     40  C   UNL A   1      39.273  26.608  28.741  1.00  0.00     0.010 A 
ATOM     41  C   UNL A   1      39.814  27.773  28.188  1.00  0.00    -0.014 A 
BRANCH  41  42
ATOM     42  C   UNL A   1      39.856  28.941  29.062  1.00  0.00     0.031 A 
ATOM     43  C   UNL A   1      38.811  29.982  28.989  1.00  0.00     0.074 A 
ATOM     44  C   UNL A   1      40.825  29.022  30.000  1.00  0.00     0.049 A 
ATOM     45  N   UNL A   1      38.947  31.182  29.445  1.00  0.00    -0.248 NA
ATOM     46  C   UNL A   1      37.520  29.751  28.353  1.00  0.00     0.031 C 
ATOM     47  C   UNL A   1      40.904  29.954  31.122  1.00  0.00     0.029 A 
ATOM     48  N   UNL A   1      42.083  28.394  29.981  1.00  0.00    -0.354 N 
ATOM     49  C   UNL A   1      37.724  31.806  29.377  1.00  0.00     0.074 A 
ATOM     50  C   UNL A   1      36.874  30.881  28.660  1.00  0.00     0.031 C 
ATOM     51  C   UNL A   1      42.191  30.087  31.477  1.00  0.00     0.029 A 
ATOM     52  C   UNL A   1      42.982  29.355  30.504  1.00  0.00     0.049 A 
ATOM     53  H   UNL A   1      42.292  27.484  29.670  1.00  0.00     0.167 HD
ATOM     54  C   UNL A   1      37.541  32.996  30.018  1.00  0.00     0.037 A 
ATOM     55  C   UNL A   1      43.966  29.888  29.722  1.00  0.00     0.037 A 
ATOM     56  C   UNL A   1      38.781  33.486  30.615  1.00  0.00     0.049 A 
ATOM     57  C   UNL A   1      43.893  31.388  29.542  1.00  0.00     0.074 A 
ATOM     58  C   UNL A   1      39.337  33.419  31.881  1.00  0.00     0.029 A 
ATOM     59  N   UNL A   1      39.792  33.909  29.773  1.00  0.00    -0.354 N 
ATOM     60  N   UNL A   1      42.904  32.132  29.954  1.00  0.00    -0.248 NA
ATOM     61  C   UNL A   1      44.885  32.152  28.781  1.00  0.00     0.031 C 
ATOM     62  C   UNL A   1      40.711  33.779  31.781  1.00  0.00     0.029 A 
ATOM     63  C   UNL A   1      40.982  34.066  30.456  1.00  0.00     0.049 A 
ATOM     64  H   UNL A   1      39.679  34.077  28.809  1.00  0.00     0.167 HD
ATOM     65  C   UNL A   1      43.084  33.408  29.500  1.00  0.00     0.074 A 
ATOM     66  C   UNL A   1      44.335  33.377  28.770  1.00  0.00     0.031 C 
ATOM     67  C   UNL A   1      42.179  34.403  29.714  1.00  0.00     0.037 A 
BRANCH  54  68
ATOM     68  C   UNL A   1      36.192  33.618  30.284  1.00  0.00     0.064 A 
ATOM     69  C   UNL A   1      35.415  34.133  29.224  1.00  0.00     0.173 A 
ATOM     70  C   UNL A   1      35.626  33.771  31.562  1.00  0.00     0.173 A 
ATOM     71  F   UNL A   1      35.780  33.973  27.945  1.00  0.00    -0.203 F 
ATOM     72  C   UNL A   1      34.233  34.845  29.439  1.00  0.00     0.198 A 
ATOM     73  C   UNL A   1      34.476  34.537  31.783  1.00  0.00     0.198 A 
ATOM     74  F   UNL A   1      36.137  33.141  32.627  1.00  0.00    -0.203 F 
ATOM     75  F   UNL A   1      33.539  35.312  28.392  1.00  0.00    -0.200 F 
ATOM     76  C   UNL A   1      33.785  35.083  30.722  1.00  0.00     0.200 A 
ATOM     77  F   UNL A   1      34.043  34.739  33.036  1.00  0.00    -0.200 F 
ATOM     78  F   UNL A   1      32.681  35.813  30.931  1.00  0.00    -0.200 F 
ENDBRANCH  54  68
BRANCH  55  79
ATOM     79  C   UNL A   1      44.464  28.938  28.690  1.00  0.00     0.064 A 
ATOM     80  C   UNL A   1      45.243  27.839  29.104  1.00  0.00     0.173 A 
ATOM     81  C   UNL A   1      43.906  28.890  27.408  1.00  0.00     0.173 A 
ATOM     82  F   UNL A   1      45.800  27.833  30.325  1.00  0.00    -0.203 F 
ATOM     83  C   UNL A   1      45.348  26.693  28.321  1.00  0.00     0.198 A 
ATOM     84  C   UNL A   1      44.037  27.749  26.616  1.00  0.00     0.198 A 
ATOM     85  F   UNL A   1      43.139  29.895  26.960  1.00  0.00    -0.203 F 
ATOM     86  F   UNL A   1      45.991  25.615  28.796  1.00  0.00    -0.200 F 
ATOM     87  C   UNL A   1      44.724  26.640  27.087  1.00  0.00     0.200 A 
ATOM     88  F   UNL A   1      43.412  27.690  25.431  1.00  0.00    -0.200 F 
ATOM     89  F   UNL A   1      44.747  25.509  26.370  1.00  0.00    -0.200 F 
ENDBRANCH  55  79
BRANCH  67  90
ATOM     90  C   UNL A   1      42.386  35.798  29.225  1.00  0.00     0.064 A 
ATOM     91  C   UNL A   1      41.809  36.253  28.032  1.00  0.00     0.173 A 
ATOM     92  C   UNL A   1      43.267  36.676  29.883  1.00  0.00     0.173 A 
ATOM     93  F   UNL A   1      40.981  35.465  27.330  1.00  0.00    -0.203 F 
ATOM     94  C   UNL A   1      42.084  37.527  27.533  1.00  0.00     0.198 A 
ATOM     95  C   UNL A   1      43.574  37.930  29.362  1.00  0.00     0.198 A 
ATOM     96  F   UNL A   1      43.833  36.340  31.053  1.00  0.00    -0.203 F 
ATOM     97  F   UNL A   1      41.485  37.946  26.410  1.00  0.00    -0.200 F 
ATOM     98  C   UNL A   1      42.976  38.358  28.191  1.00  0.00     0.200 A 
ATOM     99  F   UNL A   1      44.447  38.721  30.000  1.00  0.00    -0.200 F 
ATOM    100  F   UNL A   1      43.256  39.573  27.699  1.00  0.00    -0.200 F 
ENDBRANCH  67  90
ENDBRANCH  41  42
ENDBRANCH  33  36
ENDBRANCH  31  32
ENDBRANCH  30  31
ENDBRANCH  29  30
ENDBRANCH   1  29
TORSDOF 16
ENDMDL
