MODEL 1
REMARK VINA RESULT:     -11.0      0.000      0.000
REMARK SMILES C[N@@H+](CC(=O)NCCCCCCNC(=O)c1ccc(-c2c3nc(c(-c4c(F)c(F)c(F)c(F)c4F)c4ccc([nH]4)c(-c4c(F)c(F)c(F)c(F)c4F)c4nc(c(-c5c(F)c(F)c(F)c(F)c5F)c5ccc2[nH]5)C=C4)C=C3)cc1)Cc1cccc2c1OCCO2
REMARK SMILES IDX 9 1 8 2 7 3 6 4 4 5 5 6 3 8 2 9 1 10 79 12 80 13 81 14 85 15
REMARK SMILES IDX 82 16 84 17 86 18 83 19 89 20 87 21 88 22 10 23 11 24 12 25
REMARK SMILES IDX 13 26 14 27 15 29 16 30 17 31 78 32 18 33 77 34 19 35 20 36
REMARK SMILES IDX 21 37 71 38 22 39 76 40 70 41 72 42 23 43 75 44 69 45 68 46
REMARK SMILES IDX 24 48 56 49 36 50 55 51 37 52 40 53 54 54 73 55 38 56 39 57
REMARK SMILES IDX 53 59 74 60 41 61 25 62 26 63 34 64 27 65 28 66 32 67 35 68
REMARK SMILES IDX 29 69 30 70 33 71 31 72 57 73 58 74 66 75 59 76 60 77 64 78
REMARK SMILES IDX 67 79 61 80 62 81 65 82 63 83 42 84 43 85 51 86 44 87 45 88
REMARK SMILES IDX 49 89 52 90 46 91 47 92 50 93 48 94
REMARK H PARENT 6 7 2 11 13 28 72 47 40 58
REMARK Flexibility Score: inf
ROOT
ATOM      1  C   UNL A   1      34.613  20.616  25.004  1.00  0.00     0.002 C 
ENDROOT
BRANCH   1   2
ATOM      2  C   UNL A   1      33.335  20.603  24.160  1.00  0.00     0.021 C 
BRANCH   2   3
ATOM      3  C   UNL A   1      32.103  21.192  24.845  1.00  0.00     0.116 C 
BRANCH   3   4
ATOM      4  N   UNL A   1      32.387  21.684  26.176  1.00  0.00    -0.351 N 
ATOM      5  C   UNL A   1      31.834  22.713  26.882  1.00  0.00     0.275 C 
ATOM      6  O   UNL A   1      32.184  22.843  28.060  1.00  0.00    -0.269 OA
ATOM      7  H   UNL A   1      33.098  21.196  26.651  1.00  0.00     0.163 HD
BRANCH   5   8
ATOM      8  C   UNL A   1      30.765  23.619  26.268  1.00  0.00     0.363 C 
BRANCH   8   9
ATOM      9  N   UNL A   1      31.176  25.002  26.056  1.00  0.00    -0.326 N 
ATOM     10  C   UNL A   1      30.220  25.970  25.594  1.00  0.00     0.333 C 
ATOM     11  H   UNL A   1      31.038  25.092  27.062  1.00  0.00     0.348 HD
BRANCH   9  12
ATOM     12  C   UNL A   1      32.581  25.390  26.163  1.00  0.00     0.303 C 
BRANCH  12  13
ATOM     13  C   UNL A   1      33.124  26.187  24.998  1.00  0.00     0.052 A 
ATOM     14  C   UNL A   1      33.684  27.456  25.198  1.00  0.00     0.014 A 
ATOM     15  C   UNL A   1      33.097  25.691  23.690  1.00  0.00     0.170 A 
ATOM     16  C   UNL A   1      34.004  28.288  24.124  1.00  0.00     0.005 A 
ATOM     17  C   UNL A   1      33.398  26.531  22.603  1.00  0.00     0.161 A 
ATOM     18  O   UNL A   1      32.810  24.356  23.515  1.00  0.00    -0.486 OA
ATOM     19  C   UNL A   1      33.819  27.839  22.822  1.00  0.00     0.050 A 
ATOM     20  O   UNL A   1      33.335  26.129  21.291  1.00  0.00    -0.486 OA
ATOM     21  C   UNL A   1      33.324  23.906  22.257  1.00  0.00     0.271 C 
ATOM     22  C   UNL A   1      32.794  24.809  21.158  1.00  0.00     0.271 C 
ENDBRANCH  12  13
ENDBRANCH   9  12
ENDBRANCH   8   9
ENDBRANCH   5   8
ENDBRANCH   3   4
ENDBRANCH   2   3
ENDBRANCH   1   2
BRANCH   1  23
ATOM     23  C   UNL A   1      35.631  21.681  24.598  1.00  0.00     0.002 C 
BRANCH  23  24
ATOM     24  C   UNL A   1      35.413  23.055  25.235  1.00  0.00     0.021 C 
BRANCH  24  25
ATOM     25  C   UNL A   1      36.640  23.639  25.926  1.00  0.00     0.116 C 
BRANCH  25  26
ATOM     26  N   UNL A   1      37.718  22.669  26.028  1.00  0.00    -0.352 N 
ATOM     27  C   UNL A   1      39.034  22.884  26.353  1.00  0.00     0.251 C 
ATOM     28  H   UNL A   1      37.471  21.735  25.838  1.00  0.00     0.163 HD
ATOM     29  O   UNL A   1      39.876  22.012  26.178  1.00  0.00    -0.269 OA
BRANCH  27  30
ATOM     30  C   UNL A   1      39.430  24.193  26.913  1.00  0.00     0.039 A 
ATOM     31  C   UNL A   1      39.205  24.451  28.267  1.00  0.00     0.014 A 
ATOM     32  C   UNL A   1      40.020  25.161  26.095  1.00  0.00     0.014 A 
ATOM     33  C   UNL A   1      39.605  25.673  28.809  1.00  0.00     0.010 A 
ATOM     34  C   UNL A   1      40.490  26.344  26.654  1.00  0.00     0.010 A 
ATOM     35  C   UNL A   1      40.266  26.622  28.011  1.00  0.00    -0.014 A 
BRANCH  35  36
ATOM     36  C   UNL A   1      40.679  27.937  28.565  1.00  0.00     0.031 A 
ATOM     37  C   UNL A   1      42.127  28.185  28.888  1.00  0.00     0.074 A 
ATOM     38  C   UNL A   1      39.755  28.884  28.813  1.00  0.00     0.049 A 
ATOM     39  N   UNL A   1      42.690  29.241  29.421  1.00  0.00    -0.248 NA
ATOM     40  C   UNL A   1      43.067  27.089  28.601  1.00  0.00     0.031 C 
ATOM     41  C   UNL A   1      38.316  28.745  28.583  1.00  0.00     0.029 A 
ATOM     42  N   UNL A   1      39.889  30.153  29.318  1.00  0.00    -0.354 N 
ATOM     43  C   UNL A   1      44.038  28.929  29.541  1.00  0.00     0.074 A 
ATOM     44  C   UNL A   1      44.201  27.566  29.091  1.00  0.00     0.031 C 
ATOM     45  C   UNL A   1      37.704  29.893  28.918  1.00  0.00     0.029 A 
ATOM     46  C   UNL A   1      38.701  30.835  29.418  1.00  0.00     0.049 A 
ATOM     47  H   UNL A   1      40.756  30.538  29.583  1.00  0.00     0.167 HD
ATOM     48  C   UNL A   1      45.055  29.721  29.958  1.00  0.00     0.037 A 
ATOM     49  C   UNL A   1      38.450  32.081  29.864  1.00  0.00     0.037 A 
ATOM     50  C   UNL A   1      44.892  31.087  30.378  1.00  0.00     0.049 A 
ATOM     51  C   UNL A   1      39.599  32.938  30.328  1.00  0.00     0.074 A 
ATOM     52  C   UNL A   1      45.861  31.988  30.783  1.00  0.00     0.029 A 
ATOM     53  N   UNL A   1      43.675  31.750  30.444  1.00  0.00    -0.354 N 
ATOM     54  N   UNL A   1      40.878  32.654  30.380  1.00  0.00    -0.248 NA
ATOM     55  C   UNL A   1      39.269  34.296  30.780  1.00  0.00     0.031 C 
ATOM     56  C   UNL A   1      45.226  33.184  31.134  1.00  0.00     0.029 A 
ATOM     57  C   UNL A   1      43.868  33.046  30.895  1.00  0.00     0.049 A 
ATOM     58  H   UNL A   1      42.804  31.358  30.206  1.00  0.00     0.167 HD
ATOM     59  C   UNL A   1      41.507  33.807  30.829  1.00  0.00     0.074 A 
ATOM     60  C   UNL A   1      40.470  34.798  31.024  1.00  0.00     0.031 C 
ATOM     61  C   UNL A   1      42.826  34.026  31.058  1.00  0.00     0.037 A 
BRANCH  48  62
ATOM     62  C   UNL A   1      46.435  29.129  29.969  1.00  0.00     0.064 A 
ATOM     63  C   UNL A   1      46.950  28.485  31.106  1.00  0.00     0.173 A 
ATOM     64  C   UNL A   1      47.243  29.177  28.823  1.00  0.00     0.173 A 
ATOM     65  F   UNL A   1      46.224  28.423  32.233  1.00  0.00    -0.203 F 
ATOM     66  C   UNL A   1      48.231  27.939  31.104  1.00  0.00     0.198 A 
ATOM     67  C   UNL A   1      48.511  28.600  28.814  1.00  0.00     0.198 A 
ATOM     68  F   UNL A   1      46.800  29.777  27.708  1.00  0.00    -0.203 F 
ATOM     69  F   UNL A   1      48.719  27.377  32.219  1.00  0.00    -0.200 F 
ATOM     70  C   UNL A   1      49.007  27.989  29.956  1.00  0.00     0.200 A 
ATOM     71  F   UNL A   1      49.254  28.637  27.699  1.00  0.00    -0.200 F 
ATOM     72  F   UNL A   1      50.235  27.456  29.952  1.00  0.00    -0.200 F 
ENDBRANCH  48  62
BRANCH  49  73
ATOM     73  C   UNL A   1      37.059  32.609  29.865  1.00  0.00     0.064 A 
ATOM     74  C   UNL A   1      36.554  33.305  28.757  1.00  0.00     0.173 A 
ATOM     75  C   UNL A   1      36.217  32.454  30.975  1.00  0.00     0.173 A 
ATOM     76  F   UNL A   1      37.326  33.497  27.677  1.00  0.00    -0.203 F 
ATOM     77  C   UNL A   1      35.273  33.853  28.771  1.00  0.00     0.198 A 
ATOM     78  C   UNL A   1      34.925  32.975  30.977  1.00  0.00     0.198 A 
ATOM     79  F   UNL A   1      36.648  31.792  32.059  1.00  0.00    -0.203 F 
ATOM     80  F   UNL A   1      34.838  34.563  27.722  1.00  0.00    -0.200 F 
ATOM     81  C   UNL A   1      34.457  33.684  29.880  1.00  0.00     0.200 A 
ATOM     82  F   UNL A   1      34.134  32.797  32.044  1.00  0.00    -0.200 F 
ATOM     83  F   UNL A   1      33.226  34.212  29.895  1.00  0.00    -0.200 F 
ENDBRANCH  49  73
BRANCH  61  84
ATOM     84  C   UNL A   1      43.230  35.408  31.485  1.00  0.00     0.064 A 
ATOM     85  C   UNL A   1      43.235  35.798  32.832  1.00  0.00     0.173 A 
ATOM     86  C   UNL A   1      43.651  36.346  30.528  1.00  0.00     0.173 A 
ATOM     87  F   UNL A   1      42.830  34.944  33.783  1.00  0.00    -0.203 F 
ATOM     88  C   UNL A   1      43.616  37.085  33.202  1.00  0.00     0.198 A 
ATOM     89  C   UNL A   1      44.063  37.620  30.905  1.00  0.00     0.198 A 
ATOM     90  F   UNL A   1      43.674  36.020  29.227  1.00  0.00    -0.203 F 
ATOM     91  F   UNL A   1      43.560  37.453  34.490  1.00  0.00    -0.200 F 
ATOM     92  C   UNL A   1      44.037  37.992  32.240  1.00  0.00     0.200 A 
ATOM     93  F   UNL A   1      44.486  38.488  29.976  1.00  0.00    -0.200 F 
ATOM     94  F   UNL A   1      44.408  39.228  32.600  1.00  0.00    -0.200 F 
ENDBRANCH  61  84
ENDBRANCH  35  36
ENDBRANCH  27  30
ENDBRANCH  25  26
ENDBRANCH  24  25
ENDBRANCH  23  24
ENDBRANCH   1  23
TORSDOF 16
ENDMDL
MODEL 2
REMARK VINA RESULT:     -11.0      4.224      9.048
REMARK SMILES C[N@@H+](CC(=O)NCCCCCCNC(=O)c1ccc(-c2c3nc(c(-c4c(F)c(F)c(F)c(F)c4F)c4ccc([nH]4)c(-c4c(F)c(F)c(F)c(F)c4F)c4nc(c(-c5c(F)c(F)c(F)c(F)c5F)c5ccc2[nH]5)C=C4)C=C3)cc1)Cc1cccc2c1OCCO2
REMARK SMILES IDX 9 1 8 2 7 3 6 4 4 5 5 6 3 8 2 9 1 10 79 12 80 13 81 14 85 15
REMARK SMILES IDX 82 16 84 17 86 18 83 19 89 20 87 21 88 22 10 23 11 24 12 25
REMARK SMILES IDX 13 26 14 27 15 29 16 30 17 31 78 32 18 33 77 34 19 35 20 36
REMARK SMILES IDX 21 37 71 38 22 39 76 40 70 41 72 42 23 43 75 44 69 45 68 46
REMARK SMILES IDX 24 48 56 49 36 50 55 51 37 52 40 53 54 54 73 55 38 56 39 57
REMARK SMILES IDX 53 59 74 60 41 61 25 62 26 63 34 64 27 65 28 66 32 67 35 68
REMARK SMILES IDX 29 69 30 70 33 71 31 72 57 73 58 74 66 75 59 76 60 77 64 78
REMARK SMILES IDX 67 79 61 80 62 81 65 82 63 83 42 84 43 85 51 86 44 87 45 88
REMARK SMILES IDX 49 89 52 90 46 91 47 92 50 93 48 94
REMARK H PARENT 6 7 2 11 13 28 72 47 40 58
REMARK Flexibility Score: inf
ROOT
ATOM      1  C   UNL A   1      32.340  29.951  26.821  1.00  0.00     0.002 C 
ENDROOT
BRANCH   1   2
ATOM      2  C   UNL A   1      31.690  28.647  27.292  1.00  0.00     0.021 C 
BRANCH   2   3
ATOM      3  C   UNL A   1      32.013  27.421  26.440  1.00  0.00     0.116 C 
BRANCH   3   4
ATOM      4  N   UNL A   1      31.019  27.176  25.416  1.00  0.00    -0.351 N 
ATOM      5  C   UNL A   1      30.869  26.128  24.554  1.00  0.00     0.275 C 
ATOM      6  O   UNL A   1      29.851  26.114  23.854  1.00  0.00    -0.269 OA
ATOM      7  H   UNL A   1      30.340  27.882  25.326  1.00  0.00     0.163 HD
BRANCH   5   8
ATOM      8  C   UNL A   1      31.877  24.979  24.511  1.00  0.00     0.363 C 
BRANCH   8   9
ATOM      9  N   UNL A   1      32.726  24.945  23.325  1.00  0.00    -0.326 N 
ATOM     10  C   UNL A   1      33.388  26.142  22.885  1.00  0.00     0.333 C 
ATOM     11  H   UNL A   1      33.433  24.583  23.964  1.00  0.00     0.348 HD
BRANCH   9  12
ATOM     12  C   UNL A   1      32.796  23.750  22.489  1.00  0.00     0.303 C 
BRANCH  12  13
ATOM     13  C   UNL A   1      33.172  22.475  23.211  1.00  0.00     0.052 A 
ATOM     14  C   UNL A   1      32.296  21.382  23.238  1.00  0.00     0.014 A 
ATOM     15  C   UNL A   1      34.400  22.335  23.867  1.00  0.00     0.170 A 
ATOM     16  C   UNL A   1      32.532  20.279  24.060  1.00  0.00     0.005 A 
ATOM     17  C   UNL A   1      34.635  21.238  24.714  1.00  0.00     0.161 A 
ATOM     18  O   UNL A   1      35.371  23.280  23.621  1.00  0.00    -0.486 OA
ATOM     19  C   UNL A   1      33.685  20.228  24.834  1.00  0.00     0.050 A 
ATOM     20  O   UNL A   1      35.792  21.066  25.434  1.00  0.00    -0.486 OA
ATOM     21  C   UNL A   1      36.664  22.739  23.914  1.00  0.00     0.271 C 
ATOM     22  C   UNL A   1      36.663  22.199  25.332  1.00  0.00     0.271 C 
ENDBRANCH  12  13
ENDBRANCH   9  12
ENDBRANCH   8   9
ENDBRANCH   5   8
ENDBRANCH   3   4
ENDBRANCH   2   3
ENDBRANCH   1   2
BRANCH   1  23
ATOM     23  C   UNL A   1      31.417  30.868  26.019  1.00  0.00     0.002 C 
BRANCH  23  24
ATOM     24  C   UNL A   1      31.366  32.317  26.509  1.00  0.00     0.021 C 
BRANCH  24  25
ATOM     25  C   UNL A   1      32.662  32.824  27.132  1.00  0.00     0.116 C 
BRANCH  25  26
ATOM     26  N   UNL A   1      32.529  34.185  27.626  1.00  0.00    -0.352 N 
ATOM     27  C   UNL A   1      33.165  34.773  28.691  1.00  0.00     0.251 C 
ATOM     28  H   UNL A   1      31.902  34.760  27.132  1.00  0.00     0.163 HD
ATOM     29  O   UNL A   1      32.788  35.852  29.130  1.00  0.00    -0.269 OA
BRANCH  27  30
ATOM     30  C   UNL A   1      34.313  34.080  29.313  1.00  0.00     0.039 A 
ATOM     31  C   UNL A   1      34.075  33.054  30.229  1.00  0.00     0.014 A 
ATOM     32  C   UNL A   1      35.621  34.452  28.988  1.00  0.00     0.014 A 
ATOM     33  C   UNL A   1      35.154  32.374  30.796  1.00  0.00     0.010 A 
ATOM     34  C   UNL A   1      36.692  33.721  29.492  1.00  0.00     0.010 A 
ATOM     35  C   UNL A   1      36.470  32.692  30.419  1.00  0.00    -0.014 A 
BRANCH  35  36
ATOM     36  C   UNL A   1      37.632  31.995  31.028  1.00  0.00     0.031 A 
ATOM     37  C   UNL A   1      38.076  32.366  32.417  1.00  0.00     0.074 A 
ATOM     38  C   UNL A   1      38.304  31.066  30.324  1.00  0.00     0.049 A 
ATOM     39  N   UNL A   1      39.090  31.915  33.112  1.00  0.00    -0.248 NA
ATOM     40  C   UNL A   1      37.293  33.404  33.108  1.00  0.00     0.031 C 
ATOM     41  C   UNL A   1      37.997  30.652  28.955  1.00  0.00     0.029 A 
ATOM     42  N   UNL A   1      39.393  30.302  30.665  1.00  0.00    -0.354 N 
ATOM     43  C   UNL A   1      39.070  32.621  34.308  1.00  0.00     0.074 A 
ATOM     44  C   UNL A   1      37.989  33.576  34.221  1.00  0.00     0.031 C 
ATOM     45  C   UNL A   1      38.857  29.690  28.582  1.00  0.00     0.029 A 
ATOM     46  C   UNL A   1      39.797  29.443  29.672  1.00  0.00     0.049 A 
ATOM     47  H   UNL A   1      39.842  30.364  31.540  1.00  0.00     0.167 HD
ATOM     48  C   UNL A   1      39.862  32.465  35.396  1.00  0.00     0.037 A 
ATOM     49  C   UNL A   1      40.812  28.558  29.648  1.00  0.00     0.037 A 
ATOM     50  C   UNL A   1      40.919  31.493  35.490  1.00  0.00     0.049 A 
ATOM     51  C   UNL A   1      41.680  28.408  30.870  1.00  0.00     0.074 A 
ATOM     52  C   UNL A   1      41.755  31.226  36.559  1.00  0.00     0.029 A 
ATOM     53  N   UNL A   1      41.282  30.626  34.470  1.00  0.00    -0.354 N 
ATOM     54  N   UNL A   1      41.614  29.038  32.017  1.00  0.00    -0.248 NA
ATOM     55  C   UNL A   1      42.756  27.410  30.796  1.00  0.00     0.031 C 
ATOM     56  C   UNL A   1      42.653  30.226  36.173  1.00  0.00     0.029 A 
ATOM     57  C   UNL A   1      42.339  29.830  34.883  1.00  0.00     0.049 A 
ATOM     58  H   UNL A   1      40.853  30.582  33.585  1.00  0.00     0.167 HD
ATOM     59  C   UNL A   1      42.609  28.486  32.814  1.00  0.00     0.074 A 
ATOM     60  C   UNL A   1      43.256  27.462  32.021  1.00  0.00     0.031 C 
ATOM     61  C   UNL A   1      42.954  28.798  34.088  1.00  0.00     0.037 A 
BRANCH  48  62
ATOM     62  C   UNL A   1      39.606  33.359  36.576  1.00  0.00     0.064 A 
ATOM     63  C   UNL A   1      38.734  32.981  37.609  1.00  0.00     0.173 A 
ATOM     64  C   UNL A   1      40.264  34.593  36.694  1.00  0.00     0.173 A 
ATOM     65  F   UNL A   1      38.069  31.818  37.540  1.00  0.00    -0.203 F 
ATOM     66  C   UNL A   1      38.506  33.818  38.699  1.00  0.00     0.198 A 
ATOM     67  C   UNL A   1      40.059  35.412  37.801  1.00  0.00     0.198 A 
ATOM     68  F   UNL A   1      41.112  35.001  35.737  1.00  0.00    -0.203 F 
ATOM     69  F   UNL A   1      37.627  33.459  39.645  1.00  0.00    -0.200 F 
ATOM     70  C   UNL A   1      39.175  35.028  38.798  1.00  0.00     0.200 A 
ATOM     71  F   UNL A   1      40.718  36.575  37.903  1.00  0.00    -0.200 F 
ATOM     72  F   UNL A   1      38.962  35.828  39.851  1.00  0.00    -0.200 F 
ENDBRANCH  48  62
BRANCH  49  73
ATOM     73  C   UNL A   1      41.045  27.719  28.442  1.00  0.00     0.064 A 
ATOM     74  C   UNL A   1      41.927  28.138  27.435  1.00  0.00     0.173 A 
ATOM     75  C   UNL A   1      40.377  26.500  28.257  1.00  0.00     0.173 A 
ATOM     76  F   UNL A   1      42.576  29.305  27.555  1.00  0.00    -0.203 F 
ATOM     77  C   UNL A   1      42.108  27.385  26.275  1.00  0.00     0.198 A 
ATOM     78  C   UNL A   1      40.582  25.733  27.112  1.00  0.00     0.198 A 
ATOM     79  F   UNL A   1      39.527  26.051  29.192  1.00  0.00    -0.203 F 
ATOM     80  F   UNL A   1      42.912  27.838  25.305  1.00  0.00    -0.200 F 
ATOM     81  C   UNL A   1      41.439  26.181  26.117  1.00  0.00     0.200 A 
ATOM     82  F   UNL A   1      39.946  24.563  26.969  1.00  0.00    -0.200 F 
ATOM     83  F   UNL A   1      41.610  25.459  25.002  1.00  0.00    -0.200 F 
ENDBRANCH  49  73
BRANCH  61  84
ATOM     84  C   UNL A   1      44.040  27.981  34.726  1.00  0.00     0.064 A 
ATOM     85  C   UNL A   1      43.768  26.784  35.405  1.00  0.00     0.173 A 
ATOM     86  C   UNL A   1      45.380  28.388  34.625  1.00  0.00     0.173 A 
ATOM     87  F   UNL A   1      42.503  26.358  35.541  1.00  0.00    -0.203 F 
ATOM     88  C   UNL A   1      44.793  26.043  35.987  1.00  0.00     0.198 A 
ATOM     89  C   UNL A   1      46.405  27.627  35.178  1.00  0.00     0.198 A 
ATOM     90  F   UNL A   1      45.696  29.520  33.978  1.00  0.00    -0.203 F 
ATOM     91  F   UNL A   1      44.503  24.933  36.679  1.00  0.00    -0.200 F 
ATOM     92  C   UNL A   1      46.110  26.461  35.867  1.00  0.00     0.200 A 
ATOM     93  F   UNL A   1      47.678  28.023  35.046  1.00  0.00    -0.200 F 
ATOM     94  F   UNL A   1      47.095  25.743  36.423  1.00  0.00    -0.200 F 
ENDBRANCH  61  84
ENDBRANCH  35  36
ENDBRANCH  27  30
ENDBRANCH  25  26
ENDBRANCH  24  25
ENDBRANCH  23  24
ENDBRANCH   1  23
TORSDOF 16
ENDMDL
MODEL 3
REMARK VINA RESULT:     -10.9      3.481      8.893
REMARK SMILES C[N@@H+](CC(=O)NCCCCCCNC(=O)c1ccc(-c2c3nc(c(-c4c(F)c(F)c(F)c(F)c4F)c4ccc([nH]4)c(-c4c(F)c(F)c(F)c(F)c4F)c4nc(c(-c5c(F)c(F)c(F)c(F)c5F)c5ccc2[nH]5)C=C4)C=C3)cc1)Cc1cccc2c1OCCO2
REMARK SMILES IDX 9 1 8 2 7 3 6 4 4 5 5 6 3 8 2 9 1 10 79 12 80 13 81 14 85 15
REMARK SMILES IDX 82 16 84 17 86 18 83 19 89 20 87 21 88 22 10 23 11 24 12 25
REMARK SMILES IDX 13 26 14 27 15 29 16 30 17 31 78 32 18 33 77 34 19 35 20 36
REMARK SMILES IDX 21 37 71 38 22 39 76 40 70 41 72 42 23 43 75 44 69 45 68 46
REMARK SMILES IDX 24 48 56 49 36 50 55 51 37 52 40 53 54 54 73 55 38 56 39 57
REMARK SMILES IDX 53 59 74 60 41 61 25 62 26 63 34 64 27 65 28 66 32 67 35 68
REMARK SMILES IDX 29 69 30 70 33 71 31 72 57 73 58 74 66 75 59 76 60 77 64 78
REMARK SMILES IDX 67 79 61 80 62 81 65 82 63 83 42 84 43 85 51 86 44 87 45 88
REMARK SMILES IDX 49 89 52 90 46 91 47 92 50 93 48 94
REMARK H PARENT 6 7 2 11 13 28 72 47 40 58
REMARK Flexibility Score: inf
ROOT
ATOM      1  C   UNL A   1      31.146  29.238  24.320  1.00  0.00     0.002 C 
ENDROOT
BRANCH   1   2
ATOM      2  C   UNL A   1      30.744  28.914  22.878  1.00  0.00     0.021 C 
BRANCH   2   3
ATOM      3  C   UNL A   1      30.643  27.424  22.556  1.00  0.00     0.116 C 
BRANCH   3   4
ATOM      4  N   UNL A   1      31.657  26.985  21.621  1.00  0.00    -0.351 N 
ATOM      5  C   UNL A   1      32.576  25.981  21.712  1.00  0.00     0.275 C 
ATOM      6  O   UNL A   1      33.253  25.741  20.706  1.00  0.00    -0.269 OA
ATOM      7  H   UNL A   1      31.689  27.496  20.781  1.00  0.00     0.163 HD
BRANCH   5   8
ATOM      8  C   UNL A   1      32.711  25.133  22.978  1.00  0.00     0.363 C 
BRANCH   8   9
ATOM      9  N   UNL A   1      32.041  23.838  22.929  1.00  0.00    -0.326 N 
ATOM     10  C   UNL A   1      30.710  23.701  23.452  1.00  0.00     0.333 C 
ATOM     11  H   UNL A   1      31.821  24.102  21.968  1.00  0.00     0.348 HD
BRANCH   9  12
ATOM     12  C   UNL A   1      32.757  22.643  22.491  1.00  0.00     0.303 C 
BRANCH  12  13
ATOM     13  C   UNL A   1      32.901  21.555  23.531  1.00  0.00     0.052 A 
ATOM     14  C   UNL A   1      32.471  20.248  23.265  1.00  0.00     0.014 A 
ATOM     15  C   UNL A   1      33.468  21.806  24.785  1.00  0.00     0.170 A 
ATOM     16  C   UNL A   1      32.408  19.282  24.271  1.00  0.00     0.005 A 
ATOM     17  C   UNL A   1      33.387  20.846  25.810  1.00  0.00     0.161 A 
ATOM     18  O   UNL A   1      34.136  22.997  24.961  1.00  0.00    -0.486 OA
ATOM     19  C   UNL A   1      32.827  19.597  25.558  1.00  0.00     0.050 A 
ATOM     20  O   UNL A   1      33.869  21.047  27.080  1.00  0.00    -0.486 OA
ATOM     21  C   UNL A   1      35.067  22.880  26.043  1.00  0.00     0.271 C 
ATOM     22  C   UNL A   1      34.331  22.389  27.275  1.00  0.00     0.271 C 
ENDBRANCH  12  13
ENDBRANCH   9  12
ENDBRANCH   8   9
ENDBRANCH   5   8
ENDBRANCH   3   4
ENDBRANCH   2   3
ENDBRANCH   1   2
BRANCH   1  23
ATOM     23  C   UNL A   1      31.866  28.104  25.048  1.00  0.00     0.002 C 
BRANCH  23  24
ATOM     24  C   UNL A   1      33.394  28.190  25.019  1.00  0.00     0.021 C 
BRANCH  24  25
ATOM     25  C   UNL A   1      34.037  28.543  26.355  1.00  0.00     0.116 C 
BRANCH  25  26
ATOM     26  N   UNL A   1      33.778  29.922  26.734  1.00  0.00    -0.352 N 
ATOM     27  C   UNL A   1      34.473  30.711  27.618  1.00  0.00     0.251 C 
ATOM     28  H   UNL A   1      33.003  30.346  26.300  1.00  0.00     0.163 HD
ATOM     29  O   UNL A   1      34.009  31.773  28.010  1.00  0.00    -0.269 OA
BRANCH  27  30
ATOM     30  C   UNL A   1      35.793  30.256  28.101  1.00  0.00     0.039 A 
ATOM     31  C   UNL A   1      35.902  29.721  29.385  1.00  0.00     0.014 A 
ATOM     32  C   UNL A   1      36.920  30.362  27.279  1.00  0.00     0.014 A 
ATOM     33  C   UNL A   1      37.139  29.259  29.835  1.00  0.00     0.010 A 
ATOM     34  C   UNL A   1      38.133  29.829  27.699  1.00  0.00     0.010 A 
ATOM     35  C   UNL A   1      38.261  29.295  28.990  1.00  0.00    -0.014 A 
BRANCH  35  36
ATOM     36  C   UNL A   1      39.591  28.830  29.459  1.00  0.00     0.031 A 
ATOM     37  C   UNL A   1      40.345  29.642  30.478  1.00  0.00     0.074 A 
ATOM     38  C   UNL A   1      40.132  27.710  28.946  1.00  0.00     0.049 A 
ATOM     39  N   UNL A   1      41.536  29.439  30.984  1.00  0.00    -0.248 NA
ATOM     40  C   UNL A   1      39.687  30.862  30.972  1.00  0.00     0.031 C 
ATOM     41  C   UNL A   1      39.518  26.862  27.924  1.00  0.00     0.029 A 
ATOM     42  N   UNL A   1      41.329  27.092  29.214  1.00  0.00    -0.354 N 
ATOM     43  C   UNL A   1      41.767  30.507  31.841  1.00  0.00     0.074 A 
ATOM     44  C   UNL A   1      40.629  31.390  31.738  1.00  0.00     0.031 C 
ATOM     45  C   UNL A   1      40.327  25.820  27.671  1.00  0.00     0.029 A 
ATOM     46  C   UNL A   1      41.531  25.944  28.488  1.00  0.00     0.049 A 
ATOM     47  H   UNL A   1      41.980  27.439  29.866  1.00  0.00     0.167 HD
ATOM     48  C   UNL A   1      42.821  30.716  32.666  1.00  0.00     0.037 A 
ATOM     49  C   UNL A   1      42.572  25.090  28.485  1.00  0.00     0.037 A 
ATOM     50  C   UNL A   1      43.940  29.820  32.787  1.00  0.00     0.049 A 
ATOM     51  C   UNL A   1      43.734  25.349  29.408  1.00  0.00     0.074 A 
ATOM     52  C   UNL A   1      45.041  29.919  33.619  1.00  0.00     0.029 A 
ATOM     53  N   UNL A   1      44.098  28.655  32.050  1.00  0.00    -0.354 N 
ATOM     54  N   UNL A   1      43.914  26.330  30.259  1.00  0.00    -0.248 NA
ATOM     55  C   UNL A   1      44.830  24.371  29.381  1.00  0.00     0.031 C 
ATOM     56  C   UNL A   1      45.886  28.836  33.357  1.00  0.00     0.029 A 
ATOM     57  C   UNL A   1      45.284  28.032  32.402  1.00  0.00     0.049 A 
ATOM     58  H   UNL A   1      43.461  28.321  31.377  1.00  0.00     0.167 HD
ATOM     59  C   UNL A   1      45.120  26.066  30.896  1.00  0.00     0.074 A 
ATOM     60  C   UNL A   1      45.622  24.827  30.340  1.00  0.00     0.031 C 
ATOM     61  C   UNL A   1      45.754  26.785  31.855  1.00  0.00     0.037 A 
BRANCH  48  62
ATOM     62  C   UNL A   1      42.807  31.959  33.510  1.00  0.00     0.064 A 
ATOM     63  C   UNL A   1      42.226  31.972  34.788  1.00  0.00     0.173 A 
ATOM     64  C   UNL A   1      43.407  33.141  33.052  1.00  0.00     0.173 A 
ATOM     65  F   UNL A   1      41.627  30.873  35.269  1.00  0.00    -0.203 F 
ATOM     66  C   UNL A   1      42.221  33.130  35.562  1.00  0.00     0.198 A 
ATOM     67  C   UNL A   1      43.429  34.288  33.842  1.00  0.00     0.198 A 
ATOM     68  F   UNL A   1      43.980  33.184  31.839  1.00  0.00    -0.203 F 
ATOM     69  F   UNL A   1      41.612  33.132  36.757  1.00  0.00    -0.200 F 
ATOM     70  C   UNL A   1      42.829  34.284  35.093  1.00  0.00     0.200 A 
ATOM     71  F   UNL A   1      44.030  35.398  33.393  1.00  0.00    -0.200 F 
ATOM     72  F   UNL A   1      42.830  35.394  35.841  1.00  0.00    -0.200 F 
ENDBRANCH  48  62
BRANCH  49  73
ATOM     73  C   UNL A   1      42.554  23.890  27.605  1.00  0.00     0.064 A 
ATOM     74  C   UNL A   1      42.129  22.646  28.093  1.00  0.00     0.173 A 
ATOM     75  C   UNL A   1      42.984  23.954  26.271  1.00  0.00     0.173 A 
ATOM     76  F   UNL A   1      41.726  22.529  29.367  1.00  0.00    -0.203 F 
ATOM     77  C   UNL A   1      42.163  21.506  27.292  1.00  0.00     0.198 A 
ATOM     78  C   UNL A   1      42.988  22.820  25.462  1.00  0.00     0.198 A 
ATOM     79  F   UNL A   1      43.395  25.120  25.752  1.00  0.00    -0.203 F 
ATOM     80  F   UNL A   1      41.806  20.321  27.802  1.00  0.00    -0.200 F 
ATOM     81  C   UNL A   1      42.588  21.595  25.975  1.00  0.00     0.200 A 
ATOM     82  F   UNL A   1      43.385  22.912  24.185  1.00  0.00    -0.200 F 
ATOM     83  F   UNL A   1      42.624  20.499  25.205  1.00  0.00    -0.200 F 
ENDBRANCH  49  73
BRANCH  61  84
ATOM     84  C   UNL A   1      47.029  26.217  32.411  1.00  0.00     0.064 A 
ATOM     85  C   UNL A   1      48.284  26.548  31.879  1.00  0.00     0.173 A 
ATOM     86  C   UNL A   1      46.991  25.354  33.517  1.00  0.00     0.173 A 
ATOM     87  F   UNL A   1      48.373  27.359  30.814  1.00  0.00    -0.203 F 
ATOM     88  C   UNL A   1      49.451  26.010  32.414  1.00  0.00     0.198 A 
ATOM     89  C   UNL A   1      48.163  24.845  34.070  1.00  0.00     0.198 A 
ATOM     90  F   UNL A   1      45.818  25.013  34.070  1.00  0.00    -0.203 F 
ATOM     91  F   UNL A   1      50.635  26.296  31.853  1.00  0.00    -0.200 F 
ATOM     92  C   UNL A   1      49.391  25.165  33.513  1.00  0.00     0.200 A 
ATOM     93  F   UNL A   1      48.103  24.044  35.142  1.00  0.00    -0.200 F 
ATOM     94  F   UNL A   1      50.516  24.653  34.029  1.00  0.00    -0.200 F 
ENDBRANCH  61  84
ENDBRANCH  35  36
ENDBRANCH  27  30
ENDBRANCH  25  26
ENDBRANCH  24  25
ENDBRANCH  23  24
ENDBRANCH   1  23
TORSDOF 16
ENDMDL
