MODEL 1
REMARK VINA RESULT:     -13.8      0.000      0.000
REMARK SMILES Cc1cccc2c1[C@H]1c3c(C)cccc3[C@H](CC(=O)NCCCCCCNC(=O)c3ccc(-c4c5nc(c(-c6c(F)c(F)c(F)c(F)c6F)c6ccc([nH]6)c(-c6c(F)c(F)c(F)c(F)c6F)c6nc(c(-c7c(F)c(F)c(F)c(F)c7F)c7ccc4[nH]7)C=C6)C=C5)cc3)C[C@H]1CC2
REMARK SMILES IDX 24 1 23 2 22 3 21 4 20 5 18 6 19 7 17 9 16 10 1 11 2 12 3 13
REMARK SMILES IDX 7 14 4 15 6 16 8 17 5 18 96 19 9 20 94 21 95 22 10 23 15 24
REMARK SMILES IDX 93 25 12 26 11 27 14 28 13 29 25 30 26 31 27 32 28 33 29 35
REMARK SMILES IDX 30 36 31 37 92 38 32 39 91 40 33 41 34 42 35 43 85 44 36 45
REMARK SMILES IDX 90 46 84 47 86 48 37 49 89 50 83 51 82 52 38 54 70 55 50 56
REMARK SMILES IDX 69 57 51 58 54 59 68 60 87 61 52 62 53 63 67 65 88 66 55 67
REMARK SMILES IDX 39 68 40 69 48 70 41 71 42 72 46 73 49 74 43 75 44 76 47 77
REMARK SMILES IDX 45 78 71 79 72 80 80 81 73 82 74 83 78 84 81 85 75 86 76 87
REMARK SMILES IDX 79 88 77 89 56 90 57 91 65 92 58 93 59 94 63 95 66 96 60 97
REMARK SMILES IDX 61 98 64 99 62 100
REMARK H PARENT 20 8 27 34 86 53 54 64
REMARK Flexibility Score: inf
ROOT
ATOM      1  C   UNL A   1      31.813  30.549  26.962  1.00  0.00     0.002 C 
ENDROOT
BRANCH   1   2
ATOM      2  C   UNL A   1      31.688  29.786  25.638  1.00  0.00     0.002 C 
BRANCH   2   3
ATOM      3  C   UNL A   1      33.028  29.350  25.023  1.00  0.00     0.021 C 
BRANCH   3   4
ATOM      4  C   UNL A   1      32.957  29.188  23.500  1.00  0.00     0.116 C 
BRANCH   4   5
ATOM      5  N   UNL A   1      31.587  29.383  23.067  1.00  0.00    -0.356 N 
ATOM      6  C   UNL A   1      30.795  28.620  22.266  1.00  0.00     0.220 C 
ATOM      7  O   UNL A   1      29.831  29.174  21.734  1.00  0.00    -0.275 OA
ATOM      8  H   UNL A   1      31.160  30.200  23.409  1.00  0.00     0.163 HD
BRANCH   6   9
ATOM      9  C   UNL A   1      30.967  27.117  22.175  1.00  0.00     0.108 C 
BRANCH   9  10
ATOM     10  C   UNL A   1      32.039  26.425  23.043  1.00  0.00     0.029 C 
ATOM     11  C   UNL A   1      32.115  20.556  22.916  1.00  0.00     0.044 C 
ATOM     12  C   UNL A   1      33.195  21.016  23.864  1.00  0.00    -0.047 A 
ATOM     13  C   UNL A   1      33.902  20.001  24.537  1.00  0.00     0.004 A 
ATOM     14  C   UNL A   1      33.548  22.373  24.082  1.00  0.00    -0.034 A 
ATOM     15  C   UNL A   1      34.956  20.303  25.391  1.00  0.00     0.001 A 
ATOM     16  C   UNL A   1      34.701  22.656  24.854  1.00  0.00    -0.044 A 
ATOM     17  C   UNL A   1      32.738  23.539  23.511  1.00  0.00     0.053 C 
ATOM     18  C   UNL A   1      35.369  21.620  25.527  1.00  0.00     0.004 A 
ATOM     19  C   UNL A   1      35.341  24.024  24.890  1.00  0.00     0.036 C 
ATOM     20  C   UNL A   1      31.696  24.236  24.430  1.00  0.00    -0.034 A 
ATOM     21  C   UNL A   1      33.766  24.561  22.964  1.00  0.00     0.002 C 
ATOM     22  C   UNL A   1      34.628  25.124  24.106  1.00  0.00     0.009 C 
ATOM     23  C   UNL A   1      30.983  23.604  25.491  1.00  0.00    -0.047 A 
ATOM     24  C   UNL A   1      31.390  25.606  24.167  1.00  0.00    -0.040 A 
ATOM     25  C   UNL A   1      33.019  25.635  22.171  1.00  0.00     0.013 C 
ATOM     26  C   UNL A   1      30.069  24.342  26.277  1.00  0.00     0.004 A 
ATOM     27  C   UNL A   1      31.110  22.159  25.890  1.00  0.00     0.044 C 
ATOM     28  C   UNL A   1      30.508  26.311  25.020  1.00  0.00     0.004 A 
ATOM     29  C   UNL A   1      29.842  25.685  26.056  1.00  0.00     0.001 A 
ENDBRANCH   9  10
ENDBRANCH   6   9
ENDBRANCH   4   5
ENDBRANCH   3   4
ENDBRANCH   2   3
ENDBRANCH   1   2
BRANCH   1  30
ATOM     30  C   UNL A   1      31.619  32.062  26.841  1.00  0.00     0.021 C 
BRANCH  30  31
ATOM     31  C   UNL A   1      32.872  32.873  27.155  1.00  0.00     0.116 C 
BRANCH  31  32
ATOM     32  N   UNL A   1      32.540  34.225  27.577  1.00  0.00    -0.352 N 
ATOM     33  C   UNL A   1      33.027  34.922  28.656  1.00  0.00     0.251 C 
ATOM     34  H   UNL A   1      31.885  34.702  27.019  1.00  0.00     0.163 HD
ATOM     35  O   UNL A   1      32.517  35.972  29.017  1.00  0.00    -0.269 OA
BRANCH  33  36
ATOM     36  C   UNL A   1      34.183  34.368  29.385  1.00  0.00     0.039 A 
ATOM     37  C   UNL A   1      33.964  33.596  30.527  1.00  0.00     0.014 A 
ATOM     38  C   UNL A   1      35.479  34.603  28.913  1.00  0.00     0.014 A 
ATOM     39  C   UNL A   1      35.052  33.014  31.178  1.00  0.00     0.010 A 
ATOM     40  C   UNL A   1      36.557  33.988  29.539  1.00  0.00     0.010 A 
ATOM     41  C   UNL A   1      36.351  33.193  30.677  1.00  0.00    -0.014 A 
BRANCH  41  42
ATOM     42  C   UNL A   1      37.523  32.586  31.347  1.00  0.00     0.031 A 
ATOM     43  C   UNL A   1      38.254  31.461  30.678  1.00  0.00     0.074 A 
ATOM     44  C   UNL A   1      37.886  33.007  32.572  1.00  0.00     0.049 A 
ATOM     45  N   UNL A   1      39.239  30.729  31.131  1.00  0.00    -0.248 NA
ATOM     46  C   UNL A   1      37.804  31.098  29.323  1.00  0.00     0.031 C 
ATOM     47  C   UNL A   1      37.240  34.084  33.323  1.00  0.00     0.029 A 
ATOM     48  N   UNL A   1      38.882  32.568  33.408  1.00  0.00    -0.354 N 
ATOM     49  C   UNL A   1      39.527  29.822  30.120  1.00  0.00     0.074 A 
ATOM     50  C   UNL A   1      38.584  30.062  29.050  1.00  0.00     0.031 C 
ATOM     51  C   UNL A   1      37.863  34.229  34.505  1.00  0.00     0.029 A 
ATOM     52  C   UNL A   1      38.929  33.236  34.607  1.00  0.00     0.049 A 
ATOM     53  H   UNL A   1      39.506  31.844  33.169  1.00  0.00     0.167 HD
ATOM     54  C   UNL A   1      40.504  28.888  30.083  1.00  0.00     0.037 A 
ATOM     55  C   UNL A   1      39.738  33.058  35.667  1.00  0.00     0.037 A 
ATOM     56  C   UNL A   1      41.445  28.660  31.147  1.00  0.00     0.049 A 
ATOM     57  C   UNL A   1      40.796  31.988  35.613  1.00  0.00     0.074 A 
ATOM     58  C   UNL A   1      42.480  27.743  31.202  1.00  0.00     0.029 A 
ATOM     59  N   UNL A   1      41.466  29.361  32.344  1.00  0.00    -0.354 N 
ATOM     60  N   UNL A   1      41.076  31.151  34.644  1.00  0.00    -0.248 NA
ATOM     61  C   UNL A   1      41.653  31.842  36.798  1.00  0.00     0.031 C 
ATOM     62  C   UNL A   1      43.109  27.869  32.443  1.00  0.00     0.029 A 
ATOM     63  C   UNL A   1      42.492  28.892  33.145  1.00  0.00     0.049 A 
ATOM     64  H   UNL A   1      40.843  30.084  32.586  1.00  0.00     0.167 HD
ATOM     65  C   UNL A   1      42.158  30.402  35.086  1.00  0.00     0.074 A 
ATOM     66  C   UNL A   1      42.489  30.889  36.409  1.00  0.00     0.031 C 
ATOM     67  C   UNL A   1      42.818  29.404  34.452  1.00  0.00     0.037 A 
BRANCH  54  68
ATOM     68  C   UNL A   1      40.618  28.051  28.846  1.00  0.00     0.064 A 
ATOM     69  C   UNL A   1      39.892  26.859  28.705  1.00  0.00     0.173 A 
ATOM     70  C   UNL A   1      41.414  28.468  27.769  1.00  0.00     0.173 A 
ATOM     71  F   UNL A   1      39.130  26.411  29.714  1.00  0.00    -0.203 F 
ATOM     72  C   UNL A   1      39.967  26.109  27.535  1.00  0.00     0.198 A 
ATOM     73  C   UNL A   1      41.467  27.729  26.591  1.00  0.00     0.198 A 
ATOM     74  F   UNL A   1      42.126  29.602  27.854  1.00  0.00    -0.203 F 
ATOM     75  F   UNL A   1      39.289  24.958  27.434  1.00  0.00    -0.200 F 
ATOM     76  C   UNL A   1      40.747  26.550  26.475  1.00  0.00     0.200 A 
ATOM     77  F   UNL A   1      42.213  28.160  25.564  1.00  0.00    -0.200 F 
ATOM     78  F   UNL A   1      40.806  25.834  25.344  1.00  0.00    -0.200 F 
ENDBRANCH  54  68
BRANCH  55  79
ATOM     79  C   UNL A   1      39.602  33.932  36.859  1.00  0.00     0.064 A 
ATOM     80  C   UNL A   1      38.812  33.538  37.948  1.00  0.00     0.173 A 
ATOM     81  C   UNL A   1      40.254  35.171  36.939  1.00  0.00     0.173 A 
ATOM     82  F   UNL A   1      38.153  32.371  37.908  1.00  0.00    -0.203 F 
ATOM     83  C   UNL A   1      38.668  34.356  39.066  1.00  0.00     0.198 A 
ATOM     84  C   UNL A   1      40.128  35.978  38.068  1.00  0.00     0.198 A 
ATOM     85  F   UNL A   1      41.023  35.592  35.924  1.00  0.00    -0.203 F 
ATOM     86  F   UNL A   1      37.878  33.971  40.077  1.00  0.00    -0.200 F 
ATOM     87  C   UNL A   1      39.330  35.573  39.128  1.00  0.00     0.200 A 
ATOM     88  F   UNL A   1      40.779  37.148  38.129  1.00  0.00    -0.200 F 
ATOM     89  F   UNL A   1      39.195  36.358  40.205  1.00  0.00    -0.200 F 
ENDBRANCH  55  79
BRANCH  67  90
ATOM     90  C   UNL A   1      43.992  28.794  35.157  1.00  0.00     0.064 A 
ATOM     91  C   UNL A   1      45.289  29.302  34.998  1.00  0.00     0.173 A 
ATOM     92  C   UNL A   1      43.805  27.732  36.056  1.00  0.00     0.173 A 
ATOM     93  F   UNL A   1      45.519  30.308  34.141  1.00  0.00    -0.203 F 
ATOM     94  C   UNL A   1      46.360  28.757  35.701  1.00  0.00     0.198 A 
ATOM     95  C   UNL A   1      44.873  27.207  36.775  1.00  0.00     0.198 A 
ATOM     96  F   UNL A   1      42.580  27.218  36.248  1.00  0.00    -0.203 F 
ATOM     97  F   UNL A   1      47.597  29.235  35.508  1.00  0.00    -0.200 F 
ATOM     98  C   UNL A   1      46.150  27.717  36.595  1.00  0.00     0.200 A 
ATOM     99  F   UNL A   1      44.667  26.212  37.649  1.00  0.00    -0.200 F 
ATOM    100  F   UNL A   1      47.180  27.203  37.280  1.00  0.00    -0.200 F 
ENDBRANCH  67  90
ENDBRANCH  41  42
ENDBRANCH  33  36
ENDBRANCH  31  32
ENDBRANCH  30  31
ENDBRANCH   1  30
TORSDOF 14
ENDMDL
MODEL 2
REMARK VINA RESULT:     -13.7      1.633      7.545
REMARK SMILES Cc1cccc2c1[C@H]1c3c(C)cccc3[C@H](CC(=O)NCCCCCCNC(=O)c3ccc(-c4c5nc(c(-c6c(F)c(F)c(F)c(F)c6F)c6ccc([nH]6)c(-c6c(F)c(F)c(F)c(F)c6F)c6nc(c(-c7c(F)c(F)c(F)c(F)c7F)c7ccc4[nH]7)C=C6)C=C5)cc3)C[C@H]1CC2
REMARK SMILES IDX 24 1 23 2 22 3 21 4 20 5 18 6 19 7 17 9 16 10 1 11 2 12 3 13
REMARK SMILES IDX 7 14 4 15 6 16 8 17 5 18 96 19 9 20 94 21 95 22 10 23 15 24
REMARK SMILES IDX 93 25 12 26 11 27 14 28 13 29 25 30 26 31 27 32 28 33 29 35
REMARK SMILES IDX 30 36 31 37 92 38 32 39 91 40 33 41 34 42 35 43 85 44 36 45
REMARK SMILES IDX 90 46 84 47 86 48 37 49 89 50 83 51 82 52 38 54 70 55 50 56
REMARK SMILES IDX 69 57 51 58 54 59 68 60 87 61 52 62 53 63 67 65 88 66 55 67
REMARK SMILES IDX 39 68 40 69 48 70 41 71 42 72 46 73 49 74 43 75 44 76 47 77
REMARK SMILES IDX 45 78 71 79 72 80 80 81 73 82 74 83 78 84 81 85 75 86 76 87
REMARK SMILES IDX 79 88 77 89 56 90 57 91 65 92 58 93 59 94 63 95 66 96 60 97
REMARK SMILES IDX 61 98 64 99 62 100
REMARK H PARENT 20 8 27 34 86 53 54 64
REMARK Flexibility Score: inf
ROOT
ATOM      1  C   UNL A   1      34.601  33.828  29.101  1.00  0.00     0.002 C 
ENDROOT
BRANCH   1   2
ATOM      2  C   UNL A   1      34.403  32.312  28.988  1.00  0.00     0.002 C 
BRANCH   2   3
ATOM      3  C   UNL A   1      34.923  31.697  27.678  1.00  0.00     0.021 C 
BRANCH   3   4
ATOM      4  C   UNL A   1      34.384  30.283  27.431  1.00  0.00     0.116 C 
BRANCH   4   5
ATOM      5  N   UNL A   1      33.019  30.374  26.952  1.00  0.00    -0.356 N 
ATOM      6  C   UNL A   1      32.471  30.000  25.764  1.00  0.00     0.220 C 
ATOM      7  O   UNL A   1      31.403  30.527  25.445  1.00  0.00    -0.275 OA
ATOM      8  H   UNL A   1      32.385  30.771  27.591  1.00  0.00     0.163 HD
BRANCH   6   9
ATOM      9  C   UNL A   1      33.037  28.853  24.952  1.00  0.00     0.108 C 
BRANCH   9  10
ATOM     10  C   UNL A   1      32.525  27.420  25.210  1.00  0.00     0.029 C 
ATOM     11  C   UNL A   1      36.319  23.062  24.174  1.00  0.00     0.044 C 
ATOM     12  C   UNL A   1      35.017  22.448  24.623  1.00  0.00    -0.047 A 
ATOM     13  C   UNL A   1      34.963  21.042  24.627  1.00  0.00     0.004 A 
ATOM     14  C   UNL A   1      33.888  23.190  25.060  1.00  0.00    -0.034 A 
ATOM     15  C   UNL A   1      33.835  20.365  25.074  1.00  0.00     0.001 A 
ATOM     16  C   UNL A   1      32.798  22.489  25.630  1.00  0.00    -0.044 A 
ATOM     17  C   UNL A   1      33.806  24.714  24.946  1.00  0.00     0.053 C 
ATOM     18  C   UNL A   1      32.770  21.084  25.598  1.00  0.00     0.004 A 
ATOM     19  C   UNL A   1      31.698  23.180  26.403  1.00  0.00     0.036 C 
ATOM     20  C   UNL A   1      33.050  25.326  23.735  1.00  0.00    -0.034 A 
ATOM     21  C   UNL A   1      33.214  25.222  26.285  1.00  0.00     0.002 C 
ATOM     22  C   UNL A   1      31.778  24.704  26.471  1.00  0.00     0.009 C 
ATOM     23  C   UNL A   1      32.933  24.722  22.449  1.00  0.00    -0.047 A 
ATOM     24  C   UNL A   1      32.462  26.617  23.903  1.00  0.00    -0.040 A 
ATOM     25  C   UNL A   1      33.327  26.747  26.327  1.00  0.00     0.013 C 
ATOM     26  C   UNL A   1      32.203  25.363  21.422  1.00  0.00     0.004 A 
ATOM     27  C   UNL A   1      33.530  23.401  22.046  1.00  0.00     0.044 C 
ATOM     28  C   UNL A   1      31.695  27.187  22.859  1.00  0.00     0.004 A 
ATOM     29  C   UNL A   1      31.577  26.576  21.626  1.00  0.00     0.001 A 
ENDBRANCH   9  10
ENDBRANCH   6   9
ENDBRANCH   4   5
ENDBRANCH   3   4
ENDBRANCH   2   3
ENDBRANCH   1   2
BRANCH   1  30
ATOM     30  C   UNL A   1      33.306  34.642  29.043  1.00  0.00     0.021 C 
BRANCH  30  31
ATOM     31  C   UNL A   1      33.453  36.075  29.543  1.00  0.00     0.116 C 
BRANCH  31  32
ATOM     32  N   UNL A   1      32.524  36.361  30.625  1.00  0.00    -0.352 N 
ATOM     33  C   UNL A   1      32.531  35.862  31.905  1.00  0.00     0.251 C 
ATOM     34  H   UNL A   1      31.799  36.992  30.414  1.00  0.00     0.163 HD
ATOM     35  O   UNL A   1      31.580  36.024  32.655  1.00  0.00    -0.269 OA
BRANCH  33  36
ATOM     36  C   UNL A   1      33.717  35.113  32.360  1.00  0.00     0.039 A 
ATOM     37  C   UNL A   1      33.559  33.813  32.843  1.00  0.00     0.014 A 
ATOM     38  C   UNL A   1      34.983  35.702  32.281  1.00  0.00     0.014 A 
ATOM     39  C   UNL A   1      34.687  33.078  33.209  1.00  0.00     0.010 A 
ATOM     40  C   UNL A   1      36.108  34.954  32.606  1.00  0.00     0.010 A 
ATOM     41  C   UNL A   1      35.967  33.639  33.076  1.00  0.00    -0.014 A 
BRANCH  41  42
ATOM     42  C   UNL A   1      37.180  32.881  33.455  1.00  0.00     0.031 A 
ATOM     43  C   UNL A   1      37.861  33.183  34.757  1.00  0.00     0.074 A 
ATOM     44  C   UNL A   1      37.694  31.972  32.606  1.00  0.00     0.049 A 
ATOM     45  N   UNL A   1      38.982  32.707  35.233  1.00  0.00    -0.248 NA
ATOM     46  C   UNL A   1      37.201  34.165  35.632  1.00  0.00     0.031 C 
ATOM     47  C   UNL A   1      37.125  31.607  31.309  1.00  0.00     0.029 A 
ATOM     48  N   UNL A   1      38.824  31.198  32.704  1.00  0.00    -0.354 N 
ATOM     49  C   UNL A   1      39.161  33.330  36.461  1.00  0.00     0.074 A 
ATOM     50  C   UNL A   1      38.061  34.252  36.636  1.00  0.00     0.031 C 
ATOM     51  C   UNL A   1      37.901  30.674  30.736  1.00  0.00     0.029 A 
ATOM     52  C   UNL A   1      39.039  30.398  31.610  1.00  0.00     0.049 A 
ATOM     53  H   UNL A   1      39.422  31.215  33.487  1.00  0.00     0.167 HD
ATOM     54  C   UNL A   1      40.145  33.132  37.367  1.00  0.00     0.037 A 
ATOM     55  C   UNL A   1      40.046  29.545  31.344  1.00  0.00     0.037 A 
ATOM     56  C   UNL A   1      41.233  32.207  37.191  1.00  0.00     0.049 A 
ATOM     57  C   UNL A   1      41.147  29.370  32.356  1.00  0.00     0.074 A 
ATOM     58  C   UNL A   1      42.276  31.927  38.056  1.00  0.00     0.029 A 
ATOM     59  N   UNL A   1      41.413  31.408  36.072  1.00  0.00    -0.354 N 
ATOM     60  N   UNL A   1      41.295  29.946  33.524  1.00  0.00    -0.248 NA
ATOM     61  C   UNL A   1      42.217  28.422  32.014  1.00  0.00     0.031 C 
ATOM     62  C   UNL A   1      43.105  30.980  37.449  1.00  0.00     0.029 A 
ATOM     63  C   UNL A   1      42.555  30.639  36.223  1.00  0.00     0.049 A 
ATOM     64  H   UNL A   1      40.818  31.390  35.288  1.00  0.00     0.167 HD
ATOM     65  C   UNL A   1      42.453  29.409  34.069  1.00  0.00     0.074 A 
ATOM     66  C   UNL A   1      42.966  28.456  33.107  1.00  0.00     0.031 C 
ATOM     67  C   UNL A   1      43.037  29.681  35.261  1.00  0.00     0.037 A 
BRANCH  54  68
ATOM     68  C   UNL A   1      40.085  33.920  38.640  1.00  0.00     0.064 A 
ATOM     69  C   UNL A   1      40.768  35.138  38.774  1.00  0.00     0.173 A 
ATOM     70  C   UNL A   1      39.297  33.485  39.715  1.00  0.00     0.173 A 
ATOM     71  F   UNL A   1      41.547  35.588  37.779  1.00  0.00    -0.203 F 
ATOM     72  C   UNL A   1      40.671  35.888  39.942  1.00  0.00     0.198 A 
ATOM     73  C   UNL A   1      39.182  34.249  40.873  1.00  0.00     0.198 A 
ATOM     74  F   UNL A   1      38.623  32.327  39.635  1.00  0.00    -0.203 F 
ATOM     75  F   UNL A   1      41.356  37.034  40.060  1.00  0.00    -0.200 F 
ATOM     76  C   UNL A   1      39.871  35.448  40.987  1.00  0.00     0.200 A 
ATOM     77  F   UNL A   1      38.401  33.829  41.878  1.00  0.00    -0.200 F 
ATOM     78  F   UNL A   1      39.768  36.178  42.106  1.00  0.00    -0.200 F 
ENDBRANCH  54  68
BRANCH  55  79
ATOM     79  C   UNL A   1      40.044  28.768  30.080  1.00  0.00     0.064 A 
ATOM     80  C   UNL A   1      39.446  27.501  30.020  1.00  0.00     0.173 A 
ATOM     81  C   UNL A   1      40.633  29.268  28.909  1.00  0.00     0.173 A 
ATOM     82  F   UNL A   1      38.889  26.972  31.119  1.00  0.00    -0.203 F 
ATOM     83  C   UNL A   1      39.449  26.758  28.841  1.00  0.00     0.198 A 
ATOM     84  C   UNL A   1      40.614  28.533  27.725  1.00  0.00     0.198 A 
ATOM     85  F   UNL A   1      41.216  30.475  28.915  1.00  0.00    -0.203 F 
ATOM     86  F   UNL A   1      38.903  25.535  28.823  1.00  0.00    -0.200 F 
ATOM     87  C   UNL A   1      40.029  27.277  27.693  1.00  0.00     0.200 A 
ATOM     88  F   UNL A   1      41.165  29.043  26.615  1.00  0.00    -0.200 F 
ATOM     89  F   UNL A   1      40.028  26.564  26.560  1.00  0.00    -0.200 F 
ENDBRANCH  55  79
BRANCH  67  90
ATOM     90  C   UNL A   1      44.275  28.912  35.617  1.00  0.00     0.064 A 
ATOM     91  C   UNL A   1      44.208  27.696  36.312  1.00  0.00     0.173 A 
ATOM     92  C   UNL A   1      45.535  29.365  35.196  1.00  0.00     0.173 A 
ATOM     93  F   UNL A   1      43.027  27.230  36.744  1.00  0.00    -0.203 F 
ATOM     94  C   UNL A   1      45.363  26.968  36.587  1.00  0.00     0.198 A 
ATOM     95  C   UNL A   1      46.683  28.622  35.451  1.00  0.00     0.198 A 
ATOM     96  F   UNL A   1      45.648  30.518  34.520  1.00  0.00    -0.203 F 
ATOM     97  F   UNL A   1      45.281  25.825  37.282  1.00  0.00    -0.200 F 
ATOM     98  C   UNL A   1      46.597  27.427  36.149  1.00  0.00     0.200 A 
ATOM     99  F   UNL A   1      47.873  29.059  35.015  1.00  0.00    -0.200 F 
ATOM    100  F   UNL A   1      47.705  26.718  36.404  1.00  0.00    -0.200 F 
ENDBRANCH  67  90
ENDBRANCH  41  42
ENDBRANCH  33  36
ENDBRANCH  31  32
ENDBRANCH  30  31
ENDBRANCH   1  30
TORSDOF 14
ENDMDL
MODEL 3
REMARK VINA RESULT:     -13.7      1.686      7.595
REMARK SMILES Cc1cccc2c1[C@H]1c3c(C)cccc3[C@H](CC(=O)NCCCCCCNC(=O)c3ccc(-c4c5nc(c(-c6c(F)c(F)c(F)c(F)c6F)c6ccc([nH]6)c(-c6c(F)c(F)c(F)c(F)c6F)c6nc(c(-c7c(F)c(F)c(F)c(F)c7F)c7ccc4[nH]7)C=C6)C=C5)cc3)C[C@H]1CC2
REMARK SMILES IDX 24 1 23 2 22 3 21 4 20 5 18 6 19 7 17 9 16 10 1 11 2 12 3 13
REMARK SMILES IDX 7 14 4 15 6 16 8 17 5 18 96 19 9 20 94 21 95 22 10 23 15 24
REMARK SMILES IDX 93 25 12 26 11 27 14 28 13 29 25 30 26 31 27 32 28 33 29 35
REMARK SMILES IDX 30 36 31 37 92 38 32 39 91 40 33 41 34 42 35 43 85 44 36 45
REMARK SMILES IDX 90 46 84 47 86 48 37 49 89 50 83 51 82 52 38 54 70 55 50 56
REMARK SMILES IDX 69 57 51 58 54 59 68 60 87 61 52 62 53 63 67 65 88 66 55 67
REMARK SMILES IDX 39 68 40 69 48 70 41 71 42 72 46 73 49 74 43 75 44 76 47 77
REMARK SMILES IDX 45 78 71 79 72 80 80 81 73 82 74 83 78 84 81 85 75 86 76 87
REMARK SMILES IDX 79 88 77 89 56 90 57 91 65 92 58 93 59 94 63 95 66 96 60 97
REMARK SMILES IDX 61 98 64 99 62 100
REMARK H PARENT 20 8 27 34 86 53 54 64
REMARK Flexibility Score: inf
ROOT
ATOM      1  C   UNL A   1      35.175  34.762  28.390  1.00  0.00     0.002 C 
ENDROOT
BRANCH   1   2
ATOM      2  C   UNL A   1      34.997  33.315  28.864  1.00  0.00     0.002 C 
BRANCH   2   3
ATOM      3  C   UNL A   1      35.720  32.268  28.001  1.00  0.00     0.021 C 
BRANCH   3   4
ATOM      4  C   UNL A   1      35.104  30.869  28.124  1.00  0.00     0.116 C 
BRANCH   4   5
ATOM      5  N   UNL A   1      33.666  30.970  27.963  1.00  0.00    -0.356 N 
ATOM      6  C   UNL A   1      32.878  30.732  26.879  1.00  0.00     0.220 C 
ATOM      7  O   UNL A   1      31.761  31.256  26.869  1.00  0.00    -0.275 OA
ATOM      8  H   UNL A   1      33.181  31.256  28.770  1.00  0.00     0.163 HD
BRANCH   6   9
ATOM      9  C   UNL A   1      33.266  29.724  25.818  1.00  0.00     0.108 C 
BRANCH   9  10
ATOM     10  C   UNL A   1      32.421  28.444  25.648  1.00  0.00     0.029 C 
ATOM     11  C   UNL A   1      35.263  23.339  26.218  1.00  0.00     0.044 C 
ATOM     12  C   UNL A   1      33.820  23.035  25.899  1.00  0.00    -0.047 A 
ATOM     13  C   UNL A   1      33.493  21.675  25.740  1.00  0.00     0.004 A 
ATOM     14  C   UNL A   1      32.799  24.015  25.788  1.00  0.00    -0.034 A 
ATOM     15  C   UNL A   1      32.185  21.273  25.501  1.00  0.00     0.001 A 
ATOM     16  C   UNL A   1      31.456  23.582  25.671  1.00  0.00    -0.044 A 
ATOM     17  C   UNL A   1      33.091  25.517  25.796  1.00  0.00     0.053 C 
ATOM     18  C   UNL A   1      31.169  22.218  25.493  1.00  0.00     0.004 A 
ATOM     19  C   UNL A   1      30.280  24.512  25.858  1.00  0.00     0.036 C 
ATOM     20  C   UNL A   1      33.190  26.260  24.434  1.00  0.00    -0.034 A 
ATOM     21  C   UNL A   1      32.019  26.168  26.706  1.00  0.00     0.002 C 
ATOM     22  C   UNL A   1      30.616  25.982  26.104  1.00  0.00     0.009 C 
ATOM     23  C   UNL A   1      33.621  25.673  23.208  1.00  0.00    -0.047 A 
ATOM     24  C   UNL A   1      32.868  27.651  24.412  1.00  0.00    -0.040 A 
ATOM     25  C   UNL A   1      32.396  27.630  26.945  1.00  0.00     0.013 C 
ATOM     26  C   UNL A   1      33.655  26.441  22.022  1.00  0.00     0.004 A 
ATOM     27  C   UNL A   1      34.064  24.246  23.030  1.00  0.00     0.044 C 
ATOM     28  C   UNL A   1      32.865  28.357  23.186  1.00  0.00     0.004 A 
ATOM     29  C   UNL A   1      33.267  27.766  22.004  1.00  0.00     0.001 A 
ENDBRANCH   9  10
ENDBRANCH   6   9
ENDBRANCH   4   5
ENDBRANCH   3   4
ENDBRANCH   2   3
ENDBRANCH   1   2
BRANCH   1  30
ATOM     30  C   UNL A   1      34.005  35.688  28.731  1.00  0.00     0.021 C 
BRANCH  30  31
ATOM     31  C   UNL A   1      32.895  35.014  29.530  1.00  0.00     0.116 C 
BRANCH  31  32
ATOM     32  N   UNL A   1      32.373  35.892  30.565  1.00  0.00    -0.352 N 
ATOM     33  C   UNL A   1      32.707  35.928  31.897  1.00  0.00     0.251 C 
ATOM     34  H   UNL A   1      31.694  36.545  30.274  1.00  0.00     0.163 HD
ATOM     35  O   UNL A   1      32.049  36.574  32.700  1.00  0.00    -0.269 OA
BRANCH  33  36
ATOM     36  C   UNL A   1      33.880  35.158  32.347  1.00  0.00     0.039 A 
ATOM     37  C   UNL A   1      33.695  33.879  32.877  1.00  0.00     0.014 A 
ATOM     38  C   UNL A   1      35.161  35.704  32.218  1.00  0.00     0.014 A 
ATOM     39  C   UNL A   1      34.809  33.122  33.240  1.00  0.00     0.010 A 
ATOM     40  C   UNL A   1      36.270  34.932  32.540  1.00  0.00     0.010 A 
ATOM     41  C   UNL A   1      36.101  33.638  33.057  1.00  0.00    -0.014 A 
BRANCH  41  42
ATOM     42  C   UNL A   1      37.300  32.855  33.431  1.00  0.00     0.031 A 
ATOM     43  C   UNL A   1      37.993  33.144  34.729  1.00  0.00     0.074 A 
ATOM     44  C   UNL A   1      37.792  31.935  32.581  1.00  0.00     0.049 A 
ATOM     45  N   UNL A   1      39.106  32.645  35.202  1.00  0.00    -0.248 NA
ATOM     46  C   UNL A   1      37.357  34.140  35.607  1.00  0.00     0.031 C 
ATOM     47  C   UNL A   1      37.209  31.581  31.287  1.00  0.00     0.029 A 
ATOM     48  N   UNL A   1      38.905  31.138  32.675  1.00  0.00    -0.354 N 
ATOM     49  C   UNL A   1      39.304  33.265  36.428  1.00  0.00     0.074 A 
ATOM     50  C   UNL A   1      38.224  34.210  36.607  1.00  0.00     0.031 C 
ATOM     51  C   UNL A   1      37.963  30.631  30.711  1.00  0.00     0.029 A 
ATOM     52  C   UNL A   1      39.099  30.332  31.580  1.00  0.00     0.049 A 
ATOM     53  H   UNL A   1      39.507  31.143  33.455  1.00  0.00     0.167 HD
ATOM     54  C   UNL A   1      40.288  33.048  37.330  1.00  0.00     0.037 A 
ATOM     55  C   UNL A   1      40.086  29.459  31.311  1.00  0.00     0.037 A 
ATOM     56  C   UNL A   1      41.355  32.100  37.150  1.00  0.00     0.049 A 
ATOM     57  C   UNL A   1      41.188  29.261  32.318  1.00  0.00     0.074 A 
ATOM     58  C   UNL A   1      42.396  31.800  38.010  1.00  0.00     0.029 A 
ATOM     59  N   UNL A   1      41.514  31.297  36.031  1.00  0.00    -0.354 N 
ATOM     60  N   UNL A   1      41.353  29.835  33.484  1.00  0.00    -0.248 NA
ATOM     61  C   UNL A   1      42.237  28.292  31.972  1.00  0.00     0.031 C 
ATOM     62  C   UNL A   1      43.202  30.834  37.400  1.00  0.00     0.029 A 
ATOM     63  C   UNL A   1      42.640  30.504  36.177  1.00  0.00     0.049 A 
ATOM     64  H   UNL A   1      40.915  31.291  35.250  1.00  0.00     0.167 HD
ATOM     65  C   UNL A   1      42.503  29.275  34.025  1.00  0.00     0.074 A 
ATOM     66  C   UNL A   1      42.991  28.311  33.062  1.00  0.00     0.031 C 
ATOM     67  C   UNL A   1      43.098  29.536  35.214  1.00  0.00     0.037 A 
BRANCH  54  68
ATOM     68  C   UNL A   1      40.250  33.838  38.603  1.00  0.00     0.064 A 
ATOM     69  C   UNL A   1      39.477  33.419  39.695  1.00  0.00     0.173 A 
ATOM     70  C   UNL A   1      41.035  34.990  38.754  1.00  0.00     0.173 A 
ATOM     71  F   UNL A   1      38.698  32.332  39.593  1.00  0.00    -0.203 F 
ATOM     72  C   UNL A   1      39.482  34.132  40.890  1.00  0.00     0.198 A 
ATOM     73  C   UNL A   1      41.058  35.686  39.959  1.00  0.00     0.198 A 
ATOM     74  F   UNL A   1      41.793  35.430  37.738  1.00  0.00    -0.203 F 
ATOM     75  F   UNL A   1      38.712  33.731  41.912  1.00  0.00    -0.200 F 
ATOM     76  C   UNL A   1      40.280  35.259  41.025  1.00  0.00     0.200 A 
ATOM     77  F   UNL A   1      41.836  36.770  40.091  1.00  0.00    -0.200 F 
ATOM     78  F   UNL A   1      40.295  35.936  42.181  1.00  0.00    -0.200 F 
ENDBRANCH  54  68
BRANCH  55  79
ATOM     79  C   UNL A   1      40.063  28.680  30.047  1.00  0.00     0.064 A 
ATOM     80  C   UNL A   1      40.648  29.194  28.880  1.00  0.00     0.173 A 
ATOM     81  C   UNL A   1      39.464  27.414  29.975  1.00  0.00     0.173 A 
ATOM     82  F   UNL A   1      41.214  30.409  28.896  1.00  0.00    -0.203 F 
ATOM     83  C   UNL A   1      40.621  28.476  27.686  1.00  0.00     0.198 A 
ATOM     84  C   UNL A   1      39.459  26.689  28.786  1.00  0.00     0.198 A 
ATOM     85  F   UNL A   1      38.894  26.879  31.064  1.00  0.00    -0.203 F 
ATOM     86  F   UNL A   1      41.154  29.007  26.578  1.00  0.00    -0.200 F 
ATOM     87  C   UNL A   1      40.032  27.222  27.641  1.00  0.00     0.200 A 
ATOM     88  F   UNL A   1      38.899  25.471  28.749  1.00  0.00    -0.200 F 
ATOM     89  F   UNL A   1      40.010  26.531  26.494  1.00  0.00    -0.200 F 
ENDBRANCH  55  79
BRANCH  67  90
ATOM     90  C   UNL A   1      44.320  28.741  35.565  1.00  0.00     0.064 A 
ATOM     91  C   UNL A   1      45.606  29.183  35.223  1.00  0.00     0.173 A 
ATOM     92  C   UNL A   1      44.205  27.558  36.311  1.00  0.00     0.173 A 
ATOM     93  F   UNL A   1      45.766  30.301  34.499  1.00  0.00    -0.203 F 
ATOM     94  C   UNL A   1      46.733  28.459  35.603  1.00  0.00     0.198 A 
ATOM     95  C   UNL A   1      45.334  26.852  36.711  1.00  0.00     0.198 A 
ATOM     96  F   UNL A   1      42.995  27.101  36.669  1.00  0.00    -0.203 F 
ATOM     97  F   UNL A   1      47.952  28.881  35.237  1.00  0.00    -0.200 F 
ATOM     98  C   UNL A   1      46.597  27.300  36.354  1.00  0.00     0.200 A 
ATOM     99  F   UNL A   1      45.202  25.740  37.448  1.00  0.00    -0.200 F 
ATOM    100  F   UNL A   1      47.684  26.612  36.729  1.00  0.00    -0.200 F 
ENDBRANCH  67  90
ENDBRANCH  41  42
ENDBRANCH  33  36
ENDBRANCH  31  32
ENDBRANCH  30  31
ENDBRANCH   1  30
TORSDOF 14
ENDMDL
