MODEL 1
REMARK VINA RESULT:     -11.2      0.000      0.000
REMARK SMILES CCc1ccc(S(=O)(=O)CC(=O)NCCCCCCNC(=O)c2ccc(-c3c4nc(c(-c5c(F)c(F)c(F)c(F)c5F)c5ccc([nH]5)c(-c5c(F)c(F)c(F)c(F)c5F)c5nc(c(-c6c(F)c(F)c(F)c(F)c6F)c6ccc3[nH]6)C=C5)C=C4)cc2)cc1
REMARK SMILES IDX 16 1 15 2 14 3 13 4 11 5 12 6 10 8 7 9 8 10 9 11 6 12 3 13
REMARK SMILES IDX 4 14 87 15 5 16 86 17 2 18 1 19 17 20 18 21 19 22 20 23
REMARK SMILES IDX 21 24 22 26 23 27 24 28 85 29 25 30 84 31 26 32 27 33 28 34
REMARK SMILES IDX 78 35 29 36 83 37 77 38 79 39 30 40 82 41 76 42 75 43 31 45
REMARK SMILES IDX 63 46 43 47 62 48 44 49 47 50 61 51 80 52 45 53 46 54 60 56
REMARK SMILES IDX 81 57 48 58 32 59 33 60 41 61 34 62 35 63 39 64 42 65 36 66
REMARK SMILES IDX 37 67 40 68 38 69 64 70 65 71 73 72 66 73 67 74 71 75 74 76
REMARK SMILES IDX 68 77 69 78 72 79 70 80 49 81 50 82 58 83 51 84 52 85 56 86
REMARK SMILES IDX 59 87 53 88 54 89 57 90 55 91
REMARK H PARENT 13 7 20 25 79 44 47 55
REMARK Flexibility Score: inf
ROOT
ATOM      1  C   UNL A   1      36.775  21.833  24.266  1.00  0.00     0.002 C 
ENDROOT
BRANCH   1   2
ATOM      2  C   UNL A   1      36.331  23.053  25.085  1.00  0.00     0.021 C 
BRANCH   2   3
ATOM      3  C   UNL A   1      35.280  23.918  24.387  1.00  0.00     0.116 C 
BRANCH   3   4
ATOM      4  N   UNL A   1      34.874  25.007  25.252  1.00  0.00    -0.355 N 
ATOM      5  C   UNL A   1      33.636  25.355  25.683  1.00  0.00     0.235 C 
ATOM      6  O   UNL A   1      33.532  26.411  26.312  1.00  0.00    -0.274 OA
ATOM      7  H   UNL A   1      35.606  25.582  25.574  1.00  0.00     0.163 HD
BRANCH   5   8
ATOM      8  C   UNL A   1      32.464  24.442  25.531  1.00  0.00     0.241 C 
BRANCH   8   9
ATOM      9  S   UNL A   1      32.522  22.961  26.467  1.00  0.00     0.187 S 
ATOM     10  O   UNL A   1      31.242  22.842  27.143  1.00  0.00    -0.223 OA
ATOM     11  O   UNL A   1      33.739  22.988  27.264  1.00  0.00    -0.223 OA
BRANCH   9  12
ATOM     12  C   UNL A   1      32.641  21.534  25.427  1.00  0.00     0.067 A 
ATOM     13  C   UNL A   1      32.779  19.177  23.900  1.00  0.00    -0.048 A 
ATOM     14  C   UNL A   1      33.076  19.159  25.271  1.00  0.00     0.005 A 
ATOM     15  C   UNL A   1      32.404  20.395  23.314  1.00  0.00     0.005 A 
ATOM     16  C   UNL A   1      33.022  20.328  26.029  1.00  0.00     0.020 A 
ATOM     17  C   UNL A   1      32.321  21.568  24.075  1.00  0.00     0.020 A 
BRANCH  13  18
ATOM     18  C   UNL A   1      32.781  17.868  23.142  1.00  0.00     0.032 C 
ATOM     19  C   UNL A   1      34.022  17.001  23.301  1.00  0.00     0.009 C 
ENDBRANCH  13  18
ENDBRANCH   9  12
ENDBRANCH   8   9
ENDBRANCH   5   8
ENDBRANCH   3   4
ENDBRANCH   2   3
ENDBRANCH   1   2
BRANCH   1  20
ATOM     20  C   UNL A   1      36.595  20.482  24.965  1.00  0.00     0.002 C 
BRANCH  20  21
ATOM     21  C   UNL A   1      37.829  19.576  24.946  1.00  0.00     0.021 C 
BRANCH  21  22
ATOM     22  C   UNL A   1      39.028  20.127  25.711  1.00  0.00     0.116 C 
BRANCH  22  23
ATOM     23  N   UNL A   1      40.073  19.129  25.874  1.00  0.00    -0.352 N 
ATOM     24  C   UNL A   1      41.419  19.297  26.073  1.00  0.00     0.251 C 
ATOM     25  H   UNL A   1      39.768  18.193  25.836  1.00  0.00     0.163 HD
ATOM     26  O   UNL A   1      42.180  18.339  25.975  1.00  0.00    -0.269 OA
BRANCH  24  27
ATOM     27  C   UNL A   1      41.962  20.636  26.390  1.00  0.00     0.039 A 
ATOM     28  C   UNL A   1      42.242  21.514  25.341  1.00  0.00     0.014 A 
ATOM     29  C   UNL A   1      42.224  21.016  27.710  1.00  0.00     0.014 A 
ATOM     30  C   UNL A   1      42.737  22.789  25.617  1.00  0.00     0.010 A 
ATOM     31  C   UNL A   1      42.647  22.313  27.989  1.00  0.00     0.010 A 
ATOM     32  C   UNL A   1      42.917  23.210  26.945  1.00  0.00    -0.014 A 
BRANCH  32  33
ATOM     33  C   UNL A   1      43.397  24.583  27.251  1.00  0.00     0.031 A 
ATOM     34  C   UNL A   1      42.449  25.613  27.801  1.00  0.00     0.074 A 
ATOM     35  C   UNL A   1      44.678  24.912  26.992  1.00  0.00     0.049 A 
ATOM     36  N   UNL A   1      42.674  26.868  28.101  1.00  0.00    -0.248 NA
ATOM     37  C   UNL A   1      41.059  25.186  28.026  1.00  0.00     0.031 C 
ATOM     38  C   UNL A   1      45.680  24.016  26.414  1.00  0.00     0.029 A 
ATOM     39  N   UNL A   1      45.356  26.092  27.176  1.00  0.00    -0.354 N 
ATOM     40  C   UNL A   1      41.457  27.379  28.533  1.00  0.00     0.074 A 
ATOM     41  C   UNL A   1      40.484  26.315  28.411  1.00  0.00     0.031 C 
ATOM     42  C   UNL A   1      46.850  24.668  26.314  1.00  0.00     0.029 A 
ATOM     43  C   UNL A   1      46.671  26.039  26.784  1.00  0.00     0.049 A 
ATOM     44  H   UNL A   1      44.937  26.900  27.553  1.00  0.00     0.167 HD
ATOM     45  C   UNL A   1      41.182  28.616  29.011  1.00  0.00     0.037 A 
ATOM     46  C   UNL A   1      47.624  26.991  26.797  1.00  0.00     0.037 A 
ATOM     47  C   UNL A   1      42.160  29.661  29.160  1.00  0.00     0.049 A 
ATOM     48  C   UNL A   1      47.285  28.359  27.329  1.00  0.00     0.074 A 
ATOM     49  C   UNL A   1      41.994  30.925  29.700  1.00  0.00     0.029 A 
ATOM     50  N   UNL A   1      43.486  29.565  28.766  1.00  0.00    -0.354 N 
ATOM     51  N   UNL A   1      46.151  28.803  27.814  1.00  0.00    -0.248 NA
ATOM     52  C   UNL A   1      48.364  29.357  27.322  1.00  0.00     0.031 C 
ATOM     53  C   UNL A   1      43.205  31.614  29.582  1.00  0.00     0.029 A 
ATOM     54  C   UNL A   1      44.142  30.758  29.025  1.00  0.00     0.049 A 
ATOM     55  H   UNL A   1      43.899  28.769  28.362  1.00  0.00     0.167 HD
ATOM     56  C   UNL A   1      46.389  30.114  28.202  1.00  0.00     0.074 A 
ATOM     57  C   UNL A   1      47.780  30.391  27.911  1.00  0.00     0.031 C 
ATOM     58  C   UNL A   1      45.532  31.012  28.747  1.00  0.00     0.037 A 
BRANCH  45  59
ATOM     59  C   UNL A   1      39.768  28.914  29.418  1.00  0.00     0.064 A 
ATOM     60  C   UNL A   1      38.823  29.395  28.499  1.00  0.00     0.173 A 
ATOM     61  C   UNL A   1      39.334  28.648  30.726  1.00  0.00     0.173 A 
ATOM     62  F   UNL A   1      39.189  29.675  27.238  1.00  0.00    -0.203 F 
ATOM     63  C   UNL A   1      37.502  29.615  28.878  1.00  0.00     0.198 A 
ATOM     64  C   UNL A   1      38.005  28.841  31.093  1.00  0.00     0.198 A 
ATOM     65  F   UNL A   1      40.195  28.181  31.642  1.00  0.00    -0.203 F 
ATOM     66  F   UNL A   1      36.626  30.110  27.993  1.00  0.00    -0.200 F 
ATOM     67  C   UNL A   1      37.091  29.329  30.172  1.00  0.00     0.200 A 
ATOM     68  F   UNL A   1      37.606  28.548  32.339  1.00  0.00    -0.200 F 
ATOM     69  F   UNL A   1      35.815  29.524  30.530  1.00  0.00    -0.200 F 
ENDBRANCH  45  59
BRANCH  46  70
ATOM     70  C   UNL A   1      48.996  26.690  26.306  1.00  0.00     0.064 A 
ATOM     71  C   UNL A   1      49.971  26.165  27.166  1.00  0.00     0.173 A 
ATOM     72  C   UNL A   1      49.371  26.953  24.981  1.00  0.00     0.173 A 
ATOM     73  F   UNL A   1      49.668  25.915  28.449  1.00  0.00    -0.203 F 
ATOM     74  C   UNL A   1      51.277  25.949  26.731  1.00  0.00     0.198 A 
ATOM     75  C   UNL A   1      50.669  26.704  24.537  1.00  0.00     0.198 A 
ATOM     76  F   UNL A   1      48.476  27.448  24.114  1.00  0.00    -0.203 F 
ATOM     77  F   UNL A   1      52.204  25.509  27.592  1.00  0.00    -0.200 F 
ATOM     78  C   UNL A   1      51.623  26.216  25.415  1.00  0.00     0.200 A 
ATOM     79  F   UNL A   1      50.995  26.949  23.260  1.00  0.00    -0.200 F 
ATOM     80  F   UNL A   1      52.880  26.014  24.997  1.00  0.00    -0.200 F 
ENDBRANCH  46  70
BRANCH  58  81
ATOM     81  C   UNL A   1      46.083  32.360  29.111  1.00  0.00     0.064 A 
ATOM     82  C   UNL A   1      46.668  32.605  30.363  1.00  0.00     0.173 A 
ATOM     83  C   UNL A   1      46.062  33.409  28.181  1.00  0.00     0.173 A 
ATOM     84  F   UNL A   1      46.701  31.639  31.293  1.00  0.00    -0.203 F 
ATOM     85  C   UNL A   1      47.184  33.859  30.679  1.00  0.00     0.198 A 
ATOM     86  C   UNL A   1      46.609  34.652  28.487  1.00  0.00     0.198 A 
ATOM     87  F   UNL A   1      45.521  33.227  26.966  1.00  0.00    -0.203 F 
ATOM     88  F   UNL A   1      47.691  34.085  31.898  1.00  0.00    -0.200 F 
ATOM     89  C   UNL A   1      47.162  34.878  29.737  1.00  0.00     0.200 A 
ATOM     90  F   UNL A   1      46.601  35.630  27.571  1.00  0.00    -0.200 F 
ATOM     91  F   UNL A   1      47.668  36.082  30.040  1.00  0.00    -0.200 F 
ENDBRANCH  58  81
ENDBRANCH  32  33
ENDBRANCH  24  27
ENDBRANCH  22  23
ENDBRANCH  21  22
ENDBRANCH  20  21
ENDBRANCH   1  20
TORSDOF 16
ENDMDL
MODEL 2
REMARK VINA RESULT:     -11.1      5.958     11.343
REMARK SMILES CCc1ccc(S(=O)(=O)CC(=O)NCCCCCCNC(=O)c2ccc(-c3c4nc(c(-c5c(F)c(F)c(F)c(F)c5F)c5ccc([nH]5)c(-c5c(F)c(F)c(F)c(F)c5F)c5nc(c(-c6c(F)c(F)c(F)c(F)c6F)c6ccc3[nH]6)C=C5)C=C4)cc2)cc1
REMARK SMILES IDX 16 1 15 2 14 3 13 4 11 5 12 6 10 8 7 9 8 10 9 11 6 12 3 13
REMARK SMILES IDX 4 14 87 15 5 16 86 17 2 18 1 19 17 20 18 21 19 22 20 23
REMARK SMILES IDX 21 24 22 26 23 27 24 28 85 29 25 30 84 31 26 32 27 33 28 34
REMARK SMILES IDX 78 35 29 36 83 37 77 38 79 39 30 40 82 41 76 42 75 43 31 45
REMARK SMILES IDX 63 46 43 47 62 48 44 49 47 50 61 51 80 52 45 53 46 54 60 56
REMARK SMILES IDX 81 57 48 58 32 59 33 60 41 61 34 62 35 63 39 64 42 65 36 66
REMARK SMILES IDX 37 67 40 68 38 69 64 70 65 71 73 72 66 73 67 74 71 75 74 76
REMARK SMILES IDX 68 77 69 78 72 79 70 80 49 81 50 82 58 83 51 84 52 85 56 86
REMARK SMILES IDX 59 87 53 88 54 89 57 90 55 91
REMARK H PARENT 13 7 20 25 79 44 47 55
REMARK Flexibility Score: inf
ROOT
ATOM      1  C   UNL A   1      32.603  30.089  26.718  1.00  0.00     0.002 C 
ENDROOT
BRANCH   1   2
ATOM      2  C   UNL A   1      32.338  28.702  27.323  1.00  0.00     0.021 C 
BRANCH   2   3
ATOM      3  C   UNL A   1      31.290  27.887  26.563  1.00  0.00     0.116 C 
BRANCH   3   4
ATOM      4  N   UNL A   1      31.381  26.489  26.934  1.00  0.00    -0.355 N 
ATOM      5  C   UNL A   1      31.742  25.416  26.186  1.00  0.00     0.235 C 
ATOM      6  O   UNL A   1      31.611  24.301  26.697  1.00  0.00    -0.274 OA
ATOM      7  H   UNL A   1      31.143  26.287  27.869  1.00  0.00     0.163 HD
BRANCH   5   8
ATOM      8  C   UNL A   1      32.399  25.570  24.854  1.00  0.00     0.241 C 
BRANCH   8   9
ATOM      9  S   UNL A   1      31.356  25.363  23.460  1.00  0.00     0.187 S 
ATOM     10  O   UNL A   1      30.487  24.236  23.750  1.00  0.00    -0.223 OA
ATOM     11  O   UNL A   1      32.202  25.314  22.278  1.00  0.00    -0.223 OA
BRANCH   9  12
ATOM     12  C   UNL A   1      30.275  26.748  23.240  1.00  0.00     0.067 A 
ATOM     13  C   UNL A   1      28.481  28.902  23.025  1.00  0.00    -0.048 A 
ATOM     14  C   UNL A   1      28.056  27.665  23.532  1.00  0.00     0.005 A 
ATOM     15  C   UNL A   1      29.823  29.039  22.638  1.00  0.00     0.005 A 
ATOM     16  C   UNL A   1      28.940  26.591  23.628  1.00  0.00     0.020 A 
ATOM     17  C   UNL A   1      30.722  27.973  22.756  1.00  0.00     0.020 A 
BRANCH  13  18
ATOM     18  C   UNL A   1      27.501  30.054  23.013  1.00  0.00     0.032 C 
ATOM     19  C   UNL A   1      28.031  31.392  23.510  1.00  0.00     0.009 C 
ENDBRANCH  13  18
ENDBRANCH   9  12
ENDBRANCH   8   9
ENDBRANCH   5   8
ENDBRANCH   3   4
ENDBRANCH   2   3
ENDBRANCH   1   2
BRANCH   1  20
ATOM     20  C   UNL A   1      31.360  30.816  26.195  1.00  0.00     0.002 C 
BRANCH  20  21
ATOM     21  C   UNL A   1      31.343  32.326  26.446  1.00  0.00     0.021 C 
BRANCH  21  22
ATOM     22  C   UNL A   1      32.565  32.857  27.189  1.00  0.00     0.116 C 
BRANCH  22  23
ATOM     23  N   UNL A   1      32.391  34.241  27.599  1.00  0.00    -0.352 N 
ATOM     24  C   UNL A   1      32.994  34.933  28.618  1.00  0.00     0.251 C 
ATOM     25  H   UNL A   1      31.744  34.758  27.067  1.00  0.00     0.163 HD
ATOM     26  O   UNL A   1      32.567  36.034  28.952  1.00  0.00    -0.269 OA
BRANCH  24  27
ATOM     27  C   UNL A   1      34.152  34.349  29.329  1.00  0.00     0.039 A 
ATOM     28  C   UNL A   1      33.927  33.644  30.514  1.00  0.00     0.014 A 
ATOM     29  C   UNL A   1      35.455  34.519  28.852  1.00  0.00     0.014 A 
ATOM     30  C   UNL A   1      35.003  33.068  31.192  1.00  0.00     0.010 A 
ATOM     31  C   UNL A   1      36.517  33.881  29.488  1.00  0.00     0.010 A 
ATOM     32  C   UNL A   1      36.304  33.157  30.671  1.00  0.00    -0.014 A 
BRANCH  32  33
ATOM     33  C   UNL A   1      37.447  32.506  31.360  1.00  0.00     0.031 A 
ATOM     34  C   UNL A   1      38.165  31.352  30.714  1.00  0.00     0.074 A 
ATOM     35  C   UNL A   1      37.811  32.927  32.587  1.00  0.00     0.049 A 
ATOM     36  N   UNL A   1      39.163  30.638  31.171  1.00  0.00    -0.248 NA
ATOM     37  C   UNL A   1      37.688  30.930  29.387  1.00  0.00     0.031 C 
ATOM     38  C   UNL A   1      37.163  34.003  33.338  1.00  0.00     0.029 A 
ATOM     39  N   UNL A   1      38.812  32.497  33.423  1.00  0.00    -0.354 N 
ATOM     40  C   UNL A   1      39.419  29.678  30.200  1.00  0.00     0.074 A 
ATOM     41  C   UNL A   1      38.443  29.868  29.149  1.00  0.00     0.031 C 
ATOM     42  C   UNL A   1      37.797  34.167  34.510  1.00  0.00     0.029 A 
ATOM     43  C   UNL A   1      38.871  33.183  34.612  1.00  0.00     0.049 A 
ATOM     44  H   UNL A   1      39.429  31.765  33.192  1.00  0.00     0.167 HD
ATOM     45  C   UNL A   1      40.397  28.741  30.176  1.00  0.00     0.037 A 
ATOM     46  C   UNL A   1      39.694  33.031  35.667  1.00  0.00     0.037 A 
ATOM     47  C   UNL A   1      41.385  28.576  31.209  1.00  0.00     0.049 A 
ATOM     48  C   UNL A   1      40.767  31.975  35.612  1.00  0.00     0.074 A 
ATOM     49  C   UNL A   1      42.457  27.702  31.244  1.00  0.00     0.029 A 
ATOM     50  N   UNL A   1      41.421  29.301  32.392  1.00  0.00    -0.354 N 
ATOM     51  N   UNL A   1      41.052  31.131  34.650  1.00  0.00    -0.248 NA
ATOM     52  C   UNL A   1      41.639  31.856  36.790  1.00  0.00     0.031 C 
ATOM     53  C   UNL A   1      43.110  27.857  32.470  1.00  0.00     0.029 A 
ATOM     54  C   UNL A   1      42.482  28.872  33.174  1.00  0.00     0.049 A 
ATOM     55  H   UNL A   1      40.788  30.011  32.638  1.00  0.00     0.167 HD
ATOM     56  C   UNL A   1      42.154  30.410  35.090  1.00  0.00     0.074 A 
ATOM     57  C   UNL A   1      42.496  30.924  36.399  1.00  0.00     0.031 C 
ATOM     58  C   UNL A   1      42.821  29.407  34.467  1.00  0.00     0.037 A 
BRANCH  45  59
ATOM     59  C   UNL A   1      40.457  27.819  28.994  1.00  0.00     0.064 A 
ATOM     60  C   UNL A   1      39.687  26.647  28.933  1.00  0.00     0.173 A 
ATOM     61  C   UNL A   1      41.240  28.147  27.876  1.00  0.00     0.173 A 
ATOM     62  F   UNL A   1      38.929  26.283  29.979  1.00  0.00    -0.203 F 
ATOM     63  C   UNL A   1      39.713  25.830  27.807  1.00  0.00     0.198 A 
ATOM     64  C   UNL A   1      41.239  27.343  26.739  1.00  0.00     0.198 A 
ATOM     65  F   UNL A   1      41.989  29.258  27.878  1.00  0.00    -0.203 F 
ATOM     66  F   UNL A   1      38.998  24.696  27.787  1.00  0.00    -0.200 F 
ATOM     67  C   UNL A   1      40.480  26.183  26.707  1.00  0.00     0.200 A 
ATOM     68  F   UNL A   1      41.969  27.694  25.671  1.00  0.00    -0.200 F 
ATOM     69  F   UNL A   1      40.489  25.405  25.616  1.00  0.00    -0.200 F 
ENDBRANCH  45  59
BRANCH  46  70
ATOM     70  C   UNL A   1      39.554  33.905  36.862  1.00  0.00     0.064 A 
ATOM     71  C   UNL A   1      38.777  33.507  37.960  1.00  0.00     0.173 A 
ATOM     72  C   UNL A   1      40.162  35.168  36.919  1.00  0.00     0.173 A 
ATOM     73  F   UNL A   1      38.158  32.317  37.946  1.00  0.00    -0.203 F 
ATOM     74  C   UNL A   1      38.583  34.353  39.050  1.00  0.00     0.198 A 
ATOM     75  C   UNL A   1      39.995  35.998  38.026  1.00  0.00     0.198 A 
ATOM     76  F   UNL A   1      40.922  35.595  35.900  1.00  0.00    -0.203 F 
ATOM     77  F   UNL A   1      37.783  33.973  40.056  1.00  0.00    -0.200 F 
ATOM     78  C   UNL A   1      39.196  35.596  39.084  1.00  0.00     0.200 A 
ATOM     79  F   UNL A   1      40.602  37.193  38.060  1.00  0.00    -0.200 F 
ATOM     80  F   UNL A   1      39.006  36.411  40.130  1.00  0.00    -0.200 F 
ENDBRANCH  46  70
BRANCH  58  81
ATOM     81  C   UNL A   1      44.018  28.833  35.169  1.00  0.00     0.064 A 
ATOM     82  C   UNL A   1      45.304  29.364  34.988  1.00  0.00     0.173 A 
ATOM     83  C   UNL A   1      43.868  27.765  36.066  1.00  0.00     0.173 A 
ATOM     84  F   UNL A   1      45.502  30.377  34.132  1.00  0.00    -0.203 F 
ATOM     85  C   UNL A   1      46.400  28.826  35.657  1.00  0.00     0.198 A 
ATOM     86  C   UNL A   1      44.961  27.251  36.759  1.00  0.00     0.198 A 
ATOM     87  F   UNL A   1      42.659  27.225  36.281  1.00  0.00    -0.203 F 
ATOM     88  F   UNL A   1      47.627  29.314  35.429  1.00  0.00    -0.200 F 
ATOM     89  C   UNL A   1      46.227  27.776  36.548  1.00  0.00     0.200 A 
ATOM     90  F   UNL A   1      44.789  26.248  37.630  1.00  0.00    -0.200 F 
ATOM     91  F   UNL A   1      47.282  27.266  37.197  1.00  0.00    -0.200 F 
ENDBRANCH  58  81
ENDBRANCH  32  33
ENDBRANCH  24  27
ENDBRANCH  22  23
ENDBRANCH  21  22
ENDBRANCH  20  21
ENDBRANCH   1  20
TORSDOF 16
ENDMDL
MODEL 3
REMARK VINA RESULT:     -11.0      0.818      7.530
REMARK SMILES CCc1ccc(S(=O)(=O)CC(=O)NCCCCCCNC(=O)c2ccc(-c3c4nc(c(-c5c(F)c(F)c(F)c(F)c5F)c5ccc([nH]5)c(-c5c(F)c(F)c(F)c(F)c5F)c5nc(c(-c6c(F)c(F)c(F)c(F)c6F)c6ccc3[nH]6)C=C5)C=C4)cc2)cc1
REMARK SMILES IDX 16 1 15 2 14 3 13 4 11 5 12 6 10 8 7 9 8 10 9 11 6 12 3 13
REMARK SMILES IDX 4 14 87 15 5 16 86 17 2 18 1 19 17 20 18 21 19 22 20 23
REMARK SMILES IDX 21 24 22 26 23 27 24 28 85 29 25 30 84 31 26 32 27 33 28 34
REMARK SMILES IDX 78 35 29 36 83 37 77 38 79 39 30 40 82 41 76 42 75 43 31 45
REMARK SMILES IDX 63 46 43 47 62 48 44 49 47 50 61 51 80 52 45 53 46 54 60 56
REMARK SMILES IDX 81 57 48 58 32 59 33 60 41 61 34 62 35 63 39 64 42 65 36 66
REMARK SMILES IDX 37 67 40 68 38 69 64 70 65 71 73 72 66 73 67 74 71 75 74 76
REMARK SMILES IDX 68 77 69 78 72 79 70 80 49 81 50 82 58 83 51 84 52 85 56 86
REMARK SMILES IDX 59 87 53 88 54 89 57 90 55 91
REMARK H PARENT 13 7 20 25 79 44 47 55
REMARK Flexibility Score: inf
ROOT
ATOM      1  C   UNL A   1      37.307  22.121  24.526  1.00  0.00     0.002 C 
ENDROOT
BRANCH   1   2
ATOM      2  C   UNL A   1      37.313  23.095  25.714  1.00  0.00     0.021 C 
BRANCH   2   3
ATOM      3  C   UNL A   1      35.925  23.607  26.100  1.00  0.00     0.116 C 
BRANCH   3   4
ATOM      4  N   UNL A   1      35.391  24.445  25.045  1.00  0.00    -0.355 N 
ATOM      5  C   UNL A   1      34.167  25.017  24.929  1.00  0.00     0.235 C 
ATOM      6  O   UNL A   1      33.905  25.582  23.864  1.00  0.00    -0.274 OA
ATOM      7  H   UNL A   1      36.009  24.626  24.299  1.00  0.00     0.163 HD
BRANCH   5   8
ATOM      8  C   UNL A   1      33.219  25.087  26.081  1.00  0.00     0.241 C 
BRANCH   8   9
ATOM      9  S   UNL A   1      31.865  23.974  26.024  1.00  0.00     0.187 S 
ATOM     10  O   UNL A   1      30.890  24.545  25.111  1.00  0.00    -0.223 OA
ATOM     11  O   UNL A   1      31.466  23.693  27.394  1.00  0.00    -0.223 OA
BRANCH   9  12
ATOM     12  C   UNL A   1      32.325  22.420  25.312  1.00  0.00     0.067 A 
ATOM     13  C   UNL A   1      33.023  19.882  24.323  1.00  0.00    -0.048 A 
ATOM     14  C   UNL A   1      33.279  20.224  25.659  1.00  0.00     0.005 A 
ATOM     15  C   UNL A   1      32.402  20.832  23.498  1.00  0.00     0.005 A 
ATOM     16  C   UNL A   1      32.947  21.487  26.149  1.00  0.00     0.020 A 
ATOM     17  C   UNL A   1      32.042  22.092  23.991  1.00  0.00     0.020 A 
BRANCH  13  18
ATOM     18  C   UNL A   1      33.334  18.475  23.864  1.00  0.00     0.032 C 
ATOM     19  C   UNL A   1      34.608  17.853  24.420  1.00  0.00     0.009 C 
ENDBRANCH  13  18
ENDBRANCH   9  12
ENDBRANCH   8   9
ENDBRANCH   5   8
ENDBRANCH   3   4
ENDBRANCH   2   3
ENDBRANCH   1   2
BRANCH   1  20
ATOM     20  C   UNL A   1      36.951  20.673  24.876  1.00  0.00     0.002 C 
BRANCH  20  21
ATOM     21  C   UNL A   1      38.139  19.711  24.930  1.00  0.00     0.021 C 
BRANCH  21  22
ATOM     22  C   UNL A   1      39.140  20.004  26.043  1.00  0.00     0.116 C 
BRANCH  22  23
ATOM     23  N   UNL A   1      40.299  19.128  25.976  1.00  0.00    -0.352 N 
ATOM     24  C   UNL A   1      41.633  19.441  26.008  1.00  0.00     0.251 C 
ATOM     25  H   UNL A   1      40.094  18.169  25.895  1.00  0.00     0.163 HD
ATOM     26  O   UNL A   1      42.471  18.590  25.725  1.00  0.00    -0.269 OA
BRANCH  24  27
ATOM     27  C   UNL A   1      42.068  20.808  26.369  1.00  0.00     0.039 A 
ATOM     28  C   UNL A   1      42.275  21.738  25.348  1.00  0.00     0.014 A 
ATOM     29  C   UNL A   1      42.301  21.165  27.700  1.00  0.00     0.014 A 
ATOM     30  C   UNL A   1      42.668  23.040  25.665  1.00  0.00     0.010 A 
ATOM     31  C   UNL A   1      42.619  22.483  28.020  1.00  0.00     0.010 A 
ATOM     32  C   UNL A   1      42.816  23.432  27.006  1.00  0.00    -0.014 A 
BRANCH  32  33
ATOM     33  C   UNL A   1      43.185  24.827  27.356  1.00  0.00     0.031 A 
ATOM     34  C   UNL A   1      44.595  25.312  27.156  1.00  0.00     0.074 A 
ATOM     35  C   UNL A   1      42.258  25.645  27.894  1.00  0.00     0.049 A 
ATOM     36  N   UNL A   1      45.114  26.483  27.430  1.00  0.00    -0.248 NA
ATOM     37  C   UNL A   1      45.557  24.350  26.595  1.00  0.00     0.031 C 
ATOM     38  C   UNL A   1      40.871  25.276  28.181  1.00  0.00     0.029 A 
ATOM     39  N   UNL A   1      42.344  26.954  28.301  1.00  0.00    -0.354 N 
ATOM     40  C   UNL A   1      46.457  26.392  27.089  1.00  0.00     0.074 A 
ATOM     41  C   UNL A   1      46.688  25.038  26.635  1.00  0.00     0.031 C 
ATOM     42  C   UNL A   1      40.230  26.340  28.693  1.00  0.00     0.029 A 
ATOM     43  C   UNL A   1      41.169  27.452  28.807  1.00  0.00     0.049 A 
ATOM     44  H   UNL A   1      43.172  27.484  28.237  1.00  0.00     0.167 HD
ATOM     45  C   UNL A   1      47.406  27.358  27.128  1.00  0.00     0.037 A 
ATOM     46  C   UNL A   1      40.882  28.667  29.311  1.00  0.00     0.037 A 
ATOM     47  C   UNL A   1      47.165  28.712  27.551  1.00  0.00     0.049 A 
ATOM     48  C   UNL A   1      41.961  29.719  29.347  1.00  0.00     0.074 A 
ATOM     49  C   UNL A   1      48.044  29.781  27.560  1.00  0.00     0.029 A 
ATOM     50  N   UNL A   1      45.956  29.184  28.043  1.00  0.00    -0.354 N 
ATOM     51  N   UNL A   1      43.205  29.643  28.942  1.00  0.00    -0.248 NA
ATOM     52  C   UNL A   1      41.591  31.027  29.905  1.00  0.00     0.031 C 
ATOM     53  C   UNL A   1      47.385  30.886  28.109  1.00  0.00     0.029 A 
ATOM     54  C   UNL A   1      46.076  30.522  28.384  1.00  0.00     0.049 A 
ATOM     55  H   UNL A   1      45.137  28.648  28.136  1.00  0.00     0.167 HD
ATOM     56  C   UNL A   1      43.754  30.900  29.160  1.00  0.00     0.074 A 
ATOM     57  C   UNL A   1      42.703  31.724  29.720  1.00  0.00     0.031 C 
ATOM     58  C   UNL A   1      45.016  31.333  28.923  1.00  0.00     0.037 A 
BRANCH  45  59
ATOM     59  C   UNL A   1      48.797  26.995  26.696  1.00  0.00     0.064 A 
ATOM     60  C   UNL A   1      49.740  26.486  27.602  1.00  0.00     0.173 A 
ATOM     61  C   UNL A   1      49.169  27.089  25.346  1.00  0.00     0.173 A 
ATOM     62  F   UNL A   1      49.438  26.385  28.906  1.00  0.00    -0.203 F 
ATOM     63  C   UNL A   1      51.009  26.103  27.176  1.00  0.00     0.198 A 
ATOM     64  C   UNL A   1      50.428  26.676  24.920  1.00  0.00     0.198 A 
ATOM     65  F   UNL A   1      48.304  27.562  24.438  1.00  0.00    -0.203 F 
ATOM     66  F   UNL A   1      51.905  25.654  28.066  1.00  0.00    -0.200 F 
ATOM     67  C   UNL A   1      51.349  26.188  25.834  1.00  0.00     0.200 A 
ATOM     68  F   UNL A   1      50.750  26.744  23.619  1.00  0.00    -0.200 F 
ATOM     69  F   UNL A   1      52.564  25.802  25.423  1.00  0.00    -0.200 F 
ENDBRANCH  45  59
BRANCH  46  70
ATOM     70  C   UNL A   1      39.514  28.971  29.812  1.00  0.00     0.064 A 
ATOM     71  C   UNL A   1      38.550  29.547  28.973  1.00  0.00     0.173 A 
ATOM     72  C   UNL A   1      39.154  28.727  31.145  1.00  0.00     0.173 A 
ATOM     73  F   UNL A   1      38.852  29.820  27.694  1.00  0.00    -0.203 F 
ATOM     74  C   UNL A   1      37.292  29.901  29.455  1.00  0.00     0.198 A 
ATOM     75  C   UNL A   1      37.883  29.049  31.618  1.00  0.00     0.198 A 
ATOM     76  F   UNL A   1      40.035  28.171  31.989  1.00  0.00    -0.203 F 
ATOM     77  F   UNL A   1      36.413  30.510  28.648  1.00  0.00    -0.200 F 
ATOM     78  C   UNL A   1      36.958  29.648  30.777  1.00  0.00     0.200 A 
ATOM     79  F   UNL A   1      37.560  28.789  32.893  1.00  0.00    -0.200 F 
ATOM     80  F   UNL A   1      35.751  29.992  31.244  1.00  0.00    -0.200 F 
ENDBRANCH  46  70
BRANCH  58  81
ATOM     81  C   UNL A   1      45.320  32.773  29.219  1.00  0.00     0.064 A 
ATOM     82  C   UNL A   1      45.836  33.179  30.459  1.00  0.00     0.173 A 
ATOM     83  C   UNL A   1      45.129  33.754  28.235  1.00  0.00     0.173 A 
ATOM     84  F   UNL A   1      46.023  32.283  31.439  1.00  0.00    -0.203 F 
ATOM     85  C   UNL A   1      46.122  34.518  30.711  1.00  0.00     0.198 A 
ATOM     86  C   UNL A   1      45.449  35.087  28.478  1.00  0.00     0.198 A 
ATOM     87  F   UNL A   1      44.645  33.419  27.029  1.00  0.00    -0.203 F 
ATOM     88  F   UNL A   1      46.565  34.891  31.920  1.00  0.00    -0.200 F 
ATOM     89  C   UNL A   1      45.936  35.469  29.718  1.00  0.00     0.200 A 
ATOM     90  F   UNL A   1      45.283  36.001  27.513  1.00  0.00    -0.200 F 
ATOM     91  F   UNL A   1      46.221  36.756  29.960  1.00  0.00    -0.200 F 
ENDBRANCH  58  81
ENDBRANCH  32  33
ENDBRANCH  24  27
ENDBRANCH  22  23
ENDBRANCH  21  22
ENDBRANCH  20  21
ENDBRANCH   1  20
TORSDOF 16
ENDMDL
