MODEL 1
REMARK VINA RESULT:     -12.5      0.000      0.000
REMARK SMILES Cc1nnc(SCC(=O)Nc2cccc(C(=O)NCCCCCCNC(=O)c3ccc(-c4c5nc(c(-c6c(F)c(F)c(F)c(F)c6F)c6ccc([nH]6)c(-c6c(F)c(F)c(F)c(F)c6F)c6nc(c(-c7c(F)c(F)c(F)c(F)c7F)c7ccc4[nH]7)C=C6)C=C5)cc3)c2)n1-c1ccccc1
REMARK SMILES IDX 20 1 19 2 18 3 16 4 17 5 15 7 11 8 12 9 91 10 13 11 14 12
REMARK SMILES IDX 10 13 8 14 9 15 7 17 6 18 5 19 1 20 2 21 3 22 92 23 4 24
REMARK SMILES IDX 93 25 94 26 98 27 95 28 97 29 96 30 21 31 22 32 23 33 24 34
REMARK SMILES IDX 25 35 26 36 27 38 28 39 29 40 90 41 30 42 89 43 31 44 32 45
REMARK SMILES IDX 33 46 83 47 34 48 88 49 82 50 84 51 35 52 87 53 81 54 80 55
REMARK SMILES IDX 36 57 68 58 48 59 67 60 49 61 52 62 66 63 85 64 50 65 51 66
REMARK SMILES IDX 65 68 86 69 53 70 37 71 38 72 46 73 39 74 40 75 44 76 47 77
REMARK SMILES IDX 41 78 42 79 45 80 43 81 69 82 70 83 78 84 71 85 72 86 76 87
REMARK SMILES IDX 79 88 73 89 74 90 77 91 75 92 54 93 55 94 63 95 56 96 57 97
REMARK SMILES IDX 61 98 64 99 58 100 59 101 62 102 60 103
REMARK H PARENT 18 6 10 16 25 37 84 56 52 67
REMARK Flexibility Score: inf
ROOT
ATOM      1  C   UNL A   1      40.039  21.478  27.037  1.00  0.00     0.021 C 
ENDROOT
BRANCH   1   2
ATOM      2  C   UNL A   1      39.242  21.743  25.762  1.00  0.00     0.116 C 
BRANCH   2   3
ATOM      3  N   UNL A   1      38.313  20.699  25.359  1.00  0.00    -0.352 N 
ATOM      4  C   UNL A   1      36.937  20.654  25.255  1.00  0.00     0.251 C 
ATOM      5  O   UNL A   1      36.445  19.609  24.820  1.00  0.00    -0.269 OA
ATOM      6  H   UNL A   1      38.754  19.855  25.109  1.00  0.00     0.163 HD
BRANCH   4   7
ATOM      7  C   UNL A   1      35.993  21.753  25.650  1.00  0.00     0.041 A 
ATOM      8  C   UNL A   1      33.870  22.625  26.448  1.00  0.00     0.041 A 
ATOM      9  C   UNL A   1      34.291  23.931  26.210  1.00  0.00     0.026 A 
ATOM     10  C   UNL A   1      34.719  21.554  26.176  1.00  0.00     0.040 A 
ATOM     11  C   UNL A   1      35.594  24.163  25.793  1.00  0.00     0.003 A 
ATOM     12  C   UNL A   1      36.436  23.081  25.515  1.00  0.00     0.014 A 
BRANCH   8  13
ATOM     13  N   UNL A   1      32.577  22.464  26.938  1.00  0.00    -0.325 N 
ATOM     14  C   UNL A   1      31.507  23.294  26.913  1.00  0.00     0.234 C 
ATOM     15  O   UNL A   1      30.440  22.745  27.216  1.00  0.00    -0.274 OA
ATOM     16  H   UNL A   1      32.413  21.598  27.379  1.00  0.00     0.169 HD
BRANCH  14  17
ATOM     17  C   UNL A   1      31.517  24.684  26.316  1.00  0.00     0.178 C 
BRANCH  17  18
ATOM     18  S   UNL A   1      31.114  24.954  24.589  1.00  0.00    -0.076 SA
BRANCH  18  19
ATOM     19  C   UNL A   1      32.477  25.565  23.709  1.00  0.00     0.196 A 
ATOM     20  C   UNL A   1      34.129  28.440  22.241  1.00  0.00     0.090 C 
ATOM     21  C   UNL A   1      33.541  27.132  22.602  1.00  0.00     0.135 A 
ATOM     22  N   UNL A   1      33.538  26.040  21.862  1.00  0.00    -0.134 NA
ATOM     23  N   UNL A   1      32.943  26.857  23.812  1.00  0.00    -0.274 N 
ATOM     24  N   UNL A   1      32.862  25.060  22.555  1.00  0.00    -0.123 NA
BRANCH  23  25
ATOM     25  C   UNL A   1      32.854  27.687  24.932  1.00  0.00     0.049 A 
ATOM     26  C   UNL A   1      31.877  28.679  24.914  1.00  0.00     0.027 A 
ATOM     27  C   UNL A   1      33.853  27.666  25.901  1.00  0.00     0.027 A 
ATOM     28  C   UNL A   1      31.975  29.750  25.792  1.00  0.00     0.002 A 
ATOM     29  C   UNL A   1      33.917  28.726  26.805  1.00  0.00     0.002 A 
ATOM     30  C   UNL A   1      33.006  29.783  26.725  1.00  0.00     0.000 A 
ENDBRANCH  23  25
ENDBRANCH  18  19
ENDBRANCH  17  18
ENDBRANCH  14  17
ENDBRANCH   8  13
ENDBRANCH   4   7
ENDBRANCH   2   3
ENDBRANCH   1   2
BRANCH   1  31
ATOM     31  C   UNL A   1      41.301  20.617  26.967  1.00  0.00     0.002 C 
BRANCH  31  32
ATOM     32  C   UNL A   1      41.363  19.418  26.009  1.00  0.00     0.002 C 
BRANCH  32  33
ATOM     33  C   UNL A   1      42.511  18.403  26.114  1.00  0.00     0.021 C 
BRANCH  33  34
ATOM     34  C   UNL A   1      43.903  18.978  26.306  1.00  0.00     0.116 C 
BRANCH  34  35
ATOM     35  N   UNL A   1      44.611  19.285  25.057  1.00  0.00    -0.352 N 
ATOM     36  C   UNL A   1      44.649  20.472  24.331  1.00  0.00     0.251 C 
ATOM     37  H   UNL A   1      45.134  18.544  24.676  1.00  0.00     0.163 HD
ATOM     38  O   UNL A   1      44.972  20.477  23.156  1.00  0.00    -0.269 OA
BRANCH  36  39
ATOM     39  C   UNL A   1      44.302  21.742  25.005  1.00  0.00     0.039 A 
ATOM     40  C   UNL A   1      43.192  22.518  24.652  1.00  0.00     0.014 A 
ATOM     41  C   UNL A   1      45.148  22.176  26.011  1.00  0.00     0.014 A 
ATOM     42  C   UNL A   1      42.959  23.707  25.346  1.00  0.00     0.010 A 
ATOM     43  C   UNL A   1      44.750  23.145  26.875  1.00  0.00     0.010 A 
ATOM     44  C   UNL A   1      43.766  24.013  26.452  1.00  0.00    -0.014 A 
BRANCH  44  45
ATOM     45  C   UNL A   1      43.617  25.223  27.242  1.00  0.00     0.031 A 
ATOM     46  C   UNL A   1      44.609  26.267  26.907  1.00  0.00     0.074 A 
ATOM     47  C   UNL A   1      42.503  25.475  27.969  1.00  0.00     0.049 A 
ATOM     48  N   UNL A   1      45.637  26.641  27.589  1.00  0.00    -0.248 NA
ATOM     49  C   UNL A   1      44.558  26.827  25.548  1.00  0.00     0.031 C 
ATOM     50  C   UNL A   1      41.267  24.681  28.059  1.00  0.00     0.029 A 
ATOM     51  N   UNL A   1      42.196  26.571  28.711  1.00  0.00    -0.354 N 
ATOM     52  C   UNL A   1      46.227  27.652  26.837  1.00  0.00     0.074 A 
ATOM     53  C   UNL A   1      45.694  27.525  25.508  1.00  0.00     0.031 C 
ATOM     54  C   UNL A   1      40.283  25.423  28.613  1.00  0.00     0.029 A 
ATOM     55  C   UNL A   1      40.859  26.667  29.081  1.00  0.00     0.049 A 
ATOM     56  H   UNL A   1      42.868  27.245  28.966  1.00  0.00     0.167 HD
ATOM     57  C   UNL A   1      46.841  28.703  27.448  1.00  0.00     0.037 A 
ATOM     58  C   UNL A   1      40.273  27.723  29.697  1.00  0.00     0.037 A 
ATOM     59  C   UNL A   1      47.048  28.418  28.848  1.00  0.00     0.049 A 
ATOM     60  C   UNL A   1      41.368  28.524  30.300  1.00  0.00     0.074 A 
ATOM     61  C   UNL A   1      47.760  27.480  29.567  1.00  0.00     0.029 A 
ATOM     62  N   UNL A   1      46.115  28.936  29.711  1.00  0.00    -0.354 N 
ATOM     63  N   UNL A   1      42.142  28.099  31.261  1.00  0.00    -0.248 NA
ATOM     64  C   UNL A   1      41.890  29.640  29.528  1.00  0.00     0.031 C 
ATOM     65  C   UNL A   1      46.946  27.182  30.701  1.00  0.00     0.029 A 
ATOM     66  C   UNL A   1      45.815  28.001  30.662  1.00  0.00     0.049 A 
ATOM     67  H   UNL A   1      45.723  29.839  29.655  1.00  0.00     0.167 HD
ATOM     68  C   UNL A   1      43.401  28.592  30.948  1.00  0.00     0.074 A 
ATOM     69  C   UNL A   1      43.160  29.622  29.941  1.00  0.00     0.031 C 
ATOM     70  C   UNL A   1      44.526  27.911  31.318  1.00  0.00     0.037 A 
BRANCH  57  71
ATOM     71  C   UNL A   1      46.844  30.128  26.930  1.00  0.00     0.064 A 
ATOM     72  C   UNL A   1      48.053  30.854  26.973  1.00  0.00     0.173 A 
ATOM     73  C   UNL A   1      45.689  30.903  26.685  1.00  0.00     0.173 A 
ATOM     74  F   UNL A   1      49.217  30.228  27.207  1.00  0.00    -0.203 F 
ATOM     75  C   UNL A   1      48.087  32.247  26.876  1.00  0.00     0.198 A 
ATOM     76  C   UNL A   1      45.733  32.288  26.535  1.00  0.00     0.198 A 
ATOM     77  F   UNL A   1      44.455  30.387  26.691  1.00  0.00    -0.203 F 
ATOM     78  F   UNL A   1      49.243  32.898  27.060  1.00  0.00    -0.200 F 
ATOM     79  C   UNL A   1      46.925  32.965  26.665  1.00  0.00     0.200 A 
ATOM     80  F   UNL A   1      44.591  32.965  26.347  1.00  0.00    -0.200 F 
ATOM     81  F   UNL A   1      46.943  34.302  26.636  1.00  0.00    -0.200 F 
ENDBRANCH  57  71
BRANCH  58  82
ATOM     82  C   UNL A   1      38.909  28.266  29.486  1.00  0.00     0.064 A 
ATOM     83  C   UNL A   1      38.060  28.544  30.570  1.00  0.00     0.173 A 
ATOM     84  C   UNL A   1      38.520  28.792  28.238  1.00  0.00     0.173 A 
ATOM     85  F   UNL A   1      38.383  28.123  31.802  1.00  0.00    -0.203 F 
ATOM     86  C   UNL A   1      36.905  29.321  30.420  1.00  0.00     0.198 A 
ATOM     87  C   UNL A   1      37.366  29.564  28.088  1.00  0.00     0.198 A 
ATOM     88  F   UNL A   1      39.305  28.653  27.160  1.00  0.00    -0.203 F 
ATOM     89  F   UNL A   1      36.154  29.619  31.489  1.00  0.00    -0.200 F 
ATOM     90  C   UNL A   1      36.565  29.839  29.180  1.00  0.00     0.200 A 
ATOM     91  F   UNL A   1      37.073  30.097  26.893  1.00  0.00    -0.200 F 
ATOM     92  F   UNL A   1      35.496  30.638  29.048  1.00  0.00    -0.200 F 
ENDBRANCH  58  82
BRANCH  70  93
ATOM     93  C   UNL A   1      44.385  26.834  32.359  1.00  0.00     0.064 A 
ATOM     94  C   UNL A   1      44.260  25.463  32.078  1.00  0.00     0.173 A 
ATOM     95  C   UNL A   1      44.555  27.204  33.701  1.00  0.00     0.173 A 
ATOM     96  F   UNL A   1      44.172  25.021  30.819  1.00  0.00    -0.203 F 
ATOM     97  C   UNL A   1      44.288  24.511  33.098  1.00  0.00     0.198 A 
ATOM     98  C   UNL A   1      44.619  26.250  34.711  1.00  0.00     0.198 A 
ATOM     99  F   UNL A   1      44.724  28.496  34.022  1.00  0.00    -0.203 F 
ATOM    100  F   UNL A   1      44.167  23.207  32.807  1.00  0.00    -0.200 F 
ATOM    101  C   UNL A   1      44.480  24.906  34.412  1.00  0.00     0.200 A 
ATOM    102  F   UNL A   1      44.852  26.636  35.974  1.00  0.00    -0.200 F 
ATOM    103  F   UNL A   1      44.560  23.989  35.387  1.00  0.00    -0.200 F 
ENDBRANCH  70  93
ENDBRANCH  44  45
ENDBRANCH  36  39
ENDBRANCH  34  35
ENDBRANCH  33  34
ENDBRANCH  32  33
ENDBRANCH  31  32
ENDBRANCH   1  31
TORSDOF 18
ENDMDL
MODEL 2
REMARK VINA RESULT:     -12.2      2.687      4.169
REMARK SMILES Cc1nnc(SCC(=O)Nc2cccc(C(=O)NCCCCCCNC(=O)c3ccc(-c4c5nc(c(-c6c(F)c(F)c(F)c(F)c6F)c6ccc([nH]6)c(-c6c(F)c(F)c(F)c(F)c6F)c6nc(c(-c7c(F)c(F)c(F)c(F)c7F)c7ccc4[nH]7)C=C6)C=C5)cc3)c2)n1-c1ccccc1
REMARK SMILES IDX 20 1 19 2 18 3 16 4 17 5 15 7 11 8 12 9 91 10 13 11 14 12
REMARK SMILES IDX 10 13 8 14 9 15 7 17 6 18 5 19 1 20 2 21 3 22 92 23 4 24
REMARK SMILES IDX 93 25 94 26 98 27 95 28 97 29 96 30 21 31 22 32 23 33 24 34
REMARK SMILES IDX 25 35 26 36 27 38 28 39 29 40 90 41 30 42 89 43 31 44 32 45
REMARK SMILES IDX 33 46 83 47 34 48 88 49 82 50 84 51 35 52 87 53 81 54 80 55
REMARK SMILES IDX 36 57 68 58 48 59 67 60 49 61 52 62 66 63 85 64 50 65 51 66
REMARK SMILES IDX 65 68 86 69 53 70 37 71 38 72 46 73 39 74 40 75 44 76 47 77
REMARK SMILES IDX 41 78 42 79 45 80 43 81 69 82 70 83 78 84 71 85 72 86 76 87
REMARK SMILES IDX 79 88 73 89 74 90 77 91 75 92 54 93 55 94 63 95 56 96 57 97
REMARK SMILES IDX 61 98 64 99 58 100 59 101 62 102 60 103
REMARK H PARENT 18 6 10 16 25 37 84 56 52 67
REMARK Flexibility Score: inf
ROOT
ATOM      1  C   UNL A   1      34.892  23.695  23.257  1.00  0.00     0.021 C 
ENDROOT
BRANCH   1   2
ATOM      2  C   UNL A   1      33.573  23.062  22.820  1.00  0.00     0.116 C 
BRANCH   2   3
ATOM      3  N   UNL A   1      32.871  22.283  23.827  1.00  0.00    -0.352 N 
ATOM      4  C   UNL A   1      32.067  22.633  24.895  1.00  0.00     0.251 C 
ATOM      5  O   UNL A   1      31.568  21.708  25.542  1.00  0.00    -0.269 OA
ATOM      6  H   UNL A   1      32.992  21.312  23.729  1.00  0.00     0.163 HD
BRANCH   4   7
ATOM      7  C   UNL A   1      31.774  24.033  25.347  1.00  0.00     0.041 A 
ATOM      8  C   UNL A   1      32.373  26.199  26.274  1.00  0.00     0.041 A 
ATOM      9  C   UNL A   1      31.035  26.585  26.295  1.00  0.00     0.026 A 
ATOM     10  C   UNL A   1      32.731  24.939  25.798  1.00  0.00     0.040 A 
ATOM     11  C   UNL A   1      30.074  25.747  25.749  1.00  0.00     0.003 A 
ATOM     12  C   UNL A   1      30.442  24.481  25.280  1.00  0.00     0.014 A 
BRANCH   8  13
ATOM     13  N   UNL A   1      33.297  27.116  26.766  1.00  0.00    -0.325 N 
ATOM     14  C   UNL A   1      33.195  28.449  26.988  1.00  0.00     0.234 C 
ATOM     15  O   UNL A   1      34.120  28.916  27.665  1.00  0.00    -0.274 OA
ATOM     16  H   UNL A   1      34.174  26.729  26.992  1.00  0.00     0.169 HD
BRANCH  14  17
ATOM     17  C   UNL A   1      31.960  29.272  26.698  1.00  0.00     0.178 C 
BRANCH  17  18
ATOM     18  S   UNL A   1      31.714  30.044  25.098  1.00  0.00    -0.076 SA
BRANCH  18  19
ATOM     19  C   UNL A   1      32.279  29.029  23.812  1.00  0.00     0.196 A 
ATOM     20  C   UNL A   1      31.702  26.105  21.746  1.00  0.00     0.090 C 
ATOM     21  C   UNL A   1      32.210  27.208  22.590  1.00  0.00     0.135 A 
ATOM     22  N   UNL A   1      33.444  27.358  23.029  1.00  0.00    -0.134 NA
ATOM     23  N   UNL A   1      31.453  28.283  23.000  1.00  0.00    -0.274 N 
ATOM     24  N   UNL A   1      33.484  28.496  23.803  1.00  0.00    -0.123 NA
BRANCH  23  25
ATOM     25  C   UNL A   1      30.136  28.589  22.648  1.00  0.00     0.049 A 
ATOM     26  C   UNL A   1      29.932  29.733  21.881  1.00  0.00     0.027 A 
ATOM     27  C   UNL A   1      29.076  27.913  23.244  1.00  0.00     0.027 A 
ATOM     28  C   UNL A   1      28.665  30.296  21.818  1.00  0.00     0.002 A 
ATOM     29  C   UNL A   1      27.799  28.464  23.140  1.00  0.00     0.002 A 
ATOM     30  C   UNL A   1      27.602  29.672  22.464  1.00  0.00     0.000 A 
ENDBRANCH  23  25
ENDBRANCH  18  19
ENDBRANCH  17  18
ENDBRANCH  14  17
ENDBRANCH   8  13
ENDBRANCH   4   7
ENDBRANCH   2   3
ENDBRANCH   1   2
BRANCH   1  31
ATOM     31  C   UNL A   1      35.657  23.093  24.437  1.00  0.00     0.002 C 
BRANCH  31  32
ATOM     32  C   UNL A   1      37.051  22.485  24.220  1.00  0.00     0.002 C 
BRANCH  32  33
ATOM     33  C   UNL A   1      37.740  21.709  25.353  1.00  0.00     0.021 C 
BRANCH  33  34
ATOM     34  C   UNL A   1      38.816  22.455  26.122  1.00  0.00     0.116 C 
BRANCH  34  35
ATOM     35  N   UNL A   1      40.179  21.953  25.903  1.00  0.00    -0.352 N 
ATOM     36  C   UNL A   1      41.395  22.618  26.022  1.00  0.00     0.251 C 
ATOM     37  H   UNL A   1      40.241  21.009  25.631  1.00  0.00     0.163 HD
ATOM     38  O   UNL A   1      42.397  22.193  25.472  1.00  0.00    -0.269 OA
BRANCH  36  39
ATOM     39  C   UNL A   1      41.468  23.850  26.836  1.00  0.00     0.039 A 
ATOM     40  C   UNL A   1      42.197  23.939  28.028  1.00  0.00     0.014 A 
ATOM     41  C   UNL A   1      40.750  24.946  26.390  1.00  0.00     0.014 A 
ATOM     42  C   UNL A   1      42.192  25.148  28.726  1.00  0.00     0.010 A 
ATOM     43  C   UNL A   1      41.001  26.184  26.890  1.00  0.00     0.010 A 
ATOM     44  C   UNL A   1      41.570  26.262  28.143  1.00  0.00    -0.014 A 
BRANCH  44  45
ATOM     45  C   UNL A   1      41.500  27.566  28.782  1.00  0.00     0.031 A 
ATOM     46  C   UNL A   1      42.569  28.489  28.348  1.00  0.00     0.074 A 
ATOM     47  C   UNL A   1      40.397  27.981  29.449  1.00  0.00     0.049 A 
ATOM     48  N   UNL A   1      43.613  28.867  29.002  1.00  0.00    -0.248 NA
ATOM     49  C   UNL A   1      42.578  28.885  26.931  1.00  0.00     0.031 C 
ATOM     50  C   UNL A   1      39.105  27.294  29.605  1.00  0.00     0.029 A 
ATOM     51  N   UNL A   1      40.162  29.177  30.049  1.00  0.00    -0.354 N 
ATOM     52  C   UNL A   1      44.285  29.738  28.150  1.00  0.00     0.074 A 
ATOM     53  C   UNL A   1      43.762  29.492  26.834  1.00  0.00     0.031 C 
ATOM     54  C   UNL A   1      38.171  28.165  30.045  1.00  0.00     0.029 A 
ATOM     55  C   UNL A   1      38.830  29.411  30.376  1.00  0.00     0.049 A 
ATOM     56  H   UNL A   1      40.877  29.827  30.238  1.00  0.00     0.167 HD
ATOM     57  C   UNL A   1      44.966  30.807  28.646  1.00  0.00     0.037 A 
ATOM     58  C   UNL A   1      38.315  30.572  30.851  1.00  0.00     0.037 A 
ATOM     59  C   UNL A   1      45.133  30.677  30.074  1.00  0.00     0.049 A 
ATOM     60  C   UNL A   1      39.457  31.360  31.379  1.00  0.00     0.074 A 
ATOM     61  C   UNL A   1      45.765  29.784  30.914  1.00  0.00     0.029 A 
ATOM     62  N   UNL A   1      44.229  31.360  30.850  1.00  0.00    -0.354 N 
ATOM     63  N   UNL A   1      40.185  30.998  32.400  1.00  0.00    -0.248 NA
ATOM     64  C   UNL A   1      40.070  32.335  30.492  1.00  0.00     0.031 C 
ATOM     65  C   UNL A   1      44.917  29.682  32.057  1.00  0.00     0.029 A 
ATOM     66  C   UNL A   1      43.849  30.569  31.897  1.00  0.00     0.049 A 
ATOM     67  H   UNL A   1      43.906  32.275  30.678  1.00  0.00     0.167 HD
ATOM     68  C   UNL A   1      41.481  31.360  32.058  1.00  0.00     0.074 A 
ATOM     69  C   UNL A   1      41.329  32.277  30.932  1.00  0.00     0.031 C 
ATOM     70  C   UNL A   1      42.548  30.650  32.530  1.00  0.00     0.037 A 
BRANCH  57  71
ATOM     71  C   UNL A   1      45.080  32.156  27.963  1.00  0.00     0.064 A 
ATOM     72  C   UNL A   1      46.354  32.582  27.530  1.00  0.00     0.173 A 
ATOM     73  C   UNL A   1      44.089  33.162  27.987  1.00  0.00     0.173 A 
ATOM     74  F   UNL A   1      47.380  31.719  27.474  1.00  0.00    -0.203 F 
ATOM     75  C   UNL A   1      46.631  33.920  27.238  1.00  0.00     0.198 A 
ATOM     76  C   UNL A   1      44.356  34.486  27.643  1.00  0.00     0.198 A 
ATOM     77  F   UNL A   1      42.852  32.949  28.446  1.00  0.00    -0.203 F 
ATOM     78  F   UNL A   1      47.887  34.295  26.964  1.00  0.00    -0.200 F 
ATOM     79  C   UNL A   1      45.633  34.874  27.303  1.00  0.00     0.200 A 
ATOM     80  F   UNL A   1      43.375  35.397  27.728  1.00  0.00    -0.200 F 
ATOM     81  F   UNL A   1      45.906  36.166  27.087  1.00  0.00    -0.200 F 
ENDBRANCH  57  71
BRANCH  58  82
ATOM     82  C   UNL A   1      36.997  31.181  30.547  1.00  0.00     0.064 A 
ATOM     83  C   UNL A   1      36.105  31.538  31.573  1.00  0.00     0.173 A 
ATOM     84  C   UNL A   1      36.708  31.691  29.265  1.00  0.00     0.173 A 
ATOM     85  F   UNL A   1      36.336  31.138  32.832  1.00  0.00    -0.203 F 
ATOM     86  C   UNL A   1      35.006  32.372  31.335  1.00  0.00     0.198 A 
ATOM     87  C   UNL A   1      35.609  32.519  29.029  1.00  0.00     0.198 A 
ATOM     88  F   UNL A   1      37.543  31.477  28.238  1.00  0.00    -0.203 F 
ATOM     89  F   UNL A   1      34.214  32.742  32.352  1.00  0.00    -0.200 F 
ATOM     90  C   UNL A   1      34.765  32.870  30.065  1.00  0.00     0.200 A 
ATOM     91  F   UNL A   1      35.413  33.031  27.804  1.00  0.00    -0.200 F 
ATOM     92  F   UNL A   1      33.752  33.721  29.850  1.00  0.00    -0.200 F 
ENDBRANCH  58  82
BRANCH  70  93
ATOM     93  C   UNL A   1      42.315  29.717  33.688  1.00  0.00     0.064 A 
ATOM     94  C   UNL A   1      42.004  28.352  33.565  1.00  0.00     0.173 A 
ATOM     95  C   UNL A   1      42.587  30.202  34.975  1.00  0.00     0.173 A 
ATOM     96  F   UNL A   1      41.808  27.794  32.365  1.00  0.00    -0.203 F 
ATOM     97  C   UNL A   1      41.953  27.519  34.682  1.00  0.00     0.198 A 
ATOM     98  C   UNL A   1      42.571  29.361  36.083  1.00  0.00     0.198 A 
ATOM     99  F   UNL A   1      42.933  31.487  35.147  1.00  0.00    -0.203 F 
ATOM    100  F   UNL A   1      41.656  26.218  34.541  1.00  0.00    -0.200 F 
ATOM    101  C   UNL A   1      42.250  28.022  35.939  1.00  0.00     0.200 A 
ATOM    102  F   UNL A   1      42.905  29.845  37.288  1.00  0.00    -0.200 F 
ATOM    103  F   UNL A   1      42.253  27.212  37.007  1.00  0.00    -0.200 F 
ENDBRANCH  70  93
ENDBRANCH  44  45
ENDBRANCH  36  39
ENDBRANCH  34  35
ENDBRANCH  33  34
ENDBRANCH  32  33
ENDBRANCH  31  32
ENDBRANCH   1  31
TORSDOF 18
ENDMDL
MODEL 3
REMARK VINA RESULT:     -12.2      1.444      1.888
REMARK SMILES Cc1nnc(SCC(=O)Nc2cccc(C(=O)NCCCCCCNC(=O)c3ccc(-c4c5nc(c(-c6c(F)c(F)c(F)c(F)c6F)c6ccc([nH]6)c(-c6c(F)c(F)c(F)c(F)c6F)c6nc(c(-c7c(F)c(F)c(F)c(F)c7F)c7ccc4[nH]7)C=C6)C=C5)cc3)c2)n1-c1ccccc1
REMARK SMILES IDX 20 1 19 2 18 3 16 4 17 5 15 7 11 8 12 9 91 10 13 11 14 12
REMARK SMILES IDX 10 13 8 14 9 15 7 17 6 18 5 19 1 20 2 21 3 22 92 23 4 24
REMARK SMILES IDX 93 25 94 26 98 27 95 28 97 29 96 30 21 31 22 32 23 33 24 34
REMARK SMILES IDX 25 35 26 36 27 38 28 39 29 40 90 41 30 42 89 43 31 44 32 45
REMARK SMILES IDX 33 46 83 47 34 48 88 49 82 50 84 51 35 52 87 53 81 54 80 55
REMARK SMILES IDX 36 57 68 58 48 59 67 60 49 61 52 62 66 63 85 64 50 65 51 66
REMARK SMILES IDX 65 68 86 69 53 70 37 71 38 72 46 73 39 74 40 75 44 76 47 77
REMARK SMILES IDX 41 78 42 79 45 80 43 81 69 82 70 83 78 84 71 85 72 86 76 87
REMARK SMILES IDX 79 88 73 89 74 90 77 91 75 92 54 93 55 94 63 95 56 96 57 97
REMARK SMILES IDX 61 98 64 99 58 100 59 101 62 102 60 103
REMARK H PARENT 18 6 10 16 25 37 84 56 52 67
REMARK Flexibility Score: inf
ROOT
ATOM      1  C   UNL A   1      39.305  22.629  26.618  1.00  0.00     0.021 C 
ENDROOT
BRANCH   1   2
ATOM      2  C   UNL A   1      37.929  22.416  25.992  1.00  0.00     0.116 C 
BRANCH   2   3
ATOM      3  N   UNL A   1      37.807  22.754  24.583  1.00  0.00    -0.352 N 
ATOM      4  C   UNL A   1      36.747  22.727  23.698  1.00  0.00     0.251 C 
ATOM      5  O   UNL A   1      36.966  23.137  22.555  1.00  0.00    -0.269 OA
ATOM      6  H   UNL A   1      38.649  23.064  24.178  1.00  0.00     0.163 HD
BRANCH   4   7
ATOM      7  C   UNL A   1      35.367  22.219  24.001  1.00  0.00     0.041 A 
ATOM      8  C   UNL A   1      32.940  22.305  23.908  1.00  0.00     0.041 A 
ATOM      9  C   UNL A   1      32.846  21.223  24.780  1.00  0.00     0.026 A 
ATOM     10  C   UNL A   1      34.189  22.787  23.523  1.00  0.00     0.040 A 
ATOM     11  C   UNL A   1      34.001  20.568  25.182  1.00  0.00     0.003 A 
ATOM     12  C   UNL A   1      35.251  21.064  24.796  1.00  0.00     0.014 A 
BRANCH   8  13
ATOM     13  N   UNL A   1      31.742  22.871  23.481  1.00  0.00    -0.325 N 
ATOM     14  C   UNL A   1      30.861  23.677  24.122  1.00  0.00     0.234 C 
ATOM     15  O   UNL A   1      30.026  24.200  23.373  1.00  0.00    -0.274 OA
ATOM     16  H   UNL A   1      31.493  22.646  22.555  1.00  0.00     0.169 HD
BRANCH  14  17
ATOM     17  C   UNL A   1      31.011  24.139  25.554  1.00  0.00     0.178 C 
BRANCH  17  18
ATOM     18  S   UNL A   1      30.834  25.869  25.994  1.00  0.00    -0.076 SA
BRANCH  18  19
ATOM     19  C   UNL A   1      32.150  26.816  25.381  1.00  0.00     0.196 A 
ATOM     20  C   UNL A   1      33.567  28.626  22.577  1.00  0.00     0.090 C 
ATOM     21  C   UNL A   1      33.258  27.798  23.762  1.00  0.00     0.135 A 
ATOM     22  N   UNL A   1      34.102  27.038  24.432  1.00  0.00    -0.134 NA
ATOM     23  N   UNL A   1      32.024  27.746  24.372  1.00  0.00    -0.274 N 
ATOM     24  N   UNL A   1      33.403  26.416  25.442  1.00  0.00    -0.123 NA
BRANCH  23  25
ATOM     25  C   UNL A   1      30.886  28.497  24.070  1.00  0.00     0.049 A 
ATOM     26  C   UNL A   1      30.015  27.979  23.117  1.00  0.00     0.027 A 
ATOM     27  C   UNL A   1      30.770  29.807  24.528  1.00  0.00     0.027 A 
ATOM     28  C   UNL A   1      29.094  28.818  22.503  1.00  0.00     0.002 A 
ATOM     29  C   UNL A   1      29.813  30.630  23.935  1.00  0.00     0.002 A 
ATOM     30  C   UNL A   1      29.007  30.149  22.900  1.00  0.00     0.000 A 
ENDBRANCH  23  25
ENDBRANCH  18  19
ENDBRANCH  17  18
ENDBRANCH  14  17
ENDBRANCH   8  13
ENDBRANCH   4   7
ENDBRANCH   2   3
ENDBRANCH   1   2
BRANCH   1  31
ATOM     31  C   UNL A   1      40.218  21.423  26.849  1.00  0.00     0.002 C 
BRANCH  31  32
ATOM     32  C   UNL A   1      40.172  20.227  25.886  1.00  0.00     0.002 C 
BRANCH  32  33
ATOM     33  C   UNL A   1      41.263  19.147  25.941  1.00  0.00     0.021 C 
BRANCH  33  34
ATOM     34  C   UNL A   1      42.647  19.611  26.358  1.00  0.00     0.116 C 
BRANCH  34  35
ATOM     35  N   UNL A   1      43.582  19.813  25.244  1.00  0.00    -0.352 N 
ATOM     36  C   UNL A   1      44.077  20.998  24.710  1.00  0.00     0.251 C 
ATOM     37  H   UNL A   1      43.905  18.991  24.811  1.00  0.00     0.163 HD
ATOM     38  O   UNL A   1      44.547  21.031  23.585  1.00  0.00    -0.269 OA
BRANCH  36  39
ATOM     39  C   UNL A   1      44.038  22.231  25.526  1.00  0.00     0.039 A 
ATOM     40  C   UNL A   1      45.022  22.559  26.466  1.00  0.00     0.014 A 
ATOM     41  C   UNL A   1      42.951  23.071  25.352  1.00  0.00     0.014 A 
ATOM     42  C   UNL A   1      44.884  23.743  27.192  1.00  0.00     0.010 A 
ATOM     43  C   UNL A   1      42.985  24.346  25.818  1.00  0.00     0.010 A 
ATOM     44  C   UNL A   1      43.842  24.622  26.862  1.00  0.00    -0.014 A 
BRANCH  44  45
ATOM     45  C   UNL A   1      43.602  25.877  27.553  1.00  0.00     0.031 A 
ATOM     46  C   UNL A   1      44.521  26.958  27.140  1.00  0.00     0.074 A 
ATOM     47  C   UNL A   1      42.466  26.106  28.253  1.00  0.00     0.049 A 
ATOM     48  N   UNL A   1      45.515  27.456  27.794  1.00  0.00    -0.248 NA
ATOM     49  C   UNL A   1      44.444  27.406  25.741  1.00  0.00     0.031 C 
ATOM     50  C   UNL A   1      41.287  25.237  28.401  1.00  0.00     0.029 A 
ATOM     51  N   UNL A   1      42.077  27.233  28.905  1.00  0.00    -0.354 N 
ATOM     52  C   UNL A   1      46.039  28.445  26.967  1.00  0.00     0.074 A 
ATOM     53  C   UNL A   1      45.528  28.177  25.651  1.00  0.00     0.031 C 
ATOM     54  C   UNL A   1      40.249  25.949  28.891  1.00  0.00     0.029 A 
ATOM     55  C   UNL A   1      40.732  27.263  29.262  1.00  0.00     0.049 A 
ATOM     56  H   UNL A   1      42.697  27.970  29.109  1.00  0.00     0.167 HD
ATOM     57  C   UNL A   1      46.572  29.581  27.496  1.00  0.00     0.037 A 
ATOM     58  C   UNL A   1      40.069  28.320  29.790  1.00  0.00     0.037 A 
ATOM     59  C   UNL A   1      46.786  29.421  28.915  1.00  0.00     0.049 A 
ATOM     60  C   UNL A   1      41.099  29.242  30.332  1.00  0.00     0.074 A 
ATOM     61  C   UNL A   1      47.555  28.596  29.708  1.00  0.00     0.029 A 
ATOM     62  N   UNL A   1      45.811  29.939  29.731  1.00  0.00    -0.354 N 
ATOM     63  N   UNL A   1      41.892  28.948  31.327  1.00  0.00    -0.248 NA
ATOM     64  C   UNL A   1      41.549  30.327  29.477  1.00  0.00     0.031 C 
ATOM     65  C   UNL A   1      46.753  28.331  30.859  1.00  0.00     0.029 A 
ATOM     66  C   UNL A   1      45.568  29.063  30.752  1.00  0.00     0.049 A 
ATOM     67  H   UNL A   1      45.358  30.804  29.602  1.00  0.00     0.167 HD
ATOM     68  C   UNL A   1      43.116  29.503  30.980  1.00  0.00     0.074 A 
ATOM     69  C   UNL A   1      42.813  30.431  29.894  1.00  0.00     0.031 C 
ATOM     70  C   UNL A   1      44.282  28.934  31.407  1.00  0.00     0.037 A 
BRANCH  57  71
ATOM     71  C   UNL A   1      46.481  30.957  26.867  1.00  0.00     0.064 A 
ATOM     72  C   UNL A   1      47.643  31.758  26.835  1.00  0.00     0.173 A 
ATOM     73  C   UNL A   1      45.277  31.637  26.579  1.00  0.00     0.173 A 
ATOM     74  F   UNL A   1      48.845  31.226  27.100  1.00  0.00    -0.203 F 
ATOM     75  C   UNL A   1      47.588  33.139  26.628  1.00  0.00     0.198 A 
ATOM     76  C   UNL A   1      45.232  33.006  26.319  1.00  0.00     0.198 A 
ATOM     77  F   UNL A   1      44.079  31.048  26.644  1.00  0.00    -0.203 F 
ATOM     78  F   UNL A   1      48.702  33.873  26.743  1.00  0.00    -0.200 F 
ATOM     79  C   UNL A   1      46.381  33.764  26.378  1.00  0.00     0.200 A 
ATOM     80  F   UNL A   1      44.048  33.594  26.095  1.00  0.00    -0.200 F 
ATOM     81  F   UNL A   1      46.315  35.093  26.243  1.00  0.00    -0.200 F 
ENDBRANCH  57  71
BRANCH  58  82
ATOM     82  C   UNL A   1      38.672  28.748  29.532  1.00  0.00     0.064 A 
ATOM     83  C   UNL A   1      37.799  29.063  30.587  1.00  0.00     0.173 A 
ATOM     84  C   UNL A   1      38.255  29.132  28.242  1.00  0.00     0.173 A 
ATOM     85  F   UNL A   1      38.143  28.778  31.851  1.00  0.00    -0.203 F 
ATOM     86  C   UNL A   1      36.595  29.743  30.368  1.00  0.00     0.198 A 
ATOM     87  C   UNL A   1      37.052  29.807  28.024  1.00  0.00     0.198 A 
ATOM     88  F   UNL A   1      39.054  28.951  27.181  1.00  0.00    -0.203 F 
ATOM     89  F   UNL A   1      35.819  30.084  31.407  1.00  0.00    -0.200 F 
ATOM     90  C   UNL A   1      36.228  30.124  29.087  1.00  0.00     0.200 A 
ATOM     91  F   UNL A   1      36.730  30.210  26.785  1.00  0.00    -0.200 F 
ATOM     92  F   UNL A   1      35.108  30.833  28.884  1.00  0.00    -0.200 F 
ENDBRANCH  58  82
BRANCH  70  93
ATOM     93  C   UNL A   1      44.207  27.934  32.529  1.00  0.00     0.064 A 
ATOM     94  C   UNL A   1      44.084  26.546  32.356  1.00  0.00     0.173 A 
ATOM     95  C   UNL A   1      44.441  28.402  33.830  1.00  0.00     0.173 A 
ATOM     96  F   UNL A   1      43.938  26.012  31.138  1.00  0.00    -0.203 F 
ATOM     97  C   UNL A   1      44.175  25.671  33.439  1.00  0.00     0.198 A 
ATOM     98  C   UNL A   1      44.568  27.526  34.903  1.00  0.00     0.198 A 
ATOM     99  F   UNL A   1      44.612  29.716  34.048  1.00  0.00    -0.203 F 
ATOM    100  F   UNL A   1      44.055  24.348  33.250  1.00  0.00    -0.200 F 
ATOM    101  C   UNL A   1      44.430  26.162  34.709  1.00  0.00     0.200 A 
ATOM    102  F   UNL A   1      44.861  28.005  36.120  1.00  0.00    -0.200 F 
ATOM    103  F   UNL A   1      44.570  25.320  35.743  1.00  0.00    -0.200 F 
ENDBRANCH  70  93
ENDBRANCH  44  45
ENDBRANCH  36  39
ENDBRANCH  34  35
ENDBRANCH  33  34
ENDBRANCH  32  33
ENDBRANCH  31  32
ENDBRANCH   1  31
TORSDOF 18
ENDMDL
