MODEL 1
REMARK VINA RESULT:     -12.4      0.000      0.000
REMARK SMILES COc1ccc2cc([C@@H](C)C(=O)NCCCCCCNC(=O)c3ccc(-c4c5nc(c(-c6c(F)c(F)c(F)c(F)c6F)c6ccc([nH]6)c(-c6c(F)c(F)c(F)c(F)c6F)c6nc(c(-c7c(F)c(F)c(F)c(F)c7F)c7ccc4[nH]7)C=C6)C=C5)cc3)ccc2c1
REMARK SMILES IDX 16 1 15 2 14 3 13 4 11 5 12 6 9 8 10 9 8 10 3 11 4 12 89 13
REMARK SMILES IDX 5 14 88 15 6 16 87 17 7 18 86 19 2 20 1 21 17 22 18 23 19 24
REMARK SMILES IDX 20 25 21 26 22 28 23 29 24 30 85 31 25 32 84 33 26 34 27 35
REMARK SMILES IDX 28 36 78 37 29 38 83 39 77 40 79 41 30 42 82 43 76 44 75 45
REMARK SMILES IDX 31 47 63 48 43 49 62 50 44 51 47 52 61 53 80 54 45 55 46 56
REMARK SMILES IDX 60 58 81 59 48 60 32 61 33 62 41 63 34 64 35 65 39 66 42 67
REMARK SMILES IDX 36 68 37 69 40 70 38 71 64 72 65 73 73 74 66 75 67 76 71 77
REMARK SMILES IDX 74 78 68 79 69 80 72 81 70 82 49 83 50 84 58 85 51 86 52 87
REMARK SMILES IDX 56 88 59 89 53 90 54 91 57 92 55 93
REMARK H PARENT 13 7 20 27 79 46 47 57
REMARK Flexibility Score: inf
ROOT
ATOM      1  C   UNL A   1      32.260  30.001  26.653  1.00  0.00     0.002 C 
ENDROOT
BRANCH   1   2
ATOM      2  C   UNL A   1      31.577  28.705  27.104  1.00  0.00     0.021 C 
BRANCH   2   3
ATOM      3  C   UNL A   1      32.498  27.481  27.095  1.00  0.00     0.116 C 
BRANCH   3   4
ATOM      4  N   UNL A   1      31.743  26.247  27.155  1.00  0.00    -0.356 N 
ATOM      5  C   UNL A   1      31.332  25.379  26.191  1.00  0.00     0.227 C 
ATOM      6  O   UNL A   1      30.602  24.453  26.567  1.00  0.00    -0.274 OA
ATOM      7  H   UNL A   1      31.478  25.984  28.066  1.00  0.00     0.163 HD
BRANCH   5   8
ATOM      8  C   UNL A   1      31.730  25.482  24.709  1.00  0.00     0.105 C 
ATOM      9  C   UNL A   1      33.192  25.142  24.424  1.00  0.00     0.023 C 
BRANCH   8  10
ATOM     10  C   UNL A   1      31.197  26.727  24.017  1.00  0.00    -0.035 A 
ATOM     11  C   UNL A   1      28.355  30.303  21.772  1.00  0.00     0.119 A 
ATOM     12  C   UNL A   1      27.470  29.443  22.419  1.00  0.00     0.047 A 
ATOM     13  C   UNL A   1      29.728  30.054  21.828  1.00  0.00     0.055 A 
ATOM     14  C   UNL A   1      27.962  28.378  23.173  1.00  0.00     0.012 A 
ATOM     15  C   UNL A   1      30.237  28.969  22.562  1.00  0.00    -0.015 A 
ATOM     16  C   UNL A   1      29.341  28.138  23.262  1.00  0.00    -0.018 A 
ATOM     17  C   UNL A   1      31.609  28.680  22.614  1.00  0.00     0.009 A 
ATOM     18  C   UNL A   1      29.839  27.066  24.018  1.00  0.00     0.013 A 
ATOM     19  C   UNL A   1      32.078  27.561  23.310  1.00  0.00     0.005 A 
BRANCH  11  20
ATOM     20  O   UNL A   1      27.978  31.391  21.032  1.00  0.00    -0.497 OA
ATOM     21  C   UNL A   1      28.227  32.651  21.648  1.00  0.00     0.278 C 
ENDBRANCH  11  20
ENDBRANCH   8  10
ENDBRANCH   5   8
ENDBRANCH   3   4
ENDBRANCH   2   3
ENDBRANCH   1   2
BRANCH   1  22
ATOM     22  C   UNL A   1      31.359  30.975  25.883  1.00  0.00     0.002 C 
BRANCH  22  23
ATOM     23  C   UNL A   1      31.216  32.372  26.495  1.00  0.00     0.021 C 
BRANCH  23  24
ATOM     24  C   UNL A   1      32.457  32.889  27.217  1.00  0.00     0.116 C 
BRANCH  24  25
ATOM     25  N   UNL A   1      32.320  34.284  27.605  1.00  0.00    -0.352 N 
ATOM     26  C   UNL A   1      32.953  34.988  28.598  1.00  0.00     0.251 C 
ATOM     27  H   UNL A   1      31.672  34.802  27.075  1.00  0.00     0.163 HD
ATOM     28  O   UNL A   1      32.544  36.098  28.923  1.00  0.00    -0.269 OA
BRANCH  26  29
ATOM     29  C   UNL A   1      34.128  34.413  29.288  1.00  0.00     0.039 A 
ATOM     30  C   UNL A   1      33.951  33.815  30.540  1.00  0.00     0.014 A 
ATOM     31  C   UNL A   1      35.406  34.502  28.730  1.00  0.00     0.014 A 
ATOM     32  C   UNL A   1      35.046  33.258  31.205  1.00  0.00     0.010 A 
ATOM     33  C   UNL A   1      36.487  33.893  29.365  1.00  0.00     0.010 A 
ATOM     34  C   UNL A   1      36.317  33.269  30.610  1.00  0.00    -0.014 A 
BRANCH  34  35
ATOM     35  C   UNL A   1      37.484  32.639  31.278  1.00  0.00     0.031 A 
ATOM     36  C   UNL A   1      38.219  31.511  30.609  1.00  0.00     0.074 A 
ATOM     37  C   UNL A   1      37.840  33.037  32.514  1.00  0.00     0.049 A 
ATOM     38  N   UNL A   1      39.206  30.779  31.064  1.00  0.00    -0.248 NA
ATOM     39  C   UNL A   1      37.768  31.139  29.259  1.00  0.00     0.031 C 
ATOM     40  C   UNL A   1      37.182  34.093  33.283  1.00  0.00     0.029 A 
ATOM     41  N   UNL A   1      38.836  32.591  33.347  1.00  0.00    -0.354 N 
ATOM     42  C   UNL A   1      39.481  29.854  30.065  1.00  0.00     0.074 A 
ATOM     43  C   UNL A   1      38.527  30.084  29.001  1.00  0.00     0.031 C 
ATOM     44  C   UNL A   1      37.801  34.227  34.467  1.00  0.00     0.029 A 
ATOM     45  C   UNL A   1      38.876  33.242  34.555  1.00  0.00     0.049 A 
ATOM     46  H   UNL A   1      39.464  31.873  33.100  1.00  0.00     0.167 HD
ATOM     47  C   UNL A   1      40.455  28.912  30.031  1.00  0.00     0.037 A 
ATOM     48  C   UNL A   1      39.683  33.060  35.618  1.00  0.00     0.037 A 
ATOM     49  C   UNL A   1      41.419  28.705  31.078  1.00  0.00     0.049 A 
ATOM     50  C   UNL A   1      40.752  32.003  35.556  1.00  0.00     0.074 A 
ATOM     51  C   UNL A   1      42.481  27.818  31.112  1.00  0.00     0.029 A 
ATOM     52  N   UNL A   1      41.438  29.396  32.282  1.00  0.00    -0.354 N 
ATOM     53  N   UNL A   1      41.041  31.174  34.582  1.00  0.00    -0.248 NA
ATOM     54  C   UNL A   1      41.610  31.860  36.740  1.00  0.00     0.031 C 
ATOM     55  C   UNL A   1      43.117  27.942  32.352  1.00  0.00     0.029 A 
ATOM     56  C   UNL A   1      42.480  28.940  33.073  1.00  0.00     0.049 A 
ATOM     57  H   UNL A   1      40.805  30.106  32.535  1.00  0.00     0.167 HD
ATOM     58  C   UNL A   1      42.130  30.434  35.022  1.00  0.00     0.074 A 
ATOM     59  C   UNL A   1      42.457  30.919  36.347  1.00  0.00     0.031 C 
ATOM     60  C   UNL A   1      42.797  29.440  34.386  1.00  0.00     0.037 A 
BRANCH  47  61
ATOM     61  C   UNL A   1      40.526  28.034  28.815  1.00  0.00     0.064 A 
ATOM     62  C   UNL A   1      39.823  26.821  28.741  1.00  0.00     0.173 A 
ATOM     63  C   UNL A   1      41.278  28.424  27.697  1.00  0.00     0.173 A 
ATOM     64  F   UNL A   1      39.099  26.397  29.787  1.00  0.00    -0.203 F 
ATOM     65  C   UNL A   1      39.895  26.020  27.605  1.00  0.00     0.198 A 
ATOM     66  C   UNL A   1      41.324  27.634  26.551  1.00  0.00     0.198 A 
ATOM     67  F   UNL A   1      41.965  29.577  27.712  1.00  0.00    -0.203 F 
ATOM     68  F   UNL A   1      39.255  24.842  27.577  1.00  0.00    -0.200 F 
ATOM     69  C   UNL A   1      40.639  26.429  26.509  1.00  0.00     0.200 A 
ATOM     70  F   UNL A   1      42.033  28.038  25.488  1.00  0.00    -0.200 F 
ATOM     71  F   UNL A   1      40.702  25.658  25.414  1.00  0.00    -0.200 F 
ENDBRANCH  47  61
BRANCH  48  72
ATOM     72  C   UNL A   1      39.527  33.913  36.822  1.00  0.00     0.064 A 
ATOM     73  C   UNL A   1      40.147  35.168  36.898  1.00  0.00     0.173 A 
ATOM     74  C   UNL A   1      38.759  33.497  37.920  1.00  0.00     0.173 A 
ATOM     75  F   UNL A   1      40.908  35.600  35.882  1.00  0.00    -0.203 F 
ATOM     76  C   UNL A   1      40.021  35.966  38.034  1.00  0.00     0.198 A 
ATOM     77  C   UNL A   1      38.612  34.307  39.044  1.00  0.00     0.198 A 
ATOM     78  F   UNL A   1      38.141  32.307  37.895  1.00  0.00    -0.203 F 
ATOM     79  F   UNL A   1      40.660  37.142  38.097  1.00  0.00    -0.200 F 
ATOM     80  C   UNL A   1      39.249  35.538  39.103  1.00  0.00     0.200 A 
ATOM     81  F   UNL A   1      37.854  33.896  40.069  1.00  0.00    -0.200 F 
ATOM     82  F   UNL A   1      39.126  36.306  40.193  1.00  0.00    -0.200 F 
ENDBRANCH  48  72
BRANCH  60  83
ATOM     83  C   UNL A   1      43.969  28.833  35.100  1.00  0.00     0.064 A 
ATOM     84  C   UNL A   1      45.261  29.364  34.977  1.00  0.00     0.173 A 
ATOM     85  C   UNL A   1      43.789  27.727  35.946  1.00  0.00     0.173 A 
ATOM     86  F   UNL A   1      45.486  30.410  34.167  1.00  0.00    -0.203 F 
ATOM     87  C   UNL A   1      46.335  28.796  35.657  1.00  0.00     0.198 A 
ATOM     88  C   UNL A   1      44.860  27.180  36.646  1.00  0.00     0.198 A 
ATOM     89  F   UNL A   1      42.572  27.186  36.101  1.00  0.00    -0.203 F 
ATOM     90  F   UNL A   1      47.569  29.292  35.489  1.00  0.00    -0.200 F 
ATOM     91  C   UNL A   1      46.133  27.710  36.497  1.00  0.00     0.200 A 
ATOM     92  F   UNL A   1      44.661  26.139  37.466  1.00  0.00    -0.200 F 
ATOM     93  F   UNL A   1      47.167  27.169  37.155  1.00  0.00    -0.200 F 
ENDBRANCH  60  83
ENDBRANCH  34  35
ENDBRANCH  26  29
ENDBRANCH  24  25
ENDBRANCH  23  24
ENDBRANCH  22  23
ENDBRANCH   1  22
TORSDOF 15
ENDMDL
MODEL 2
REMARK VINA RESULT:     -12.3      6.031     11.561
REMARK SMILES COc1ccc2cc([C@@H](C)C(=O)NCCCCCCNC(=O)c3ccc(-c4c5nc(c(-c6c(F)c(F)c(F)c(F)c6F)c6ccc([nH]6)c(-c6c(F)c(F)c(F)c(F)c6F)c6nc(c(-c7c(F)c(F)c(F)c(F)c7F)c7ccc4[nH]7)C=C6)C=C5)cc3)ccc2c1
REMARK SMILES IDX 16 1 15 2 14 3 13 4 11 5 12 6 9 8 10 9 8 10 3 11 4 12 89 13
REMARK SMILES IDX 5 14 88 15 6 16 87 17 7 18 86 19 2 20 1 21 17 22 18 23 19 24
REMARK SMILES IDX 20 25 21 26 22 28 23 29 24 30 85 31 25 32 84 33 26 34 27 35
REMARK SMILES IDX 28 36 78 37 29 38 83 39 77 40 79 41 30 42 82 43 76 44 75 45
REMARK SMILES IDX 31 47 63 48 43 49 62 50 44 51 47 52 61 53 80 54 45 55 46 56
REMARK SMILES IDX 60 58 81 59 48 60 32 61 33 62 41 63 34 64 35 65 39 66 42 67
REMARK SMILES IDX 36 68 37 69 40 70 38 71 64 72 65 73 73 74 66 75 67 76 71 77
REMARK SMILES IDX 74 78 68 79 69 80 72 81 70 82 49 83 50 84 58 85 51 86 52 87
REMARK SMILES IDX 56 88 59 89 53 90 54 91 57 92 55 93
REMARK H PARENT 13 7 20 27 79 46 47 57
REMARK Flexibility Score: inf
ROOT
ATOM      1  C   UNL A   1      36.719  21.940  24.577  1.00  0.00     0.002 C 
ENDROOT
BRANCH   1   2
ATOM      2  C   UNL A   1      36.190  22.954  25.596  1.00  0.00     0.021 C 
BRANCH   2   3
ATOM      3  C   UNL A   1      35.460  24.145  24.968  1.00  0.00     0.116 C 
BRANCH   3   4
ATOM      4  N   UNL A   1      34.323  24.555  25.765  1.00  0.00    -0.356 N 
ATOM      5  C   UNL A   1      32.985  24.362  25.615  1.00  0.00     0.227 C 
ATOM      6  O   UNL A   1      32.257  24.939  26.433  1.00  0.00    -0.274 OA
ATOM      7  H   UNL A   1      34.564  25.069  26.570  1.00  0.00     0.163 HD
BRANCH   5   8
ATOM      8  C   UNL A   1      32.356  23.478  24.525  1.00  0.00     0.105 C 
ATOM      9  C   UNL A   1      30.910  23.833  24.183  1.00  0.00     0.023 C 
BRANCH   8  10
ATOM     10  C   UNL A   1      32.646  21.995  24.697  1.00  0.00    -0.035 A 
ATOM     11  C   UNL A   1      33.056  16.946  24.200  1.00  0.00     0.119 A 
ATOM     12  C   UNL A   1      32.735  17.443  22.938  1.00  0.00     0.047 A 
ATOM     13  C   UNL A   1      33.180  17.825  25.279  1.00  0.00     0.055 A 
ATOM     14  C   UNL A   1      32.605  18.819  22.745  1.00  0.00     0.012 A 
ATOM     15  C   UNL A   1      33.025  19.210  25.105  1.00  0.00    -0.015 A 
ATOM     16  C   UNL A   1      32.759  19.711  23.816  1.00  0.00    -0.018 A 
ATOM     17  C   UNL A   1      33.118  20.112  26.175  1.00  0.00     0.009 A 
ATOM     18  C   UNL A   1      32.627  21.094  23.625  1.00  0.00     0.013 A 
ATOM     19  C   UNL A   1      32.907  21.481  25.977  1.00  0.00     0.005 A 
BRANCH  11  20
ATOM     20  O   UNL A   1      33.232  15.620  24.489  1.00  0.00    -0.497 OA
ATOM     21  C   UNL A   1      32.451  15.135  25.577  1.00  0.00     0.278 C 
ENDBRANCH  11  20
ENDBRANCH   8  10
ENDBRANCH   5   8
ENDBRANCH   3   4
ENDBRANCH   2   3
ENDBRANCH   1   2
BRANCH   1  22
ATOM     22  C   UNL A   1      36.530  20.468  24.968  1.00  0.00     0.002 C 
BRANCH  22  23
ATOM     23  C   UNL A   1      37.794  19.603  24.926  1.00  0.00     0.021 C 
BRANCH  23  24
ATOM     24  C   UNL A   1      38.982  20.160  25.706  1.00  0.00     0.116 C 
BRANCH  24  25
ATOM     25  N   UNL A   1      40.035  19.171  25.873  1.00  0.00    -0.352 N 
ATOM     26  C   UNL A   1      41.382  19.345  26.071  1.00  0.00     0.251 C 
ATOM     27  H   UNL A   1      39.736  18.233  25.838  1.00  0.00     0.163 HD
ATOM     28  O   UNL A   1      42.148  18.392  25.964  1.00  0.00    -0.269 OA
BRANCH  26  29
ATOM     29  C   UNL A   1      41.922  20.679  26.406  1.00  0.00     0.039 A 
ATOM     30  C   UNL A   1      42.180  21.584  25.372  1.00  0.00     0.014 A 
ATOM     31  C   UNL A   1      42.217  21.024  27.728  1.00  0.00     0.014 A 
ATOM     32  C   UNL A   1      42.682  22.854  25.669  1.00  0.00     0.010 A 
ATOM     33  C   UNL A   1      42.660  22.312  28.029  1.00  0.00     0.010 A 
ATOM     34  C   UNL A   1      42.901  23.237  27.001  1.00  0.00    -0.014 A 
BRANCH  34  35
ATOM     35  C   UNL A   1      43.386  24.598  27.341  1.00  0.00     0.031 A 
ATOM     36  C   UNL A   1      42.442  25.614  27.919  1.00  0.00     0.074 A 
ATOM     37  C   UNL A   1      44.659  24.939  27.066  1.00  0.00     0.049 A 
ATOM     38  N   UNL A   1      42.654  26.876  28.203  1.00  0.00    -0.248 NA
ATOM     39  C   UNL A   1      41.069  25.161  28.191  1.00  0.00     0.031 C 
ATOM     40  C   UNL A   1      45.661  24.055  26.469  1.00  0.00     0.029 A 
ATOM     41  N   UNL A   1      45.327  26.126  27.241  1.00  0.00    -0.354 N 
ATOM     42  C   UNL A   1      41.441  27.367  28.670  1.00  0.00     0.074 A 
ATOM     43  C   UNL A   1      40.486  26.283  28.586  1.00  0.00     0.031 C 
ATOM     44  C   UNL A   1      46.819  24.723  26.343  1.00  0.00     0.029 A 
ATOM     45  C   UNL A   1      46.632  26.092  26.816  1.00  0.00     0.049 A 
ATOM     46  H   UNL A   1      44.909  26.926  27.635  1.00  0.00     0.167 HD
ATOM     47  C   UNL A   1      41.157  28.603  29.146  1.00  0.00     0.037 A 
ATOM     48  C   UNL A   1      47.570  27.057  26.802  1.00  0.00     0.037 A 
ATOM     49  C   UNL A   1      42.117  29.670  29.254  1.00  0.00     0.049 A 
ATOM     50  C   UNL A   1      47.227  28.423  27.331  1.00  0.00     0.074 A 
ATOM     51  C   UNL A   1      41.941  30.939  29.778  1.00  0.00     0.029 A 
ATOM     52  N   UNL A   1      43.435  29.592  28.829  1.00  0.00    -0.354 N 
ATOM     53  N   UNL A   1      46.093  28.858  27.825  1.00  0.00    -0.248 NA
ATOM     54  C   UNL A   1      48.295  29.432  27.302  1.00  0.00     0.031 C 
ATOM     55  C   UNL A   1      43.141  31.644  29.631  1.00  0.00     0.029 A 
ATOM     56  C   UNL A   1      44.079  30.797  29.059  1.00  0.00     0.049 A 
ATOM     57  H   UNL A   1      43.851  28.797  28.424  1.00  0.00     0.167 HD
ATOM     58  C   UNL A   1      46.319  30.178  28.193  1.00  0.00     0.074 A 
ATOM     59  C   UNL A   1      47.702  30.469  27.876  1.00  0.00     0.031 C 
ATOM     60  C   UNL A   1      45.458  31.068  28.744  1.00  0.00     0.037 A 
BRANCH  47  61
ATOM     61  C   UNL A   1      39.747  28.868  29.588  1.00  0.00     0.064 A 
ATOM     62  C   UNL A   1      39.330  28.620  30.905  1.00  0.00     0.173 A 
ATOM     63  C   UNL A   1      38.809  29.408  28.695  1.00  0.00     0.173 A 
ATOM     64  F   UNL A   1      40.184  28.094  31.795  1.00  0.00    -0.203 F 
ATOM     65  C   UNL A   1      38.021  28.876  31.302  1.00  0.00     0.198 A 
ATOM     66  C   UNL A   1      37.508  29.689  29.104  1.00  0.00     0.198 A 
ATOM     67  F   UNL A   1      39.156  29.669  27.425  1.00  0.00    -0.203 F 
ATOM     68  F   UNL A   1      37.632  28.584  32.552  1.00  0.00    -0.200 F 
ATOM     69  C   UNL A   1      37.113  29.416  30.404  1.00  0.00     0.200 A 
ATOM     70  F   UNL A   1      36.636  30.223  28.237  1.00  0.00    -0.200 F 
ATOM     71  F   UNL A   1      35.854  29.666  30.790  1.00  0.00    -0.200 F 
ENDBRANCH  47  61
BRANCH  48  72
ATOM     72  C   UNL A   1      48.933  26.760  26.292  1.00  0.00     0.064 A 
ATOM     73  C   UNL A   1      49.267  27.006  24.953  1.00  0.00     0.173 A 
ATOM     74  C   UNL A   1      49.926  26.225  27.125  1.00  0.00     0.173 A 
ATOM     75  F   UNL A   1      48.344  27.497  24.113  1.00  0.00    -0.203 F 
ATOM     76  C   UNL A   1      50.537  26.711  24.462  1.00  0.00     0.198 A 
ATOM     77  C   UNL A   1      51.204  25.956  26.640  1.00  0.00     0.198 A 
ATOM     78  F   UNL A   1      49.658  25.977  28.415  1.00  0.00    -0.203 F 
ATOM     79  F   UNL A   1      50.816  26.916  23.168  1.00  0.00    -0.200 F 
ATOM     80  C   UNL A   1      51.506  26.192  25.307  1.00  0.00     0.200 A 
ATOM     81  F   UNL A   1      52.141  25.468  27.463  1.00  0.00    -0.200 F 
ATOM     82  F   UNL A   1      52.728  25.912  24.836  1.00  0.00    -0.200 F 
ENDBRANCH  48  72
BRANCH  60  83
ATOM     83  C   UNL A   1      45.994  32.431  29.069  1.00  0.00     0.064 A 
ATOM     84  C   UNL A   1      46.579  32.714  30.312  1.00  0.00     0.173 A 
ATOM     85  C   UNL A   1      45.954  33.456  28.112  1.00  0.00     0.173 A 
ATOM     86  F   UNL A   1      46.625  31.772  31.266  1.00  0.00    -0.203 F 
ATOM     87  C   UNL A   1      47.083  33.982  30.592  1.00  0.00     0.198 A 
ATOM     88  C   UNL A   1      46.484  34.713  28.386  1.00  0.00     0.198 A 
ATOM     89  F   UNL A   1      45.410  33.234  26.906  1.00  0.00    -0.203 F 
ATOM     90  F   UNL A   1      47.596  34.243  31.803  1.00  0.00    -0.200 F 
ATOM     91  C   UNL A   1      47.042  34.977  29.627  1.00  0.00     0.200 A 
ATOM     92  F   UNL A   1      46.455  35.670  27.448  1.00  0.00    -0.200 F 
ATOM     93  F   UNL A   1      47.533  36.194  29.898  1.00  0.00    -0.200 F 
ENDBRANCH  60  83
ENDBRANCH  34  35
ENDBRANCH  26  29
ENDBRANCH  24  25
ENDBRANCH  23  24
ENDBRANCH  22  23
ENDBRANCH   1  22
TORSDOF 15
ENDMDL
MODEL 3
REMARK VINA RESULT:     -12.2      6.101     11.663
REMARK SMILES COc1ccc2cc([C@@H](C)C(=O)NCCCCCCNC(=O)c3ccc(-c4c5nc(c(-c6c(F)c(F)c(F)c(F)c6F)c6ccc([nH]6)c(-c6c(F)c(F)c(F)c(F)c6F)c6nc(c(-c7c(F)c(F)c(F)c(F)c7F)c7ccc4[nH]7)C=C6)C=C5)cc3)ccc2c1
REMARK SMILES IDX 16 1 15 2 14 3 13 4 11 5 12 6 9 8 10 9 8 10 3 11 4 12 89 13
REMARK SMILES IDX 5 14 88 15 6 16 87 17 7 18 86 19 2 20 1 21 17 22 18 23 19 24
REMARK SMILES IDX 20 25 21 26 22 28 23 29 24 30 85 31 25 32 84 33 26 34 27 35
REMARK SMILES IDX 28 36 78 37 29 38 83 39 77 40 79 41 30 42 82 43 76 44 75 45
REMARK SMILES IDX 31 47 63 48 43 49 62 50 44 51 47 52 61 53 80 54 45 55 46 56
REMARK SMILES IDX 60 58 81 59 48 60 32 61 33 62 41 63 34 64 35 65 39 66 42 67
REMARK SMILES IDX 36 68 37 69 40 70 38 71 64 72 65 73 73 74 66 75 67 76 71 77
REMARK SMILES IDX 74 78 68 79 69 80 72 81 70 82 49 83 50 84 58 85 51 86 52 87
REMARK SMILES IDX 56 88 59 89 53 90 54 91 57 92 55 93
REMARK H PARENT 13 7 20 27 79 46 47 57
REMARK Flexibility Score: inf
ROOT
ATOM      1  C   UNL A   1      36.773  21.885  24.513  1.00  0.00     0.002 C 
ENDROOT
BRANCH   1   2
ATOM      2  C   UNL A   1      36.339  22.968  25.506  1.00  0.00     0.021 C 
BRANCH   2   3
ATOM      3  C   UNL A   1      35.550  24.117  24.869  1.00  0.00     0.116 C 
BRANCH   3   4
ATOM      4  N   UNL A   1      34.421  24.506  25.687  1.00  0.00    -0.356 N 
ATOM      5  C   UNL A   1      33.085  24.284  25.566  1.00  0.00     0.227 C 
ATOM      6  O   UNL A   1      32.361  24.849  26.395  1.00  0.00    -0.274 OA
ATOM      7  H   UNL A   1      34.667  25.031  26.484  1.00  0.00     0.163 HD
BRANCH   5   8
ATOM      8  C   UNL A   1      32.453  23.380  24.494  1.00  0.00     0.105 C 
ATOM      9  C   UNL A   1      31.010  23.736  24.140  1.00  0.00     0.023 C 
BRANCH   8  10
ATOM     10  C   UNL A   1      32.734  21.899  24.698  1.00  0.00    -0.035 A 
ATOM     11  C   UNL A   1      33.117  16.839  24.311  1.00  0.00     0.119 A 
ATOM     12  C   UNL A   1      32.802  17.310  23.038  1.00  0.00     0.047 A 
ATOM     13  C   UNL A   1      33.242  17.739  25.372  1.00  0.00     0.055 A 
ATOM     14  C   UNL A   1      32.681  18.682  22.815  1.00  0.00     0.012 A 
ATOM     15  C   UNL A   1      33.096  19.122  25.168  1.00  0.00    -0.015 A 
ATOM     16  C   UNL A   1      32.837  19.596  23.867  1.00  0.00    -0.018 A 
ATOM     17  C   UNL A   1      33.191  20.046  26.219  1.00  0.00     0.009 A 
ATOM     18  C   UNL A   1      32.713  20.976  23.646  1.00  0.00     0.013 A 
ATOM     19  C   UNL A   1      32.988  21.412  25.990  1.00  0.00     0.005 A 
BRANCH  11  20
ATOM     20  O   UNL A   1      33.285  15.518  24.630  1.00  0.00    -0.497 OA
ATOM     21  C   UNL A   1      32.528  15.071  25.750  1.00  0.00     0.278 C 
ENDBRANCH  11  20
ENDBRANCH   8  10
ENDBRANCH   5   8
ENDBRANCH   3   4
ENDBRANCH   2   3
ENDBRANCH   1   2
BRANCH   1  22
ATOM     22  C   UNL A   1      36.582  20.443  25.001  1.00  0.00     0.002 C 
BRANCH  22  23
ATOM     23  C   UNL A   1      37.841  19.570  25.000  1.00  0.00     0.021 C 
BRANCH  23  24
ATOM     24  C   UNL A   1      39.024  20.144  25.775  1.00  0.00     0.116 C 
BRANCH  24  25
ATOM     25  N   UNL A   1      40.085  19.166  25.952  1.00  0.00    -0.352 N 
ATOM     26  C   UNL A   1      41.434  19.352  26.126  1.00  0.00     0.251 C 
ATOM     27  H   UNL A   1      39.792  18.226  25.943  1.00  0.00     0.163 HD
ATOM     28  O   UNL A   1      42.204  18.401  26.032  1.00  0.00    -0.269 OA
BRANCH  26  29
ATOM     29  C   UNL A   1      41.970  20.697  26.422  1.00  0.00     0.039 A 
ATOM     30  C   UNL A   1      42.269  21.555  25.359  1.00  0.00     0.014 A 
ATOM     31  C   UNL A   1      42.222  21.099  27.737  1.00  0.00     0.014 A 
ATOM     32  C   UNL A   1      42.769  22.834  25.616  1.00  0.00     0.010 A 
ATOM     33  C   UNL A   1      42.662  22.396  27.996  1.00  0.00     0.010 A 
ATOM     34  C   UNL A   1      42.943  23.273  26.938  1.00  0.00    -0.014 A 
BRANCH  34  35
ATOM     35  C   UNL A   1      43.425  24.646  27.234  1.00  0.00     0.031 A 
ATOM     36  C   UNL A   1      42.482  25.674  27.794  1.00  0.00     0.074 A 
ATOM     37  C   UNL A   1      44.694  24.986  26.938  1.00  0.00     0.049 A 
ATOM     38  N   UNL A   1      42.690  26.944  28.040  1.00  0.00    -0.248 NA
ATOM     39  C   UNL A   1      41.114  25.221  28.091  1.00  0.00     0.031 C 
ATOM     40  C   UNL A   1      45.694  24.090  26.356  1.00  0.00     0.029 A 
ATOM     41  N   UNL A   1      45.357  26.180  27.073  1.00  0.00    -0.354 N 
ATOM     42  C   UNL A   1      41.480  27.441  28.505  1.00  0.00     0.074 A 
ATOM     43  C   UNL A   1      40.529  26.351  28.461  1.00  0.00     0.031 C 
ATOM     44  C   UNL A   1      46.847  24.759  26.200  1.00  0.00     0.029 A 
ATOM     45  C   UNL A   1      46.659  26.140  26.636  1.00  0.00     0.049 A 
ATOM     46  H   UNL A   1      44.939  26.989  27.448  1.00  0.00     0.167 HD
ATOM     47  C   UNL A   1      41.194  28.690  28.949  1.00  0.00     0.037 A 
ATOM     48  C   UNL A   1      47.592  27.109  26.586  1.00  0.00     0.037 A 
ATOM     49  C   UNL A   1      42.149  29.763  29.018  1.00  0.00     0.049 A 
ATOM     50  C   UNL A   1      47.247  28.488  27.079  1.00  0.00     0.074 A 
ATOM     51  C   UNL A   1      41.973  31.046  29.508  1.00  0.00     0.029 A 
ATOM     52  N   UNL A   1      43.464  29.680  28.582  1.00  0.00    -0.354 N 
ATOM     53  N   UNL A   1      46.116  28.931  27.573  1.00  0.00    -0.248 NA
ATOM     54  C   UNL A   1      48.309  29.500  27.012  1.00  0.00     0.031 C 
ATOM     55  C   UNL A   1      43.168  31.752  29.329  1.00  0.00     0.029 A 
ATOM     56  C   UNL A   1      44.104  30.894  28.772  1.00  0.00     0.049 A 
ATOM     57  H   UNL A   1      43.880  28.876  28.196  1.00  0.00     0.167 HD
ATOM     58  C   UNL A   1      46.339  30.262  27.901  1.00  0.00     0.074 A 
ATOM     59  C   UNL A   1      47.717  30.551  27.562  1.00  0.00     0.031 C 
ATOM     60  C   UNL A   1      45.479  31.163  28.436  1.00  0.00     0.037 A 
BRANCH  47  61
ATOM     61  C   UNL A   1      39.787  28.960  29.398  1.00  0.00     0.064 A 
ATOM     62  C   UNL A   1      39.383  28.744  30.724  1.00  0.00     0.173 A 
ATOM     63  C   UNL A   1      38.839  29.473  28.500  1.00  0.00     0.173 A 
ATOM     64  F   UNL A   1      40.248  28.244  31.619  1.00  0.00    -0.203 F 
ATOM     65  C   UNL A   1      38.077  29.005  31.127  1.00  0.00     0.198 A 
ATOM     66  C   UNL A   1      37.540  29.760  28.914  1.00  0.00     0.198 A 
ATOM     67  F   UNL A   1      39.173  29.703  27.220  1.00  0.00    -0.203 F 
ATOM     68  F   UNL A   1      37.702  28.744  32.388  1.00  0.00    -0.200 F 
ATOM     69  C   UNL A   1      37.158  29.518  30.224  1.00  0.00     0.200 A 
ATOM     70  F   UNL A   1      36.658  30.267  28.042  1.00  0.00    -0.200 F 
ATOM     71  F   UNL A   1      35.902  29.773  30.616  1.00  0.00    -0.200 F 
ENDBRANCH  47  61
BRANCH  48  72
ATOM     72  C   UNL A   1      48.950  26.804  26.070  1.00  0.00     0.064 A 
ATOM     73  C   UNL A   1      49.946  26.305  26.922  1.00  0.00     0.173 A 
ATOM     74  C   UNL A   1      49.284  27.005  24.723  1.00  0.00     0.173 A 
ATOM     75  F   UNL A   1      49.680  26.117  28.223  1.00  0.00    -0.203 F 
ATOM     76  C   UNL A   1      51.229  26.036  26.450  1.00  0.00     0.198 A 
ATOM     77  C   UNL A   1      50.560  26.710  24.246  1.00  0.00     0.198 A 
ATOM     78  F   UNL A   1      48.366  27.476  23.866  1.00  0.00    -0.203 F 
ATOM     79  F   UNL A   1      52.173  25.601  27.295  1.00  0.00    -0.200 F 
ATOM     80  C   UNL A   1      51.533  26.232  25.112  1.00  0.00     0.200 A 
ATOM     81  F   UNL A   1      50.845  26.888  22.950  1.00  0.00    -0.200 F 
ATOM     82  F   UNL A   1      52.765  25.970  24.657  1.00  0.00    -0.200 F 
ENDBRANCH  48  72
BRANCH  60  83
ATOM     83  C   UNL A   1      46.011  32.537  28.717  1.00  0.00     0.064 A 
ATOM     84  C   UNL A   1      45.912  33.571  27.775  1.00  0.00     0.173 A 
ATOM     85  C   UNL A   1      46.594  32.831  29.959  1.00  0.00     0.173 A 
ATOM     86  F   UNL A   1      45.378  33.335  26.567  1.00  0.00    -0.203 F 
ATOM     87  C   UNL A   1      46.400  34.844  28.058  1.00  0.00     0.198 A 
ATOM     88  C   UNL A   1      47.054  34.112  30.249  1.00  0.00     0.198 A 
ATOM     89  F   UNL A   1      46.707  31.878  30.896  1.00  0.00    -0.203 F 
ATOM     90  F   UNL A   1      46.337  35.806  27.126  1.00  0.00    -0.200 F 
ATOM     91  C   UNL A   1      46.963  35.116  29.296  1.00  0.00     0.200 A 
ATOM     92  F   UNL A   1      47.587  34.376  31.450  1.00  0.00    -0.200 F 
ATOM     93  F   UNL A   1      47.426  36.343  29.568  1.00  0.00    -0.200 F 
ENDBRANCH  60  83
ENDBRANCH  34  35
ENDBRANCH  26  29
ENDBRANCH  24  25
ENDBRANCH  23  24
ENDBRANCH  22  23
ENDBRANCH   1  22
TORSDOF 15
ENDMDL
