MODEL 1
REMARK VINA RESULT:     -11.0      0.000      0.000
REMARK SMILES C=CCN(CC(=O)NCCCCCCNC(=O)c1ccc(-c2c3nc(c(-c4c(F)c(F)c(F)c(F)c4F)c4ccc([nH]4)c(-c4c(F)c(F)c(F)c(F)c4F)c4nc(c(-c5c(F)c(F)c(F)c(F)c5F)c5ccc2[nH]5)C=C4)C=C3)cc1)C(=O)c1cn(C2C[NH2+]C2)nn1
REMARK SMILES IDX 10 1 9 2 8 3 6 4 7 5 5 7 4 8 3 9 2 10 1 11 81 12 82 13 83 14
REMARK SMILES IDX 84 15 91 16 85 17 90 18 86 19 87 20 89 21 88 22 11 25 12 26
REMARK SMILES IDX 13 27 14 28 15 29 16 30 17 32 18 33 19 34 80 35 20 36 79 37
REMARK SMILES IDX 21 38 22 39 23 40 73 41 24 42 78 43 72 44 74 45 25 46 77 47
REMARK SMILES IDX 71 48 70 49 26 51 58 52 38 53 57 54 39 55 42 56 56 57 75 58
REMARK SMILES IDX 40 59 41 60 55 62 76 63 43 64 27 65 28 66 36 67 29 68 30 69
REMARK SMILES IDX 34 70 37 71 31 72 32 73 35 74 33 75 59 76 60 77 68 78 61 79
REMARK SMILES IDX 62 80 66 81 69 82 63 83 64 84 67 85 65 86 44 87 45 88 53 89
REMARK SMILES IDX 46 90 47 91 51 92 54 93 48 94 49 95 52 96 50 97
REMARK H PARENT 8 6 88 23 88 24 15 31 74 50 42 61
REMARK Flexibility Score: inf
ROOT
ATOM      1  C   UNL A   1      34.825  31.329  27.856  1.00  0.00     0.021 C 
ENDROOT
BRANCH   1   2
ATOM      2  C   UNL A   1      33.669  30.596  27.178  1.00  0.00     0.116 C 
BRANCH   2   3
ATOM      3  N   UNL A   1      34.094  29.684  26.140  1.00  0.00    -0.355 N 
ATOM      4  C   UNL A   1      33.381  29.061  25.162  1.00  0.00     0.239 C 
ATOM      5  O   UNL A   1      34.028  28.582  24.224  1.00  0.00    -0.273 OA
ATOM      6  H   UNL A   1      35.057  29.479  26.141  1.00  0.00     0.163 HD
BRANCH   4   7
ATOM      7  C   UNL A   1      31.841  29.046  25.117  1.00  0.00     0.220 C 
BRANCH   7   8
ATOM      8  N   UNL A   1      31.172  27.759  25.345  1.00  0.00    -0.324 N 
BRANCH   8   9
ATOM      9  C   UNL A   1      30.431  27.163  24.241  1.00  0.00     0.147 C 
BRANCH   9  10
ATOM     10  C   UNL A   1      30.047  28.201  23.233  1.00  0.00    -0.014 C 
ATOM     11  C   UNL A   1      28.776  28.569  23.012  1.00  0.00     0.006 C 
ENDBRANCH   9  10
ENDBRANCH   8   9
BRANCH   8  12
ATOM     12  C   UNL A   1      31.317  27.007  26.522  1.00  0.00     0.276 C 
ATOM     13  O   UNL A   1      31.028  27.464  27.626  1.00  0.00    -0.267 OA
BRANCH  12  14
ATOM     14  C   UNL A   1      31.864  25.662  26.409  1.00  0.00     0.170 A 
ATOM     15  C   UNL A   1      33.070  25.280  25.855  1.00  0.00     0.145 A 
ATOM     16  N   UNL A   1      31.242  24.551  26.919  1.00  0.00    -0.125 NA
ATOM     17  N   UNL A   1      33.099  23.922  26.011  1.00  0.00    -0.237 N 
ATOM     18  N   UNL A   1      32.004  23.493  26.666  1.00  0.00    -0.066 NA
BRANCH  17  19
ATOM     19  C   UNL A   1      34.103  23.005  25.558  1.00  0.00     0.218 C 
ATOM     20  C   UNL A   1      35.504  23.327  26.128  1.00  0.00     0.294 C 
ATOM     21  C   UNL A   1      34.241  21.711  26.388  1.00  0.00     0.294 C 
ATOM     22  N   UNL A   1      35.711  21.880  26.361  1.00  0.00    -0.342 N 
ATOM     23  H   UNL A   1      36.177  21.657  27.241  1.00  0.00     0.346 HD
ATOM     24  H   UNL A   1      36.294  21.323  25.736  1.00  0.00     0.346 HD
ENDBRANCH  17  19
ENDBRANCH  12  14
ENDBRANCH   8  12
ENDBRANCH   7   8
ENDBRANCH   4   7
ENDBRANCH   2   3
ENDBRANCH   1   2
BRANCH   1  25
ATOM     25  C   UNL A   1      34.412  32.311  28.959  1.00  0.00     0.002 C 
BRANCH  25  26
ATOM     26  C   UNL A   1      34.487  33.799  28.594  1.00  0.00     0.002 C 
BRANCH  26  27
ATOM     27  C   UNL A   1      33.220  34.611  28.865  1.00  0.00     0.021 C 
BRANCH  27  28
ATOM     28  C   UNL A   1      33.462  36.015  29.408  1.00  0.00     0.116 C 
BRANCH  28  29
ATOM     29  N   UNL A   1      32.530  36.367  30.468  1.00  0.00    -0.352 N 
ATOM     30  C   UNL A   1      32.511  35.950  31.777  1.00  0.00     0.251 C 
ATOM     31  H   UNL A   1      31.813  36.991  30.211  1.00  0.00     0.163 HD
ATOM     32  O   UNL A   1      31.554  36.206  32.501  1.00  0.00    -0.269 OA
BRANCH  30  33
ATOM     33  C   UNL A   1      33.645  35.163  32.308  1.00  0.00     0.039 A 
ATOM     34  C   UNL A   1      33.418  33.862  32.766  1.00  0.00     0.014 A 
ATOM     35  C   UNL A   1      34.930  35.709  32.342  1.00  0.00     0.014 A 
ATOM     36  C   UNL A   1      34.496  33.081  33.192  1.00  0.00     0.010 A 
ATOM     37  C   UNL A   1      36.009  34.909  32.706  1.00  0.00     0.010 A 
ATOM     38  C   UNL A   1      35.804  33.586  33.132  1.00  0.00    -0.014 A 
BRANCH  38  39
ATOM     39  C   UNL A   1      36.982  32.773  33.525  1.00  0.00     0.031 A 
ATOM     40  C   UNL A   1      37.692  33.075  34.815  1.00  0.00     0.074 A 
ATOM     41  C   UNL A   1      37.469  31.835  32.689  1.00  0.00     0.049 A 
ATOM     42  N   UNL A   1      38.839  32.628  35.257  1.00  0.00    -0.248 NA
ATOM     43  C   UNL A   1      37.033  34.035  35.717  1.00  0.00     0.031 C 
ATOM     44  C   UNL A   1      36.884  31.462  31.400  1.00  0.00     0.029 A 
ATOM     45  N   UNL A   1      38.588  31.044  32.787  1.00  0.00    -0.354 N 
ATOM     46  C   UNL A   1      39.047  33.263  36.475  1.00  0.00     0.074 A 
ATOM     47  C   UNL A   1      37.932  34.163  36.680  1.00  0.00     0.031 C 
ATOM     48  C   UNL A   1      37.649  30.519  30.827  1.00  0.00     0.029 A 
ATOM     49  C   UNL A   1      38.802  30.253  31.684  1.00  0.00     0.049 A 
ATOM     50  H   UNL A   1      39.180  31.044  33.573  1.00  0.00     0.167 HD
ATOM     51  C   UNL A   1      40.064  33.095  37.352  1.00  0.00     0.037 A 
ATOM     52  C   UNL A   1      39.826  29.430  31.387  1.00  0.00     0.037 A 
ATOM     53  C   UNL A   1      41.159  32.184  37.156  1.00  0.00     0.049 A 
ATOM     54  C   UNL A   1      40.955  29.276  32.371  1.00  0.00     0.074 A 
ATOM     55  C   UNL A   1      42.233  31.932  37.991  1.00  0.00     0.029 A 
ATOM     56  N   UNL A   1      41.312  31.365  36.048  1.00  0.00    -0.354 N 
ATOM     57  N   UNL A   1      41.130  29.864  33.530  1.00  0.00    -0.248 NA
ATOM     58  C   UNL A   1      42.032  28.341  32.009  1.00  0.00     0.031 C 
ATOM     59  C   UNL A   1      43.052  30.980  37.375  1.00  0.00     0.029 A 
ATOM     60  C   UNL A   1      42.463  30.607  36.178  1.00  0.00     0.049 A 
ATOM     61  H   UNL A   1      40.694  31.328  35.282  1.00  0.00     0.167 HD
ATOM     62  C   UNL A   1      42.307  29.344  34.050  1.00  0.00     0.074 A 
ATOM     63  C   UNL A   1      42.805  28.388  33.085  1.00  0.00     0.031 C 
ATOM     64  C   UNL A   1      42.921  29.633  35.222  1.00  0.00     0.037 A 
BRANCH  51  65
ATOM     65  C   UNL A   1      40.034  33.905  38.615  1.00  0.00     0.064 A 
ATOM     66  C   UNL A   1      39.332  33.465  39.747  1.00  0.00     0.173 A 
ATOM     67  C   UNL A   1      40.751  35.107  38.712  1.00  0.00     0.173 A 
ATOM     68  F   UNL A   1      38.620  32.328  39.700  1.00  0.00    -0.203 F 
ATOM     69  C   UNL A   1      39.329  34.209  40.923  1.00  0.00     0.198 A 
ATOM     70  C   UNL A   1      40.771  35.834  39.900  1.00  0.00     0.198 A 
ATOM     71  F   UNL A   1      41.444  35.569  37.661  1.00  0.00    -0.203 F 
ATOM     72  F   UNL A   1      38.617  33.789  41.977  1.00  0.00    -0.200 F 
ATOM     73  C   UNL A   1      40.056  35.388  41.002  1.00  0.00     0.200 A 
ATOM     74  F   UNL A   1      41.483  36.966  39.979  1.00  0.00    -0.200 F 
ATOM     75  F   UNL A   1      40.063  36.097  42.139  1.00  0.00    -0.200 F 
ENDBRANCH  51  65
BRANCH  52  76
ATOM     76  C   UNL A   1      39.840  28.684  30.100  1.00  0.00     0.064 A 
ATOM     77  C   UNL A   1      39.299  27.393  30.008  1.00  0.00     0.173 A 
ATOM     78  C   UNL A   1      40.424  29.228  28.947  1.00  0.00     0.173 A 
ATOM     79  F   UNL A   1      38.748  26.821  31.090  1.00  0.00    -0.203 F 
ATOM     80  C   UNL A   1      39.372  26.664  28.824  1.00  0.00     0.198 A 
ATOM     81  C   UNL A   1      40.468  28.509  27.754  1.00  0.00     0.198 A 
ATOM     82  F   UNL A   1      40.951  30.461  28.978  1.00  0.00    -0.203 F 
ATOM     83  F   UNL A   1      38.901  25.410  28.782  1.00  0.00    -0.200 F 
ATOM     84  C   UNL A   1      39.953  27.223  27.696  1.00  0.00     0.200 A 
ATOM     85  F   UNL A   1      41.019  29.059  26.663  1.00  0.00    -0.200 F 
ATOM     86  F   UNL A   1      40.028  26.520  26.559  1.00  0.00    -0.200 F 
ENDBRANCH  52  76
BRANCH  64  87
ATOM     87  C   UNL A   1      44.162  28.862  35.564  1.00  0.00     0.064 A 
ATOM     88  C   UNL A   1      44.110  27.660  36.284  1.00  0.00     0.173 A 
ATOM     89  C   UNL A   1      45.413  29.302  35.103  1.00  0.00     0.173 A 
ATOM     90  F   UNL A   1      42.940  27.207  36.757  1.00  0.00    -0.203 F 
ATOM     91  C   UNL A   1      45.269  26.934  36.543  1.00  0.00     0.198 A 
ATOM     92  C   UNL A   1      46.565  28.560  35.342  1.00  0.00     0.198 A 
ATOM     93  F   UNL A   1      45.513  30.443  34.405  1.00  0.00    -0.203 F 
ATOM     94  F   UNL A   1      45.203  25.806  37.264  1.00  0.00    -0.200 F 
ATOM     95  C   UNL A   1      46.493  27.379  36.065  1.00  0.00     0.200 A 
ATOM     96  F   UNL A   1      47.744  28.985  34.868  1.00  0.00    -0.200 F 
ATOM     97  F   UNL A   1      47.605  26.670  36.304  1.00  0.00    -0.200 F 
ENDBRANCH  64  87
ENDBRANCH  38  39
ENDBRANCH  30  33
ENDBRANCH  28  29
ENDBRANCH  27  28
ENDBRANCH  26  27
ENDBRANCH  25  26
ENDBRANCH   1  25
TORSDOF 19
ENDMDL
MODEL 2
REMARK VINA RESULT:     -10.6      2.126      7.923
REMARK SMILES C=CCN(CC(=O)NCCCCCCNC(=O)c1ccc(-c2c3nc(c(-c4c(F)c(F)c(F)c(F)c4F)c4ccc([nH]4)c(-c4c(F)c(F)c(F)c(F)c4F)c4nc(c(-c5c(F)c(F)c(F)c(F)c5F)c5ccc2[nH]5)C=C4)C=C3)cc1)C(=O)c1cn(C2C[NH2+]C2)nn1
REMARK SMILES IDX 10 1 9 2 8 3 6 4 7 5 5 7 4 8 3 9 2 10 1 11 81 12 82 13 83 14
REMARK SMILES IDX 84 15 91 16 85 17 90 18 86 19 87 20 89 21 88 22 11 25 12 26
REMARK SMILES IDX 13 27 14 28 15 29 16 30 17 32 18 33 19 34 80 35 20 36 79 37
REMARK SMILES IDX 21 38 22 39 23 40 73 41 24 42 78 43 72 44 74 45 25 46 77 47
REMARK SMILES IDX 71 48 70 49 26 51 58 52 38 53 57 54 39 55 42 56 56 57 75 58
REMARK SMILES IDX 40 59 41 60 55 62 76 63 43 64 27 65 28 66 36 67 29 68 30 69
REMARK SMILES IDX 34 70 37 71 31 72 32 73 35 74 33 75 59 76 60 77 68 78 61 79
REMARK SMILES IDX 62 80 66 81 69 82 63 83 64 84 67 85 65 86 44 87 45 88 53 89
REMARK SMILES IDX 46 90 47 91 51 92 54 93 48 94 49 95 52 96 50 97
REMARK H PARENT 8 6 88 23 88 24 15 31 74 50 42 61
REMARK Flexibility Score: inf
ROOT
ATOM      1  C   UNL A   1      33.801  28.701  26.780  1.00  0.00     0.021 C 
ENDROOT
BRANCH   1   2
ATOM      2  C   UNL A   1      33.647  27.358  26.068  1.00  0.00     0.116 C 
BRANCH   2   3
ATOM      3  N   UNL A   1      32.518  26.585  26.533  1.00  0.00    -0.355 N 
ATOM      4  C   UNL A   1      32.113  25.326  26.209  1.00  0.00     0.239 C 
ATOM      5  O   UNL A   1      31.301  24.791  26.973  1.00  0.00    -0.273 OA
ATOM      6  H   UNL A   1      31.948  27.044  27.191  1.00  0.00     0.163 HD
BRANCH   4   7
ATOM      7  C   UNL A   1      32.709  24.521  25.038  1.00  0.00     0.220 C 
BRANCH   7   8
ATOM      8  N   UNL A   1      33.873  23.675  25.324  1.00  0.00    -0.324 N 
BRANCH   8   9
ATOM      9  C   UNL A   1      35.178  24.116  24.851  1.00  0.00     0.147 C 
BRANCH   9  10
ATOM     10  C   UNL A   1      35.493  23.520  23.515  1.00  0.00    -0.014 C 
ATOM     11  C   UNL A   1      36.582  22.771  23.288  1.00  0.00     0.006 C 
ENDBRANCH   9  10
ENDBRANCH   8   9
BRANCH   8  12
ATOM     12  C   UNL A   1      33.821  22.533  26.141  1.00  0.00     0.276 C 
ATOM     13  O   UNL A   1      34.134  22.568  27.330  1.00  0.00    -0.267 OA
BRANCH  12  14
ATOM     14  C   UNL A   1      33.417  21.275  25.529  1.00  0.00     0.170 A 
ATOM     15  C   UNL A   1      34.227  20.280  25.019  1.00  0.00     0.145 A 
ATOM     16  N   UNL A   1      32.110  20.871  25.431  1.00  0.00    -0.125 NA
ATOM     17  N   UNL A   1      33.355  19.324  24.578  1.00  0.00    -0.237 N 
ATOM     18  N   UNL A   1      32.084  19.680  24.843  1.00  0.00    -0.066 NA
BRANCH  17  19
ATOM     19  C   UNL A   1      33.661  18.097  23.903  1.00  0.00     0.218 C 
ATOM     20  C   UNL A   1      34.855  17.349  24.540  1.00  0.00     0.294 C 
ATOM     21  C   UNL A   1      32.851  16.868  24.368  1.00  0.00     0.294 C 
ATOM     22  N   UNL A   1      34.105  16.082  24.388  1.00  0.00    -0.342 N 
ATOM     23  H   UNL A   1      34.190  15.445  25.180  1.00  0.00     0.346 HD
ATOM     24  H   UNL A   1      34.327  15.424  23.641  1.00  0.00     0.346 HD
ENDBRANCH  17  19
ENDBRANCH  12  14
ENDBRANCH   8  12
ENDBRANCH   7   8
ENDBRANCH   4   7
ENDBRANCH   2   3
ENDBRANCH   1   2
BRANCH   1  25
ATOM     25  C   UNL A   1      32.485  29.355  27.220  1.00  0.00     0.002 C 
BRANCH  25  26
ATOM     26  C   UNL A   1      31.755  30.177  26.151  1.00  0.00     0.002 C 
BRANCH  26  27
ATOM     27  C   UNL A   1      31.505  31.645  26.503  1.00  0.00     0.021 C 
BRANCH  27  28
ATOM     28  C   UNL A   1      32.661  32.339  27.215  1.00  0.00     0.116 C 
BRANCH  28  29
ATOM     29  N   UNL A   1      32.381  33.740  27.488  1.00  0.00    -0.352 N 
ATOM     30  C   UNL A   1      32.980  34.581  28.394  1.00  0.00     0.251 C 
ATOM     31  H   UNL A   1      31.661  34.142  26.948  1.00  0.00     0.163 HD
ATOM     32  O   UNL A   1      32.510  35.691  28.623  1.00  0.00    -0.269 OA
BRANCH  30  33
ATOM     33  C   UNL A   1      34.188  34.130  29.119  1.00  0.00     0.039 A 
ATOM     34  C   UNL A   1      34.044  33.337  30.261  1.00  0.00     0.014 A 
ATOM     35  C   UNL A   1      35.459  34.485  28.663  1.00  0.00     0.014 A 
ATOM     36  C   UNL A   1      35.179  32.837  30.904  1.00  0.00     0.010 A 
ATOM     37  C   UNL A   1      36.586  33.935  29.267  1.00  0.00     0.010 A 
ATOM     38  C   UNL A   1      36.458  33.103  30.391  1.00  0.00    -0.014 A 
BRANCH  38  39
ATOM     39  C   UNL A   1      37.688  32.550  31.013  1.00  0.00     0.031 A 
ATOM     40  C   UNL A   1      38.417  31.424  30.334  1.00  0.00     0.074 A 
ATOM     41  C   UNL A   1      38.093  32.987  32.220  1.00  0.00     0.049 A 
ATOM     42  N   UNL A   1      39.385  30.669  30.785  1.00  0.00    -0.248 NA
ATOM     43  C   UNL A   1      37.973  31.083  28.972  1.00  0.00     0.031 C 
ATOM     44  C   UNL A   1      37.460  34.058  32.991  1.00  0.00     0.029 A 
ATOM     45  N   UNL A   1      39.121  32.561  33.027  1.00  0.00    -0.354 N 
ATOM     46  C   UNL A   1      39.654  29.757  29.773  1.00  0.00     0.074 A 
ATOM     47  C   UNL A   1      38.715  30.019  28.704  1.00  0.00     0.031 C 
ATOM     48  C   UNL A   1      38.110  34.203  34.158  1.00  0.00     0.029 A 
ATOM     49  C   UNL A   1      39.175  33.207  34.239  1.00  0.00     0.049 A 
ATOM     50  H   UNL A   1      39.758  31.859  32.762  1.00  0.00     0.167 HD
ATOM     51  C   UNL A   1      40.611  28.800  29.732  1.00  0.00     0.037 A 
ATOM     52  C   UNL A   1      39.975  32.999  35.303  1.00  0.00     0.037 A 
ATOM     53  C   UNL A   1      41.557  28.556  30.786  1.00  0.00     0.049 A 
ATOM     54  C   UNL A   1      41.018  31.915  35.238  1.00  0.00     0.074 A 
ATOM     55  C   UNL A   1      42.573  27.618  30.835  1.00  0.00     0.029 A 
ATOM     56  N   UNL A   1      41.609  29.266  31.976  1.00  0.00    -0.354 N 
ATOM     57  N   UNL A   1      41.278  31.073  34.267  1.00  0.00    -0.248 NA
ATOM     58  C   UNL A   1      41.883  31.752  36.416  1.00  0.00     0.031 C 
ATOM     59  C   UNL A   1      43.224  27.741  32.067  1.00  0.00     0.029 A 
ATOM     60  C   UNL A   1      42.640  28.786  32.766  1.00  0.00     0.049 A 
ATOM     61  H   UNL A   1      41.003  30.001  32.223  1.00  0.00     0.167 HD
ATOM     62  C   UNL A   1      42.356  30.312  34.698  1.00  0.00     0.074 A 
ATOM     63  C   UNL A   1      42.707  30.793  36.018  1.00  0.00     0.031 C 
ATOM     64  C   UNL A   1      42.997  29.305  34.060  1.00  0.00     0.037 A 
BRANCH  51  65
ATOM     65  C   UNL A   1      40.693  27.952  28.495  1.00  0.00     0.064 A 
ATOM     66  C   UNL A   1      41.462  28.347  27.391  1.00  0.00     0.173 A 
ATOM     67  C   UNL A   1      40.037  26.715  28.431  1.00  0.00     0.173 A 
ATOM     68  F   UNL A   1      42.099  29.528  27.399  1.00  0.00    -0.203 F 
ATOM     69  C   UNL A   1      41.555  27.544  26.259  1.00  0.00     0.198 A 
ATOM     70  C   UNL A   1      40.155  25.899  27.308  1.00  0.00     0.198 A 
ATOM     71  F   UNL A   1      39.293  26.288  29.463  1.00  0.00    -0.203 F 
ATOM     72  F   UNL A   1      42.262  27.960  25.200  1.00  0.00    -0.200 F 
ATOM     73  C   UNL A   1      40.909  26.316  26.221  1.00  0.00     0.200 A 
ATOM     74  F   UNL A   1      39.541  24.709  27.279  1.00  0.00    -0.200 F 
ATOM     75  F   UNL A   1      41.008  25.539  25.135  1.00  0.00    -0.200 F 
ENDBRANCH  51  65
BRANCH  52  76
ATOM     76  C   UNL A   1      39.825  33.830  36.527  1.00  0.00     0.064 A 
ATOM     77  C   UNL A   1      38.953  33.445  37.557  1.00  0.00     0.173 A 
ATOM     78  C   UNL A   1      40.518  35.039  36.680  1.00  0.00     0.173 A 
ATOM     79  F   UNL A   1      38.251  32.307  37.448  1.00  0.00    -0.203 F 
ATOM     80  C   UNL A   1      38.757  34.253  38.675  1.00  0.00     0.198 A 
ATOM     81  C   UNL A   1      40.344  35.831  37.812  1.00  0.00     0.198 A 
ATOM     82  F   UNL A   1      41.367  35.451  35.727  1.00  0.00    -0.203 F 
ATOM     83  F   UNL A   1      37.873  33.890  39.614  1.00  0.00    -0.200 F 
ATOM     84  C   UNL A   1      39.455  35.444  38.804  1.00  0.00     0.200 A 
ATOM     85  F   UNL A   1      41.031  36.975  37.939  1.00  0.00    -0.200 F 
ATOM     86  F   UNL A   1      39.262  36.225  39.876  1.00  0.00    -0.200 F 
ENDBRANCH  52  76
BRANCH  64  87
ATOM     87  C   UNL A   1      44.187  28.696  34.743  1.00  0.00     0.064 A 
ATOM     88  C   UNL A   1      44.070  27.565  35.561  1.00  0.00     0.173 A 
ATOM     89  C   UNL A   1      45.471  29.216  34.515  1.00  0.00     0.173 A 
ATOM     90  F   UNL A   1      42.863  27.040  35.819  1.00  0.00    -0.203 F 
ATOM     91  C   UNL A   1      45.195  26.984  36.141  1.00  0.00     0.198 A 
ATOM     92  C   UNL A   1      46.595  28.618  35.075  1.00  0.00     0.198 A 
ATOM     93  F   UNL A   1      45.635  30.295  33.734  1.00  0.00    -0.203 F 
ATOM     94  F   UNL A   1      45.059  25.924  36.949  1.00  0.00    -0.200 F 
ATOM     95  C   UNL A   1      46.456  27.505  35.890  1.00  0.00     0.200 A 
ATOM     96  F   UNL A   1      47.814  29.115  34.821  1.00  0.00    -0.200 F 
ATOM     97  F   UNL A   1      47.539  26.936  36.438  1.00  0.00    -0.200 F 
ENDBRANCH  64  87
ENDBRANCH  38  39
ENDBRANCH  30  33
ENDBRANCH  28  29
ENDBRANCH  27  28
ENDBRANCH  26  27
ENDBRANCH  25  26
ENDBRANCH   1  25
TORSDOF 19
ENDMDL
MODEL 3
REMARK VINA RESULT:     -10.6      7.079     12.570
REMARK SMILES C=CCN(CC(=O)NCCCCCCNC(=O)c1ccc(-c2c3nc(c(-c4c(F)c(F)c(F)c(F)c4F)c4ccc([nH]4)c(-c4c(F)c(F)c(F)c(F)c4F)c4nc(c(-c5c(F)c(F)c(F)c(F)c5F)c5ccc2[nH]5)C=C4)C=C3)cc1)C(=O)c1cn(C2C[NH2+]C2)nn1
REMARK SMILES IDX 10 1 9 2 8 3 6 4 7 5 5 7 4 8 3 9 2 10 1 11 81 12 82 13 83 14
REMARK SMILES IDX 84 15 91 16 85 17 90 18 86 19 87 20 89 21 88 22 11 25 12 26
REMARK SMILES IDX 13 27 14 28 15 29 16 30 17 32 18 33 19 34 80 35 20 36 79 37
REMARK SMILES IDX 21 38 22 39 23 40 73 41 24 42 78 43 72 44 74 45 25 46 77 47
REMARK SMILES IDX 71 48 70 49 26 51 58 52 38 53 57 54 39 55 42 56 56 57 75 58
REMARK SMILES IDX 40 59 41 60 55 62 76 63 43 64 27 65 28 66 36 67 29 68 30 69
REMARK SMILES IDX 34 70 37 71 31 72 32 73 35 74 33 75 59 76 60 77 68 78 61 79
REMARK SMILES IDX 62 80 66 81 69 82 63 83 64 84 67 85 65 86 44 87 45 88 53 89
REMARK SMILES IDX 46 90 47 91 51 92 54 93 48 94 49 95 52 96 50 97
REMARK H PARENT 8 6 88 23 88 24 15 31 74 50 42 61
REMARK Flexibility Score: inf
ROOT
ATOM      1  C   UNL A   1      39.107  21.465  25.886  1.00  0.00     0.021 C 
ENDROOT
BRANCH   1   2
ATOM      2  C   UNL A   1      37.867  22.319  25.621  1.00  0.00     0.116 C 
BRANCH   2   3
ATOM      3  N   UNL A   1      37.414  22.266  24.249  1.00  0.00    -0.355 N 
ATOM      4  C   UNL A   1      36.435  22.967  23.613  1.00  0.00     0.239 C 
ATOM      5  O   UNL A   1      36.458  22.953  22.377  1.00  0.00    -0.273 OA
ATOM      6  H   UNL A   1      37.890  21.617  23.683  1.00  0.00     0.163 HD
BRANCH   4   7
ATOM      7  C   UNL A   1      35.413  23.853  24.351  1.00  0.00     0.220 C 
BRANCH   7   8
ATOM      8  N   UNL A   1      34.100  23.266  24.646  1.00  0.00    -0.324 N 
BRANCH   8   9
ATOM      9  C   UNL A   1      33.377  23.749  25.814  1.00  0.00     0.147 C 
BRANCH   9  10
ATOM     10  C   UNL A   1      34.007  23.253  27.078  1.00  0.00    -0.014 C 
ATOM     11  C   UNL A   1      33.618  22.128  27.695  1.00  0.00     0.006 C 
ENDBRANCH   9  10
ENDBRANCH   8   9
BRANCH   8  12
ATOM     12  C   UNL A   1      33.445  22.362  23.793  1.00  0.00     0.276 C 
ATOM     13  O   UNL A   1      32.810  22.738  22.811  1.00  0.00    -0.267 OA
BRANCH  12  14
ATOM     14  C   UNL A   1      33.505  20.945  24.127  1.00  0.00     0.170 A 
ATOM     15  C   UNL A   1      32.554  19.975  23.881  1.00  0.00     0.145 A 
ATOM     16  N   UNL A   1      34.599  20.353  24.706  1.00  0.00    -0.125 NA
ATOM     17  N   UNL A   1      33.104  18.826  24.380  1.00  0.00    -0.237 N 
ATOM     18  N   UNL A   1      34.340  19.059  24.860  1.00  0.00    -0.066 NA
BRANCH  17  19
ATOM     19  C   UNL A   1      32.514  17.522  24.442  1.00  0.00     0.218 C 
ATOM     20  C   UNL A   1      33.414  16.431  23.818  1.00  0.00     0.294 C 
ATOM     21  C   UNL A   1      32.761  16.746  25.754  1.00  0.00     0.294 C 
ATOM     22  N   UNL A   1      33.077  15.543  24.953  1.00  0.00    -0.342 N 
ATOM     23  H   UNL A   1      33.861  14.995  25.306  1.00  0.00     0.346 HD
ATOM     24  H   UNL A   1      32.400  14.787  24.848  1.00  0.00     0.346 HD
ENDBRANCH  17  19
ENDBRANCH  12  14
ENDBRANCH   8  12
ENDBRANCH   7   8
ENDBRANCH   4   7
ENDBRANCH   2   3
ENDBRANCH   1   2
BRANCH   1  25
ATOM     25  C   UNL A   1      40.245  22.186  26.617  1.00  0.00     0.002 C 
BRANCH  25  26
ATOM     26  C   UNL A   1      41.479  21.335  26.941  1.00  0.00     0.002 C 
BRANCH  26  27
ATOM     27  C   UNL A   1      41.616  20.039  26.141  1.00  0.00     0.021 C 
BRANCH  27  28
ATOM     28  C   UNL A   1      42.726  19.108  26.616  1.00  0.00     0.116 C 
BRANCH  28  29
ATOM     29  N   UNL A   1      43.548  18.622  25.518  1.00  0.00    -0.352 N 
ATOM     30  C   UNL A   1      44.358  19.330  24.665  1.00  0.00     0.251 C 
ATOM     31  H   UNL A   1      43.519  17.648  25.366  1.00  0.00     0.163 HD
ATOM     32  O   UNL A   1      44.853  18.791  23.679  1.00  0.00    -0.269 OA
BRANCH  30  33
ATOM     33  C   UNL A   1      44.615  20.762  24.924  1.00  0.00     0.039 A 
ATOM     34  C   UNL A   1      44.215  21.711  23.978  1.00  0.00     0.014 A 
ATOM     35  C   UNL A   1      45.242  21.166  26.105  1.00  0.00     0.014 A 
ATOM     36  C   UNL A   1      44.378  23.072  24.251  1.00  0.00     0.010 A 
ATOM     37  C   UNL A   1      45.344  22.522  26.403  1.00  0.00     0.010 A 
ATOM     38  C   UNL A   1      44.911  23.489  25.480  1.00  0.00    -0.014 A 
BRANCH  38  39
ATOM     39  C   UNL A   1      45.053  24.924  25.832  1.00  0.00     0.031 A 
ATOM     40  C   UNL A   1      46.402  25.579  25.736  1.00  0.00     0.074 A 
ATOM     41  C   UNL A   1      44.002  25.609  26.324  1.00  0.00     0.049 A 
ATOM     42  N   UNL A   1      46.791  26.750  26.170  1.00  0.00    -0.248 NA
ATOM     43  C   UNL A   1      47.467  24.794  25.088  1.00  0.00     0.031 C 
ATOM     44  C   UNL A   1      42.646  25.082  26.486  1.00  0.00     0.029 A 
ATOM     45  N   UNL A   1      43.918  26.892  26.808  1.00  0.00    -0.354 N 
ATOM     46  C   UNL A   1      48.143  26.835  25.865  1.00  0.00     0.074 A 
ATOM     47  C   UNL A   1      48.520  25.580  25.253  1.00  0.00     0.031 C 
ATOM     48  C   UNL A   1      41.868  26.031  27.033  1.00  0.00     0.029 A 
ATOM     49  C   UNL A   1      42.678  27.216  27.303  1.00  0.00     0.049 A 
ATOM     50  H   UNL A   1      44.676  27.521  26.800  1.00  0.00     0.167 HD
ATOM     51  C   UNL A   1      48.988  27.875  26.060  1.00  0.00     0.037 A 
ATOM     52  C   UNL A   1      42.252  28.330  27.927  1.00  0.00     0.037 A 
ATOM     53  C   UNL A   1      48.606  29.130  26.648  1.00  0.00     0.049 A 
ATOM     54  C   UNL A   1      43.218  29.464  28.149  1.00  0.00     0.074 A 
ATOM     55  C   UNL A   1      49.385  30.250  26.877  1.00  0.00     0.029 A 
ATOM     56  N   UNL A   1      47.327  29.434  27.091  1.00  0.00    -0.354 N 
ATOM     57  N   UNL A   1      44.489  29.543  27.835  1.00  0.00    -0.248 NA
ATOM     58  C   UNL A   1      42.691  30.669  28.809  1.00  0.00     0.031 C 
ATOM     59  C   UNL A   1      48.585  31.223  27.484  1.00  0.00     0.029 A 
ATOM     60  C   UNL A   1      47.297  30.724  27.592  1.00  0.00     0.049 A 
ATOM     61  H   UNL A   1      46.556  28.823  27.054  1.00  0.00     0.167 HD
ATOM     62  C   UNL A   1      44.901  30.811  28.221  1.00  0.00     0.074 A 
ATOM     63  C   UNL A   1      43.745  31.472  28.789  1.00  0.00     0.031 C 
ATOM     64  C   UNL A   1      46.126  31.377  28.116  1.00  0.00     0.037 A 
BRANCH  51  65
ATOM     65  C   UNL A   1      50.412  27.705  25.617  1.00  0.00     0.064 A 
ATOM     66  C   UNL A   1      50.785  27.882  24.276  1.00  0.00     0.173 A 
ATOM     67  C   UNL A   1      51.421  27.410  26.546  1.00  0.00     0.173 A 
ATOM     68  F   UNL A   1      49.855  28.153  23.347  1.00  0.00    -0.203 F 
ATOM     69  C   UNL A   1      52.111  27.748  23.877  1.00  0.00     0.198 A 
ATOM     70  C   UNL A   1      52.752  27.306  26.149  1.00  0.00     0.198 A 
ATOM     71  F   UNL A   1      51.119  27.237  27.841  1.00  0.00    -0.203 F 
ATOM     72  F   UNL A   1      52.437  27.881  22.584  1.00  0.00    -0.200 F 
ATOM     73  C   UNL A   1      53.095  27.469  24.815  1.00  0.00     0.200 A 
ATOM     74  F   UNL A   1      53.702  27.049  27.057  1.00  0.00    -0.200 F 
ATOM     75  F   UNL A   1      54.373  27.352  24.431  1.00  0.00    -0.200 F 
ENDBRANCH  51  65
BRANCH  52  76
ATOM     76  C   UNL A   1      40.844  28.436  28.395  1.00  0.00     0.064 A 
ATOM     77  C   UNL A   1      39.842  28.947  27.557  1.00  0.00     0.173 A 
ATOM     78  C   UNL A   1      40.477  28.066  29.697  1.00  0.00     0.173 A 
ATOM     79  F   UNL A   1      40.148  29.335  26.310  1.00  0.00    -0.203 F 
ATOM     80  C   UNL A   1      38.536  29.113  28.013  1.00  0.00     0.198 A 
ATOM     81  C   UNL A   1      39.164  28.203  30.142  1.00  0.00     0.198 A 
ATOM     82  F   UNL A   1      41.395  27.567  30.538  1.00  0.00    -0.203 F 
ATOM     83  F   UNL A   1      37.613  29.659  27.210  1.00  0.00    -0.200 F 
ATOM     84  C   UNL A   1      38.197  28.737  29.304  1.00  0.00     0.200 A 
ATOM     85  F   UNL A   1      38.837  27.826  31.386  1.00  0.00    -0.200 F 
ATOM     86  F   UNL A   1      36.942  28.902  29.745  1.00  0.00    -0.200 F 
ENDBRANCH  52  76
BRANCH  64  87
ATOM     87  C   UNL A   1      46.273  32.803  28.559  1.00  0.00     0.064 A 
ATOM     88  C   UNL A   1      46.062  33.875  27.680  1.00  0.00     0.173 A 
ATOM     89  C   UNL A   1      46.562  33.097  29.901  1.00  0.00     0.173 A 
ATOM     90  F   UNL A   1      45.797  33.644  26.385  1.00  0.00    -0.203 F 
ATOM     91  C   UNL A   1      46.150  35.191  28.126  1.00  0.00     0.198 A 
ATOM     92  C   UNL A   1      46.624  34.413  30.348  1.00  0.00     0.198 A 
ATOM     93  F   UNL A   1      46.766  32.106  30.781  1.00  0.00    -0.203 F 
ATOM     94  F   UNL A   1      45.980  36.201  27.263  1.00  0.00    -0.200 F 
ATOM     95  C   UNL A   1      46.422  35.458  29.460  1.00  0.00     0.200 A 
ATOM     96  F   UNL A   1      46.873  34.669  31.640  1.00  0.00    -0.200 F 
ATOM     97  F   UNL A   1      46.492  36.726  29.889  1.00  0.00    -0.200 F 
ENDBRANCH  64  87
ENDBRANCH  38  39
ENDBRANCH  30  33
ENDBRANCH  28  29
ENDBRANCH  27  28
ENDBRANCH  26  27
ENDBRANCH  25  26
ENDBRANCH   1  25
TORSDOF 19
ENDMDL
