MODEL 1
REMARK VINA RESULT:     -11.8      0.000      0.000
REMARK SMILES C=C(C)COc1ccc2c(C)c(CC(=O)NCCCCCCNC(=O)c3ccc(-c4c5nc(c(-c6c(F)c(F)c(F)c(F)c6F)c6ccc([nH]6)c(-c6c(F)c(F)c(F)c(F)c6F)c6nc(c(-c7c(F)c(F)c(F)c(F)c7F)c7ccc4[nH]7)C=C6)C=C5)cc3)c(=O)oc2c1
REMARK SMILES IDX 18 1 17 2 16 3 14 4 15 5 13 7 12 8 6 9 7 10 93 11 8 12 92 13
REMARK SMILES IDX 9 14 91 15 10 16 89 17 11 18 90 19 5 20 4 21 2 22 1 23 3 24
REMARK SMILES IDX 19 25 20 26 21 27 22 28 23 29 24 30 25 32 26 33 27 34 88 35
REMARK SMILES IDX 28 36 87 37 29 38 30 39 31 40 81 41 32 42 86 43 80 44 82 45
REMARK SMILES IDX 33 46 85 47 79 48 78 49 34 51 66 52 46 53 65 54 47 55 50 56
REMARK SMILES IDX 64 57 83 58 48 59 49 60 63 62 84 63 51 64 35 65 36 66 44 67
REMARK SMILES IDX 37 68 38 69 42 70 45 71 39 72 40 73 43 74 41 75 67 76 68 77
REMARK SMILES IDX 76 78 69 79 70 80 74 81 77 82 71 83 72 84 75 85 73 86 52 87
REMARK SMILES IDX 53 88 61 89 54 90 55 91 59 92 62 93 56 94 57 95 60 96 58 97
REMARK H PARENT 16 6 23 31 82 50 50 61
REMARK Flexibility Score: inf
ROOT
ATOM      1  C   UNL A   1      33.374  26.033  25.875  1.00  0.00     0.021 C 
ENDROOT
BRANCH   1   2
ATOM      2  C   UNL A   1      33.653  24.545  25.651  1.00  0.00     0.116 C 
BRANCH   2   3
ATOM      3  N   UNL A   1      34.661  24.344  24.627  1.00  0.00    -0.356 N 
ATOM      4  C   UNL A   1      34.560  23.803  23.382  1.00  0.00     0.224 C 
ATOM      5  O   UNL A   1      35.594  23.690  22.719  1.00  0.00    -0.275 OA
ATOM      6  H   UNL A   1      35.563  24.650  24.872  1.00  0.00     0.163 HD
BRANCH   4   7
ATOM      7  C   UNL A   1      33.210  23.388  22.804  1.00  0.00     0.143 C 
BRANCH   7   8
ATOM      8  C   UNL A   1      32.238  24.537  22.675  1.00  0.00     0.051 A 
ATOM      9  C   UNL A   1      29.152  28.517  23.075  1.00  0.00     0.123 A 
ATOM     10  C   UNL A   1      28.592  27.540  23.893  1.00  0.00     0.047 A 
ATOM     11  C   UNL A   1      30.316  28.232  22.377  1.00  0.00     0.094 A 
ATOM     12  C   UNL A   1      29.187  26.270  23.991  1.00  0.00     0.016 A 
ATOM     13  C   UNL A   1      30.881  26.964  22.468  1.00  0.00     0.142 A 
ATOM     14  C   UNL A   1      30.354  25.962  23.274  1.00  0.00     0.021 A 
ATOM     15  O   UNL A   1      32.021  26.764  21.684  1.00  0.00    -0.422 OA
ATOM     16  C   UNL A   1      31.101  24.693  23.392  1.00  0.00    -0.029 A 
ATOM     17  C   UNL A   1      32.642  25.536  21.648  1.00  0.00     0.340 A 
ATOM     18  C   UNL A   1      30.575  23.663  24.357  1.00  0.00     0.046 C 
ATOM     19  O   UNL A   1      33.535  25.315  20.837  1.00  0.00    -0.246 OA
BRANCH   9  20
ATOM     20  O   UNL A   1      28.568  29.756  23.060  1.00  0.00    -0.489 OA
BRANCH  20  21
ATOM     21  C   UNL A   1      28.119  30.166  21.755  1.00  0.00     0.260 C 
BRANCH  21  22
ATOM     22  C   UNL A   1      28.193  31.665  21.543  1.00  0.00    -0.043 C 
ATOM     23  C   UNL A   1      28.603  32.520  22.496  1.00  0.00     0.011 C 
ATOM     24  C   UNL A   1      27.847  32.138  20.158  1.00  0.00     0.042 C 
ENDBRANCH  21  22
ENDBRANCH  20  21
ENDBRANCH   9  20
ENDBRANCH   7   8
ENDBRANCH   4   7
ENDBRANCH   2   3
ENDBRANCH   1   2
BRANCH   1  25
ATOM     25  C   UNL A   1      32.048  26.324  26.594  1.00  0.00     0.002 C 
BRANCH  25  26
ATOM     26  C   UNL A   1      31.686  27.807  26.731  1.00  0.00     0.002 C 
BRANCH  26  27
ATOM     27  C   UNL A   1      32.027  28.681  25.520  1.00  0.00     0.021 C 
BRANCH  27  28
ATOM     28  C   UNL A   1      33.238  29.590  25.703  1.00  0.00     0.116 C 
BRANCH  28  29
ATOM     29  N   UNL A   1      32.865  30.928  26.132  1.00  0.00    -0.352 N 
ATOM     30  C   UNL A   1      33.394  31.709  27.124  1.00  0.00     0.251 C 
ATOM     31  H   UNL A   1      32.119  31.334  25.633  1.00  0.00     0.163 HD
ATOM     32  O   UNL A   1      32.824  32.755  27.448  1.00  0.00    -0.269 OA
BRANCH  30  33
ATOM     33  C   UNL A   1      34.634  31.314  27.828  1.00  0.00     0.039 A 
ATOM     34  C   UNL A   1      34.721  30.021  28.354  1.00  0.00     0.014 A 
ATOM     35  C   UNL A   1      35.686  32.216  28.018  1.00  0.00     0.014 A 
ATOM     36  C   UNL A   1      35.871  29.622  29.038  1.00  0.00     0.010 A 
ATOM     37  C   UNL A   1      36.858  31.798  28.646  1.00  0.00     0.010 A 
ATOM     38  C   UNL A   1      36.957  30.502  29.175  1.00  0.00    -0.014 A 
BRANCH  38  39
ATOM     39  C   UNL A   1      38.186  30.084  29.895  1.00  0.00     0.031 A 
ATOM     40  C   UNL A   1      38.449  30.571  31.293  1.00  0.00     0.074 A 
ATOM     41  C   UNL A   1      39.086  29.295  29.278  1.00  0.00     0.049 A 
ATOM     42  N   UNL A   1      39.472  30.334  32.076  1.00  0.00    -0.248 NA
ATOM     43  C   UNL A   1      37.441  31.467  31.881  1.00  0.00     0.031 C 
ATOM     44  C   UNL A   1      38.973  28.798  27.907  1.00  0.00     0.029 A 
ATOM     45  N   UNL A   1      40.276  28.775  29.724  1.00  0.00    -0.354 N 
ATOM     46  C   UNL A   1      39.237  31.060  33.237  1.00  0.00     0.074 A 
ATOM     47  C   UNL A   1      38.001  31.785  33.038  1.00  0.00     0.031 C 
ATOM     48  C   UNL A   1      40.038  28.027  27.630  1.00  0.00     0.029 A 
ATOM     49  C   UNL A   1      40.917  27.994  28.796  1.00  0.00     0.049 A 
ATOM     50  H   UNL A   1      40.635  28.948  30.624  1.00  0.00     0.167 HD
ATOM     51  C   UNL A   1      39.974  31.099  34.373  1.00  0.00     0.037 A 
ATOM     52  C   UNL A   1      42.081  27.323  28.877  1.00  0.00     0.037 A 
ATOM     53  C   UNL A   1      41.185  30.352  34.583  1.00  0.00     0.049 A 
ATOM     54  C   UNL A   1      42.862  27.355  30.163  1.00  0.00     0.074 A 
ATOM     55  C   UNL A   1      41.971  30.281  35.720  1.00  0.00     0.029 A 
ATOM     56  N   UNL A   1      41.786  29.542  33.630  1.00  0.00    -0.354 N 
ATOM     57  N   UNL A   1      42.595  27.991  31.277  1.00  0.00    -0.248 NA
ATOM     58  C   UNL A   1      44.100  26.566  30.205  1.00  0.00     0.031 C 
ATOM     59  C   UNL A   1      43.066  29.452  35.445  1.00  0.00     0.029 A 
ATOM     60  C   UNL A   1      42.938  28.975  34.149  1.00  0.00     0.049 A 
ATOM     61  H   UNL A   1      41.443  29.391  32.720  1.00  0.00     0.167 HD
ATOM     62  C   UNL A   1      43.613  27.658  32.161  1.00  0.00     0.074 A 
ATOM     63  C   UNL A   1      44.495  26.750  31.456  1.00  0.00     0.031 C 
ATOM     64  C   UNL A   1      43.801  28.068  33.439  1.00  0.00     0.037 A 
BRANCH  51  65
ATOM     65  C   UNL A   1      39.480  31.979  35.485  1.00  0.00     0.064 A 
ATOM     66  C   UNL A   1      38.597  31.498  36.465  1.00  0.00     0.173 A 
ATOM     67  C   UNL A   1      39.916  33.308  35.590  1.00  0.00     0.173 A 
ATOM     68  F   UNL A   1      38.141  30.238  36.402  1.00  0.00    -0.203 F 
ATOM     69  C   UNL A   1      38.148  32.324  37.491  1.00  0.00     0.198 A 
ATOM     70  C   UNL A   1      39.487  34.122  36.635  1.00  0.00     0.198 A 
ATOM     71  F   UNL A   1      40.765  33.815  34.684  1.00  0.00    -0.203 F 
ATOM     72  F   UNL A   1      37.267  31.856  38.388  1.00  0.00    -0.200 F 
ATOM     73  C   UNL A   1      38.597  33.632  37.579  1.00  0.00     0.200 A 
ATOM     74  F   UNL A   1      39.929  35.384  36.726  1.00  0.00    -0.200 F 
ATOM     75  F   UNL A   1      38.166  34.424  38.571  1.00  0.00    -0.200 F 
ENDBRANCH  51  65
BRANCH  52  76
ATOM     76  C   UNL A   1      42.557  26.522  27.720  1.00  0.00     0.064 A 
ATOM     77  C   UNL A   1      42.103  25.211  27.519  1.00  0.00     0.173 A 
ATOM     78  C   UNL A   1      43.473  27.047  26.797  1.00  0.00     0.173 A 
ATOM     79  F   UNL A   1      41.242  24.661  28.388  1.00  0.00    -0.203 F 
ATOM     80  C   UNL A   1      42.562  24.448  26.448  1.00  0.00     0.198 A 
ATOM     81  C   UNL A   1      43.911  26.291  25.712  1.00  0.00     0.198 A 
ATOM     82  F   UNL A   1      43.932  28.298  26.944  1.00  0.00    -0.203 F 
ATOM     83  F   UNL A   1      42.145  23.183  26.303  1.00  0.00    -0.200 F 
ATOM     84  C   UNL A   1      43.462  24.989  25.543  1.00  0.00     0.200 A 
ATOM     85  F   UNL A   1      44.772  26.822  24.833  1.00  0.00    -0.200 F 
ATOM     86  F   UNL A   1      43.901  24.256  24.511  1.00  0.00    -0.200 F 
ENDBRANCH  52  76
BRANCH  64  87
ATOM     87  C   UNL A   1      44.987  27.511  34.168  1.00  0.00     0.064 A 
ATOM     88  C   UNL A   1      46.220  28.180  34.185  1.00  0.00     0.173 A 
ATOM     89  C   UNL A   1      44.883  26.304  34.877  1.00  0.00     0.173 A 
ATOM     90  F   UNL A   1      46.374  29.328  33.509  1.00  0.00    -0.203 F 
ATOM     91  C   UNL A   1      47.313  27.647  34.864  1.00  0.00     0.198 A 
ATOM     92  C   UNL A   1      45.970  25.789  35.577  1.00  0.00     0.198 A 
ATOM     93  F   UNL A   1      43.723  25.630  34.896  1.00  0.00    -0.203 F 
ATOM     94  F   UNL A   1      48.494  28.278  34.825  1.00  0.00    -0.200 F 
ATOM     95  C   UNL A   1      47.186  26.456  35.562  1.00  0.00     0.200 A 
ATOM     96  F   UNL A   1      45.843  24.644  36.260  1.00  0.00    -0.200 F 
ATOM     97  F   UNL A   1      48.239  25.945  36.216  1.00  0.00    -0.200 F 
ENDBRANCH  64  87
ENDBRANCH  38  39
ENDBRANCH  30  33
ENDBRANCH  28  29
ENDBRANCH  27  28
ENDBRANCH  26  27
ENDBRANCH  25  26
ENDBRANCH   1  25
TORSDOF 17
ENDMDL
MODEL 2
REMARK VINA RESULT:     -11.8      4.542      9.678
REMARK SMILES C=C(C)COc1ccc2c(C)c(CC(=O)NCCCCCCNC(=O)c3ccc(-c4c5nc(c(-c6c(F)c(F)c(F)c(F)c6F)c6ccc([nH]6)c(-c6c(F)c(F)c(F)c(F)c6F)c6nc(c(-c7c(F)c(F)c(F)c(F)c7F)c7ccc4[nH]7)C=C6)C=C5)cc3)c(=O)oc2c1
REMARK SMILES IDX 18 1 17 2 16 3 14 4 15 5 13 7 12 8 6 9 7 10 93 11 8 12 92 13
REMARK SMILES IDX 9 14 91 15 10 16 89 17 11 18 90 19 5 20 4 21 2 22 1 23 3 24
REMARK SMILES IDX 19 25 20 26 21 27 22 28 23 29 24 30 25 32 26 33 27 34 88 35
REMARK SMILES IDX 28 36 87 37 29 38 30 39 31 40 81 41 32 42 86 43 80 44 82 45
REMARK SMILES IDX 33 46 85 47 79 48 78 49 34 51 66 52 46 53 65 54 47 55 50 56
REMARK SMILES IDX 64 57 83 58 48 59 49 60 63 62 84 63 51 64 35 65 36 66 44 67
REMARK SMILES IDX 37 68 38 69 42 70 45 71 39 72 40 73 43 74 41 75 67 76 68 77
REMARK SMILES IDX 76 78 69 79 70 80 74 81 77 82 71 83 72 84 75 85 73 86 52 87
REMARK SMILES IDX 53 88 61 89 54 90 55 91 59 92 62 93 56 94 57 95 60 96 58 97
REMARK H PARENT 16 6 23 31 82 50 50 61
REMARK Flexibility Score: inf
ROOT
ATOM      1  C   UNL A   1      35.965  22.581  24.901  1.00  0.00     0.021 C 
ENDROOT
BRANCH   1   2
ATOM      2  C   UNL A   1      35.116  22.150  26.099  1.00  0.00     0.116 C 
BRANCH   2   3
ATOM      3  N   UNL A   1      33.790  21.734  25.686  1.00  0.00    -0.356 N 
ATOM      4  C   UNL A   1      32.566  22.242  26.001  1.00  0.00     0.224 C 
ATOM      5  O   UNL A   1      31.572  21.661  25.559  1.00  0.00    -0.275 OA
ATOM      6  H   UNL A   1      33.771  20.960  25.079  1.00  0.00     0.163 HD
BRANCH   4   7
ATOM      7  C   UNL A   1      32.425  23.512  26.835  1.00  0.00     0.143 C 
BRANCH   7   8
ATOM      8  C   UNL A   1      31.853  24.675  26.060  1.00  0.00     0.051 A 
ATOM      9  C   UNL A   1      30.320  28.204  22.785  1.00  0.00     0.123 A 
ATOM     10  C   UNL A   1      31.706  28.325  22.828  1.00  0.00     0.047 A 
ATOM     11  C   UNL A   1      29.699  27.247  23.575  1.00  0.00     0.094 A 
ATOM     12  C   UNL A   1      32.464  27.504  23.681  1.00  0.00     0.016 A 
ATOM     13  C   UNL A   1      30.462  26.456  24.428  1.00  0.00     0.142 A 
ATOM     14  C   UNL A   1      31.846  26.546  24.499  1.00  0.00     0.021 A 
ATOM     15  O   UNL A   1      29.733  25.562  25.219  1.00  0.00    -0.422 OA
ATOM     16  C   UNL A   1      32.568  25.577  25.348  1.00  0.00    -0.029 A 
ATOM     17  C   UNL A   1      30.369  24.762  26.140  1.00  0.00     0.340 A 
ATOM     18  C   UNL A   1      34.074  25.616  25.324  1.00  0.00     0.046 C 
ATOM     19  O   UNL A   1      29.718  24.104  26.946  1.00  0.00    -0.246 OA
BRANCH   9  20
ATOM     20  O   UNL A   1      29.631  28.985  21.895  1.00  0.00    -0.489 OA
BRANCH  20  21
ATOM     21  C   UNL A   1      28.337  29.397  22.371  1.00  0.00     0.260 C 
BRANCH  21  22
ATOM     22  C   UNL A   1      28.106  30.891  22.254  1.00  0.00    -0.043 C 
ATOM     23  C   UNL A   1      28.231  31.562  21.095  1.00  0.00     0.011 C 
ATOM     24  C   UNL A   1      27.651  31.574  23.513  1.00  0.00     0.042 C 
ENDBRANCH  21  22
ENDBRANCH  20  21
ENDBRANCH   9  20
ENDBRANCH   7   8
ENDBRANCH   4   7
ENDBRANCH   2   3
ENDBRANCH   1   2
BRANCH   1  25
ATOM     25  C   UNL A   1      37.166  21.667  24.618  1.00  0.00     0.002 C 
BRANCH  25  26
ATOM     26  C   UNL A   1      36.867  20.165  24.628  1.00  0.00     0.002 C 
BRANCH  26  27
ATOM     27  C   UNL A   1      38.046  19.262  25.007  1.00  0.00     0.021 C 
BRANCH  27  28
ATOM     28  C   UNL A   1      39.183  19.964  25.744  1.00  0.00     0.116 C 
BRANCH  28  29
ATOM     29  N   UNL A   1      40.350  19.111  25.897  1.00  0.00    -0.352 N 
ATOM     30  C   UNL A   1      41.656  19.448  26.136  1.00  0.00     0.251 C 
ATOM     31  H   UNL A   1      40.176  18.145  25.817  1.00  0.00     0.163 HD
ATOM     32  O   UNL A   1      42.533  18.583  26.063  1.00  0.00    -0.269 OA
BRANCH  30  33
ATOM     33  C   UNL A   1      42.037  20.839  26.466  1.00  0.00     0.039 A 
ATOM     34  C   UNL A   1      42.197  21.755  25.421  1.00  0.00     0.014 A 
ATOM     35  C   UNL A   1      42.288  21.235  27.784  1.00  0.00     0.014 A 
ATOM     36  C   UNL A   1      42.571  23.071  25.698  1.00  0.00     0.010 A 
ATOM     37  C   UNL A   1      42.602  22.564  28.065  1.00  0.00     0.010 A 
ATOM     38  C   UNL A   1      42.761  23.492  27.025  1.00  0.00    -0.014 A 
BRANCH  38  39
ATOM     39  C   UNL A   1      43.154  24.891  27.329  1.00  0.00     0.031 A 
ATOM     40  C   UNL A   1      44.549  25.368  27.034  1.00  0.00     0.074 A 
ATOM     41  C   UNL A   1      42.266  25.723  27.905  1.00  0.00     0.049 A 
ATOM     42  N   UNL A   1      45.086  26.543  27.246  1.00  0.00    -0.248 NA
ATOM     43  C   UNL A   1      45.473  24.385  26.447  1.00  0.00     0.031 C 
ATOM     44  C   UNL A   1      40.900  25.367  28.288  1.00  0.00     0.029 A 
ATOM     45  N   UNL A   1      42.383  27.041  28.273  1.00  0.00    -0.354 N 
ATOM     46  C   UNL A   1      46.408  26.436  26.834  1.00  0.00     0.074 A 
ATOM     47  C   UNL A   1      46.607  25.069  26.405  1.00  0.00     0.031 C 
ATOM     48  C   UNL A   1      40.297  26.445  28.816  1.00  0.00     0.029 A 
ATOM     49  C   UNL A   1      41.241  27.560  28.829  1.00  0.00     0.049 A 
ATOM     50  H   UNL A   1      43.208  27.563  28.151  1.00  0.00     0.167 HD
ATOM     51  C   UNL A   1      47.363  27.397  26.794  1.00  0.00     0.037 A 
ATOM     52  C   UNL A   1      40.982  28.797  29.292  1.00  0.00     0.037 A 
ATOM     53  C   UNL A   1      47.155  28.765  27.189  1.00  0.00     0.049 A 
ATOM     54  C   UNL A   1      42.048  29.855  29.205  1.00  0.00     0.074 A 
ATOM     55  C   UNL A   1      48.043  29.826  27.132  1.00  0.00     0.029 A 
ATOM     56  N   UNL A   1      45.972  29.263  27.714  1.00  0.00    -0.354 N 
ATOM     57  N   UNL A   1      43.274  29.759  28.750  1.00  0.00    -0.248 NA
ATOM     58  C   UNL A   1      41.690  31.196  29.684  1.00  0.00     0.031 C 
ATOM     59  C   UNL A   1      47.406  30.959  27.652  1.00  0.00     0.029 A 
ATOM     60  C   UNL A   1      46.108  30.612  27.996  1.00  0.00     0.049 A 
ATOM     61  H   UNL A   1      45.154  28.735  27.865  1.00  0.00     0.167 HD
ATOM     62  C   UNL A   1      43.823  31.028  28.861  1.00  0.00     0.074 A 
ATOM     63  C   UNL A   1      42.791  31.882  29.412  1.00  0.00     0.031 C 
ATOM     64  C   UNL A   1      45.070  31.449  28.536  1.00  0.00     0.037 A 
BRANCH  51  65
ATOM     65  C   UNL A   1      48.722  26.999  26.297  1.00  0.00     0.064 A 
ATOM     66  C   UNL A   1      49.057  27.077  24.936  1.00  0.00     0.173 A 
ATOM     67  C   UNL A   1      49.710  26.564  27.193  1.00  0.00     0.173 A 
ATOM     68  F   UNL A   1      48.144  27.476  24.038  1.00  0.00    -0.203 F 
ATOM     69  C   UNL A   1      50.322  26.706  24.488  1.00  0.00     0.198 A 
ATOM     70  C   UNL A   1      50.982  26.221  26.743  1.00  0.00     0.198 A 
ATOM     71  F   UNL A   1      49.443  26.476  28.504  1.00  0.00    -0.203 F 
ATOM     72  F   UNL A   1      50.603  26.743  23.178  1.00  0.00    -0.200 F 
ATOM     73  C   UNL A   1      51.285  26.284  25.391  1.00  0.00     0.200 A 
ATOM     74  F   UNL A   1      51.916  25.823  27.619  1.00  0.00    -0.200 F 
ATOM     75  F   UNL A   1      52.503  25.932  24.958  1.00  0.00    -0.200 F 
ENDBRANCH  51  65
BRANCH  52  76
ATOM     76  C   UNL A   1      39.638  29.117  29.838  1.00  0.00     0.064 A 
ATOM     77  C   UNL A   1      38.629  29.625  29.009  1.00  0.00     0.173 A 
ATOM     78  C   UNL A   1      39.338  28.926  31.194  1.00  0.00     0.173 A 
ATOM     79  F   UNL A   1      38.877  29.843  27.709  1.00  0.00    -0.203 F 
ATOM     80  C   UNL A   1      37.373  29.947  29.519  1.00  0.00     0.198 A 
ATOM     81  C   UNL A   1      38.074  29.225  31.698  1.00  0.00     0.198 A 
ATOM     82  F   UNL A   1      40.268  28.439  32.026  1.00  0.00    -0.203 F 
ATOM     83  F   UNL A   1      36.440  30.471  28.713  1.00  0.00    -0.200 F 
ATOM     84  C   UNL A   1      37.095  29.743  30.861  1.00  0.00     0.200 A 
ATOM     85  F   UNL A   1      37.804  29.016  32.994  1.00  0.00    -0.200 F 
ATOM     86  F   UNL A   1      35.886  30.051  31.352  1.00  0.00    -0.200 F 
ENDBRANCH  52  76
BRANCH  64  87
ATOM     87  C   UNL A   1      45.375  32.904  28.739  1.00  0.00     0.064 A 
ATOM     88  C   UNL A   1      44.991  33.873  27.801  1.00  0.00     0.173 A 
ATOM     89  C   UNL A   1      46.039  33.335  29.898  1.00  0.00     0.173 A 
ATOM     90  F   UNL A   1      44.369  33.509  26.670  1.00  0.00    -0.203 F 
ATOM     91  C   UNL A   1      45.286  35.219  28.003  1.00  0.00     0.198 A 
ATOM     92  C   UNL A   1      46.307  34.684  30.109  1.00  0.00     0.198 A 
ATOM     93  F   UNL A   1      46.420  32.447  30.828  1.00  0.00    -0.203 F 
ATOM     94  F   UNL A   1      44.953  36.122  27.070  1.00  0.00    -0.200 F 
ATOM     95  C   UNL A   1      45.938  35.624  29.158  1.00  0.00     0.200 A 
ATOM     96  F   UNL A   1      46.928  35.075  31.230  1.00  0.00    -0.200 F 
ATOM     97  F   UNL A   1      46.220  36.920  29.351  1.00  0.00    -0.200 F 
ENDBRANCH  64  87
ENDBRANCH  38  39
ENDBRANCH  30  33
ENDBRANCH  28  29
ENDBRANCH  27  28
ENDBRANCH  26  27
ENDBRANCH  25  26
ENDBRANCH   1  25
TORSDOF 17
ENDMDL
MODEL 3
REMARK VINA RESULT:     -11.8      4.539      7.793
REMARK SMILES C=C(C)COc1ccc2c(C)c(CC(=O)NCCCCCCNC(=O)c3ccc(-c4c5nc(c(-c6c(F)c(F)c(F)c(F)c6F)c6ccc([nH]6)c(-c6c(F)c(F)c(F)c(F)c6F)c6nc(c(-c7c(F)c(F)c(F)c(F)c7F)c7ccc4[nH]7)C=C6)C=C5)cc3)c(=O)oc2c1
REMARK SMILES IDX 18 1 17 2 16 3 14 4 15 5 13 7 12 8 6 9 7 10 93 11 8 12 92 13
REMARK SMILES IDX 9 14 91 15 10 16 89 17 11 18 90 19 5 20 4 21 2 22 1 23 3 24
REMARK SMILES IDX 19 25 20 26 21 27 22 28 23 29 24 30 25 32 26 33 27 34 88 35
REMARK SMILES IDX 28 36 87 37 29 38 30 39 31 40 81 41 32 42 86 43 80 44 82 45
REMARK SMILES IDX 33 46 85 47 79 48 78 49 34 51 66 52 46 53 65 54 47 55 50 56
REMARK SMILES IDX 64 57 83 58 48 59 49 60 63 62 84 63 51 64 35 65 36 66 44 67
REMARK SMILES IDX 37 68 38 69 42 70 45 71 39 72 40 73 43 74 41 75 67 76 68 77
REMARK SMILES IDX 76 78 69 79 70 80 74 81 77 82 71 83 72 84 75 85 73 86 52 87
REMARK SMILES IDX 53 88 61 89 54 90 55 91 59 92 62 93 56 94 57 95 60 96 58 97
REMARK H PARENT 16 6 23 31 82 50 50 61
REMARK Flexibility Score: inf
ROOT
ATOM      1  C   UNL A   1      36.065  22.611  25.058  1.00  0.00     0.021 C 
ENDROOT
BRANCH   1   2
ATOM      2  C   UNL A   1      35.170  22.147  26.210  1.00  0.00     0.116 C 
BRANCH   2   3
ATOM      3  N   UNL A   1      33.847  21.785  25.739  1.00  0.00    -0.356 N 
ATOM      4  C   UNL A   1      32.633  22.346  25.998  1.00  0.00     0.224 C 
ATOM      5  O   UNL A   1      31.636  21.805  25.514  1.00  0.00    -0.275 OA
ATOM      6  H   UNL A   1      33.822  21.009  25.134  1.00  0.00     0.163 HD
BRANCH   4   7
ATOM      7  C   UNL A   1      32.509  23.624  26.821  1.00  0.00     0.143 C 
BRANCH   7   8
ATOM      8  C   UNL A   1      31.855  24.759  26.067  1.00  0.00     0.051 A 
ATOM      9  C   UNL A   1      30.002  28.182  22.847  1.00  0.00     0.123 A 
ATOM     10  C   UNL A   1      31.384  28.331  22.781  1.00  0.00     0.047 A 
ATOM     11  C   UNL A   1      29.463  27.232  23.702  1.00  0.00     0.094 A 
ATOM     12  C   UNL A   1      32.223  27.545  23.590  1.00  0.00     0.016 A 
ATOM     13  C   UNL A   1      30.306  26.475  24.510  1.00  0.00     0.142 A 
ATOM     14  C   UNL A   1      31.689  26.593  24.473  1.00  0.00     0.021 A 
ATOM     15  O   UNL A   1      29.659  25.585  25.373  1.00  0.00    -0.422 OA
ATOM     16  C   UNL A   1      32.494  25.658  25.285  1.00  0.00    -0.029 A 
ATOM     17  C   UNL A   1      30.379  24.818  26.260  1.00  0.00     0.340 A 
ATOM     18  C   UNL A   1      33.993  25.726  25.143  1.00  0.00     0.046 C 
ATOM     19  O   UNL A   1      29.806  24.166  27.127  1.00  0.00    -0.246 OA
BRANCH   9  20
ATOM     20  O   UNL A   1      29.231  28.930  21.996  1.00  0.00    -0.489 OA
BRANCH  20  21
ATOM     21  C   UNL A   1      29.594  30.322  21.965  1.00  0.00     0.260 C 
BRANCH  21  22
ATOM     22  C   UNL A   1      28.539  31.226  22.571  1.00  0.00    -0.043 C 
ATOM     23  C   UNL A   1      27.615  30.790  23.444  1.00  0.00     0.011 C 
ATOM     24  C   UNL A   1      28.635  32.677  22.187  1.00  0.00     0.042 C 
ENDBRANCH  21  22
ENDBRANCH  20  21
ENDBRANCH   9  20
ENDBRANCH   7   8
ENDBRANCH   4   7
ENDBRANCH   2   3
ENDBRANCH   1   2
BRANCH   1  25
ATOM     25  C   UNL A   1      37.217  21.651  24.728  1.00  0.00     0.002 C 
BRANCH  25  26
ATOM     26  C   UNL A   1      36.872  20.160  24.802  1.00  0.00     0.002 C 
BRANCH  26  27
ATOM     27  C   UNL A   1      38.056  19.224  25.063  1.00  0.00     0.021 C 
BRANCH  27  28
ATOM     28  C   UNL A   1      39.231  19.862  25.800  1.00  0.00     0.116 C 
BRANCH  28  29
ATOM     29  N   UNL A   1      40.369  18.964  25.906  1.00  0.00    -0.352 N 
ATOM     30  C   UNL A   1      41.695  19.249  26.093  1.00  0.00     0.251 C 
ATOM     31  H   UNL A   1      40.155  18.006  25.831  1.00  0.00     0.163 HD
ATOM     32  O   UNL A   1      42.535  18.352  25.985  1.00  0.00    -0.269 OA
BRANCH  30  33
ATOM     33  C   UNL A   1      42.142  20.624  26.411  1.00  0.00     0.039 A 
ATOM     34  C   UNL A   1      42.411  21.501  25.355  1.00  0.00     0.014 A 
ATOM     35  C   UNL A   1      42.350  21.038  27.731  1.00  0.00     0.014 A 
ATOM     36  C   UNL A   1      42.850  22.799  25.621  1.00  0.00     0.010 A 
ATOM     37  C   UNL A   1      42.728  22.353  27.998  1.00  0.00     0.010 A 
ATOM     38  C   UNL A   1      42.996  23.242  26.946  1.00  0.00    -0.014 A 
BRANCH  38  39
ATOM     39  C   UNL A   1      43.457  24.623  27.238  1.00  0.00     0.031 A 
ATOM     40  C   UNL A   1      42.503  25.638  27.804  1.00  0.00     0.074 A 
ATOM     41  C   UNL A   1      44.726  24.977  26.958  1.00  0.00     0.049 A 
ATOM     42  N   UNL A   1      42.711  26.895  28.106  1.00  0.00    -0.248 NA
ATOM     43  C   UNL A   1      41.122  25.187  28.039  1.00  0.00     0.031 C 
ATOM     44  C   UNL A   1      45.734  24.101  26.360  1.00  0.00     0.029 A 
ATOM     45  N   UNL A   1      45.384  26.168  27.138  1.00  0.00    -0.354 N 
ATOM     46  C   UNL A   1      41.490  27.386  28.549  1.00  0.00     0.074 A 
ATOM     47  C   UNL A   1      40.534  26.307  28.432  1.00  0.00     0.031 C 
ATOM     48  C   UNL A   1      46.888  24.777  26.242  1.00  0.00     0.029 A 
ATOM     49  C   UNL A   1      46.695  26.138  26.735  1.00  0.00     0.049 A 
ATOM     50  H   UNL A   1      44.955  26.968  27.518  1.00  0.00     0.167 HD
ATOM     51  C   UNL A   1      41.198  28.618  29.032  1.00  0.00     0.037 A 
ATOM     52  C   UNL A   1      47.638  27.099  26.767  1.00  0.00     0.037 A 
ATOM     53  C   UNL A   1      42.157  29.680  29.181  1.00  0.00     0.049 A 
ATOM     54  C   UNL A   1      47.297  28.447  27.340  1.00  0.00     0.074 A 
ATOM     55  C   UNL A   1      41.972  30.944  29.714  1.00  0.00     0.029 A 
ATOM     56  N   UNL A   1      43.487  29.601  28.795  1.00  0.00    -0.354 N 
ATOM     57  N   UNL A   1      46.156  28.878  27.820  1.00  0.00    -0.248 NA
ATOM     58  C   UNL A   1      48.380  29.438  27.389  1.00  0.00     0.031 C 
ATOM     59  C   UNL A   1      43.182  31.641  29.622  1.00  0.00     0.029 A 
ATOM     60  C   UNL A   1      44.132  30.796  29.069  1.00  0.00     0.049 A 
ATOM     61  H   UNL A   1      43.911  28.811  28.388  1.00  0.00     0.167 HD
ATOM     62  C   UNL A   1      46.389  30.177  28.251  1.00  0.00     0.074 A 
ATOM     63  C   UNL A   1      47.786  30.458  27.991  1.00  0.00     0.031 C 
ATOM     64  C   UNL A   1      45.524  31.057  28.811  1.00  0.00     0.037 A 
BRANCH  51  65
ATOM     65  C   UNL A   1      39.779  28.879  29.445  1.00  0.00     0.064 A 
ATOM     66  C   UNL A   1      38.829  29.372  28.537  1.00  0.00     0.173 A 
ATOM     67  C   UNL A   1      39.355  28.606  30.754  1.00  0.00     0.173 A 
ATOM     68  F   UNL A   1      39.187  29.661  27.277  1.00  0.00    -0.203 F 
ATOM     69  C   UNL A   1      37.516  29.609  28.932  1.00  0.00     0.198 A 
ATOM     70  C   UNL A   1      38.033  28.817  31.138  1.00  0.00     0.198 A 
ATOM     71  F   UNL A   1      40.222  28.128  31.660  1.00  0.00    -0.203 F 
ATOM     72  F   UNL A   1      36.638  30.125  28.060  1.00  0.00    -0.200 F 
ATOM     73  C   UNL A   1      37.117  29.326  30.230  1.00  0.00     0.200 A 
ATOM     74  F   UNL A   1      37.646  28.533  32.389  1.00  0.00    -0.200 F 
ATOM     75  F   UNL A   1      35.851  29.550  30.607  1.00  0.00    -0.200 F 
ENDBRANCH  51  65
BRANCH  52  76
ATOM     76  C   UNL A   1      49.011  26.805  26.281  1.00  0.00     0.064 A 
ATOM     77  C   UNL A   1      49.981  26.281  27.145  1.00  0.00     0.173 A 
ATOM     78  C   UNL A   1      49.380  27.045  24.950  1.00  0.00     0.173 A 
ATOM     79  F   UNL A   1      49.679  26.055  28.432  1.00  0.00    -0.203 F 
ATOM     80  C   UNL A   1      51.276  26.023  26.702  1.00  0.00     0.198 A 
ATOM     81  C   UNL A   1      50.669  26.764  24.501  1.00  0.00     0.198 A 
ATOM     82  F   UNL A   1      48.486  27.541  24.084  1.00  0.00    -0.203 F 
ATOM     83  F   UNL A   1      52.196  25.562  27.559  1.00  0.00    -0.200 F 
ATOM     84  C   UNL A   1      51.618  26.261  25.379  1.00  0.00     0.200 A 
ATOM     85  F   UNL A   1      50.992  26.982  23.219  1.00  0.00    -0.200 F 
ATOM     86  F   UNL A   1      52.863  26.011  24.951  1.00  0.00    -0.200 F 
ENDBRANCH  52  76
BRANCH  64  87
ATOM     87  C   UNL A   1      46.073  32.395  29.211  1.00  0.00     0.064 A 
ATOM     88  C   UNL A   1      46.637  32.610  30.476  1.00  0.00     0.173 A 
ATOM     89  C   UNL A   1      46.054  33.468  28.306  1.00  0.00     0.173 A 
ATOM     90  F   UNL A   1      46.663  31.620  31.381  1.00  0.00    -0.203 F 
ATOM     91  C   UNL A   1      47.139  33.860  30.832  1.00  0.00     0.198 A 
ATOM     92  C   UNL A   1      46.582  34.708  28.656  1.00  0.00     0.198 A 
ATOM     93  F   UNL A   1      45.531  33.311  27.081  1.00  0.00    -0.203 F 
ATOM     94  F   UNL A   1      47.628  34.056  32.064  1.00  0.00    -0.200 F 
ATOM     95  C   UNL A   1      47.115  34.905  29.921  1.00  0.00     0.200 A 
ATOM     96  F   UNL A   1      46.568  35.714  27.771  1.00  0.00    -0.200 F 
ATOM     97  F   UNL A   1      47.599  36.106  30.265  1.00  0.00    -0.200 F 
ENDBRANCH  64  87
ENDBRANCH  38  39
ENDBRANCH  30  33
ENDBRANCH  28  29
ENDBRANCH  27  28
ENDBRANCH  26  27
ENDBRANCH  25  26
ENDBRANCH   1  25
TORSDOF 17
ENDMDL
