MODEL 1
REMARK VINA RESULT:     -11.6      0.000      0.000
REMARK SMILES [NH3+][C@H](C(=O)NCCCCCCNC(=O)c1ccc(-c2c3nc(c(-c4c(F)c(F)c(F)c(F)c4F)c4ccc([nH]4)c(-c4c(F)c(F)c(F)c(F)c4F)c4nc(c(-c5c(F)c(F)c(F)c(F)c5F)c5ccc2[nH]5)C=C4)C=C3)cc1)c1cc(F)c(Cl)c(Cl)c1
REMARK SMILES IDX 9 1 8 2 7 3 6 4 5 5 3 6 4 7 2 9 1 10 78 14 79 15 86 16 80 17
REMARK SMILES IDX 84 18 81 19 82 20 85 21 83 22 10 23 11 24 12 25 13 26 14 28
REMARK SMILES IDX 15 29 16 30 77 31 17 32 76 33 18 34 19 35 20 36 70 37 21 38
REMARK SMILES IDX 75 39 69 40 71 41 22 42 74 43 68 44 67 45 23 47 55 48 35 49
REMARK SMILES IDX 54 50 36 51 39 52 53 53 72 54 37 55 38 56 52 58 73 59 40 60
REMARK SMILES IDX 24 61 25 62 33 63 26 64 27 65 31 66 34 67 28 68 29 69 32 70
REMARK SMILES IDX 30 71 56 72 57 73 65 74 58 75 59 76 63 77 66 78 60 79 61 80
REMARK SMILES IDX 64 81 62 82 41 83 42 84 50 85 43 86 44 87 48 88 51 89 45 90
REMARK SMILES IDX 46 91 49 92 47 93
REMARK H PARENT 5 8 1 11 1 12 1 13 12 27 71 46 39 57
REMARK Flexibility Score: inf
ROOT
ATOM      1  C   UNL A   1      33.642  26.657  25.902  1.00  0.00     0.002 C 
ENDROOT
BRANCH   1   2
ATOM      2  C   UNL A   1      32.804  25.385  26.056  1.00  0.00     0.002 C 
BRANCH   2   3
ATOM      3  C   UNL A   1      33.019  24.278  25.017  1.00  0.00     0.021 C 
BRANCH   3   4
ATOM      4  C   UNL A   1      34.089  24.524  23.954  1.00  0.00     0.116 C 
BRANCH   4   5
ATOM      5  N   UNL A   1      33.564  24.690  22.612  1.00  0.00    -0.351 N 
ATOM      6  C   UNL A   1      33.210  25.809  21.917  1.00  0.00     0.283 C 
ATOM      7  O   UNL A   1      32.993  25.646  20.709  1.00  0.00    -0.268 OA
ATOM      8  H   UNL A   1      33.443  23.848  22.117  1.00  0.00     0.163 HD
BRANCH   6   9
ATOM      9  C   UNL A   1      32.887  27.180  22.575  1.00  0.00     0.302 C 
BRANCH   9  10
ATOM     10  N   UNL A   1      33.655  28.207  21.833  1.00  0.00    -0.343 N 
ATOM     11  H   UNL A   1      33.176  28.427  20.961  1.00  0.00     0.345 HD
ATOM     12  H   UNL A   1      34.588  27.850  21.627  1.00  0.00     0.345 HD
ATOM     13  H   UNL A   1      33.731  29.051  22.401  1.00  0.00     0.345 HD
ENDBRANCH   9  10
BRANCH   9  14
ATOM     14  C   UNL A   1      31.437  27.596  22.777  1.00  0.00     0.023 A 
ATOM     15  C   UNL A   1      30.499  26.783  23.422  1.00  0.00     0.051 A 
ATOM     16  C   UNL A   1      31.010  28.881  22.376  1.00  0.00     0.032 A 
ATOM     17  C   UNL A   1      29.160  27.174  23.504  1.00  0.00     0.143 A 
ATOM     18  C   UNL A   1      29.676  29.288  22.498  1.00  0.00     0.063 A 
ATOM     19  F   UNL A   1      28.283  26.305  24.028  1.00  0.00    -0.205 F 
ATOM     20  C   UNL A   1      28.732  28.415  23.034  1.00  0.00     0.095 A 
ATOM     21  Cl  UNL A   1      29.270  30.878  21.956  1.00  0.00    -0.083 Cl
ATOM     22  Cl  UNL A   1      27.053  28.812  23.127  1.00  0.00    -0.079 Cl
ENDBRANCH   9  14
ENDBRANCH   6   9
ENDBRANCH   4   5
ENDBRANCH   3   4
ENDBRANCH   2   3
ENDBRANCH   1   2
BRANCH   1  23
ATOM     23  C   UNL A   1      32.962  27.971  26.284  1.00  0.00     0.021 C 
BRANCH  23  24
ATOM     24  C   UNL A   1      33.536  29.231  25.645  1.00  0.00     0.116 C 
BRANCH  24  25
ATOM     25  N   UNL A   1      33.004  30.463  26.202  1.00  0.00    -0.352 N 
ATOM     26  C   UNL A   1      33.524  31.264  27.196  1.00  0.00     0.251 C 
ATOM     27  H   UNL A   1      32.153  30.769  25.815  1.00  0.00     0.163 HD
ATOM     28  O   UNL A   1      32.898  32.228  27.612  1.00  0.00    -0.269 OA
BRANCH  26  29
ATOM     29  C   UNL A   1      34.839  30.928  27.790  1.00  0.00     0.039 A 
ATOM     30  C   UNL A   1      35.868  31.874  27.735  1.00  0.00     0.014 A 
ATOM     31  C   UNL A   1      35.047  29.698  28.415  1.00  0.00     0.014 A 
ATOM     32  C   UNL A   1      37.081  31.618  28.381  1.00  0.00     0.010 A 
ATOM     33  C   UNL A   1      36.228  29.473  29.115  1.00  0.00     0.010 A 
ATOM     34  C   UNL A   1      37.254  30.432  29.109  1.00  0.00    -0.014 A 
BRANCH  34  35
ATOM     35  C   UNL A   1      38.495  30.151  29.876  1.00  0.00     0.031 A 
ATOM     36  C   UNL A   1      39.498  29.175  29.332  1.00  0.00     0.074 A 
ATOM     37  C   UNL A   1      38.659  30.670  31.108  1.00  0.00     0.049 A 
ATOM     38  N   UNL A   1      40.540  28.641  29.915  1.00  0.00    -0.248 NA
ATOM     39  C   UNL A   1      39.274  28.712  27.955  1.00  0.00     0.031 C 
ATOM     40  C   UNL A   1      37.738  31.598  31.762  1.00  0.00     0.029 A 
ATOM     41  N   UNL A   1      39.641  30.457  32.044  1.00  0.00    -0.354 N 
ATOM     42  C   UNL A   1      41.072  27.751  28.992  1.00  0.00     0.074 A 
ATOM     43  C   UNL A   1      40.216  27.789  27.826  1.00  0.00     0.031 C 
ATOM     44  C   UNL A   1      38.193  31.870  32.996  1.00  0.00     0.029 A 
ATOM     45  C   UNL A   1      39.411  31.101  33.235  1.00  0.00     0.049 A 
ATOM     46  H   UNL A   1      40.434  29.899  31.876  1.00  0.00     0.167 HD
ATOM     47  C   UNL A   1      42.182  26.983  29.104  1.00  0.00     0.037 A 
ATOM     48  C   UNL A   1      40.089  31.054  34.399  1.00  0.00     0.037 A 
ATOM     49  C   UNL A   1      43.045  26.975  30.254  1.00  0.00     0.049 A 
ATOM     50  C   UNL A   1      41.324  30.201  34.501  1.00  0.00     0.074 A 
ATOM     51  C   UNL A   1      44.235  26.291  30.435  1.00  0.00     0.029 A 
ATOM     52  N   UNL A   1      42.808  27.684  31.424  1.00  0.00    -0.354 N 
ATOM     53  N   UNL A   1      41.856  29.410  33.602  1.00  0.00    -0.248 NA
ATOM     54  C   UNL A   1      42.055  30.236  35.776  1.00  0.00     0.031 C 
ATOM     55  C   UNL A   1      44.693  26.548  31.733  1.00  0.00     0.029 A 
ATOM     56  C   UNL A   1      43.817  27.435  32.340  1.00  0.00     0.049 A 
ATOM     57  H   UNL A   1      42.037  28.276  31.579  1.00  0.00     0.167 HD
ATOM     58  C   UNL A   1      42.997  28.877  34.186  1.00  0.00     0.074 A 
ATOM     59  C   UNL A   1      43.081  29.434  35.521  1.00  0.00     0.031 C 
ATOM     60  C   UNL A   1      43.895  28.009  33.660  1.00  0.00     0.037 A 
BRANCH  47  61
ATOM     61  C   UNL A   1      42.509  26.074  27.954  1.00  0.00     0.064 A 
ATOM     62  C   UNL A   1      43.442  26.433  26.969  1.00  0.00     0.173 A 
ATOM     63  C   UNL A   1      41.878  24.827  27.834  1.00  0.00     0.173 A 
ATOM     64  F   UNL A   1      44.066  27.618  27.030  1.00  0.00    -0.203 F 
ATOM     65  C   UNL A   1      43.697  25.598  25.884  1.00  0.00     0.198 A 
ATOM     66  C   UNL A   1      42.161  23.979  26.766  1.00  0.00     0.198 A 
ATOM     67  F   UNL A   1      40.983  24.430  28.752  1.00  0.00    -0.203 F 
ATOM     68  F   UNL A   1      44.540  25.992  24.921  1.00  0.00    -0.200 F 
ATOM     69  C   UNL A   1      43.059  24.370  25.786  1.00  0.00     0.200 A 
ATOM     70  F   UNL A   1      41.553  22.787  26.680  1.00  0.00    -0.200 F 
ATOM     71  F   UNL A   1      43.301  23.570  24.738  1.00  0.00    -0.200 F 
ENDBRANCH  47  61
BRANCH  48  72
ATOM     72  C   UNL A   1      39.607  31.855  35.553  1.00  0.00     0.064 A 
ATOM     73  C   UNL A   1      40.082  33.154  35.776  1.00  0.00     0.173 A 
ATOM     74  C   UNL A   1      38.631  31.356  36.429  1.00  0.00     0.173 A 
ATOM     75  F   UNL A   1      41.029  33.666  34.976  1.00  0.00    -0.203 F 
ATOM     76  C   UNL A   1      39.602  33.923  36.833  1.00  0.00     0.198 A 
ATOM     77  C   UNL A   1      38.134  32.135  37.472  1.00  0.00     0.198 A 
ATOM     78  F   UNL A   1      38.141  30.120  36.253  1.00  0.00    -0.203 F 
ATOM     79  F   UNL A   1      40.090  35.155  37.038  1.00  0.00    -0.200 F 
ATOM     80  C   UNL A   1      38.621  33.417  37.674  1.00  0.00     0.200 A 
ATOM     81  F   UNL A   1      37.176  31.649  38.271  1.00  0.00    -0.200 F 
ATOM     82  F   UNL A   1      38.147  34.165  38.680  1.00  0.00    -0.200 F 
ENDBRANCH  48  72
BRANCH  60  83
ATOM     83  C   UNL A   1      45.079  27.633  34.502  1.00  0.00     0.064 A 
ATOM     84  C   UNL A   1      46.246  28.409  34.520  1.00  0.00     0.173 A 
ATOM     85  C   UNL A   1      45.006  26.532  35.367  1.00  0.00     0.173 A 
ATOM     86  F   UNL A   1      46.369  29.463  33.699  1.00  0.00    -0.203 F 
ATOM     87  C   UNL A   1      47.301  28.093  35.373  1.00  0.00     0.198 A 
ATOM     88  C   UNL A   1      46.051  26.233  36.237  1.00  0.00     0.198 A 
ATOM     89  F   UNL A   1      43.907  25.762  35.391  1.00  0.00    -0.203 F 
ATOM     90  F   UNL A   1      48.417  28.833  35.359  1.00  0.00    -0.200 F 
ATOM     91  C   UNL A   1      47.197  27.013  36.239  1.00  0.00     0.200 A 
ATOM     92  F   UNL A   1      45.943  25.199  37.082  1.00  0.00    -0.200 F 
ATOM     93  F   UNL A   1      48.204  26.723  37.075  1.00  0.00    -0.200 F 
ENDBRANCH  60  83
ENDBRANCH  34  35
ENDBRANCH  26  29
ENDBRANCH  24  25
ENDBRANCH  23  24
ENDBRANCH   1  23
TORSDOF 15
ENDMDL
MODEL 2
REMARK VINA RESULT:     -11.5      2.171      3.654
REMARK SMILES [NH3+][C@H](C(=O)NCCCCCCNC(=O)c1ccc(-c2c3nc(c(-c4c(F)c(F)c(F)c(F)c4F)c4ccc([nH]4)c(-c4c(F)c(F)c(F)c(F)c4F)c4nc(c(-c5c(F)c(F)c(F)c(F)c5F)c5ccc2[nH]5)C=C4)C=C3)cc1)c1cc(F)c(Cl)c(Cl)c1
REMARK SMILES IDX 9 1 8 2 7 3 6 4 5 5 3 6 4 7 2 9 1 10 78 14 79 15 86 16 80 17
REMARK SMILES IDX 84 18 81 19 82 20 85 21 83 22 10 23 11 24 12 25 13 26 14 28
REMARK SMILES IDX 15 29 16 30 77 31 17 32 76 33 18 34 19 35 20 36 70 37 21 38
REMARK SMILES IDX 75 39 69 40 71 41 22 42 74 43 68 44 67 45 23 47 55 48 35 49
REMARK SMILES IDX 54 50 36 51 39 52 53 53 72 54 37 55 38 56 52 58 73 59 40 60
REMARK SMILES IDX 24 61 25 62 33 63 26 64 27 65 31 66 34 67 28 68 29 69 32 70
REMARK SMILES IDX 30 71 56 72 57 73 65 74 58 75 59 76 63 77 66 78 60 79 61 80
REMARK SMILES IDX 64 81 62 82 41 83 42 84 50 85 43 86 44 87 48 88 51 89 45 90
REMARK SMILES IDX 46 91 49 92 47 93
REMARK H PARENT 5 8 1 11 1 12 1 13 12 27 71 46 39 57
REMARK Flexibility Score: inf
ROOT
ATOM      1  C   UNL A   1      31.778  30.285  26.843  1.00  0.00     0.002 C 
ENDROOT
BRANCH   1   2
ATOM      2  C   UNL A   1      32.286  29.497  25.633  1.00  0.00     0.002 C 
BRANCH   2   3
ATOM      3  C   UNL A   1      33.583  28.701  25.813  1.00  0.00     0.021 C 
BRANCH   3   4
ATOM      4  C   UNL A   1      33.502  27.189  25.603  1.00  0.00     0.116 C 
BRANCH   4   5
ATOM      5  N   UNL A   1      32.346  26.565  26.217  1.00  0.00    -0.351 N 
ATOM      6  C   UNL A   1      31.345  25.807  25.684  1.00  0.00     0.283 C 
ATOM      7  O   UNL A   1      30.609  25.237  26.501  1.00  0.00    -0.268 OA
ATOM      8  H   UNL A   1      32.271  26.716  27.186  1.00  0.00     0.163 HD
BRANCH   6   9
ATOM      9  C   UNL A   1      30.977  25.781  24.174  1.00  0.00     0.302 C 
BRANCH   9  10
ATOM     10  N   UNL A   1      30.278  24.500  23.921  1.00  0.00    -0.343 N 
ATOM     11  H   UNL A   1      30.834  23.730  24.290  1.00  0.00     0.345 HD
ATOM     12  H   UNL A   1      30.149  24.376  22.917  1.00  0.00     0.345 HD
ATOM     13  H   UNL A   1      29.367  24.513  24.381  1.00  0.00     0.345 HD
ENDBRANCH   9  10
BRANCH   9  14
ATOM     14  C   UNL A   1      30.236  26.961  23.560  1.00  0.00     0.023 A 
ATOM     15  C   UNL A   1      30.867  27.917  22.758  1.00  0.00     0.051 A 
ATOM     16  C   UNL A   1      28.839  27.077  23.725  1.00  0.00     0.032 A 
ATOM     17  C   UNL A   1      30.160  29.028  22.291  1.00  0.00     0.143 A 
ATOM     18  C   UNL A   1      28.123  28.169  23.219  1.00  0.00     0.063 A 
ATOM     19  F   UNL A   1      30.842  29.973  21.626  1.00  0.00    -0.205 F 
ATOM     20  C   UNL A   1      28.793  29.175  22.525  1.00  0.00     0.095 A 
ATOM     21  Cl  UNL A   1      26.418  28.211  23.501  1.00  0.00    -0.083 Cl
ATOM     22  Cl  UNL A   1      27.994  30.597  21.957  1.00  0.00    -0.079 Cl
ENDBRANCH   9  14
ENDBRANCH   6   9
ENDBRANCH   4   5
ENDBRANCH   3   4
ENDBRANCH   2   3
ENDBRANCH   1   2
BRANCH   1  23
ATOM     23  C   UNL A   1      31.685  31.802  26.681  1.00  0.00     0.021 C 
BRANCH  23  24
ATOM     24  C   UNL A   1      32.821  32.611  27.297  1.00  0.00     0.116 C 
BRANCH  24  25
ATOM     25  N   UNL A   1      32.455  33.979  27.620  1.00  0.00    -0.352 N 
ATOM     26  C   UNL A   1      33.018  34.837  28.539  1.00  0.00     0.251 C 
ATOM     27  H   UNL A   1      31.697  34.347  27.110  1.00  0.00     0.163 HD
ATOM     28  O   UNL A   1      32.527  35.936  28.751  1.00  0.00    -0.269 OA
BRANCH  26  29
ATOM     29  C   UNL A   1      34.211  34.404  29.304  1.00  0.00     0.039 A 
ATOM     30  C   UNL A   1      34.033  33.793  30.549  1.00  0.00     0.014 A 
ATOM     31  C   UNL A   1      35.494  34.580  28.785  1.00  0.00     0.014 A 
ATOM     32  C   UNL A   1      35.138  33.284  31.238  1.00  0.00     0.010 A 
ATOM     33  C   UNL A   1      36.585  34.012  29.437  1.00  0.00     0.010 A 
ATOM     34  C   UNL A   1      36.416  33.355  30.667  1.00  0.00    -0.014 A 
BRANCH  34  35
ATOM     35  C   UNL A   1      37.609  32.758  31.323  1.00  0.00     0.031 A 
ATOM     36  C   UNL A   1      38.301  31.590  30.684  1.00  0.00     0.074 A 
ATOM     37  C   UNL A   1      37.987  33.181  32.545  1.00  0.00     0.049 A 
ATOM     38  N   UNL A   1      39.225  30.802  31.171  1.00  0.00    -0.248 NA
ATOM     39  C   UNL A   1      37.865  31.241  29.324  1.00  0.00     0.031 C 
ATOM     40  C   UNL A   1      37.371  34.280  33.287  1.00  0.00     0.029 A 
ATOM     41  N   UNL A   1      38.958  32.708  33.393  1.00  0.00    -0.354 N 
ATOM     42  C   UNL A   1      39.454  29.843  30.194  1.00  0.00     0.074 A 
ATOM     43  C   UNL A   1      38.544  30.125  29.104  1.00  0.00     0.031 C 
ATOM     44  C   UNL A   1      37.972  34.393  34.482  1.00  0.00     0.029 A 
ATOM     45  C   UNL A   1      38.983  33.347  34.608  1.00  0.00     0.049 A 
ATOM     46  H   UNL A   1      39.578  31.982  33.152  1.00  0.00     0.167 HD
ATOM     47  C   UNL A   1      40.350  28.828  30.203  1.00  0.00     0.037 A 
ATOM     48  C   UNL A   1      39.718  33.101  35.710  1.00  0.00     0.037 A 
ATOM     49  C   UNL A   1      41.273  28.575  31.277  1.00  0.00     0.049 A 
ATOM     50  C   UNL A   1      40.714  31.974  35.697  1.00  0.00     0.074 A 
ATOM     51  C   UNL A   1      42.273  27.621  31.349  1.00  0.00     0.029 A 
ATOM     52  N   UNL A   1      41.304  29.280  32.472  1.00  0.00    -0.354 N 
ATOM     53  N   UNL A   1      40.969  31.109  34.746  1.00  0.00    -0.248 NA
ATOM     54  C   UNL A   1      41.528  31.789  36.907  1.00  0.00     0.031 C 
ATOM     55  C   UNL A   1      42.878  27.716  32.607  1.00  0.00     0.029 A 
ATOM     56  C   UNL A   1      42.291  28.766  33.297  1.00  0.00     0.049 A 
ATOM     57  H   UNL A   1      40.713  30.034  32.699  1.00  0.00     0.167 HD
ATOM     58  C   UNL A   1      41.988  30.299  35.226  1.00  0.00     0.074 A 
ATOM     59  C   UNL A   1      42.308  30.774  36.557  1.00  0.00     0.031 C 
ATOM     60  C   UNL A   1      42.607  29.259  34.615  1.00  0.00     0.037 A 
BRANCH  47  61
ATOM     61  C   UNL A   1      40.359  27.907  29.016  1.00  0.00     0.064 A 
ATOM     62  C   UNL A   1      39.629  26.709  29.004  1.00  0.00     0.173 A 
ATOM     63  C   UNL A   1      41.109  28.228  27.875  1.00  0.00     0.173 A 
ATOM     64  F   UNL A   1      38.903  26.349  30.073  1.00  0.00    -0.203 F 
ATOM     65  C   UNL A   1      39.687  25.845  27.914  1.00  0.00     0.198 A 
ATOM     66  C   UNL A   1      41.138  27.378  26.772  1.00  0.00     0.198 A 
ATOM     67  F   UNL A   1      41.819  29.366  27.829  1.00  0.00    -0.203 F 
ATOM     68  F   UNL A   1      39.038  24.674  27.953  1.00  0.00    -0.200 F 
ATOM     69  C   UNL A   1      40.438  26.182  26.797  1.00  0.00     0.200 A 
ATOM     70  F   UNL A   1      41.853  27.712  25.689  1.00  0.00    -0.200 F 
ATOM     71  F   UNL A   1      40.498  25.347  25.751  1.00  0.00    -0.200 F 
ENDBRANCH  47  61
BRANCH  48  72
ATOM     72  C   UNL A   1      39.534  33.953  36.912  1.00  0.00     0.064 A 
ATOM     73  C   UNL A   1      38.726  33.531  37.977  1.00  0.00     0.173 A 
ATOM     74  C   UNL A   1      40.195  35.184  37.042  1.00  0.00     0.173 A 
ATOM     75  F   UNL A   1      38.059  32.370  37.890  1.00  0.00    -0.203 F 
ATOM     76  C   UNL A   1      38.584  34.308  39.124  1.00  0.00     0.198 A 
ATOM     77  C   UNL A   1      40.072  35.949  38.199  1.00  0.00     0.198 A 
ATOM     78  F   UNL A   1      40.985  35.628  36.052  1.00  0.00    -0.203 F 
ATOM     79  F   UNL A   1      37.787  33.892  40.118  1.00  0.00    -0.200 F 
ATOM     80  C   UNL A   1      39.264  35.512  39.238  1.00  0.00     0.200 A 
ATOM     81  F   UNL A   1      40.743  37.102  38.312  1.00  0.00    -0.200 F 
ATOM     82  F   UNL A   1      39.141  36.250  40.350  1.00  0.00    -0.200 F 
ENDBRANCH  48  72
BRANCH  60  83
ATOM     83  C   UNL A   1      43.727  28.583  35.350  1.00  0.00     0.064 A 
ATOM     84  C   UNL A   1      43.496  27.505  36.215  1.00  0.00     0.173 A 
ATOM     85  C   UNL A   1      45.056  28.965  35.112  1.00  0.00     0.173 A 
ATOM     86  F   UNL A   1      42.241  27.113  36.485  1.00  0.00    -0.203 F 
ATOM     87  C   UNL A   1      44.556  26.835  36.820  1.00  0.00     0.198 A 
ATOM     88  C   UNL A   1      46.115  28.276  35.698  1.00  0.00     0.198 A 
ATOM     89  F   UNL A   1      45.329  29.986  34.287  1.00  0.00    -0.203 F 
ATOM     90  F   UNL A   1      44.313  25.821  37.661  1.00  0.00    -0.200 F 
ATOM     91  C   UNL A   1      45.864  27.213  36.552  1.00  0.00     0.200 A 
ATOM     92  F   UNL A   1      47.377  28.635  35.427  1.00  0.00    -0.200 F 
ATOM     93  F   UNL A   1      46.884  26.553  37.118  1.00  0.00    -0.200 F 
ENDBRANCH  60  83
ENDBRANCH  34  35
ENDBRANCH  26  29
ENDBRANCH  24  25
ENDBRANCH  23  24
ENDBRANCH   1  23
TORSDOF 15
ENDMDL
MODEL 3
REMARK VINA RESULT:     -11.5      5.343     10.309
REMARK SMILES [NH3+][C@H](C(=O)NCCCCCCNC(=O)c1ccc(-c2c3nc(c(-c4c(F)c(F)c(F)c(F)c4F)c4ccc([nH]4)c(-c4c(F)c(F)c(F)c(F)c4F)c4nc(c(-c5c(F)c(F)c(F)c(F)c5F)c5ccc2[nH]5)C=C4)C=C3)cc1)c1cc(F)c(Cl)c(Cl)c1
REMARK SMILES IDX 9 1 8 2 7 3 6 4 5 5 3 6 4 7 2 9 1 10 78 14 79 15 86 16 80 17
REMARK SMILES IDX 84 18 81 19 82 20 85 21 83 22 10 23 11 24 12 25 13 26 14 28
REMARK SMILES IDX 15 29 16 30 77 31 17 32 76 33 18 34 19 35 20 36 70 37 21 38
REMARK SMILES IDX 75 39 69 40 71 41 22 42 74 43 68 44 67 45 23 47 55 48 35 49
REMARK SMILES IDX 54 50 36 51 39 52 53 53 72 54 37 55 38 56 52 58 73 59 40 60
REMARK SMILES IDX 24 61 25 62 33 63 26 64 27 65 31 66 34 67 28 68 29 69 32 70
REMARK SMILES IDX 30 71 56 72 57 73 65 74 58 75 59 76 63 77 66 78 60 79 61 80
REMARK SMILES IDX 64 81 62 82 41 83 42 84 50 85 43 86 44 87 48 88 51 89 45 90
REMARK SMILES IDX 46 91 49 92 47 93
REMARK H PARENT 5 8 1 11 1 12 1 13 12 27 71 46 39 57
REMARK Flexibility Score: inf
ROOT
ATOM      1  C   UNL A   1      36.510  20.997  25.357  1.00  0.00     0.002 C 
ENDROOT
BRANCH   1   2
ATOM      2  C   UNL A   1      35.929  21.960  24.319  1.00  0.00     0.002 C 
BRANCH   2   3
ATOM      3  C   UNL A   1      36.210  23.454  24.519  1.00  0.00     0.021 C 
BRANCH   3   4
ATOM      4  C   UNL A   1      35.198  24.245  25.347  1.00  0.00     0.116 C 
BRANCH   4   5
ATOM      5  N   UNL A   1      34.166  24.893  24.561  1.00  0.00    -0.351 N 
ATOM      6  C   UNL A   1      32.811  24.742  24.557  1.00  0.00     0.283 C 
ATOM      7  O   UNL A   1      32.176  25.593  23.919  1.00  0.00    -0.268 OA
ATOM      8  H   UNL A   1      34.503  25.558  23.919  1.00  0.00     0.163 HD
BRANCH   6   9
ATOM      9  C   UNL A   1      32.069  23.499  25.124  1.00  0.00     0.302 C 
BRANCH   9  10
ATOM     10  N   UNL A   1      30.653  23.891  25.316  1.00  0.00    -0.343 N 
ATOM     11  H   UNL A   1      30.092  23.531  24.545  1.00  0.00     0.345 HD
ATOM     12  H   UNL A   1      30.583  24.909  25.341  1.00  0.00     0.345 HD
ATOM     13  H   UNL A   1      30.310  23.506  26.196  1.00  0.00     0.345 HD
ENDBRANCH   9  10
BRANCH   9  14
ATOM     14  C   UNL A   1      32.192  22.159  24.413  1.00  0.00     0.023 A 
ATOM     15  C   UNL A   1      32.121  22.030  23.022  1.00  0.00     0.051 A 
ATOM     16  C   UNL A   1      32.468  20.991  25.156  1.00  0.00     0.032 A 
ATOM     17  C   UNL A   1      32.153  20.767  22.425  1.00  0.00     0.143 A 
ATOM     18  C   UNL A   1      32.542  19.730  24.551  1.00  0.00     0.063 A 
ATOM     19  F   UNL A   1      31.963  20.695  21.099  1.00  0.00    -0.205 F 
ATOM     20  C   UNL A   1      32.348  19.609  23.177  1.00  0.00     0.095 A 
ATOM     21  Cl  UNL A   1      32.867  18.370  25.567  1.00  0.00    -0.083 Cl
ATOM     22  Cl  UNL A   1      32.330  18.078  22.376  1.00  0.00    -0.079 Cl
ENDBRANCH   9  14
ENDBRANCH   6   9
ENDBRANCH   4   5
ENDBRANCH   3   4
ENDBRANCH   2   3
ENDBRANCH   1   2
BRANCH   1  23
ATOM     23  C   UNL A   1      37.765  20.227  24.946  1.00  0.00     0.021 C 
BRANCH  23  24
ATOM     24  C   UNL A   1      39.022  20.515  25.759  1.00  0.00     0.116 C 
BRANCH  24  25
ATOM     25  N   UNL A   1      39.942  19.392  25.830  1.00  0.00    -0.352 N 
ATOM     26  C   UNL A   1      41.295  19.391  26.089  1.00  0.00     0.251 C 
ATOM     27  H   UNL A   1      39.542  18.506  25.671  1.00  0.00     0.163 HD
ATOM     28  O   UNL A   1      41.942  18.356  26.022  1.00  0.00    -0.269 OA
BRANCH  26  29
ATOM     29  C   UNL A   1      41.975  20.666  26.415  1.00  0.00     0.039 A 
ATOM     30  C   UNL A   1      42.317  21.537  25.376  1.00  0.00     0.014 A 
ATOM     31  C   UNL A   1      42.254  21.007  27.739  1.00  0.00     0.014 A 
ATOM     32  C   UNL A   1      42.864  22.789  25.670  1.00  0.00     0.010 A 
ATOM     33  C   UNL A   1      42.733  22.280  28.035  1.00  0.00     0.010 A 
ATOM     34  C   UNL A   1      43.038  23.184  27.004  1.00  0.00    -0.014 A 
BRANCH  34  35
ATOM     35  C   UNL A   1      43.542  24.534  27.368  1.00  0.00     0.031 A 
ATOM     36  C   UNL A   1      42.586  25.566  27.892  1.00  0.00     0.074 A 
ATOM     37  C   UNL A   1      44.821  24.868  27.110  1.00  0.00     0.049 A 
ATOM     38  N   UNL A   1      42.769  26.848  28.084  1.00  0.00    -0.248 NA
ATOM     39  C   UNL A   1      41.229  25.096  28.206  1.00  0.00     0.031 C 
ATOM     40  C   UNL A   1      45.836  23.967  26.566  1.00  0.00     0.029 A 
ATOM     41  N   UNL A   1      45.473  26.070  27.236  1.00  0.00    -0.354 N 
ATOM     42  C   UNL A   1      41.542  27.342  28.504  1.00  0.00     0.074 A 
ATOM     43  C   UNL A   1      40.614  26.232  28.501  1.00  0.00     0.031 C 
ATOM     44  C   UNL A   1      46.981  24.648  26.398  1.00  0.00     0.029 A 
ATOM     45  C   UNL A   1      46.768  26.042  26.778  1.00  0.00     0.049 A 
ATOM     46  H   UNL A   1      45.054  26.874  27.620  1.00  0.00     0.167 HD
ATOM     47  C   UNL A   1      41.224  28.607  28.872  1.00  0.00     0.037 A 
ATOM     48  C   UNL A   1      47.672  27.032  26.651  1.00  0.00     0.037 A 
ATOM     49  C   UNL A   1      42.160  29.698  28.903  1.00  0.00     0.049 A 
ATOM     50  C   UNL A   1      47.302  28.429  27.072  1.00  0.00     0.074 A 
ATOM     51  C   UNL A   1      41.956  30.998  29.333  1.00  0.00     0.029 A 
ATOM     52  N   UNL A   1      43.480  29.617  28.481  1.00  0.00    -0.354 N 
ATOM     53  N   UNL A   1      46.158  28.876  27.528  1.00  0.00    -0.248 NA
ATOM     54  C   UNL A   1      48.348  29.457  26.965  1.00  0.00     0.031 C 
ATOM     55  C   UNL A   1      43.139  31.716  29.126  1.00  0.00     0.029 A 
ATOM     56  C   UNL A   1      44.096  30.850  28.619  1.00  0.00     0.049 A 
ATOM     57  H   UNL A   1      43.914  28.803  28.136  1.00  0.00     0.167 HD
ATOM     58  C   UNL A   1      46.351  30.226  27.791  1.00  0.00     0.074 A 
ATOM     59  C   UNL A   1      47.725  30.527  27.443  1.00  0.00     0.031 C 
ATOM     60  C   UNL A   1      45.469  31.131  28.282  1.00  0.00     0.037 A 
BRANCH  47  61
ATOM     61  C   UNL A   1      39.795  28.874  29.252  1.00  0.00     0.064 A 
ATOM     62  C   UNL A   1      39.338  28.720  30.569  1.00  0.00     0.173 A 
ATOM     63  C   UNL A   1      38.870  29.290  28.283  1.00  0.00     0.173 A 
ATOM     64  F   UNL A   1      40.179  28.314  31.532  1.00  0.00    -0.203 F 
ATOM     65  C   UNL A   1      38.000  28.926  30.893  1.00  0.00     0.198 A 
ATOM     66  C   UNL A   1      37.540  29.530  28.616  1.00  0.00     0.198 A 
ATOM     67  F   UNL A   1      39.255  29.462  27.008  1.00  0.00    -0.203 F 
ATOM     68  F   UNL A   1      37.573  28.705  32.143  1.00  0.00    -0.200 F 
ATOM     69  C   UNL A   1      37.103  29.335  29.917  1.00  0.00     0.200 A 
ATOM     70  F   UNL A   1      36.677  29.937  27.675  1.00  0.00    -0.200 F 
ATOM     71  F   UNL A   1      35.813  29.528  30.229  1.00  0.00    -0.200 F 
ENDBRANCH  47  61
BRANCH  48  72
ATOM     72  C   UNL A   1      49.018  26.723  26.106  1.00  0.00     0.064 A 
ATOM     73  C   UNL A   1      49.318  26.952  24.757  1.00  0.00     0.173 A 
ATOM     74  C   UNL A   1      50.044  26.235  26.930  1.00  0.00     0.173 A 
ATOM     75  F   UNL A   1      48.364  27.401  23.927  1.00  0.00    -0.203 F 
ATOM     76  C   UNL A   1      50.591  26.703  24.251  1.00  0.00     0.198 A 
ATOM     77  C   UNL A   1      51.324  26.008  26.428  1.00  0.00     0.198 A 
ATOM     78  F   UNL A   1      49.807  26.005  28.230  1.00  0.00    -0.203 F 
ATOM     79  F   UNL A   1      50.846  26.909  22.951  1.00  0.00    -0.200 F 
ATOM     80  C   UNL A   1      51.596  26.240  25.088  1.00  0.00     0.200 A 
ATOM     81  F   UNL A   1      52.294  25.578  27.244  1.00  0.00    -0.200 F 
ATOM     82  F   UNL A   1      52.826  26.017  24.604  1.00  0.00    -0.200 F 
ENDBRANCH  48  72
BRANCH  60  83
ATOM     83  C   UNL A   1      45.963  32.527  28.522  1.00  0.00     0.064 A 
ATOM     84  C   UNL A   1      46.587  32.893  29.722  1.00  0.00     0.173 A 
ATOM     85  C   UNL A   1      45.887  33.485  27.500  1.00  0.00     0.173 A 
ATOM     86  F   UNL A   1      46.670  32.016  30.735  1.00  0.00    -0.203 F 
ATOM     87  C   UNL A   1      47.116  34.170  29.892  1.00  0.00     0.198 A 
ATOM     88  C   UNL A   1      46.440  34.753  27.663  1.00  0.00     0.198 A 
ATOM     89  F   UNL A   1      45.305  33.182  26.330  1.00  0.00    -0.203 F 
ATOM     90  F   UNL A   1      47.689  34.507  31.055  1.00  0.00    -0.200 F 
ATOM     91  C   UNL A   1      47.053  35.094  28.859  1.00  0.00     0.200 A 
ATOM     92  F   UNL A   1      46.390  35.638  26.659  1.00  0.00    -0.200 F 
ATOM     93  F   UNL A   1      47.582  36.315  29.016  1.00  0.00    -0.200 F 
ENDBRANCH  60  83
ENDBRANCH  34  35
ENDBRANCH  26  29
ENDBRANCH  24  25
ENDBRANCH  23  24
ENDBRANCH   1  23
TORSDOF 15
ENDMDL
