MODEL 1
REMARK VINA RESULT:     -12.3      0.000      0.000
REMARK SMILES O=C(COc1cc(-c2ccccc2)nc(Nc2ccccc2Br)n1)NCCCCCCNC(=O)c1ccc(-c2c3nc(c(-c4c(F)c(F)c(F)c(F)c4F)c4ccc([nH]4)c(-c4c(F)c(F)c(F)c(F)c4F)c4nc(c(-c5c(F)c(F)c(F)c(F)c5F)c5ccc2[nH]5)C=C4)C=C3)cc1
REMARK SMILES IDX 27 1 26 2 25 3 1 4 2 5 3 7 4 8 5 9 6 10 24 11 7 12 15 13
REMARK SMILES IDX 14 14 8 15 9 16 13 17 10 18 12 19 11 20 16 21 17 23 18 24
REMARK SMILES IDX 22 25 19 26 21 27 23 28 20 29 28 30 29 31 30 32 31 33 32 34
REMARK SMILES IDX 33 35 34 37 35 38 36 39 97 40 37 41 96 42 38 43 39 44 40 45
REMARK SMILES IDX 90 46 41 47 95 48 89 49 91 50 42 51 94 52 88 53 87 54 43 56
REMARK SMILES IDX 75 57 55 58 74 59 56 60 59 61 73 62 92 63 57 64 58 65 72 67
REMARK SMILES IDX 93 68 60 69 44 70 45 71 53 72 46 73 47 74 51 75 54 76 48 77
REMARK SMILES IDX 49 78 52 79 50 80 76 81 77 82 85 83 78 84 79 85 83 86 86 87
REMARK SMILES IDX 80 88 81 89 84 90 82 91 61 92 62 93 70 94 63 95 64 96 68 97
REMARK SMILES IDX 71 98 65 99 66 100 69 101 67 102
REMARK H PARENT 25 6 16 22 32 36 91 55 59 66
REMARK Flexibility Score: inf
ROOT
ATOM      1  C   UNL A   1      41.321  21.978  26.201  1.00  0.00     0.021 C 
ENDROOT
BRANCH   1   2
ATOM      2  C   UNL A   1      39.975  22.336  26.823  1.00  0.00     0.116 C 
BRANCH   2   3
ATOM      3  N   UNL A   1      38.968  22.632  25.827  1.00  0.00    -0.353 N 
ATOM      4  O   UNL A   1      38.388  20.458  25.352  1.00  0.00    -0.271 OA
ATOM      5  C   UNL A   1      38.193  21.661  25.223  1.00  0.00     0.258 C 
ATOM      6  H   UNL A   1      38.828  23.571  25.568  1.00  0.00     0.163 HD
BRANCH   5   7
ATOM      7  C   UNL A   1      37.046  22.233  24.383  1.00  0.00     0.331 C 
BRANCH   7   8
ATOM      8  O   UNL A   1      35.917  22.594  25.184  1.00  0.00    -0.467 OA
BRANCH   8   9
ATOM      9  C   UNL A   1      34.795  21.906  24.789  1.00  0.00     0.219 A 
ATOM     10  C   UNL A   1      34.731  20.546  24.926  1.00  0.00     0.097 A 
ATOM     11  N   UNL A   1      33.774  22.657  24.373  1.00  0.00    -0.177 NA
ATOM     12  C   UNL A   1      33.547  19.958  24.549  1.00  0.00     0.080 A 
ATOM     13  C   UNL A   1      32.649  22.013  24.027  1.00  0.00     0.231 A 
ATOM     14  N   UNL A   1      32.499  20.678  24.100  1.00  0.00    -0.212 NA
BRANCH  12  15
ATOM     15  C   UNL A   1      33.394  18.498  24.599  1.00  0.00     0.000 A 
ATOM     16  C   UNL A   1      34.095  17.670  23.708  1.00  0.00     0.010 A 
ATOM     17  C   UNL A   1      32.607  17.884  25.591  1.00  0.00     0.010 A 
ATOM     18  C   UNL A   1      34.038  16.279  23.827  1.00  0.00     0.001 A 
ATOM     19  C   UNL A   1      32.544  16.494  25.706  1.00  0.00     0.001 A 
ATOM     20  C   UNL A   1      33.268  15.692  24.828  1.00  0.00     0.000 A 
ENDBRANCH  12  15
BRANCH  13  21
ATOM     21  N   UNL A   1      31.523  22.730  23.636  1.00  0.00    -0.323 N 
ATOM     22  H   UNL A   1      30.896  22.243  23.054  1.00  0.00     0.170 HD
BRANCH  21  23
ATOM     23  C   UNL A   1      31.152  24.044  23.949  1.00  0.00     0.055 A 
ATOM     24  C   UNL A   1      31.256  25.013  22.937  1.00  0.00     0.027 A 
ATOM     25  C   UNL A   1      30.622  24.443  25.191  1.00  0.00     0.041 A 
ATOM     26  C   UNL A   1      30.837  26.331  23.145  1.00  0.00     0.002 A 
ATOM     27  C   UNL A   1      30.206  25.764  25.400  1.00  0.00     0.018 A 
ATOM     28  Br  UNL A   1      30.566  23.284  26.702  1.00  0.00    -0.049 Br
ATOM     29  C   UNL A   1      30.308  26.705  24.377  1.00  0.00     0.001 A 
ENDBRANCH  21  23
ENDBRANCH  13  21
ENDBRANCH   8   9
ENDBRANCH   7   8
ENDBRANCH   5   7
ENDBRANCH   2   3
ENDBRANCH   1   2
BRANCH   1  30
ATOM     30  C   UNL A   1      41.986  20.725  26.784  1.00  0.00     0.002 C 
BRANCH  30  31
ATOM     31  C   UNL A   1      41.786  19.431  25.989  1.00  0.00     0.002 C 
BRANCH  31  32
ATOM     32  C   UNL A   1      42.735  18.283  26.337  1.00  0.00     0.021 C 
BRANCH  32  33
ATOM     33  C   UNL A   1      44.216  18.546  26.075  1.00  0.00     0.116 C 
BRANCH  33  34
ATOM     34  N   UNL A   1      44.538  18.606  24.659  1.00  0.00    -0.352 N 
ATOM     35  C   UNL A   1      44.772  19.693  23.854  1.00  0.00     0.251 C 
ATOM     36  H   UNL A   1      44.601  17.734  24.208  1.00  0.00     0.163 HD
ATOM     37  O   UNL A   1      44.908  19.536  22.640  1.00  0.00    -0.269 OA
BRANCH  35  38
ATOM     38  C   UNL A   1      44.827  21.059  24.421  1.00  0.00     0.039 A 
ATOM     39  C   UNL A   1      45.316  21.221  25.722  1.00  0.00     0.014 A 
ATOM     40  C   UNL A   1      44.387  22.173  23.700  1.00  0.00     0.014 A 
ATOM     41  C   UNL A   1      45.425  22.502  26.271  1.00  0.00     0.010 A 
ATOM     42  C   UNL A   1      44.556  23.454  24.223  1.00  0.00     0.010 A 
ATOM     43  C   UNL A   1      45.080  23.632  25.512  1.00  0.00    -0.014 A 
BRANCH  43  44
ATOM     44  C   UNL A   1      45.296  24.999  26.051  1.00  0.00     0.031 A 
ATOM     45  C   UNL A   1      46.655  25.638  26.014  1.00  0.00     0.074 A 
ATOM     46  C   UNL A   1      44.264  25.652  26.621  1.00  0.00     0.049 A 
ATOM     47  N   UNL A   1      47.024  26.824  26.433  1.00  0.00    -0.248 NA
ATOM     48  C   UNL A   1      47.750  24.831  25.458  1.00  0.00     0.031 C 
ATOM     49  C   UNL A   1      42.909  25.119  26.773  1.00  0.00     0.029 A 
ATOM     50  N   UNL A   1      44.193  26.905  27.178  1.00  0.00    -0.354 N 
ATOM     51  C   UNL A   1      48.391  26.898  26.202  1.00  0.00     0.074 A 
ATOM     52  C   UNL A   1      48.795  25.623  25.651  1.00  0.00     0.031 C 
ATOM     53  C   UNL A   1      42.133  26.051  27.349  1.00  0.00     0.029 A 
ATOM     54  C   UNL A   1      42.939  27.233  27.634  1.00  0.00     0.049 A 
ATOM     55  H   UNL A   1      44.967  27.510  27.246  1.00  0.00     0.167 HD
ATOM     56  C   UNL A   1      49.228  27.944  26.410  1.00  0.00     0.037 A 
ATOM     57  C   UNL A   1      42.489  28.362  28.211  1.00  0.00     0.037 A 
ATOM     58  C   UNL A   1      48.819  29.222  26.933  1.00  0.00     0.049 A 
ATOM     59  C   UNL A   1      43.437  29.511  28.421  1.00  0.00     0.074 A 
ATOM     60  C   UNL A   1      49.575  30.371  27.098  1.00  0.00     0.029 A 
ATOM     61  N   UNL A   1      47.541  29.518  27.386  1.00  0.00    -0.354 N 
ATOM     62  N   UNL A   1      44.707  29.603  28.114  1.00  0.00    -0.248 NA
ATOM     63  C   UNL A   1      42.882  30.716  29.052  1.00  0.00     0.031 C 
ATOM     64  C   UNL A   1      48.767  31.346  27.694  1.00  0.00     0.029 A 
ATOM     65  C   UNL A   1      47.495  30.822  27.858  1.00  0.00     0.049 A 
ATOM     66  H   UNL A   1      46.780  28.895  27.373  1.00  0.00     0.167 HD
ATOM     67  C   UNL A   1      45.100  30.879  28.494  1.00  0.00     0.074 A 
ATOM     68  C   UNL A   1      43.925  31.532  29.036  1.00  0.00     0.031 C 
ATOM     69  C   UNL A   1      46.323  31.456  28.404  1.00  0.00     0.037 A 
BRANCH  56  70
ATOM     70  C   UNL A   1      50.677  27.747  26.070  1.00  0.00     0.064 A 
ATOM     71  C   UNL A   1      51.163  27.943  24.768  1.00  0.00     0.173 A 
ATOM     72  C   UNL A   1      51.599  27.387  27.065  1.00  0.00     0.173 A 
ATOM     73  F   UNL A   1      50.322  28.278  23.777  1.00  0.00    -0.203 F 
ATOM     74  C   UNL A   1      52.510  27.751  24.468  1.00  0.00     0.198 A 
ATOM     75  C   UNL A   1      52.949  27.225  26.767  1.00  0.00     0.198 A 
ATOM     76  F   UNL A   1      51.190  27.195  28.328  1.00  0.00    -0.203 F 
ATOM     77  F   UNL A   1      52.939  27.891  23.206  1.00  0.00    -0.200 F 
ATOM     78  C   UNL A   1      53.402  27.398  25.468  1.00  0.00     0.200 A 
ATOM     79  F   UNL A   1      53.813  26.897  27.738  1.00  0.00    -0.200 F 
ATOM     80  F   UNL A   1      54.698  27.216  25.179  1.00  0.00    -0.200 F 
ENDBRANCH  56  70
BRANCH  57  81
ATOM     81  C   UNL A   1      41.058  28.479  28.587  1.00  0.00     0.064 A 
ATOM     82  C   UNL A   1      40.616  28.081  29.856  1.00  0.00     0.173 A 
ATOM     83  C   UNL A   1      40.107  28.997  27.696  1.00  0.00     0.173 A 
ATOM     84  F   UNL A   1      41.488  27.560  30.734  1.00  0.00    -0.203 F 
ATOM     85  C   UNL A   1      39.275  28.182  30.217  1.00  0.00     0.198 A 
ATOM     86  C   UNL A   1      38.770  29.122  28.066  1.00  0.00     0.198 A 
ATOM     87  F   UNL A   1      40.480  29.396  26.471  1.00  0.00    -0.203 F 
ATOM     88  F   UNL A   1      38.874  27.759  31.423  1.00  0.00    -0.200 F 
ATOM     89  C   UNL A   1      38.353  28.708  29.324  1.00  0.00     0.200 A 
ATOM     90  F   UNL A   1      37.884  29.642  27.206  1.00  0.00    -0.200 F 
ATOM     91  F   UNL A   1      37.064  28.812  29.672  1.00  0.00    -0.200 F 
ENDBRANCH  57  81
BRANCH  69  92
ATOM     92  C   UNL A   1      46.446  32.872  28.891  1.00  0.00     0.064 A 
ATOM     93  C   UNL A   1      46.216  33.963  28.040  1.00  0.00     0.173 A 
ATOM     94  C   UNL A   1      46.787  33.140  30.225  1.00  0.00     0.173 A 
ATOM     95  F   UNL A   1      45.906  33.759  26.751  1.00  0.00    -0.203 F 
ATOM     96  C   UNL A   1      46.354  35.270  28.498  1.00  0.00     0.198 A 
ATOM     97  C   UNL A   1      46.894  34.448  30.688  1.00  0.00     0.198 A 
ATOM     98  F   UNL A   1      47.012  32.132  31.082  1.00  0.00    -0.203 F 
ATOM     99  F   UNL A   1      46.184  36.296  27.652  1.00  0.00    -0.200 F 
ATOM    100  C   UNL A   1      46.687  35.511  29.823  1.00  0.00     0.200 A 
ATOM    101  F   UNL A   1      47.206  34.680  31.971  1.00  0.00    -0.200 F 
ATOM    102  F   UNL A   1      46.821  36.771  30.263  1.00  0.00    -0.200 F 
ENDBRANCH  69  92
ENDBRANCH  43  44
ENDBRANCH  35  38
ENDBRANCH  33  34
ENDBRANCH  32  33
ENDBRANCH  31  32
ENDBRANCH  30  31
ENDBRANCH   1  30
TORSDOF 18
ENDMDL
MODEL 2
REMARK VINA RESULT:     -12.2      6.747     12.608
REMARK SMILES O=C(COc1cc(-c2ccccc2)nc(Nc2ccccc2Br)n1)NCCCCCCNC(=O)c1ccc(-c2c3nc(c(-c4c(F)c(F)c(F)c(F)c4F)c4ccc([nH]4)c(-c4c(F)c(F)c(F)c(F)c4F)c4nc(c(-c5c(F)c(F)c(F)c(F)c5F)c5ccc2[nH]5)C=C4)C=C3)cc1
REMARK SMILES IDX 27 1 26 2 25 3 1 4 2 5 3 7 4 8 5 9 6 10 24 11 7 12 15 13
REMARK SMILES IDX 14 14 8 15 9 16 13 17 10 18 12 19 11 20 16 21 17 23 18 24
REMARK SMILES IDX 22 25 19 26 21 27 23 28 20 29 28 30 29 31 30 32 31 33 32 34
REMARK SMILES IDX 33 35 34 37 35 38 36 39 97 40 37 41 96 42 38 43 39 44 40 45
REMARK SMILES IDX 90 46 41 47 95 48 89 49 91 50 42 51 94 52 88 53 87 54 43 56
REMARK SMILES IDX 75 57 55 58 74 59 56 60 59 61 73 62 92 63 57 64 58 65 72 67
REMARK SMILES IDX 93 68 60 69 44 70 45 71 53 72 46 73 47 74 51 75 54 76 48 77
REMARK SMILES IDX 49 78 52 79 50 80 76 81 77 82 85 83 78 84 79 85 83 86 86 87
REMARK SMILES IDX 80 88 81 89 84 90 82 91 61 92 62 93 70 94 63 95 64 96 68 97
REMARK SMILES IDX 71 98 65 99 66 100 69 101 67 102
REMARK H PARENT 25 6 16 22 32 36 91 55 59 66
REMARK Flexibility Score: inf
ROOT
ATOM      1  C   UNL A   1      35.454  32.774  28.097  1.00  0.00     0.021 C 
ENDROOT
BRANCH   1   2
ATOM      2  C   UNL A   1      34.500  31.686  28.580  1.00  0.00     0.116 C 
BRANCH   2   3
ATOM      3  N   UNL A   1      34.023  30.850  27.501  1.00  0.00    -0.353 N 
ATOM      4  O   UNL A   1      35.701  29.280  27.591  1.00  0.00    -0.271 OA
ATOM      5  C   UNL A   1      34.627  29.661  27.141  1.00  0.00     0.258 C 
ATOM      6  H   UNL A   1      33.230  31.144  26.997  1.00  0.00     0.163 HD
BRANCH   5   7
ATOM      7  C   UNL A   1      33.811  28.845  26.133  1.00  0.00     0.331 C 
BRANCH   7   8
ATOM      8  O   UNL A   1      32.502  28.535  26.619  1.00  0.00    -0.467 OA
BRANCH   8   9
ATOM      9  C   UNL A   1      31.623  28.351  25.579  1.00  0.00     0.219 A 
ATOM     10  C   UNL A   1      31.084  29.427  24.927  1.00  0.00     0.097 A 
ATOM     11  N   UNL A   1      31.427  27.086  25.206  1.00  0.00    -0.177 NA
ATOM     12  C   UNL A   1      30.256  29.137  23.868  1.00  0.00     0.080 A 
ATOM     13  C   UNL A   1      30.611  26.881  24.161  1.00  0.00     0.231 A 
ATOM     14  N   UNL A   1      30.013  27.870  23.475  1.00  0.00    -0.212 NA
BRANCH  12  15
ATOM     15  C   UNL A   1      29.579  30.216  23.139  1.00  0.00     0.000 A 
ATOM     16  C   UNL A   1      29.137  30.027  21.820  1.00  0.00     0.010 A 
ATOM     17  C   UNL A   1      29.279  31.440  23.767  1.00  0.00     0.010 A 
ATOM     18  C   UNL A   1      28.393  31.012  21.165  1.00  0.00     0.001 A 
ATOM     19  C   UNL A   1      28.541  32.427  23.110  1.00  0.00     0.001 A 
ATOM     20  C   UNL A   1      28.092  32.208  21.811  1.00  0.00     0.000 A 
ENDBRANCH  12  15
BRANCH  13  21
ATOM     21  N   UNL A   1      30.400  25.593  23.678  1.00  0.00    -0.323 N 
ATOM     22  H   UNL A   1      29.481  25.401  23.380  1.00  0.00     0.170 HD
BRANCH  21  23
ATOM     23  C   UNL A   1      31.303  24.530  23.556  1.00  0.00     0.055 A 
ATOM     24  C   UNL A   1      31.163  23.445  24.438  1.00  0.00     0.027 A 
ATOM     25  C   UNL A   1      32.302  24.449  22.566  1.00  0.00     0.041 A 
ATOM     26  C   UNL A   1      31.977  22.313  24.334  1.00  0.00     0.002 A 
ATOM     27  C   UNL A   1      33.119  23.316  22.465  1.00  0.00     0.018 A 
ATOM     28  Br  UNL A   1      32.713  25.901  21.404  1.00  0.00    -0.049 Br
ATOM     29  C   UNL A   1      32.953  22.246  23.344  1.00  0.00     0.001 A 
ENDBRANCH  21  23
ENDBRANCH  13  21
ENDBRANCH   8   9
ENDBRANCH   7   8
ENDBRANCH   5   7
ENDBRANCH   2   3
ENDBRANCH   1   2
BRANCH   1  30
ATOM     30  C   UNL A   1      35.386  34.087  28.887  1.00  0.00     0.002 C 
BRANCH  30  31
ATOM     31  C   UNL A   1      34.617  35.230  28.216  1.00  0.00     0.002 C 
BRANCH  31  32
ATOM     32  C   UNL A   1      33.261  35.573  28.837  1.00  0.00     0.021 C 
BRANCH  32  33
ATOM     33  C   UNL A   1      33.281  36.660  29.909  1.00  0.00     0.116 C 
BRANCH  33  34
ATOM     34  N   UNL A   1      32.383  36.379  31.018  1.00  0.00    -0.352 N 
ATOM     35  C   UNL A   1      32.533  35.519  32.075  1.00  0.00     0.251 C 
ATOM     36  H   UNL A   1      31.539  36.885  31.009  1.00  0.00     0.163 HD
ATOM     37  O   UNL A   1      31.594  35.332  32.849  1.00  0.00    -0.269 OA
BRANCH  35  38
ATOM     38  C   UNL A   1      33.800  34.781  32.280  1.00  0.00     0.039 A 
ATOM     39  C   UNL A   1      34.992  35.511  32.351  1.00  0.00     0.014 A 
ATOM     40  C   UNL A   1      33.832  33.387  32.381  1.00  0.00     0.014 A 
ATOM     41  C   UNL A   1      36.200  34.851  32.589  1.00  0.00     0.010 A 
ATOM     42  C   UNL A   1      35.028  32.737  32.683  1.00  0.00     0.010 A 
ATOM     43  C   UNL A   1      36.223  33.462  32.793  1.00  0.00    -0.014 A 
BRANCH  43  44
ATOM     44  C   UNL A   1      37.488  32.771  33.155  1.00  0.00     0.031 A 
ATOM     45  C   UNL A   1      38.189  33.072  34.448  1.00  0.00     0.074 A 
ATOM     46  C   UNL A   1      38.032  31.898  32.284  1.00  0.00     0.049 A 
ATOM     47  N   UNL A   1      39.297  32.560  34.927  1.00  0.00    -0.248 NA
ATOM     48  C   UNL A   1      37.584  34.100  35.306  1.00  0.00     0.031 C 
ATOM     49  C   UNL A   1      37.481  31.563  30.970  1.00  0.00     0.029 A 
ATOM     50  N   UNL A   1      39.169  31.133  32.374  1.00  0.00    -0.354 N 
ATOM     51  C   UNL A   1      39.525  33.212  36.132  1.00  0.00     0.074 A 
ATOM     52  C   UNL A   1      38.469  34.188  36.289  1.00  0.00     0.031 C 
ATOM     53  C   UNL A   1      38.259  30.635  30.392  1.00  0.00     0.029 A 
ATOM     54  C   UNL A   1      39.377  30.331  31.278  1.00  0.00     0.049 A 
ATOM     55  H   UNL A   1      39.776  31.158  33.148  1.00  0.00     0.167 HD
ATOM     56  C   UNL A   1      40.513  32.998  37.035  1.00  0.00     0.037 A 
ATOM     57  C   UNL A   1      40.357  29.444  31.021  1.00  0.00     0.037 A 
ATOM     58  C   UNL A   1      41.548  32.008  36.890  1.00  0.00     0.049 A 
ATOM     59  C   UNL A   1      41.435  29.219  32.045  1.00  0.00     0.074 A 
ATOM     60  C   UNL A   1      42.541  31.657  37.789  1.00  0.00     0.029 A 
ATOM     61  N   UNL A   1      41.730  31.214  35.767  1.00  0.00    -0.354 N 
ATOM     62  N   UNL A   1      41.589  29.775  33.221  1.00  0.00    -0.248 NA
ATOM     63  C   UNL A   1      42.473  28.237  31.704  1.00  0.00     0.031 C 
ATOM     64  C   UNL A   1      43.351  30.685  37.191  1.00  0.00     0.029 A 
ATOM     65  C   UNL A   1      42.837  30.395  35.938  1.00  0.00     0.049 A 
ATOM     66  H   UNL A   1      41.157  31.228  34.967  1.00  0.00     0.167 HD
ATOM     67  C   UNL A   1      42.725  29.198  33.770  1.00  0.00     0.074 A 
ATOM     68  C   UNL A   1      43.210  28.232  32.805  1.00  0.00     0.031 C 
ATOM     69  C   UNL A   1      43.315  29.446  34.966  1.00  0.00     0.037 A 
BRANCH  56  70
ATOM     70  C   UNL A   1      40.521  33.858  38.266  1.00  0.00     0.064 A 
ATOM     71  C   UNL A   1      41.278  35.037  38.338  1.00  0.00     0.173 A 
ATOM     72  C   UNL A   1      39.738  33.514  39.379  1.00  0.00     0.173 A 
ATOM     73  F   UNL A   1      42.052  35.406  37.305  1.00  0.00    -0.203 F 
ATOM     74  C   UNL A   1      41.279  35.821  39.490  1.00  0.00     0.198 A 
ATOM     75  C   UNL A   1      39.718  34.316  40.518  1.00  0.00     0.198 A 
ATOM     76  F   UNL A   1      38.989  32.402  39.362  1.00  0.00    -0.203 F 
ATOM     77  F   UNL A   1      42.052  36.914  39.553  1.00  0.00    -0.200 F 
ATOM     78  C   UNL A   1      40.495  35.462  40.575  1.00  0.00     0.200 A 
ATOM     79  F   UNL A   1      38.950  33.975  41.562  1.00  0.00    -0.200 F 
ATOM     80  F   UNL A   1      40.494  36.219  41.682  1.00  0.00    -0.200 F 
ENDBRANCH  56  70
BRANCH  57  81
ATOM     81  C   UNL A   1      40.335  28.666  29.757  1.00  0.00     0.064 A 
ATOM     82  C   UNL A   1      41.000  29.136  28.616  1.00  0.00     0.173 A 
ATOM     83  C   UNL A   1      39.662  27.440  29.663  1.00  0.00     0.173 A 
ATOM     84  F   UNL A   1      41.639  30.315  28.652  1.00  0.00    -0.203 F 
ATOM     85  C   UNL A   1      40.981  28.416  27.423  1.00  0.00     0.198 A 
ATOM     86  C   UNL A   1      39.665  26.708  28.478  1.00  0.00     0.198 A 
ATOM     87  F   UNL A   1      39.015  26.945  30.729  1.00  0.00    -0.203 F 
ATOM     88  F   UNL A   1      41.593  28.906  26.337  1.00  0.00    -0.200 F 
ATOM     89  C   UNL A   1      40.318  27.199  27.357  1.00  0.00     0.200 A 
ATOM     90  F   UNL A   1      39.035  25.526  28.421  1.00  0.00    -0.200 F 
ATOM     91  F   UNL A   1      40.306  26.503  26.213  1.00  0.00    -0.200 F 
ENDBRANCH  57  81
BRANCH  69  92
ATOM     92  C   UNL A   1      44.542  28.648  35.299  1.00  0.00     0.064 A 
ATOM     93  C   UNL A   1      45.827  29.108  34.975  1.00  0.00     0.173 A 
ATOM     94  C   UNL A   1      44.433  27.414  35.957  1.00  0.00     0.173 A 
ATOM     95  F   UNL A   1      45.983  30.273  34.328  1.00  0.00    -0.203 F 
ATOM     96  C   UNL A   1      46.955  28.348  35.271  1.00  0.00     0.198 A 
ATOM     97  C   UNL A   1      45.566  26.671  36.279  1.00  0.00     0.198 A 
ATOM     98  F   UNL A   1      43.227  26.930  36.294  1.00  0.00    -0.203 F 
ATOM     99  F   UNL A   1      48.168  28.783  34.902  1.00  0.00    -0.200 F 
ATOM    100  C   UNL A   1      46.824  27.134  35.927  1.00  0.00     0.200 A 
ATOM    101  F   UNL A   1      45.438  25.502  36.922  1.00  0.00    -0.200 F 
ATOM    102  F   UNL A   1      47.912  26.402  36.210  1.00  0.00    -0.200 F 
ENDBRANCH  69  92
ENDBRANCH  43  44
ENDBRANCH  35  38
ENDBRANCH  33  34
ENDBRANCH  32  33
ENDBRANCH  31  32
ENDBRANCH  30  31
ENDBRANCH   1  30
TORSDOF 18
ENDMDL
MODEL 3
REMARK VINA RESULT:     -12.2      1.195      3.695
REMARK SMILES O=C(COc1cc(-c2ccccc2)nc(Nc2ccccc2Br)n1)NCCCCCCNC(=O)c1ccc(-c2c3nc(c(-c4c(F)c(F)c(F)c(F)c4F)c4ccc([nH]4)c(-c4c(F)c(F)c(F)c(F)c4F)c4nc(c(-c5c(F)c(F)c(F)c(F)c5F)c5ccc2[nH]5)C=C4)C=C3)cc1
REMARK SMILES IDX 27 1 26 2 25 3 1 4 2 5 3 7 4 8 5 9 6 10 24 11 7 12 15 13
REMARK SMILES IDX 14 14 8 15 9 16 13 17 10 18 12 19 11 20 16 21 17 23 18 24
REMARK SMILES IDX 22 25 19 26 21 27 23 28 20 29 28 30 29 31 30 32 31 33 32 34
REMARK SMILES IDX 33 35 34 37 35 38 36 39 97 40 37 41 96 42 38 43 39 44 40 45
REMARK SMILES IDX 90 46 41 47 95 48 89 49 91 50 42 51 94 52 88 53 87 54 43 56
REMARK SMILES IDX 75 57 55 58 74 59 56 60 59 61 73 62 92 63 57 64 58 65 72 67
REMARK SMILES IDX 93 68 60 69 44 70 45 71 53 72 46 73 47 74 51 75 54 76 48 77
REMARK SMILES IDX 49 78 52 79 50 80 76 81 77 82 85 83 78 84 79 85 83 86 86 87
REMARK SMILES IDX 80 88 81 89 84 90 82 91 61 92 62 93 70 94 63 95 64 96 68 97
REMARK SMILES IDX 71 98 65 99 66 100 69 101 67 102
REMARK H PARENT 25 6 16 22 32 36 91 55 59 66
REMARK Flexibility Score: inf
ROOT
ATOM      1  C   UNL A   1      41.569  21.844  26.491  1.00  0.00     0.021 C 
ENDROOT
BRANCH   1   2
ATOM      2  C   UNL A   1      40.571  22.550  27.402  1.00  0.00     0.116 C 
BRANCH   2   3
ATOM      3  N   UNL A   1      39.254  22.644  26.811  1.00  0.00    -0.353 N 
ATOM      4  O   UNL A   1      39.053  24.933  26.924  1.00  0.00    -0.271 OA
ATOM      5  C   UNL A   1      38.628  23.847  26.546  1.00  0.00     0.258 C 
ATOM      6  H   UNL A   1      38.781  21.811  26.586  1.00  0.00     0.163 HD
BRANCH   5   7
ATOM      7  C   UNL A   1      37.352  23.698  25.711  1.00  0.00     0.331 C 
BRANCH   7   8
ATOM      8  O   UNL A   1      36.623  22.513  26.044  1.00  0.00    -0.467 OA
BRANCH   8   9
ATOM      9  C   UNL A   1      35.269  22.741  25.998  1.00  0.00     0.219 A 
ATOM     10  C   UNL A   1      34.779  24.019  25.986  1.00  0.00     0.097 A 
ATOM     11  N   UNL A   1      34.505  21.656  25.867  1.00  0.00    -0.177 NA
ATOM     12  C   UNL A   1      33.414  24.141  25.888  1.00  0.00     0.080 A 
ATOM     13  C   UNL A   1      33.181  21.854  25.771  1.00  0.00     0.231 A 
ATOM     14  N   UNL A   1      32.604  23.068  25.779  1.00  0.00    -0.212 NA
BRANCH  12  15
ATOM     15  C   UNL A   1      32.782  25.466  25.928  1.00  0.00     0.000 A 
ATOM     16  C   UNL A   1      31.406  25.601  26.170  1.00  0.00     0.010 A 
ATOM     17  C   UNL A   1      33.549  26.640  25.808  1.00  0.00     0.010 A 
ATOM     18  C   UNL A   1      30.824  26.862  26.320  1.00  0.00     0.001 A 
ATOM     19  C   UNL A   1      32.967  27.902  25.952  1.00  0.00     0.001 A 
ATOM     20  C   UNL A   1      31.606  28.010  26.216  1.00  0.00     0.000 A 
ENDBRANCH  12  15
BRANCH  13  21
ATOM     21  N   UNL A   1      32.323  20.776  25.577  1.00  0.00    -0.323 N 
ATOM     22  H   UNL A   1      31.471  20.822  26.068  1.00  0.00     0.170 HD
BRANCH  21  23
ATOM     23  C   UNL A   1      32.495  19.633  24.785  1.00  0.00     0.055 A 
ATOM     24  C   UNL A   1      32.821  18.429  25.433  1.00  0.00     0.027 A 
ATOM     25  C   UNL A   1      32.302  19.599  23.391  1.00  0.00     0.041 A 
ATOM     26  C   UNL A   1      32.937  17.229  24.724  1.00  0.00     0.002 A 
ATOM     27  C   UNL A   1      32.423  18.397  22.681  1.00  0.00     0.018 A 
ATOM     28  Br  UNL A   1      32.013  21.173  22.358  1.00  0.00    -0.049 Br
ATOM     29  C   UNL A   1      32.734  17.213  23.347  1.00  0.00     0.001 A 
ENDBRANCH  21  23
ENDBRANCH  13  21
ENDBRANCH   8   9
ENDBRANCH   7   8
ENDBRANCH   5   7
ENDBRANCH   2   3
ENDBRANCH   1   2
BRANCH   1  30
ATOM     30  C   UNL A   1      42.136  20.533  27.050  1.00  0.00     0.002 C 
BRANCH  30  31
ATOM     31  C   UNL A   1      41.923  19.290  26.181  1.00  0.00     0.002 C 
BRANCH  31  32
ATOM     32  C   UNL A   1      42.941  18.163  26.373  1.00  0.00     0.021 C 
BRANCH  32  33
ATOM     33  C   UNL A   1      44.389  18.517  26.045  1.00  0.00     0.116 C 
BRANCH  33  34
ATOM     34  N   UNL A   1      44.642  18.600  24.616  1.00  0.00    -0.352 N 
ATOM     35  C   UNL A   1      44.821  19.701  23.817  1.00  0.00     0.251 C 
ATOM     36  H   UNL A   1      44.696  17.735  24.151  1.00  0.00     0.163 HD
ATOM     37  O   UNL A   1      44.900  19.562  22.596  1.00  0.00    -0.269 OA
BRANCH  35  38
ATOM     38  C   UNL A   1      44.883  21.060  24.399  1.00  0.00     0.039 A 
ATOM     39  C   UNL A   1      45.519  21.227  25.634  1.00  0.00     0.014 A 
ATOM     40  C   UNL A   1      44.308  22.162  23.759  1.00  0.00     0.014 A 
ATOM     41  C   UNL A   1      45.636  22.503  26.191  1.00  0.00     0.010 A 
ATOM     42  C   UNL A   1      44.482  23.442  24.283  1.00  0.00     0.010 A 
ATOM     43  C   UNL A   1      45.150  23.626  25.502  1.00  0.00    -0.014 A 
BRANCH  43  44
ATOM     44  C   UNL A   1      45.369  24.995  26.038  1.00  0.00     0.031 A 
ATOM     45  C   UNL A   1      46.727  25.634  25.991  1.00  0.00     0.074 A 
ATOM     46  C   UNL A   1      44.339  25.648  26.613  1.00  0.00     0.049 A 
ATOM     47  N   UNL A   1      47.097  26.821  26.406  1.00  0.00    -0.248 NA
ATOM     48  C   UNL A   1      47.819  24.828  25.430  1.00  0.00     0.031 C 
ATOM     49  C   UNL A   1      42.986  25.114  26.774  1.00  0.00     0.029 A 
ATOM     50  N   UNL A   1      44.271  26.901  27.169  1.00  0.00    -0.354 N 
ATOM     51  C   UNL A   1      48.463  26.897  26.167  1.00  0.00     0.074 A 
ATOM     52  C   UNL A   1      48.865  25.621  25.616  1.00  0.00     0.031 C 
ATOM     53  C   UNL A   1      42.213  26.045  27.354  1.00  0.00     0.029 A 
ATOM     54  C   UNL A   1      43.020  27.229  27.632  1.00  0.00     0.049 A 
ATOM     55  H   UNL A   1      45.045  27.507  27.230  1.00  0.00     0.167 HD
ATOM     56  C   UNL A   1      49.300  27.944  26.368  1.00  0.00     0.037 A 
ATOM     57  C   UNL A   1      42.572  28.359  28.210  1.00  0.00     0.037 A 
ATOM     58  C   UNL A   1      48.893  29.222  26.892  1.00  0.00     0.049 A 
ATOM     59  C   UNL A   1      43.520  29.509  28.411  1.00  0.00     0.074 A 
ATOM     60  C   UNL A   1      49.649  30.372  27.050  1.00  0.00     0.029 A 
ATOM     61  N   UNL A   1      47.618  29.518  27.352  1.00  0.00    -0.354 N 
ATOM     62  N   UNL A   1      44.788  29.602  28.097  1.00  0.00    -0.248 NA
ATOM     63  C   UNL A   1      42.968  30.714  29.045  1.00  0.00     0.031 C 
ATOM     64  C   UNL A   1      48.844  31.347  27.650  1.00  0.00     0.029 A 
ATOM     65  C   UNL A   1      47.574  30.822  27.822  1.00  0.00     0.049 A 
ATOM     66  H   UNL A   1      46.857  28.894  27.344  1.00  0.00     0.167 HD
ATOM     67  C   UNL A   1      45.182  30.878  28.473  1.00  0.00     0.074 A 
ATOM     68  C   UNL A   1      44.011  31.531  29.021  1.00  0.00     0.031 C 
ATOM     69  C   UNL A   1      46.404  31.457  28.375  1.00  0.00     0.037 A 
BRANCH  56  70
ATOM     70  C   UNL A   1      50.747  27.748  26.019  1.00  0.00     0.064 A 
ATOM     71  C   UNL A   1      51.695  27.374  26.984  1.00  0.00     0.173 A 
ATOM     72  C   UNL A   1      51.188  27.908  24.696  1.00  0.00     0.173 A 
ATOM     73  F   UNL A   1      51.327  27.217  28.265  1.00  0.00    -0.203 F 
ATOM     74  C   UNL A   1      53.035  27.201  26.645  1.00  0.00     0.198 A 
ATOM     75  C   UNL A   1      52.523  27.705  24.355  1.00  0.00     0.198 A 
ATOM     76  F   UNL A   1      50.324  28.257  23.732  1.00  0.00    -0.203 F 
ATOM     77  F   UNL A   1      53.930  26.896  27.595  1.00  0.00    -0.200 F 
ATOM     78  C   UNL A   1      53.446  27.361  25.331  1.00  0.00     0.200 A 
ATOM     79  F   UNL A   1      52.918  27.848  23.082  1.00  0.00    -0.200 F 
ATOM     80  F   UNL A   1      54.736  27.192  25.006  1.00  0.00    -0.200 F 
ENDBRANCH  56  70
BRANCH  57  81
ATOM     81  C   UNL A   1      41.143  28.475  28.594  1.00  0.00     0.064 A 
ATOM     82  C   UNL A   1      40.200  28.992  27.695  1.00  0.00     0.173 A 
ATOM     83  C   UNL A   1      40.688  28.066  29.856  1.00  0.00     0.173 A 
ATOM     84  F   UNL A   1      40.593  29.415  26.484  1.00  0.00    -0.203 F 
ATOM     85  C   UNL A   1      38.858  29.110  28.047  1.00  0.00     0.198 A 
ATOM     86  C   UNL A   1      39.341  28.160  30.198  1.00  0.00     0.198 A 
ATOM     87  F   UNL A   1      41.550  27.560  30.750  1.00  0.00    -0.203 F 
ATOM     88  F   UNL A   1      37.984  29.642  27.182  1.00  0.00    -0.200 F 
ATOM     89  C   UNL A   1      38.428  28.688  29.297  1.00  0.00     0.200 A 
ATOM     90  F   UNL A   1      38.927  27.740  31.402  1.00  0.00    -0.200 F 
ATOM     91  F   UNL A   1      37.136  28.794  29.634  1.00  0.00    -0.200 F 
ENDBRANCH  57  81
BRANCH  69  92
ATOM     92  C   UNL A   1      46.529  32.873  28.858  1.00  0.00     0.064 A 
ATOM     93  C   UNL A   1      46.257  33.962  28.017  1.00  0.00     0.173 A 
ATOM     94  C   UNL A   1      46.915  33.143  30.180  1.00  0.00     0.173 A 
ATOM     95  F   UNL A   1      45.902  33.756  26.740  1.00  0.00    -0.203 F 
ATOM     96  C   UNL A   1      46.396  35.270  28.472  1.00  0.00     0.198 A 
ATOM     97  C   UNL A   1      47.024  34.453  30.640  1.00  0.00     0.198 A 
ATOM     98  F   UNL A   1      47.182  32.137  31.027  1.00  0.00    -0.203 F 
ATOM     99  F   UNL A   1      46.185  36.295  27.634  1.00  0.00    -0.200 F 
ATOM    100  C   UNL A   1      46.774  35.514  29.784  1.00  0.00     0.200 A 
ATOM    101  F   UNL A   1      47.379  34.687  31.911  1.00  0.00    -0.200 F 
ATOM    102  F   UNL A   1      46.910  36.775  30.220  1.00  0.00    -0.200 F 
ENDBRANCH  69  92
ENDBRANCH  43  44
ENDBRANCH  35  38
ENDBRANCH  33  34
ENDBRANCH  32  33
ENDBRANCH  31  32
ENDBRANCH  30  31
ENDBRANCH   1  30
TORSDOF 18
ENDMDL
