MODEL 1
REMARK VINA RESULT:     -12.3      0.000      0.000
REMARK SMILES CC(=O)N[C@@H](C[NH2+]CCc1ccc(F)cc1C)C(=O)NCCCCCCNC(=O)c1ccc(-c2c3nc(c(-c4c(F)c(F)c(F)c(F)c4F)c4ccc([nH]4)c(-c4c(F)c(F)c(F)c(F)c4F)c4nc(c(-c5c(F)c(F)c(F)c(F)c5F)c5ccc2[nH]5)C=C4)C=C3)cc1
REMARK SMILES IDX 22 1 21 2 20 3 18 4 19 5 5 7 4 8 1 9 2 10 3 11 6 13 7 14
REMARK SMILES IDX 8 17 9 18 10 19 11 20 16 21 12 22 15 23 17 24 13 25 14 26
REMARK SMILES IDX 23 27 24 28 25 29 26 30 27 31 28 32 29 34 30 35 31 36 92 37
REMARK SMILES IDX 32 38 91 39 33 40 34 41 35 42 85 43 36 44 90 45 84 46 86 47
REMARK SMILES IDX 37 48 89 49 83 50 82 51 38 53 70 54 50 55 69 56 51 57 54 58
REMARK SMILES IDX 68 59 87 60 52 61 53 62 67 64 88 65 55 66 39 67 40 68 48 69
REMARK SMILES IDX 41 70 42 71 46 72 49 73 43 74 44 75 47 76 45 77 71 78 72 79
REMARK SMILES IDX 80 80 73 81 74 82 78 83 81 84 75 85 76 86 79 87 77 88 56 89
REMARK SMILES IDX 57 90 65 91 58 92 59 93 63 94 66 95 60 96 61 97 64 98 62 99
REMARK H PARENT 20 6 4 12 7 15 7 16 27 33 86 52 54 63
REMARK Flexibility Score: inf
ROOT
ATOM      1  C   UNL A   1      31.624  26.539  25.964  1.00  0.00     0.021 C 
ENDROOT
BRANCH   1   2
ATOM      2  C   UNL A   1      30.405  25.639  26.087  1.00  0.00     0.116 C 
BRANCH   2   3
ATOM      3  N   UNL A   1      30.662  24.443  26.859  1.00  0.00    -0.354 N 
ATOM      4  C   UNL A   1      31.569  23.443  26.658  1.00  0.00     0.248 C 
ATOM      5  O   UNL A   1      31.802  22.703  27.620  1.00  0.00    -0.272 OA
ATOM      6  H   UNL A   1      30.093  24.332  27.655  1.00  0.00     0.163 HD
BRANCH   4   7
ATOM      7  C   UNL A   1      32.380  23.284  25.350  1.00  0.00     0.226 C 
BRANCH   7   8
ATOM      8  N   UNL A   1      33.699  22.660  25.540  1.00  0.00    -0.340 N 
ATOM      9  C   UNL A   1      35.034  24.720  25.397  1.00  0.00     0.114 C 
ATOM     10  C   UNL A   1      34.910  23.254  25.685  1.00  0.00     0.217 C 
ATOM     11  O   UNL A   1      35.873  22.567  26.019  1.00  0.00    -0.275 OA
ATOM     12  H   UNL A   1      33.701  21.676  25.566  1.00  0.00     0.164 HD
ENDBRANCH   7   8
BRANCH   7  13
ATOM     13  C   UNL A   1      31.554  22.600  24.235  1.00  0.00     0.296 C 
BRANCH  13  14
ATOM     14  N   UNL A   1      31.253  23.503  23.123  1.00  0.00    -0.344 N 
ATOM     15  H   UNL A   1      30.454  24.079  23.387  1.00  0.00     0.346 HD
ATOM     16  H   UNL A   1      31.067  22.913  22.311  1.00  0.00     0.346 HD
BRANCH  14  17
ATOM     17  C   UNL A   1      32.350  24.388  22.751  1.00  0.00     0.265 C 
BRANCH  17  18
ATOM     18  C   UNL A   1      31.928  25.554  21.841  1.00  0.00     0.097 C 
BRANCH  18  19
ATOM     19  C   UNL A   1      31.495  26.892  22.439  1.00  0.00    -0.039 A 
ATOM     20  C   UNL A   1      30.118  26.994  22.751  1.00  0.00     0.007 A 
ATOM     21  C   UNL A   1      32.311  28.027  22.654  1.00  0.00    -0.045 A 
ATOM     22  C   UNL A   1      29.561  28.163  23.270  1.00  0.00     0.039 A 
ATOM     23  C   UNL A   1      31.728  29.198  23.187  1.00  0.00     0.043 A 
ATOM     24  C   UNL A   1      33.779  28.138  22.357  1.00  0.00     0.045 C 
ATOM     25  C   UNL A   1      30.375  29.258  23.483  1.00  0.00     0.123 A 
ATOM     26  F   UNL A   1      29.853  30.392  23.969  1.00  0.00    -0.207 F 
ENDBRANCH  18  19
ENDBRANCH  17  18
ENDBRANCH  14  17
ENDBRANCH  13  14
ENDBRANCH   7  13
ENDBRANCH   4   7
ENDBRANCH   2   3
ENDBRANCH   1   2
BRANCH   1  27
ATOM     27  C   UNL A   1      31.747  27.566  27.088  1.00  0.00     0.002 C 
BRANCH  27  28
ATOM     28  C   UNL A   1      32.337  28.923  26.671  1.00  0.00     0.002 C 
BRANCH  28  29
ATOM     29  C   UNL A   1      33.757  28.882  26.094  1.00  0.00     0.021 C 
BRANCH  29  30
ATOM     30  C   UNL A   1      34.822  29.002  27.161  1.00  0.00     0.116 C 
BRANCH  30  31
ATOM     31  N   UNL A   1      35.266  30.385  27.286  1.00  0.00    -0.352 N 
ATOM     32  C   UNL A   1      36.328  30.859  28.015  1.00  0.00     0.251 C 
ATOM     33  H   UNL A   1      34.745  31.056  26.789  1.00  0.00     0.163 HD
ATOM     34  O   UNL A   1      36.406  32.028  28.348  1.00  0.00    -0.269 OA
BRANCH  32  35
ATOM     35  C   UNL A   1      37.401  29.911  28.327  1.00  0.00     0.039 A 
ATOM     36  C   UNL A   1      37.351  29.102  29.467  1.00  0.00     0.014 A 
ATOM     37  C   UNL A   1      38.497  29.897  27.466  1.00  0.00     0.014 A 
ATOM     38  C   UNL A   1      38.427  28.270  29.746  1.00  0.00     0.010 A 
ATOM     39  C   UNL A   1      39.475  28.975  27.648  1.00  0.00     0.010 A 
ATOM     40  C   UNL A   1      39.481  28.240  28.834  1.00  0.00    -0.014 A 
BRANCH  40  41
ATOM     41  C   UNL A   1      40.719  27.523  29.021  1.00  0.00     0.031 A 
ATOM     42  C   UNL A   1      40.772  26.101  28.684  1.00  0.00     0.074 A 
ATOM     43  C   UNL A   1      41.781  28.325  29.260  1.00  0.00     0.049 A 
ATOM     44  N   UNL A   1      41.672  25.293  29.104  1.00  0.00    -0.248 NA
ATOM     45  C   UNL A   1      39.764  25.452  27.848  1.00  0.00     0.031 C 
ATOM     46  C   UNL A   1      43.205  28.077  29.136  1.00  0.00     0.029 A 
ATOM     47  N   UNL A   1      41.711  29.626  29.795  1.00  0.00    -0.354 N 
ATOM     48  C   UNL A   1      41.580  24.147  28.340  1.00  0.00     0.074 A 
ATOM     49  C   UNL A   1      40.298  24.236  27.688  1.00  0.00     0.031 C 
ATOM     50  C   UNL A   1      43.861  29.000  29.868  1.00  0.00     0.029 A 
ATOM     51  C   UNL A   1      42.858  29.775  30.588  1.00  0.00     0.049 A 
ATOM     52  H   UNL A   1      41.002  30.294  29.643  1.00  0.00     0.167 HD
ATOM     53  C   UNL A   1      42.700  23.374  28.218  1.00  0.00     0.037 A 
ATOM     54  C   UNL A   1      42.696  29.796  31.944  1.00  0.00     0.037 A 
ATOM     55  C   UNL A   1      43.778  23.969  29.012  1.00  0.00     0.049 A 
ATOM     56  C   UNL A   1      43.304  28.566  32.564  1.00  0.00     0.074 A 
ATOM     57  C   UNL A   1      44.799  24.838  28.660  1.00  0.00     0.029 A 
ATOM     58  N   UNL A   1      43.647  24.050  30.397  1.00  0.00    -0.354 N 
ATOM     59  N   UNL A   1      43.340  27.391  31.994  1.00  0.00    -0.248 NA
ATOM     60  C   UNL A   1      44.044  28.621  33.817  1.00  0.00     0.031 C 
ATOM     61  C   UNL A   1      45.223  25.508  29.838  1.00  0.00     0.029 A 
ATOM     62  C   UNL A   1      44.470  25.039  30.903  1.00  0.00     0.049 A 
ATOM     63  H   UNL A   1      43.052  23.482  30.938  1.00  0.00     0.167 HD
ATOM     64  C   UNL A   1      44.164  26.573  32.722  1.00  0.00     0.074 A 
ATOM     65  C   UNL A   1      44.562  27.383  33.861  1.00  0.00     0.031 C 
ATOM     66  C   UNL A   1      44.525  25.313  32.330  1.00  0.00     0.037 A 
BRANCH  53  67
ATOM     67  C   UNL A   1      42.942  22.314  27.162  1.00  0.00     0.064 A 
ATOM     68  C   UNL A   1      42.199  21.109  27.182  1.00  0.00     0.173 A 
ATOM     69  C   UNL A   1      43.895  22.390  26.129  1.00  0.00     0.173 A 
ATOM     70  F   UNL A   1      41.194  20.918  28.047  1.00  0.00    -0.203 F 
ATOM     71  C   UNL A   1      42.452  20.047  26.309  1.00  0.00     0.198 A 
ATOM     72  C   UNL A   1      44.170  21.314  25.273  1.00  0.00     0.198 A 
ATOM     73  F   UNL A   1      44.557  23.521  25.868  1.00  0.00    -0.203 F 
ATOM     74  F   UNL A   1      41.717  18.929  26.392  1.00  0.00    -0.200 F 
ATOM     75  C   UNL A   1      43.455  20.139  25.369  1.00  0.00     0.200 A 
ATOM     76  F   UNL A   1      45.132  21.433  24.346  1.00  0.00    -0.200 F 
ATOM     77  F   UNL A   1      43.710  19.116  24.543  1.00  0.00    -0.200 F 
ENDBRANCH  53  67
BRANCH  54  78
ATOM     78  C   UNL A   1      41.426  30.484  32.344  1.00  0.00     0.064 A 
ATOM     79  C   UNL A   1      41.268  31.814  31.898  1.00  0.00     0.173 A 
ATOM     80  C   UNL A   1      40.259  29.780  32.672  1.00  0.00     0.173 A 
ATOM     81  F   UNL A   1      42.352  32.549  31.596  1.00  0.00    -0.203 F 
ATOM     82  C   UNL A   1      40.011  32.343  31.609  1.00  0.00     0.198 A 
ATOM     83  C   UNL A   1      38.996  30.330  32.417  1.00  0.00     0.198 A 
ATOM     84  F   UNL A   1      40.330  28.520  33.125  1.00  0.00    -0.203 F 
ATOM     85  F   UNL A   1      39.910  33.548  31.029  1.00  0.00    -0.200 F 
ATOM     86  C   UNL A   1      38.877  31.584  31.833  1.00  0.00     0.200 A 
ATOM     87  F   UNL A   1      37.891  29.608  32.660  1.00  0.00    -0.200 F 
ATOM     88  F   UNL A   1      37.677  32.048  31.455  1.00  0.00    -0.200 F 
ENDBRANCH  54  78
BRANCH  66  89
ATOM     89  C   UNL A   1      45.119  24.264  33.240  1.00  0.00     0.064 A 
ATOM     90  C   UNL A   1      44.451  23.081  33.595  1.00  0.00     0.173 A 
ATOM     91  C   UNL A   1      46.466  24.350  33.671  1.00  0.00     0.173 A 
ATOM     92  F   UNL A   1      43.238  22.786  33.110  1.00  0.00    -0.203 F 
ATOM     93  C   UNL A   1      45.036  22.120  34.419  1.00  0.00     0.198 A 
ATOM     94  C   UNL A   1      47.075  23.348  34.423  1.00  0.00     0.198 A 
ATOM     95  F   UNL A   1      47.252  25.388  33.352  1.00  0.00    -0.203 F 
ATOM     96  F   UNL A   1      44.323  21.050  34.794  1.00  0.00    -0.200 F 
ATOM     97  C   UNL A   1      46.349  22.249  34.826  1.00  0.00     0.200 A 
ATOM     98  F   UNL A   1      48.374  23.450  34.737  1.00  0.00    -0.200 F 
ATOM     99  F   UNL A   1      46.922  21.302  35.580  1.00  0.00    -0.200 F 
ENDBRANCH  66  89
ENDBRANCH  40  41
ENDBRANCH  32  35
ENDBRANCH  30  31
ENDBRANCH  29  30
ENDBRANCH  28  29
ENDBRANCH  27  28
ENDBRANCH   1  27
TORSDOF 19
ENDMDL
MODEL 2
REMARK VINA RESULT:     -12.1      1.648      2.951
REMARK SMILES CC(=O)N[C@@H](C[NH2+]CCc1ccc(F)cc1C)C(=O)NCCCCCCNC(=O)c1ccc(-c2c3nc(c(-c4c(F)c(F)c(F)c(F)c4F)c4ccc([nH]4)c(-c4c(F)c(F)c(F)c(F)c4F)c4nc(c(-c5c(F)c(F)c(F)c(F)c5F)c5ccc2[nH]5)C=C4)C=C3)cc1
REMARK SMILES IDX 22 1 21 2 20 3 18 4 19 5 5 7 4 8 1 9 2 10 3 11 6 13 7 14
REMARK SMILES IDX 8 17 9 18 10 19 11 20 16 21 12 22 15 23 17 24 13 25 14 26
REMARK SMILES IDX 23 27 24 28 25 29 26 30 27 31 28 32 29 34 30 35 31 36 92 37
REMARK SMILES IDX 32 38 91 39 33 40 34 41 35 42 85 43 36 44 90 45 84 46 86 47
REMARK SMILES IDX 37 48 89 49 83 50 82 51 38 53 70 54 50 55 69 56 51 57 54 58
REMARK SMILES IDX 68 59 87 60 52 61 53 62 67 64 88 65 55 66 39 67 40 68 48 69
REMARK SMILES IDX 41 70 42 71 46 72 49 73 43 74 44 75 47 76 45 77 71 78 72 79
REMARK SMILES IDX 80 80 73 81 74 82 78 83 81 84 75 85 76 86 79 87 77 88 56 89
REMARK SMILES IDX 57 90 65 91 58 92 59 93 63 94 66 95 60 96 61 97 64 98 62 99
REMARK H PARENT 20 6 4 12 7 15 7 16 27 33 86 52 54 63
REMARK Flexibility Score: inf
ROOT
ATOM      1  C   UNL A   1      31.776  28.620  24.595  1.00  0.00     0.021 C 
ENDROOT
BRANCH   1   2
ATOM      2  C   UNL A   1      30.945  28.590  23.321  1.00  0.00     0.116 C 
BRANCH   2   3
ATOM      3  N   UNL A   1      29.685  27.899  23.486  1.00  0.00    -0.354 N 
ATOM      4  C   UNL A   1      29.427  26.634  23.928  1.00  0.00     0.248 C 
ATOM      5  O   UNL A   1      28.264  26.393  24.272  1.00  0.00    -0.272 OA
ATOM      6  H   UNL A   1      28.889  28.423  23.241  1.00  0.00     0.163 HD
BRANCH   4   7
ATOM      7  C   UNL A   1      30.525  25.563  24.125  1.00  0.00     0.226 C 
BRANCH   7   8
ATOM      8  N   UNL A   1      30.342  24.735  25.327  1.00  0.00    -0.340 N 
ATOM      9  C   UNL A   1      32.679  24.781  26.088  1.00  0.00     0.114 C 
ATOM     10  C   UNL A   1      31.235  24.443  26.306  1.00  0.00     0.217 C 
ATOM     11  O   UNL A   1      30.837  23.885  27.326  1.00  0.00    -0.275 OA
ATOM     12  H   UNL A   1      29.447  24.339  25.436  1.00  0.00     0.164 HD
ENDBRANCH   7   8
BRANCH   7  13
ATOM     13  C   UNL A   1      30.744  24.715  22.847  1.00  0.00     0.296 C 
BRANCH  13  14
ATOM     14  N   UNL A   1      31.709  25.321  21.929  1.00  0.00    -0.344 N 
ATOM     15  H   UNL A   1      31.754  26.320  22.127  1.00  0.00     0.346 HD
ATOM     16  H   UNL A   1      31.381  25.116  20.985  1.00  0.00     0.346 HD
BRANCH  14  17
ATOM     17  C   UNL A   1      33.058  24.775  22.027  1.00  0.00     0.265 C 
BRANCH  17  18
ATOM     18  C   UNL A   1      33.099  23.255  22.261  1.00  0.00     0.097 C 
BRANCH  18  19
ATOM     19  C   UNL A   1      34.047  22.651  23.295  1.00  0.00    -0.039 A 
ATOM     20  C   UNL A   1      35.381  23.123  23.238  1.00  0.00     0.007 A 
ATOM     21  C   UNL A   1      33.737  21.650  24.245  1.00  0.00    -0.045 A 
ATOM     22  C   UNL A   1      36.373  22.642  24.091  1.00  0.00     0.039 A 
ATOM     23  C   UNL A   1      34.756  21.182  25.104  1.00  0.00     0.043 A 
ATOM     24  C   UNL A   1      32.401  20.993  24.443  1.00  0.00     0.045 C 
ATOM     25  C   UNL A   1      36.050  21.673  25.020  1.00  0.00     0.123 A 
ATOM     26  F   UNL A   1      36.995  21.192  25.838  1.00  0.00    -0.207 F 
ENDBRANCH  18  19
ENDBRANCH  17  18
ENDBRANCH  14  17
ENDBRANCH  13  14
ENDBRANCH   7  13
ENDBRANCH   4   7
ENDBRANCH   2   3
ENDBRANCH   1   2
BRANCH   1  27
ATOM     27  C   UNL A   1      31.615  29.906  25.404  1.00  0.00     0.002 C 
BRANCH  27  28
ATOM     28  C   UNL A   1      32.335  29.917  26.762  1.00  0.00     0.002 C 
BRANCH  28  29
ATOM     29  C   UNL A   1      33.168  28.670  27.083  1.00  0.00     0.021 C 
BRANCH  29  30
ATOM     30  C   UNL A   1      34.655  28.922  26.979  1.00  0.00     0.116 C 
BRANCH  30  31
ATOM     31  N   UNL A   1      34.956  30.324  27.241  1.00  0.00    -0.352 N 
ATOM     32  C   UNL A   1      35.924  30.830  28.071  1.00  0.00     0.251 C 
ATOM     33  H   UNL A   1      34.401  30.984  26.766  1.00  0.00     0.163 HD
ATOM     34  O   UNL A   1      35.870  31.969  28.500  1.00  0.00    -0.269 OA
BRANCH  32  35
ATOM     35  C   UNL A   1      37.064  29.962  28.376  1.00  0.00     0.039 A 
ATOM     36  C   UNL A   1      37.056  29.108  29.483  1.00  0.00     0.014 A 
ATOM     37  C   UNL A   1      38.177  30.071  27.543  1.00  0.00     0.014 A 
ATOM     38  C   UNL A   1      38.191  28.358  29.760  1.00  0.00     0.010 A 
ATOM     39  C   UNL A   1      39.223  29.226  27.717  1.00  0.00     0.010 A 
ATOM     40  C   UNL A   1      39.263  28.448  28.874  1.00  0.00    -0.014 A 
BRANCH  40  41
ATOM     41  C   UNL A   1      40.552  27.829  29.066  1.00  0.00     0.031 A 
ATOM     42  C   UNL A   1      40.752  26.454  28.609  1.00  0.00     0.074 A 
ATOM     43  C   UNL A   1      41.522  28.695  29.433  1.00  0.00     0.049 A 
ATOM     44  N   UNL A   1      41.702  25.692  29.006  1.00  0.00    -0.248 NA
ATOM     45  C   UNL A   1      39.850  25.800  27.665  1.00  0.00     0.031 C 
ATOM     46  C   UNL A   1      42.968  28.585  29.369  1.00  0.00     0.029 A 
ATOM     47  N   UNL A   1      41.308  29.930  30.076  1.00  0.00    -0.354 N 
ATOM     48  C   UNL A   1      41.753  24.619  28.141  1.00  0.00     0.074 A 
ATOM     49  C   UNL A   1      40.500  24.655  27.428  1.00  0.00     0.031 C 
ATOM     50  C   UNL A   1      43.500  29.491  30.214  1.00  0.00     0.029 A 
ATOM     51  C   UNL A   1      42.396  30.105  30.942  1.00  0.00     0.049 A 
ATOM     52  H   UNL A   1      40.548  30.544  29.945  1.00  0.00     0.167 HD
ATOM     53  C   UNL A   1      42.943  23.961  28.014  1.00  0.00     0.037 A 
ATOM     54  C   UNL A   1      42.169  29.985  32.284  1.00  0.00     0.037 A 
ATOM     55  C   UNL A   1      43.923  24.573  28.916  1.00  0.00     0.049 A 
ATOM     56  C   UNL A   1      42.858  28.762  32.827  1.00  0.00     0.074 A 
ATOM     57  C   UNL A   1      44.875  25.557  28.700  1.00  0.00     0.029 A 
ATOM     58  N   UNL A   1      43.720  24.513  30.293  1.00  0.00    -0.354 N 
ATOM     59  N   UNL A   1      43.029  27.652  32.158  1.00  0.00    -0.248 NA
ATOM     60  C   UNL A   1      43.528  28.765  34.119  1.00  0.00     0.031 C 
ATOM     61  C   UNL A   1      45.178  26.149  29.954  1.00  0.00     0.029 A 
ATOM     62  C   UNL A   1      44.422  25.520  30.930  1.00  0.00     0.049 A 
ATOM     63  H   UNL A   1      43.154  23.848  30.748  1.00  0.00     0.167 HD
ATOM     64  C   UNL A   1      43.889  26.845  32.856  1.00  0.00     0.074 A 
ATOM     65  C   UNL A   1      44.156  27.579  34.083  1.00  0.00     0.031 C 
ATOM     66  C   UNL A   1      44.383  25.664  32.376  1.00  0.00     0.037 A 
BRANCH  53  67
ATOM     67  C   UNL A   1      43.333  23.029  26.884  1.00  0.00     0.064 A 
ATOM     68  C   UNL A   1      42.855  21.697  26.867  1.00  0.00     0.173 A 
ATOM     69  C   UNL A   1      44.185  23.353  25.811  1.00  0.00     0.173 A 
ATOM     70  F   UNL A   1      41.966  21.258  27.768  1.00  0.00    -0.203 F 
ATOM     71  C   UNL A   1      43.267  20.755  25.918  1.00  0.00     0.198 A 
ATOM     72  C   UNL A   1      44.622  22.402  24.879  1.00  0.00     0.198 A 
ATOM     73  F   UNL A   1      44.584  24.609  25.588  1.00  0.00    -0.203 F 
ATOM     74  F   UNL A   1      42.783  19.506  25.970  1.00  0.00    -0.200 F 
ATOM     75  C   UNL A   1      44.170  21.101  24.937  1.00  0.00     0.200 A 
ATOM     76  F   UNL A   1      45.480  22.765  23.914  1.00  0.00    -0.200 F 
ATOM     77  F   UNL A   1      44.578  20.196  24.039  1.00  0.00    -0.200 F 
ENDBRANCH  53  67
BRANCH  54  78
ATOM     78  C   UNL A   1      40.823  30.520  32.671  1.00  0.00     0.064 A 
ATOM     79  C   UNL A   1      40.554  31.858  32.310  1.00  0.00     0.173 A 
ATOM     80  C   UNL A   1      39.718  29.686  32.896  1.00  0.00     0.173 A 
ATOM     81  F   UNL A   1      41.572  32.712  32.110  1.00  0.00    -0.203 F 
ATOM     82  C   UNL A   1      39.264  32.285  32.001  1.00  0.00     0.198 A 
ATOM     83  C   UNL A   1      38.419  30.132  32.621  1.00  0.00     0.198 A 
ATOM     84  F   UNL A   1      39.894  28.409  33.263  1.00  0.00    -0.203 F 
ATOM     85  F   UNL A   1      39.069  33.515  31.502  1.00  0.00    -0.200 F 
ATOM     86  C   UNL A   1      38.201  31.408  32.119  1.00  0.00     0.200 A 
ATOM     87  F   UNL A   1      37.381  29.294  32.763  1.00  0.00    -0.200 F 
ATOM     88  F   UNL A   1      36.977  31.783  31.720  1.00  0.00    -0.200 F 
ENDBRANCH  54  78
BRANCH  66  89
ATOM     89  C   UNL A   1      45.028  24.591  33.222  1.00  0.00     0.064 A 
ATOM     90  C   UNL A   1      44.410  23.366  33.519  1.00  0.00     0.173 A 
ATOM     91  C   UNL A   1      46.376  24.706  33.644  1.00  0.00     0.173 A 
ATOM     92  F   UNL A   1      43.203  23.051  33.030  1.00  0.00    -0.203 F 
ATOM     93  C   UNL A   1      45.041  22.386  34.284  1.00  0.00     0.198 A 
ATOM     94  C   UNL A   1      47.031  23.690  34.335  1.00  0.00     0.198 A 
ATOM     95  F   UNL A   1      47.117  25.790  33.374  1.00  0.00    -0.203 F 
ATOM     96  F   UNL A   1      44.373  21.270  34.607  1.00  0.00    -0.200 F 
ATOM     97  C   UNL A   1      46.353  22.543  34.685  1.00  0.00     0.200 A 
ATOM     98  F   UNL A   1      48.329  23.825  34.641  1.00  0.00    -0.200 F 
ATOM     99  F   UNL A   1      46.970  21.580  35.380  1.00  0.00    -0.200 F 
ENDBRANCH  66  89
ENDBRANCH  40  41
ENDBRANCH  32  35
ENDBRANCH  30  31
ENDBRANCH  29  30
ENDBRANCH  28  29
ENDBRANCH  27  28
ENDBRANCH   1  27
TORSDOF 19
ENDMDL
MODEL 3
REMARK VINA RESULT:     -12.1      2.012      3.544
REMARK SMILES CC(=O)N[C@@H](C[NH2+]CCc1ccc(F)cc1C)C(=O)NCCCCCCNC(=O)c1ccc(-c2c3nc(c(-c4c(F)c(F)c(F)c(F)c4F)c4ccc([nH]4)c(-c4c(F)c(F)c(F)c(F)c4F)c4nc(c(-c5c(F)c(F)c(F)c(F)c5F)c5ccc2[nH]5)C=C4)C=C3)cc1
REMARK SMILES IDX 22 1 21 2 20 3 18 4 19 5 5 7 4 8 1 9 2 10 3 11 6 13 7 14
REMARK SMILES IDX 8 17 9 18 10 19 11 20 16 21 12 22 15 23 17 24 13 25 14 26
REMARK SMILES IDX 23 27 24 28 25 29 26 30 27 31 28 32 29 34 30 35 31 36 92 37
REMARK SMILES IDX 32 38 91 39 33 40 34 41 35 42 85 43 36 44 90 45 84 46 86 47
REMARK SMILES IDX 37 48 89 49 83 50 82 51 38 53 70 54 50 55 69 56 51 57 54 58
REMARK SMILES IDX 68 59 87 60 52 61 53 62 67 64 88 65 55 66 39 67 40 68 48 69
REMARK SMILES IDX 41 70 42 71 46 72 49 73 43 74 44 75 47 76 45 77 71 78 72 79
REMARK SMILES IDX 80 80 73 81 74 82 78 83 81 84 75 85 76 86 79 87 77 88 56 89
REMARK SMILES IDX 57 90 65 91 58 92 59 93 63 94 66 95 60 96 61 97 64 98 62 99
REMARK H PARENT 20 6 4 12 7 15 7 16 27 33 86 52 54 63
REMARK Flexibility Score: inf
ROOT
ATOM      1  C   UNL A   1      30.666  29.544  24.234  1.00  0.00     0.021 C 
ENDROOT
BRANCH   1   2
ATOM      2  C   UNL A   1      30.287  28.719  23.014  1.00  0.00     0.116 C 
BRANCH   2   3
ATOM      3  N   UNL A   1      29.134  27.876  23.240  1.00  0.00    -0.354 N 
ATOM      4  C   UNL A   1      29.043  26.647  23.827  1.00  0.00     0.248 C 
ATOM      5  O   UNL A   1      27.915  26.281  24.178  1.00  0.00    -0.272 OA
ATOM      6  H   UNL A   1      28.280  28.246  22.919  1.00  0.00     0.163 HD
BRANCH   4   7
ATOM      7  C   UNL A   1      30.276  25.778  24.171  1.00  0.00     0.226 C 
BRANCH   7   8
ATOM      8  N   UNL A   1      30.066  24.872  25.310  1.00  0.00    -0.340 N 
ATOM      9  C   UNL A   1      32.399  24.809  26.082  1.00  0.00     0.114 C 
ATOM     10  C   UNL A   1      30.947  24.490  26.270  1.00  0.00     0.217 C 
ATOM     11  O   UNL A   1      30.531  23.871  27.246  1.00  0.00    -0.275 OA
ATOM     12  H   UNL A   1      29.162  24.490  25.387  1.00  0.00     0.164 HD
ENDBRANCH   7   8
BRANCH   7  13
ATOM     13  C   UNL A   1      30.835  25.048  22.925  1.00  0.00     0.296 C 
BRANCH  13  14
ATOM     14  N   UNL A   1      32.022  25.702  22.375  1.00  0.00    -0.344 N 
ATOM     15  H   UNL A   1      32.348  26.393  23.051  1.00  0.00     0.346 HD
ATOM     16  H   UNL A   1      31.741  26.117  21.487  1.00  0.00     0.346 HD
BRANCH  14  17
ATOM     17  C   UNL A   1      33.126  24.797  22.079  1.00  0.00     0.265 C 
BRANCH  17  18
ATOM     18  C   UNL A   1      32.886  23.350  22.543  1.00  0.00     0.097 C 
BRANCH  18  19
ATOM     19  C   UNL A   1      33.921  22.625  23.402  1.00  0.00    -0.039 A 
ATOM     20  C   UNL A   1      35.240  23.131  23.311  1.00  0.00     0.007 A 
ATOM     21  C   UNL A   1      33.699  21.491  24.218  1.00  0.00    -0.045 A 
ATOM     22  C   UNL A   1      36.303  22.555  24.006  1.00  0.00     0.039 A 
ATOM     23  C   UNL A   1      34.788  20.928  24.919  1.00  0.00     0.043 A 
ATOM     24  C   UNL A   1      32.391  20.782  24.421  1.00  0.00     0.045 C 
ATOM     25  C   UNL A   1      36.066  21.455  24.807  1.00  0.00     0.123 A 
ATOM     26  F   UNL A   1      37.079  20.883  25.471  1.00  0.00    -0.207 F 
ENDBRANCH  18  19
ENDBRANCH  17  18
ENDBRANCH  14  17
ENDBRANCH  13  14
ENDBRANCH   7  13
ENDBRANCH   4   7
ENDBRANCH   2   3
ENDBRANCH   1   2
BRANCH   1  27
ATOM     27  C   UNL A   1      31.899  29.022  24.971  1.00  0.00     0.002 C 
BRANCH  27  28
ATOM     28  C   UNL A   1      31.843  29.142  26.502  1.00  0.00     0.002 C 
BRANCH  28  29
ATOM     29  C   UNL A   1      32.986  28.462  27.265  1.00  0.00     0.021 C 
BRANCH  29  30
ATOM     30  C   UNL A   1      34.350  28.881  26.763  1.00  0.00     0.116 C 
BRANCH  30  31
ATOM     31  N   UNL A   1      34.555  30.309  26.971  1.00  0.00    -0.352 N 
ATOM     32  C   UNL A   1      35.482  30.910  27.785  1.00  0.00     0.251 C 
ATOM     33  H   UNL A   1      33.960  30.912  26.469  1.00  0.00     0.163 HD
ATOM     34  O   UNL A   1      35.349  32.059  28.168  1.00  0.00    -0.269 OA
BRANCH  32  35
ATOM     35  C   UNL A   1      36.675  30.133  28.128  1.00  0.00     0.039 A 
ATOM     36  C   UNL A   1      36.762  29.422  29.329  1.00  0.00     0.014 A 
ATOM     37  C   UNL A   1      37.738  30.183  27.227  1.00  0.00     0.014 A 
ATOM     38  C   UNL A   1      37.944  28.757  29.630  1.00  0.00     0.010 A 
ATOM     39  C   UNL A   1      38.830  29.409  27.443  1.00  0.00     0.010 A 
ATOM     40  C   UNL A   1      38.965  28.781  28.681  1.00  0.00    -0.014 A 
BRANCH  40  41
ATOM     41  C   UNL A   1      40.289  28.242  28.875  1.00  0.00     0.031 A 
ATOM     42  C   UNL A   1      40.555  26.859  28.482  1.00  0.00     0.074 A 
ATOM     43  C   UNL A   1      41.218  29.177  29.177  1.00  0.00     0.049 A 
ATOM     44  N   UNL A   1      41.553  26.170  28.895  1.00  0.00    -0.248 NA
ATOM     45  C   UNL A   1      39.671  26.110  27.592  1.00  0.00     0.031 C 
ATOM     46  C   UNL A   1      42.666  29.142  29.085  1.00  0.00     0.029 A 
ATOM     47  N   UNL A   1      40.948  30.429  29.763  1.00  0.00    -0.354 N 
ATOM     48  C   UNL A   1      41.645  25.059  28.082  1.00  0.00     0.074 A 
ATOM     49  C   UNL A   1      40.378  24.992  27.397  1.00  0.00     0.031 C 
ATOM     50  C   UNL A   1      43.164  30.116  29.872  1.00  0.00     0.029 A 
ATOM     51  C   UNL A   1      42.043  30.706  30.594  1.00  0.00     0.049 A 
ATOM     52  H   UNL A   1      40.154  30.994  29.618  1.00  0.00     0.167 HD
ATOM     53  C   UNL A   1      42.867  24.461  27.961  1.00  0.00     0.037 A 
ATOM     54  C   UNL A   1      41.850  30.642  31.945  1.00  0.00     0.037 A 
ATOM     55  C   UNL A   1      43.830  25.169  28.810  1.00  0.00     0.049 A 
ATOM     56  C   UNL A   1      42.615  29.487  32.532  1.00  0.00     0.074 A 
ATOM     57  C   UNL A   1      44.722  26.190  28.523  1.00  0.00     0.029 A 
ATOM     58  N   UNL A   1      43.657  25.168  30.192  1.00  0.00    -0.354 N 
ATOM     59  N   UNL A   1      42.833  28.355  31.914  1.00  0.00    -0.248 NA
ATOM     60  C   UNL A   1      43.310  29.591  33.807  1.00  0.00     0.031 C 
ATOM     61  C   UNL A   1      45.017  26.860  29.740  1.00  0.00     0.029 A 
ATOM     62  C   UNL A   1      44.316  26.241  30.762  1.00  0.00     0.049 A 
ATOM     63  H   UNL A   1      43.138  24.497  30.692  1.00  0.00     0.167 HD
ATOM     64  C   UNL A   1      43.750  27.632  32.632  1.00  0.00     0.074 A 
ATOM     65  C   UNL A   1      44.001  28.440  33.815  1.00  0.00     0.031 C 
ATOM     66  C   UNL A   1      44.298  26.456  32.200  1.00  0.00     0.037 A 
BRANCH  53  67
ATOM     67  C   UNL A   1      43.285  23.495  26.870  1.00  0.00     0.064 A 
ATOM     68  C   UNL A   1      42.959  22.121  26.976  1.00  0.00     0.173 A 
ATOM     69  C   UNL A   1      44.023  23.828  25.720  1.00  0.00     0.173 A 
ATOM     70  F   UNL A   1      42.184  21.657  27.965  1.00  0.00    -0.203 F 
ATOM     71  C   UNL A   1      43.411  21.161  26.064  1.00  0.00     0.198 A 
ATOM     72  C   UNL A   1      44.503  22.863  24.823  1.00  0.00     0.198 A 
ATOM     73  F   UNL A   1      44.265  25.100  25.385  1.00  0.00    -0.203 F 
ATOM     74  F   UNL A   1      43.074  19.875  26.233  1.00  0.00    -0.200 F 
ATOM     75  C   UNL A   1      44.204  21.529  25.000  1.00  0.00     0.200 A 
ATOM     76  F   UNL A   1      45.251  23.243  23.776  1.00  0.00    -0.200 F 
ATOM     77  F   UNL A   1      44.652  20.609  24.136  1.00  0.00    -0.200 F 
ENDBRANCH  53  67
BRANCH  54  78
ATOM     78  C   UNL A   1      40.484  31.123  32.336  1.00  0.00     0.064 A 
ATOM     79  C   UNL A   1      39.546  30.128  32.684  1.00  0.00     0.173 A 
ATOM     80  C   UNL A   1      40.254  32.416  32.829  1.00  0.00     0.173 A 
ATOM     81  F   UNL A   1      39.698  28.877  32.218  1.00  0.00    -0.203 F 
ATOM     82  C   UNL A   1      38.548  30.364  33.628  1.00  0.00     0.198 A 
ATOM     83  C   UNL A   1      39.225  32.658  33.748  1.00  0.00     0.198 A 
ATOM     84  F   UNL A   1      41.089  33.419  32.523  1.00  0.00    -0.203 F 
ATOM     85  F   UNL A   1      37.782  29.350  34.058  1.00  0.00    -0.200 F 
ATOM     86  C   UNL A   1      38.414  31.621  34.189  1.00  0.00     0.200 A 
ATOM     87  F   UNL A   1      39.072  33.883  34.272  1.00  0.00    -0.200 F 
ATOM     88  F   UNL A   1      37.527  31.822  35.174  1.00  0.00    -0.200 F 
ENDBRANCH  54  78
BRANCH  66  89
ATOM     89  C   UNL A   1      45.018  25.464  33.083  1.00  0.00     0.064 A 
ATOM     90  C   UNL A   1      46.415  25.332  33.118  1.00  0.00     0.173 A 
ATOM     91  C   UNL A   1      44.314  24.703  34.050  1.00  0.00     0.173 A 
ATOM     92  F   UNL A   1      47.214  26.118  32.385  1.00  0.00    -0.203 F 
ATOM     93  C   UNL A   1      47.051  24.422  33.962  1.00  0.00     0.198 A 
ATOM     94  C   UNL A   1      44.960  23.858  34.949  1.00  0.00     0.198 A 
ATOM     95  F   UNL A   1      42.982  24.776  34.183  1.00  0.00    -0.203 F 
ATOM     96  F   UNL A   1      48.381  24.279  33.895  1.00  0.00    -0.200 F 
ATOM     97  C   UNL A   1      46.325  23.692  34.882  1.00  0.00     0.200 A 
ATOM     98  F   UNL A   1      44.248  23.223  35.891  1.00  0.00    -0.200 F 
ATOM     99  F   UNL A   1      46.944  22.852  35.722  1.00  0.00    -0.200 F 
ENDBRANCH  66  89
ENDBRANCH  40  41
ENDBRANCH  32  35
ENDBRANCH  30  31
ENDBRANCH  29  30
ENDBRANCH  28  29
ENDBRANCH  27  28
ENDBRANCH   1  27
TORSDOF 19
ENDMDL
