MODEL 1
REMARK VINA RESULT:     -12.3      0.000      0.000
REMARK SMILES COc1cc(NC(=O)c2ccc([N+](=O)[O-])cc2)c(C(=O)NCCCCCCNC(=O)c2ccc(-c3c4nc(c(-c5c(F)c(F)c(F)c(F)c5F)c5ccc([nH]5)c(-c5c(F)c(F)c(F)c(F)c5F)c5nc(c(-c6c(F)c(F)c(F)c(F)c6F)c6ccc3[nH]6)C=C5)C=C4)cc2)cc1OC
REMARK SMILES IDX 24 1 23 2 22 3 21 4 19 5 20 6 18 8 3 9 4 10 95 11 5 12 94 13
REMARK SMILES IDX 2 14 1 15 96 16 97 17 6 18 7 19 8 21 9 22 10 23 17 24 11 25
REMARK SMILES IDX 16 26 12 27 13 28 14 29 15 30 25 31 26 32 27 33 28 34 29 35
REMARK SMILES IDX 30 37 31 38 32 39 93 40 33 41 92 42 34 43 35 44 36 45 86 46
REMARK SMILES IDX 37 47 91 48 85 49 87 50 38 51 90 52 84 53 83 54 39 56 71 57
REMARK SMILES IDX 51 58 70 59 52 60 55 61 69 62 88 63 53 64 54 65 68 67 89 68
REMARK SMILES IDX 56 69 40 70 41 71 49 72 42 73 43 74 47 75 50 76 44 77 45 78
REMARK SMILES IDX 48 79 46 80 72 81 73 82 81 83 74 84 75 85 79 86 82 87 76 88
REMARK SMILES IDX 77 89 80 90 78 91 57 92 58 93 66 94 59 95 60 96 64 97 67 98
REMARK SMILES IDX 61 99 62 100 65 101 63 102
REMARK H PARENT 21 7 6 20 28 36 87 55 55 66
REMARK Flexibility Score: inf
ROOT
ATOM      1  C   UNL A   1      32.559  30.081  27.149  1.00  0.00     0.002 C 
ENDROOT
BRANCH   1   2
ATOM      2  C   UNL A   1      33.492  29.261  26.251  1.00  0.00     0.021 C 
BRANCH   2   3
ATOM      3  C   UNL A   1      33.583  27.788  26.665  1.00  0.00     0.116 C 
BRANCH   3   4
ATOM      4  N   UNL A   1      32.250  27.230  26.775  1.00  0.00    -0.352 N 
ATOM      5  C   UNL A   1      31.423  26.581  25.894  1.00  0.00     0.253 C 
ATOM      6  O   UNL A   1      30.289  26.328  26.305  1.00  0.00    -0.269 OA
ATOM      7  H   UNL A   1      31.854  27.342  27.669  1.00  0.00     0.163 HD
BRANCH   5   8
ATOM      8  C   UNL A   1      31.829  26.116  24.525  1.00  0.00     0.067 A 
ATOM      9  C   UNL A   1      32.767  25.204  22.032  1.00  0.00     0.162 A 
ATOM     10  C   UNL A   1      32.007  24.366  22.862  1.00  0.00     0.077 A 
ATOM     11  C   UNL A   1      32.968  26.530  22.388  1.00  0.00     0.161 A 
ATOM     12  C   UNL A   1      31.562  24.778  24.128  1.00  0.00     0.058 A 
ATOM     13  C   UNL A   1      32.449  26.978  23.607  1.00  0.00     0.066 A 
BRANCH   9  14
ATOM     14  O   UNL A   1      33.181  24.720  20.821  1.00  0.00    -0.493 OA
ATOM     15  C   UNL A   1      32.475  25.332  19.737  1.00  0.00     0.278 C 
ENDBRANCH   9  14
BRANCH  11  16
ATOM     16  O   UNL A   1      33.596  27.511  21.672  1.00  0.00    -0.493 OA
ATOM     17  C   UNL A   1      34.313  28.499  22.401  1.00  0.00     0.278 C 
ENDBRANCH  11  16
BRANCH  12  18
ATOM     18  N   UNL A   1      30.806  23.938  24.992  1.00  0.00    -0.321 N 
ATOM     19  C   UNL A   1      31.037  22.748  25.640  1.00  0.00     0.255 C 
ATOM     20  H   UNL A   1      29.906  24.293  25.169  1.00  0.00     0.170 HD
ATOM     21  O   UNL A   1      30.127  22.125  26.179  1.00  0.00    -0.269 OA
BRANCH  19  22
ATOM     22  C   UNL A   1      32.390  22.191  25.735  1.00  0.00     0.040 A 
ATOM     23  C   UNL A   1      32.715  21.079  24.948  1.00  0.00     0.021 A 
ATOM     24  C   UNL A   1      33.345  22.811  26.551  1.00  0.00     0.021 A 
ATOM     25  C   UNL A   1      34.040  20.647  24.889  1.00  0.00     0.086 A 
ATOM     26  C   UNL A   1      34.671  22.382  26.493  1.00  0.00     0.086 A 
ATOM     27  C   UNL A   1      35.016  21.323  25.638  1.00  0.00     0.269 A 
BRANCH  27  28
ATOM     28  N   UNL A   1      36.429  20.967  25.471  1.00  0.00     0.062 N 
ATOM     29  O   UNL A   1      36.691  19.867  24.967  1.00  0.00    -0.258 OA
ATOM     30  O   UNL A   1      37.272  21.809  25.814  1.00  0.00    -0.258 OA
ENDBRANCH  27  28
ENDBRANCH  19  22
ENDBRANCH  12  18
ENDBRANCH   5   8
ENDBRANCH   3   4
ENDBRANCH   2   3
ENDBRANCH   1   2
BRANCH   1  31
ATOM     31  C   UNL A   1      31.415  30.784  26.409  1.00  0.00     0.002 C 
BRANCH  31  32
ATOM     32  C   UNL A   1      31.352  32.302  26.611  1.00  0.00     0.021 C 
BRANCH  32  33
ATOM     33  C   UNL A   1      32.626  32.910  27.190  1.00  0.00     0.116 C 
BRANCH  33  34
ATOM     34  N   UNL A   1      32.418  34.288  27.610  1.00  0.00    -0.352 N 
ATOM     35  C   UNL A   1      32.983  34.969  28.654  1.00  0.00     0.251 C 
ATOM     36  H   UNL A   1      31.781  34.803  27.064  1.00  0.00     0.163 HD
ATOM     37  O   UNL A   1      32.519  36.052  29.011  1.00  0.00    -0.269 OA
BRANCH  35  38
ATOM     38  C   UNL A   1      34.147  34.402  29.364  1.00  0.00     0.039 A 
ATOM     39  C   UNL A   1      33.940  33.707  30.559  1.00  0.00     0.014 A 
ATOM     40  C   UNL A   1      35.441  34.576  28.866  1.00  0.00     0.014 A 
ATOM     41  C   UNL A   1      35.027  33.142  31.228  1.00  0.00     0.010 A 
ATOM     42  C   UNL A   1      36.516  33.956  29.498  1.00  0.00     0.010 A 
ATOM     43  C   UNL A   1      36.320  33.238  30.688  1.00  0.00    -0.014 A 
BRANCH  43  44
ATOM     44  C   UNL A   1      37.478  32.594  31.354  1.00  0.00     0.031 A 
ATOM     45  C   UNL A   1      38.189  31.446  30.693  1.00  0.00     0.074 A 
ATOM     46  C   UNL A   1      37.849  33.003  32.582  1.00  0.00     0.049 A 
ATOM     47  N   UNL A   1      39.176  30.713  31.143  1.00  0.00    -0.248 NA
ATOM     48  C   UNL A   1      37.707  31.051  29.360  1.00  0.00     0.031 C 
ATOM     49  C   UNL A   1      37.207  34.074  33.345  1.00  0.00     0.029 A 
ATOM     50  N   UNL A   1      38.849  32.559  33.410  1.00  0.00    -0.354 N 
ATOM     51  C   UNL A   1      39.424  29.767  30.158  1.00  0.00     0.074 A 
ATOM     52  C   UNL A   1      38.451  29.984  29.109  1.00  0.00     0.031 C 
ATOM     53  C   UNL A   1      37.840  34.217  34.520  1.00  0.00     0.029 A 
ATOM     54  C   UNL A   1      38.910  33.227  34.608  1.00  0.00     0.049 A 
ATOM     55  H   UNL A   1      39.466  31.830  33.168  1.00  0.00     0.167 HD
ATOM     56  C   UNL A   1      40.389  28.818  30.123  1.00  0.00     0.037 A 
ATOM     57  C   UNL A   1      39.731  33.055  35.660  1.00  0.00     0.037 A 
ATOM     58  C   UNL A   1      41.372  28.624  31.158  1.00  0.00     0.049 A 
ATOM     59  C   UNL A   1      40.796  31.995  35.594  1.00  0.00     0.074 A 
ATOM     60  C   UNL A   1      42.430  27.732  31.187  1.00  0.00     0.029 A 
ATOM     61  N   UNL A   1      41.414  29.334  32.348  1.00  0.00    -0.354 N 
ATOM     62  N   UNL A   1      41.065  31.151  34.629  1.00  0.00    -0.248 NA
ATOM     63  C   UNL A   1      41.677  31.869  36.763  1.00  0.00     0.031 C 
ATOM     64  C   UNL A   1      43.086  27.873  32.414  1.00  0.00     0.029 A 
ATOM     65  C   UNL A   1      42.467  28.886  33.129  1.00  0.00     0.049 A 
ATOM     66  H   UNL A   1      40.788  30.051  32.600  1.00  0.00     0.167 HD
ATOM     67  C   UNL A   1      42.159  30.413  35.059  1.00  0.00     0.074 A 
ATOM     68  C   UNL A   1      42.514  30.920  36.368  1.00  0.00     0.031 C 
ATOM     69  C   UNL A   1      42.809  29.406  34.428  1.00  0.00     0.037 A 
BRANCH  56  70
ATOM     70  C   UNL A   1      40.435  27.918  28.923  1.00  0.00     0.064 A 
ATOM     71  C   UNL A   1      41.225  28.225  27.804  1.00  0.00     0.173 A 
ATOM     72  C   UNL A   1      39.715  26.714  28.906  1.00  0.00     0.173 A 
ATOM     73  F   UNL A   1      41.925  29.368  27.764  1.00  0.00    -0.203 F 
ATOM     74  C   UNL A   1      41.268  27.374  26.702  1.00  0.00     0.198 A 
ATOM     75  C   UNL A   1      39.783  25.852  27.815  1.00  0.00     0.198 A 
ATOM     76  F   UNL A   1      38.948  26.370  29.952  1.00  0.00    -0.203 F 
ATOM     77  F   UNL A   1      41.992  27.710  25.626  1.00  0.00    -0.200 F 
ATOM     78  C   UNL A   1      40.554  26.185  26.711  1.00  0.00     0.200 A 
ATOM     79  F   UNL A   1      39.102  24.697  27.830  1.00  0.00    -0.200 F 
ATOM     80  F   UNL A   1      40.603  25.364  25.653  1.00  0.00    -0.200 F 
ENDBRANCH  56  70
BRANCH  57  81
ATOM     81  C   UNL A   1      39.595  33.924  36.857  1.00  0.00     0.064 A 
ATOM     82  C   UNL A   1      38.834  33.514  37.961  1.00  0.00     0.173 A 
ATOM     83  C   UNL A   1      40.218  35.180  36.924  1.00  0.00     0.173 A 
ATOM     84  F   UNL A   1      38.204  32.331  37.935  1.00  0.00    -0.203 F 
ATOM     85  C   UNL A   1      38.684  34.335  39.077  1.00  0.00     0.198 A 
ATOM     86  C   UNL A   1      40.089  35.987  38.052  1.00  0.00     0.198 A 
ATOM     87  F   UNL A   1      40.962  35.616  35.897  1.00  0.00    -0.203 F 
ATOM     88  F   UNL A   1      37.914  33.937  40.099  1.00  0.00    -0.200 F 
ATOM     89  C   UNL A   1      39.316  35.568  39.124  1.00  0.00     0.200 A 
ATOM     90  F   UNL A   1      40.713  37.172  38.100  1.00  0.00    -0.200 F 
ATOM     91  F   UNL A   1      39.174  36.355  40.199  1.00  0.00    -0.200 F 
ENDBRANCH  57  81
BRANCH  69  92
ATOM     92  C   UNL A   1      43.990  28.805  35.133  1.00  0.00     0.064 A 
ATOM     93  C   UNL A   1      45.287  29.309  34.957  1.00  0.00     0.173 A 
ATOM     94  C   UNL A   1      43.816  27.734  36.023  1.00  0.00     0.173 A 
ATOM     95  F   UNL A   1      45.507  30.322  34.105  1.00  0.00    -0.203 F 
ATOM     96  C   UNL A   1      46.369  28.746  35.627  1.00  0.00     0.198 A 
ATOM     97  C   UNL A   1      44.897  27.193  36.713  1.00  0.00     0.198 A 
ATOM     98  F   UNL A   1      42.595  27.219  36.231  1.00  0.00    -0.203 F 
ATOM     99  F   UNL A   1      47.606  29.213  35.407  1.00  0.00    -0.200 F 
ATOM    100  C   UNL A   1      46.173  27.695  36.509  1.00  0.00     0.200 A 
ATOM    101  F   UNL A   1      44.703  26.185  37.574  1.00  0.00    -0.200 F 
ATOM    102  F   UNL A   1      47.216  27.159  37.157  1.00  0.00    -0.200 F 
ENDBRANCH  69  92
ENDBRANCH  43  44
ENDBRANCH  35  38
ENDBRANCH  33  34
ENDBRANCH  32  33
ENDBRANCH  31  32
ENDBRANCH   1  31
TORSDOF 18
ENDMDL
MODEL 2
REMARK VINA RESULT:     -12.3      1.594      7.246
REMARK SMILES COc1cc(NC(=O)c2ccc([N+](=O)[O-])cc2)c(C(=O)NCCCCCCNC(=O)c2ccc(-c3c4nc(c(-c5c(F)c(F)c(F)c(F)c5F)c5ccc([nH]5)c(-c5c(F)c(F)c(F)c(F)c5F)c5nc(c(-c6c(F)c(F)c(F)c(F)c6F)c6ccc3[nH]6)C=C5)C=C4)cc2)cc1OC
REMARK SMILES IDX 24 1 23 2 22 3 21 4 19 5 20 6 18 8 3 9 4 10 95 11 5 12 94 13
REMARK SMILES IDX 2 14 1 15 96 16 97 17 6 18 7 19 8 21 9 22 10 23 17 24 11 25
REMARK SMILES IDX 16 26 12 27 13 28 14 29 15 30 25 31 26 32 27 33 28 34 29 35
REMARK SMILES IDX 30 37 31 38 32 39 93 40 33 41 92 42 34 43 35 44 36 45 86 46
REMARK SMILES IDX 37 47 91 48 85 49 87 50 38 51 90 52 84 53 83 54 39 56 71 57
REMARK SMILES IDX 51 58 70 59 52 60 55 61 69 62 88 63 53 64 54 65 68 67 89 68
REMARK SMILES IDX 56 69 40 70 41 71 49 72 42 73 43 74 47 75 50 76 44 77 45 78
REMARK SMILES IDX 48 79 46 80 72 81 73 82 81 83 74 84 75 85 79 86 82 87 76 88
REMARK SMILES IDX 77 89 80 90 78 91 57 92 58 93 66 94 59 95 60 96 64 97 67 98
REMARK SMILES IDX 61 99 62 100 65 101 63 102
REMARK H PARENT 21 7 6 20 28 36 87 55 55 66
REMARK Flexibility Score: inf
ROOT
ATOM      1  C   UNL A   1      34.501  31.620  28.607  1.00  0.00     0.002 C 
ENDROOT
BRANCH   1   2
ATOM      2  C   UNL A   1      34.803  30.469  27.641  1.00  0.00     0.021 C 
BRANCH   2   3
ATOM      3  C   UNL A   1      33.613  30.111  26.744  1.00  0.00     0.116 C 
BRANCH   3   4
ATOM      4  N   UNL A   1      32.678  29.284  27.481  1.00  0.00    -0.352 N 
ATOM      5  C   UNL A   1      31.672  28.433  27.105  1.00  0.00     0.253 C 
ATOM      6  O   UNL A   1      30.995  27.960  28.021  1.00  0.00    -0.269 OA
ATOM      7  H   UNL A   1      32.789  29.349  28.457  1.00  0.00     0.163 HD
BRANCH   5   8
ATOM      8  C   UNL A   1      31.399  28.003  25.693  1.00  0.00     0.067 A 
ATOM      9  C   UNL A   1      31.079  27.207  23.011  1.00  0.00     0.162 A 
ATOM     10  C   UNL A   1      31.097  26.258  24.043  1.00  0.00     0.077 A 
ATOM     11  C   UNL A   1      31.108  28.561  23.317  1.00  0.00     0.161 A 
ATOM     12  C   UNL A   1      31.298  26.620  25.384  1.00  0.00     0.058 A 
ATOM     13  C   UNL A   1      31.214  28.936  24.660  1.00  0.00     0.066 A 
BRANCH   9  14
ATOM     14  O   UNL A   1      30.900  26.771  21.726  1.00  0.00    -0.493 OA
ATOM     15  C   UNL A   1      32.022  26.014  21.263  1.00  0.00     0.278 C 
ENDBRANCH   9  14
BRANCH  11  16
ATOM     16  O   UNL A   1      31.007  29.623  22.462  1.00  0.00    -0.493 OA
ATOM     17  C   UNL A   1      29.701  30.029  22.073  1.00  0.00     0.278 C 
ENDBRANCH  11  16
BRANCH  12  18
ATOM     18  N   UNL A   1      31.338  25.670  26.443  1.00  0.00    -0.321 N 
ATOM     19  C   UNL A   1      31.965  24.464  26.646  1.00  0.00     0.255 C 
ATOM     20  H   UNL A   1      30.787  25.942  27.212  1.00  0.00     0.170 HD
ATOM     21  O   UNL A   1      31.667  23.739  27.591  1.00  0.00    -0.269 OA
BRANCH  19  22
ATOM     22  C   UNL A   1      33.036  24.011  25.753  1.00  0.00     0.040 A 
ATOM     23  C   UNL A   1      34.190  24.795  25.637  1.00  0.00     0.021 A 
ATOM     24  C   UNL A   1      32.918  22.784  25.088  1.00  0.00     0.021 A 
ATOM     25  C   UNL A   1      35.288  24.295  24.936  1.00  0.00     0.086 A 
ATOM     26  C   UNL A   1      34.014  22.281  24.389  1.00  0.00     0.086 A 
ATOM     27  C   UNL A   1      35.204  23.025  24.344  1.00  0.00     0.269 A 
BRANCH  27  28
ATOM     28  N   UNL A   1      36.398  22.434  23.731  1.00  0.00     0.062 N 
ATOM     29  O   UNL A   1      36.881  21.427  24.264  1.00  0.00    -0.258 OA
ATOM     30  O   UNL A   1      36.825  22.962  22.694  1.00  0.00    -0.258 OA
ENDBRANCH  27  28
ENDBRANCH  19  22
ENDBRANCH  12  18
ENDBRANCH   5   8
ENDBRANCH   3   4
ENDBRANCH   2   3
ENDBRANCH   1   2
BRANCH   1  31
ATOM     31  C   UNL A   1      34.555  33.016  27.974  1.00  0.00     0.002 C 
BRANCH  31  32
ATOM     32  C   UNL A   1      33.281  33.849  28.142  1.00  0.00     0.021 C 
BRANCH  32  33
ATOM     33  C   UNL A   1      33.532  35.320  28.465  1.00  0.00     0.116 C 
BRANCH  33  34
ATOM     34  N   UNL A   1      32.851  35.723  29.686  1.00  0.00    -0.352 N 
ATOM     35  C   UNL A   1      33.040  35.282  30.969  1.00  0.00     0.251 C 
ATOM     36  H   UNL A   1      32.156  36.411  29.574  1.00  0.00     0.163 HD
ATOM     37  O   UNL A   1      32.219  35.553  31.844  1.00  0.00    -0.269 OA
BRANCH  35  38
ATOM     38  C   UNL A   1      34.227  34.470  31.305  1.00  0.00     0.039 A 
ATOM     39  C   UNL A   1      35.494  34.944  30.955  1.00  0.00     0.014 A 
ATOM     40  C   UNL A   1      34.089  33.233  31.941  1.00  0.00     0.014 A 
ATOM     41  C   UNL A   1      36.627  34.201  31.289  1.00  0.00     0.010 A 
ATOM     42  C   UNL A   1      35.222  32.525  32.332  1.00  0.00     0.010 A 
ATOM     43  C   UNL A   1      36.501  32.999  32.005  1.00  0.00    -0.014 A 
BRANCH  43  44
ATOM     44  C   UNL A   1      37.697  32.226  32.420  1.00  0.00     0.031 A 
ATOM     45  C   UNL A   1      38.383  32.534  33.722  1.00  0.00     0.074 A 
ATOM     46  C   UNL A   1      38.202  31.291  31.594  1.00  0.00     0.049 A 
ATOM     47  N   UNL A   1      39.474  32.015  34.227  1.00  0.00    -0.248 NA
ATOM     48  C   UNL A   1      37.776  33.583  34.556  1.00  0.00     0.031 C 
ATOM     49  C   UNL A   1      37.654  30.936  30.284  1.00  0.00     0.029 A 
ATOM     50  N   UNL A   1      39.297  30.474  31.728  1.00  0.00    -0.354 N 
ATOM     51  C   UNL A   1      39.690  32.682  35.426  1.00  0.00     0.074 A 
ATOM     52  C   UNL A   1      38.647  33.678  35.549  1.00  0.00     0.031 C 
ATOM     53  C   UNL A   1      38.403  29.962  29.743  1.00  0.00     0.029 A 
ATOM     54  C   UNL A   1      39.502  29.646  30.651  1.00  0.00     0.049 A 
ATOM     55  H   UNL A   1      39.880  30.480  32.521  1.00  0.00     0.167 HD
ATOM     56  C   UNL A   1      40.657  32.467  36.348  1.00  0.00     0.037 A 
ATOM     57  C   UNL A   1      40.470  28.741  30.421  1.00  0.00     0.037 A 
ATOM     58  C   UNL A   1      41.677  31.457  36.232  1.00  0.00     0.049 A 
ATOM     59  C   UNL A   1      41.532  28.521  31.464  1.00  0.00     0.074 A 
ATOM     60  C   UNL A   1      42.663  31.118  37.142  1.00  0.00     0.029 A 
ATOM     61  N   UNL A   1      41.839  30.624  35.136  1.00  0.00    -0.354 N 
ATOM     62  N   UNL A   1      41.687  29.109  32.624  1.00  0.00    -0.248 NA
ATOM     63  C   UNL A   1      42.550  27.504  31.167  1.00  0.00     0.031 C 
ATOM     64  C   UNL A   1      43.450  30.108  36.577  1.00  0.00     0.029 A 
ATOM     65  C   UNL A   1      42.925  29.784  35.337  1.00  0.00     0.049 A 
ATOM     66  H   UNL A   1      41.269  30.627  34.334  1.00  0.00     0.167 HD
ATOM     67  C   UNL A   1      42.799  28.519  33.207  1.00  0.00     0.074 A 
ATOM     68  C   UNL A   1      43.272  27.513  32.278  1.00  0.00     0.031 C 
ATOM     69  C   UNL A   1      43.378  28.786  34.403  1.00  0.00     0.037 A 
BRANCH  56  70
ATOM     70  C   UNL A   1      40.658  33.339  37.570  1.00  0.00     0.064 A 
ATOM     71  C   UNL A   1      39.780  33.105  38.640  1.00  0.00     0.173 A 
ATOM     72  C   UNL A   1      41.573  34.396  37.692  1.00  0.00     0.173 A 
ATOM     73  F   UNL A   1      38.878  32.114  38.569  1.00  0.00    -0.203 F 
ATOM     74  C   UNL A   1      39.800  33.914  39.773  1.00  0.00     0.198 A 
ATOM     75  C   UNL A   1      41.610  35.184  38.839  1.00  0.00     0.198 A 
ATOM     76  F   UNL A   1      42.438  34.659  36.701  1.00  0.00    -0.203 F 
ATOM     77  F   UNL A   1      38.922  33.701  40.762  1.00  0.00    -0.200 F 
ATOM     78  C   UNL A   1      40.719  34.948  39.876  1.00  0.00     0.200 A 
ATOM     79  F   UNL A   1      42.507  36.175  38.941  1.00  0.00    -0.200 F 
ATOM     80  F   UNL A   1      40.742  35.720  40.971  1.00  0.00    -0.200 F 
ENDBRANCH  56  70
BRANCH  57  81
ATOM     81  C   UNL A   1      40.467  27.956  29.160  1.00  0.00     0.064 A 
ATOM     82  C   UNL A   1      39.710  26.782  29.046  1.00  0.00     0.173 A 
ATOM     83  C   UNL A   1      41.218  28.359  28.045  1.00  0.00     0.173 A 
ATOM     84  F   UNL A   1      38.992  26.346  30.091  1.00  0.00    -0.203 F 
ATOM     85  C   UNL A   1      39.720  26.029  27.874  1.00  0.00     0.198 A 
ATOM     86  C   UNL A   1      41.205  27.620  26.864  1.00  0.00     0.198 A 
ATOM     87  F   UNL A   1      41.953  29.479  28.100  1.00  0.00    -0.203 F 
ATOM     88  F   UNL A   1      39.023  24.887  27.808  1.00  0.00    -0.200 F 
ATOM     89  C   UNL A   1      40.463  26.452  26.782  1.00  0.00     0.200 A 
ATOM     90  F   UNL A   1      41.912  28.040  25.807  1.00  0.00    -0.200 F 
ATOM     91  F   UNL A   1      40.470  25.730  25.653  1.00  0.00    -0.200 F 
ENDBRANCH  57  81
BRANCH  69  92
ATOM     92  C   UNL A   1      44.570  27.959  34.788  1.00  0.00     0.064 A 
ATOM     93  C   UNL A   1      45.879  28.388  34.525  1.00  0.00     0.173 A 
ATOM     94  C   UNL A   1      44.399  26.739  35.459  1.00  0.00     0.173 A 
ATOM     95  F   UNL A   1      46.093  29.540  33.872  1.00  0.00    -0.203 F 
ATOM     96  C   UNL A   1      46.973  27.613  34.899  1.00  0.00     0.198 A 
ATOM     97  C   UNL A   1      45.497  25.980  35.857  1.00  0.00     0.198 A 
ATOM     98  F   UNL A   1      43.168  26.287  35.739  1.00  0.00    -0.203 F 
ATOM     99  F   UNL A   1      48.214  28.019  34.595  1.00  0.00    -0.200 F 
ATOM    100  C   UNL A   1      46.782  26.415  35.570  1.00  0.00     0.200 A 
ATOM    101  F   UNL A   1      45.310  24.830  36.517  1.00  0.00    -0.200 F 
ATOM    102  F   UNL A   1      47.837  25.673  35.934  1.00  0.00    -0.200 F 
ENDBRANCH  69  92
ENDBRANCH  43  44
ENDBRANCH  35  38
ENDBRANCH  33  34
ENDBRANCH  32  33
ENDBRANCH  31  32
ENDBRANCH   1  31
TORSDOF 18
ENDMDL
MODEL 3
REMARK VINA RESULT:     -12.0      1.725      2.639
REMARK SMILES COc1cc(NC(=O)c2ccc([N+](=O)[O-])cc2)c(C(=O)NCCCCCCNC(=O)c2ccc(-c3c4nc(c(-c5c(F)c(F)c(F)c(F)c5F)c5ccc([nH]5)c(-c5c(F)c(F)c(F)c(F)c5F)c5nc(c(-c6c(F)c(F)c(F)c(F)c6F)c6ccc3[nH]6)C=C5)C=C4)cc2)cc1OC
REMARK SMILES IDX 24 1 23 2 22 3 21 4 19 5 20 6 18 8 3 9 4 10 95 11 5 12 94 13
REMARK SMILES IDX 2 14 1 15 96 16 97 17 6 18 7 19 8 21 9 22 10 23 17 24 11 25
REMARK SMILES IDX 16 26 12 27 13 28 14 29 15 30 25 31 26 32 27 33 28 34 29 35
REMARK SMILES IDX 30 37 31 38 32 39 93 40 33 41 92 42 34 43 35 44 36 45 86 46
REMARK SMILES IDX 37 47 91 48 85 49 87 50 38 51 90 52 84 53 83 54 39 56 71 57
REMARK SMILES IDX 51 58 70 59 52 60 55 61 69 62 88 63 53 64 54 65 68 67 89 68
REMARK SMILES IDX 56 69 40 70 41 71 49 72 42 73 43 74 47 75 50 76 44 77 45 78
REMARK SMILES IDX 48 79 46 80 72 81 73 82 81 83 74 84 75 85 79 86 82 87 76 88
REMARK SMILES IDX 77 89 80 90 78 91 57 92 58 93 66 94 59 95 60 96 64 97 67 98
REMARK SMILES IDX 61 99 62 100 65 101 63 102
REMARK H PARENT 21 7 6 20 28 36 87 55 55 66
REMARK Flexibility Score: inf
ROOT
ATOM      1  C   UNL A   1      34.578  31.668  28.660  1.00  0.00     0.002 C 
ENDROOT
BRANCH   1   2
ATOM      2  C   UNL A   1      34.696  30.572  27.596  1.00  0.00     0.021 C 
BRANCH   2   3
ATOM      3  C   UNL A   1      33.390  30.334  26.830  1.00  0.00     0.116 C 
BRANCH   3   4
ATOM      4  N   UNL A   1      32.567  29.386  27.555  1.00  0.00    -0.352 N 
ATOM      5  C   UNL A   1      31.648  28.445  27.167  1.00  0.00     0.253 C 
ATOM      6  O   UNL A   1      31.049  27.869  28.078  1.00  0.00    -0.269 OA
ATOM      7  H   UNL A   1      32.695  29.426  28.530  1.00  0.00     0.163 HD
BRANCH   5   8
ATOM      8  C   UNL A   1      31.386  28.041  25.745  1.00  0.00     0.067 A 
ATOM      9  C   UNL A   1      31.087  27.298  23.045  1.00  0.00     0.162 A 
ATOM     10  C   UNL A   1      31.121  26.326  24.057  1.00  0.00     0.077 A 
ATOM     11  C   UNL A   1      31.091  28.644  23.381  1.00  0.00     0.161 A 
ATOM     12  C   UNL A   1      31.312  26.663  25.406  1.00  0.00     0.058 A 
ATOM     13  C   UNL A   1      31.186  28.993  24.732  1.00  0.00     0.066 A 
BRANCH   9  14
ATOM     14  O   UNL A   1      30.919  26.885  21.751  1.00  0.00    -0.493 OA
ATOM     15  C   UNL A   1      31.929  25.952  21.358  1.00  0.00     0.278 C 
ENDBRANCH   9  14
BRANCH  11  16
ATOM     16  O   UNL A   1      30.972  29.723  22.549  1.00  0.00    -0.493 OA
ATOM     17  C   UNL A   1      29.670  30.263  22.358  1.00  0.00     0.278 C 
ENDBRANCH  11  16
BRANCH  12  18
ATOM     18  N   UNL A   1      31.367  25.692  26.444  1.00  0.00    -0.321 N 
ATOM     19  C   UNL A   1      32.015  24.493  26.623  1.00  0.00     0.255 C 
ATOM     20  H   UNL A   1      30.811  25.937  27.219  1.00  0.00     0.170 HD
ATOM     21  O   UNL A   1      31.729  23.742  27.552  1.00  0.00    -0.269 OA
BRANCH  19  22
ATOM     22  C   UNL A   1      33.094  24.078  25.722  1.00  0.00     0.040 A 
ATOM     23  C   UNL A   1      34.303  24.783  25.752  1.00  0.00     0.021 A 
ATOM     24  C   UNL A   1      32.926  22.955  24.901  1.00  0.00     0.021 A 
ATOM     25  C   UNL A   1      35.397  24.296  25.037  1.00  0.00     0.086 A 
ATOM     26  C   UNL A   1      34.018  22.464  24.187  1.00  0.00     0.086 A 
ATOM     27  C   UNL A   1      35.256  23.120  24.285  1.00  0.00     0.269 A 
BRANCH  27  28
ATOM     28  N   UNL A   1      36.436  22.524  23.648  1.00  0.00     0.062 N 
ATOM     29  O   UNL A   1      36.707  22.876  22.493  1.00  0.00    -0.258 OA
ATOM     30  O   UNL A   1      37.107  21.730  24.324  1.00  0.00    -0.258 OA
ENDBRANCH  27  28
ENDBRANCH  19  22
ENDBRANCH  12  18
ENDBRANCH   5   8
ENDBRANCH   3   4
ENDBRANCH   2   3
ENDBRANCH   1   2
BRANCH   1  31
ATOM     31  C   UNL A   1      34.600  33.099  28.109  1.00  0.00     0.002 C 
BRANCH  31  32
ATOM     32  C   UNL A   1      33.354  33.933  28.427  1.00  0.00     0.021 C 
BRANCH  32  33
ATOM     33  C   UNL A   1      33.655  35.341  28.934  1.00  0.00     0.116 C 
BRANCH  33  34
ATOM     34  N   UNL A   1      32.789  35.706  30.045  1.00  0.00    -0.352 N 
ATOM     35  C   UNL A   1      32.878  35.351  31.364  1.00  0.00     0.251 C 
ATOM     36  H   UNL A   1      32.033  36.292  29.815  1.00  0.00     0.163 HD
ATOM     37  O   UNL A   1      31.931  35.552  32.124  1.00  0.00    -0.269 OA
BRANCH  35  38
ATOM     38  C   UNL A   1      34.108  34.716  31.879  1.00  0.00     0.039 A 
ATOM     39  C   UNL A   1      34.072  33.369  32.250  1.00  0.00     0.014 A 
ATOM     40  C   UNL A   1      35.288  35.453  32.018  1.00  0.00     0.014 A 
ATOM     41  C   UNL A   1      35.233  32.748  32.712  1.00  0.00     0.010 A 
ATOM     42  C   UNL A   1      36.460  34.816  32.416  1.00  0.00     0.010 A 
ATOM     43  C   UNL A   1      36.442  33.460  32.772  1.00  0.00    -0.014 A 
BRANCH  43  44
ATOM     44  C   UNL A   1      37.698  32.800  33.206  1.00  0.00     0.031 A 
ATOM     45  C   UNL A   1      38.351  31.767  32.329  1.00  0.00     0.074 A 
ATOM     46  C   UNL A   1      38.215  33.086  34.415  1.00  0.00     0.049 A 
ATOM     47  N   UNL A   1      39.413  31.036  32.561  1.00  0.00    -0.248 NA
ATOM     48  C   UNL A   1      37.711  31.502  31.032  1.00  0.00     0.031 C 
ATOM     49  C   UNL A   1      37.646  34.033  35.374  1.00  0.00     0.029 A 
ATOM     50  N   UNL A   1      39.329  32.599  35.051  1.00  0.00    -0.354 N 
ATOM     51  C   UNL A   1      39.558  30.218  31.448  1.00  0.00     0.074 A 
ATOM     52  C   UNL A   1      38.449  30.505  30.564  1.00  0.00     0.031 C 
ATOM     53  C   UNL A   1      38.424  34.073  36.467  1.00  0.00     0.029 A 
ATOM     54  C   UNL A   1      39.527  33.131  36.302  1.00  0.00     0.049 A 
ATOM     55  H   UNL A   1      39.931  31.931  34.649  1.00  0.00     0.167 HD
ATOM     56  C   UNL A   1      40.540  29.325  31.179  1.00  0.00     0.037 A 
ATOM     57  C   UNL A   1      40.485  32.881  37.213  1.00  0.00     0.037 A 
ATOM     58  C   UNL A   1      41.656  29.062  32.051  1.00  0.00     0.049 A 
ATOM     59  C   UNL A   1      41.565  31.885  36.888  1.00  0.00     0.074 A 
ATOM     60  C   UNL A   1      42.736  28.224  31.840  1.00  0.00     0.029 A 
ATOM     61  N   UNL A   1      41.832  29.636  33.300  1.00  0.00    -0.354 N 
ATOM     62  N   UNL A   1      41.730  31.169  35.804  1.00  0.00    -0.248 NA
ATOM     63  C   UNL A   1      42.596  31.671  37.912  1.00  0.00     0.031 C 
ATOM     64  C   UNL A   1      43.545  28.257  32.982  1.00  0.00     0.029 A 
ATOM     65  C   UNL A   1      42.993  29.153  33.883  1.00  0.00     0.049 A 
ATOM     66  H   UNL A   1      41.223  30.291  33.713  1.00  0.00     0.167 HD
ATOM     67  C   UNL A   1      42.894  30.439  36.002  1.00  0.00     0.074 A 
ATOM     68  C   UNL A   1      43.404  30.813  37.306  1.00  0.00     0.031 C 
ATOM     69  C   UNL A   1      43.487  29.540  35.180  1.00  0.00     0.037 A 
BRANCH  56  70
ATOM     70  C   UNL A   1      40.455  28.568  29.886  1.00  0.00     0.064 A 
ATOM     71  C   UNL A   1      39.738  27.367  29.783  1.00  0.00     0.173 A 
ATOM     72  C   UNL A   1      41.064  29.070  28.725  1.00  0.00     0.173 A 
ATOM     73  F   UNL A   1      39.146  26.839  30.865  1.00  0.00    -0.203 F 
ATOM     74  C   UNL A   1      39.657  26.682  28.573  1.00  0.00     0.198 A 
ATOM     75  C   UNL A   1      40.957  28.398  27.511  1.00  0.00     0.198 A 
ATOM     76  F   UNL A   1      41.758  30.218  28.767  1.00  0.00    -0.203 F 
ATOM     77  F   UNL A   1      39.006  25.513  28.509  1.00  0.00    -0.200 F 
ATOM     78  C   UNL A   1      40.260  27.201  27.437  1.00  0.00     0.200 A 
ATOM     79  F   UNL A   1      41.530  28.907  26.411  1.00  0.00    -0.200 F 
ATOM     80  F   UNL A   1      40.174  26.544  26.271  1.00  0.00    -0.200 F 
ENDBRANCH  56  70
BRANCH  57  81
ATOM     81  C   UNL A   1      40.480  33.604  38.511  1.00  0.00     0.064 A 
ATOM     82  C   UNL A   1      41.319  34.706  38.723  1.00  0.00     0.173 A 
ATOM     83  C   UNL A   1      39.641  33.210  39.564  1.00  0.00     0.173 A 
ATOM     84  F   UNL A   1      42.153  35.107  37.752  1.00  0.00    -0.203 F 
ATOM     85  C   UNL A   1      41.336  35.374  39.945  1.00  0.00     0.198 A 
ATOM     86  C   UNL A   1      39.639  33.897  40.777  1.00  0.00     0.198 A 
ATOM     87  F   UNL A   1      38.814  32.166  39.411  1.00  0.00    -0.203 F 
ATOM     88  F   UNL A   1      42.181  36.397  40.135  1.00  0.00    -0.200 F 
ATOM     89  C   UNL A   1      40.492  34.973  40.969  1.00  0.00     0.200 A 
ATOM     90  F   UNL A   1      38.811  33.514  41.759  1.00  0.00    -0.200 F 
ATOM     91  F   UNL A   1      40.506  35.618  42.143  1.00  0.00    -0.200 F 
ENDBRANCH  57  81
BRANCH  69  92
ATOM     92  C   UNL A   1      44.770  28.920  35.653  1.00  0.00     0.064 A 
ATOM     93  C   UNL A   1      46.014  29.509  35.387  1.00  0.00     0.173 A 
ATOM     94  C   UNL A   1      44.749  27.740  36.413  1.00  0.00     0.173 A 
ATOM     95  F   UNL A   1      46.086  30.629  34.651  1.00  0.00    -0.203 F 
ATOM     96  C   UNL A   1      47.193  28.926  35.842  1.00  0.00     0.198 A 
ATOM     97  C   UNL A   1      45.928  27.176  36.891  1.00  0.00     0.198 A 
ATOM     98  F   UNL A   1      43.584  27.141  36.700  1.00  0.00    -0.203 F 
ATOM     99  F   UNL A   1      48.374  29.481  35.535  1.00  0.00    -0.200 F 
ATOM    100  C   UNL A   1      47.149  27.766  36.600  1.00  0.00     0.200 A 
ATOM    101  F   UNL A   1      45.883  26.062  37.634  1.00  0.00    -0.200 F 
ATOM    102  F   UNL A   1      48.285  27.209  37.042  1.00  0.00    -0.200 F 
ENDBRANCH  69  92
ENDBRANCH  43  44
ENDBRANCH  35  38
ENDBRANCH  33  34
ENDBRANCH  32  33
ENDBRANCH  31  32
ENDBRANCH   1  31
TORSDOF 18
ENDMDL
