MODEL 1
REMARK VINA RESULT:     -12.7      0.000      0.000
REMARK SMILES Cc1ccc(Cl)c(Nc2ccccc2C(=O)N[C@@H](C)C(=O)NCCCCCCNC(=O)c2ccc(-c3c4nc(c(-c5c(F)c(F)c(F)c(F)c5F)c5ccc([nH]5)c(-c5c(F)c(F)c(F)c(F)c5F)c5nc(c(-c6c(F)c(F)c(F)c(F)c6F)c6ccc3[nH]6)C=C5)C=C4)cc2)c1Cl
REMARK SMILES IDX 24 1 23 2 22 3 20 4 21 5 18 7 19 8 17 9 15 10 16 11 14 13
REMARK SMILES IDX 9 14 10 15 11 16 13 17 12 18 8 19 7 21 1 22 2 23 3 24 95 25
REMARK SMILES IDX 4 26 96 27 5 28 6 29 25 30 26 31 27 32 28 33 29 34 30 35
REMARK SMILES IDX 31 37 32 38 33 39 94 40 34 41 93 42 35 43 36 44 37 45 87 46
REMARK SMILES IDX 38 47 92 48 86 49 88 50 39 51 91 52 85 53 84 54 40 56 72 57
REMARK SMILES IDX 52 58 71 59 53 60 56 61 70 62 89 63 54 64 55 65 69 67 90 68
REMARK SMILES IDX 57 69 41 70 42 71 50 72 43 73 44 74 48 75 51 76 45 77 46 78
REMARK SMILES IDX 49 79 47 80 73 81 74 82 82 83 75 84 76 85 80 86 83 87 77 88
REMARK SMILES IDX 78 89 81 90 79 91 58 92 59 93 67 94 60 95 61 96 65 97 68 98
REMARK SMILES IDX 62 99 63 100 66 101 64 102
REMARK H PARENT 22 6 17 12 8 20 29 36 88 55 56 66
REMARK Flexibility Score: inf
ROOT
ATOM      1  C   UNL A   1      33.702  29.461  26.388  1.00  0.00     0.021 C 
ENDROOT
BRANCH   1   2
ATOM      2  C   UNL A   1      33.220  28.349  25.446  1.00  0.00     0.116 C 
BRANCH   2   3
ATOM      3  N   UNL A   1      33.025  27.085  26.120  1.00  0.00    -0.354 N 
ATOM      4  C   UNL A   1      31.740  26.628  26.155  1.00  0.00     0.242 C 
ATOM      5  O   UNL A   1      30.999  27.094  27.019  1.00  0.00    -0.273 OA
ATOM      6  H   UNL A   1      33.770  26.588  26.528  1.00  0.00     0.163 HD
BRANCH   4   7
ATOM      7  C   UNL A   1      31.276  25.610  25.089  1.00  0.00     0.168 C 
ATOM      8  C   UNL A   1      30.126  26.061  24.202  1.00  0.00     0.041 C 
BRANCH   7   9
ATOM      9  N   UNL A   1      30.950  24.433  25.873  1.00  0.00    -0.340 N 
ATOM     10  C   UNL A   1      31.834  23.653  26.589  1.00  0.00     0.254 C 
ATOM     11  O   UNL A   1      31.429  23.249  27.683  1.00  0.00    -0.269 OA
ATOM     12  H   UNL A   1      30.003  24.164  25.897  1.00  0.00     0.164 HD
BRANCH  10  13
ATOM     13  C   UNL A   1      33.075  23.046  26.002  1.00  0.00     0.063 A 
ATOM     14  C   UNL A   1      33.288  21.822  25.332  1.00  0.00     0.051 A 
ATOM     15  C   UNL A   1      34.624  21.457  25.028  1.00  0.00     0.027 A 
ATOM     16  C   UNL A   1      35.708  22.295  25.289  1.00  0.00     0.002 A 
ATOM     17  C   UNL A   1      34.192  23.891  26.229  1.00  0.00     0.016 A 
ATOM     18  C   UNL A   1      35.488  23.530  25.868  1.00  0.00     0.001 A 
BRANCH  14  19
ATOM     19  N   UNL A   1      32.330  20.927  24.811  1.00  0.00    -0.352 N 
ATOM     20  H   UNL A   1      31.405  21.229  24.959  1.00  0.00     0.167 HD
BRANCH  19  21
ATOM     21  C   UNL A   1      32.403  19.687  24.122  1.00  0.00     0.077 A 
ATOM     22  C   UNL A   1      33.705  16.100  24.475  1.00  0.00     0.046 C 
ATOM     23  C   UNL A   1      33.073  17.335  23.887  1.00  0.00    -0.030 A 
ATOM     24  C   UNL A   1      32.931  17.421  22.494  1.00  0.00     0.006 A 
ATOM     25  C   UNL A   1      32.743  18.447  24.701  1.00  0.00     0.069 A 
ATOM     26  C   UNL A   1      32.492  18.601  21.908  1.00  0.00     0.023 A 
ATOM     27  Cl  UNL A   1      32.710  18.213  26.423  1.00  0.00    -0.082 Cl
ATOM     28  C   UNL A   1      32.252  19.718  22.709  1.00  0.00     0.066 A 
ATOM     29  Cl  UNL A   1      31.829  21.195  21.896  1.00  0.00    -0.082 Cl
ENDBRANCH  19  21
ENDBRANCH  14  19
ENDBRANCH  10  13
ENDBRANCH   7   9
ENDBRANCH   4   7
ENDBRANCH   2   3
ENDBRANCH   1   2
BRANCH   1  30
ATOM     30  C   UNL A   1      32.608  30.131  27.230  1.00  0.00     0.002 C 
BRANCH  30  31
ATOM     31  C   UNL A   1      31.498  30.822  26.434  1.00  0.00     0.002 C 
BRANCH  31  32
ATOM     32  C   UNL A   1      31.404  32.334  26.625  1.00  0.00     0.021 C 
BRANCH  32  33
ATOM     33  C   UNL A   1      32.655  32.978  27.195  1.00  0.00     0.116 C 
BRANCH  33  34
ATOM     34  N   UNL A   1      32.410  34.325  27.667  1.00  0.00    -0.352 N 
ATOM     35  C   UNL A   1      33.027  34.977  28.707  1.00  0.00     0.251 C 
ATOM     36  H   UNL A   1      31.719  34.833  27.186  1.00  0.00     0.163 HD
ATOM     37  O   UNL A   1      32.593  36.039  29.125  1.00  0.00    -0.269 OA
BRANCH  35  38
ATOM     38  C   UNL A   1      34.211  34.352  29.339  1.00  0.00     0.039 A 
ATOM     39  C   UNL A   1      34.016  33.446  30.381  1.00  0.00     0.014 A 
ATOM     40  C   UNL A   1      35.503  34.636  28.881  1.00  0.00     0.014 A 
ATOM     41  C   UNL A   1      35.115  32.795  30.941  1.00  0.00     0.010 A 
ATOM     42  C   UNL A   1      36.586  33.919  29.378  1.00  0.00     0.010 A 
ATOM     43  C   UNL A   1      36.406  33.007  30.428  1.00  0.00    -0.014 A 
BRANCH  43  44
ATOM     44  C   UNL A   1      37.580  32.305  31.009  1.00  0.00     0.031 A 
ATOM     45  C   UNL A   1      38.075  32.675  32.380  1.00  0.00     0.074 A 
ATOM     46  C   UNL A   1      38.215  31.358  30.293  1.00  0.00     0.049 A 
ATOM     47  N   UNL A   1      39.085  32.187  33.056  1.00  0.00    -0.248 NA
ATOM     48  C   UNL A   1      37.357  33.756  33.076  1.00  0.00     0.031 C 
ATOM     49  C   UNL A   1      37.862  30.947  28.932  1.00  0.00     0.029 A 
ATOM     50  N   UNL A   1      39.292  30.568  30.608  1.00  0.00    -0.354 N 
ATOM     51  C   UNL A   1      39.125  32.905  34.244  1.00  0.00     0.074 A 
ATOM     52  C   UNL A   1      38.085  33.906  34.171  1.00  0.00     0.031 C 
ATOM     53  C   UNL A   1      38.684  29.959  28.544  1.00  0.00     0.029 A 
ATOM     54  C   UNL A   1      39.646  29.693  29.610  1.00  0.00     0.049 A 
ATOM     55  H   UNL A   1      39.768  30.623  31.469  1.00  0.00     0.167 HD
ATOM     56  C   UNL A   1      39.937  32.727  35.313  1.00  0.00     0.037 A 
ATOM     57  C   UNL A   1      40.636  28.782  29.560  1.00  0.00     0.037 A 
ATOM     58  C   UNL A   1      40.958  31.714  35.389  1.00  0.00     0.049 A 
ATOM     59  C   UNL A   1      41.532  28.611  30.758  1.00  0.00     0.074 A 
ATOM     60  C   UNL A   1      41.796  31.412  36.448  1.00  0.00     0.029 A 
ATOM     61  N   UNL A   1      41.284  30.844  34.359  1.00  0.00    -0.354 N 
ATOM     62  N   UNL A   1      41.511  29.241  31.907  1.00  0.00    -0.248 NA
ATOM     63  C   UNL A   1      42.587  27.593  30.654  1.00  0.00     0.031 C 
ATOM     64  C   UNL A   1      42.669  30.400  36.038  1.00  0.00     0.029 A 
ATOM     65  C   UNL A   1      42.331  30.023  34.748  1.00  0.00     0.049 A 
ATOM     66  H   UNL A   1      40.838  30.814  33.483  1.00  0.00     0.167 HD
ATOM     67  C   UNL A   1      42.523  28.678  32.672  1.00  0.00     0.074 A 
ATOM     68  C   UNL A   1      43.128  27.641  31.862  1.00  0.00     0.031 C 
ATOM     69  C   UNL A   1      42.918  28.990  33.932  1.00  0.00     0.037 A 
BRANCH  56  70
ATOM     70  C   UNL A   1      39.754  33.645  36.488  1.00  0.00     0.064 A 
ATOM     71  C   UNL A   1      40.413  34.883  36.569  1.00  0.00     0.173 A 
ATOM     72  C   UNL A   1      38.885  33.299  37.534  1.00  0.00     0.173 A 
ATOM     73  F   UNL A   1      41.263  35.259  35.603  1.00  0.00    -0.203 F 
ATOM     74  C   UNL A   1      40.234  35.721  37.666  1.00  0.00     0.198 A 
ATOM     75  C   UNL A   1      38.682  34.156  38.613  1.00  0.00     0.198 A 
ATOM     76  F   UNL A   1      38.226  32.132  37.507  1.00  0.00    -0.203 F 
ATOM     77  F   UNL A   1      40.917  36.871  37.746  1.00  0.00    -0.200 F 
ATOM     78  C   UNL A   1      39.363  35.361  38.682  1.00  0.00     0.200 A 
ATOM     79  F   UNL A   1      37.827  33.814  39.587  1.00  0.00    -0.200 F 
ATOM     80  F   UNL A   1      39.186  36.174  39.734  1.00  0.00    -0.200 F 
ENDBRANCH  56  70
BRANCH  57  81
ATOM     81  C   UNL A   1      40.816  27.943  28.345  1.00  0.00     0.064 A 
ATOM     82  C   UNL A   1      40.211  26.683  28.239  1.00  0.00     0.173 A 
ATOM     83  C   UNL A   1      41.606  28.378  27.270  1.00  0.00     0.173 A 
ATOM     84  F   UNL A   1      39.462  26.213  29.247  1.00  0.00    -0.203 F 
ATOM     85  C   UNL A   1      40.408  25.880  27.117  1.00  0.00     0.198 A 
ATOM     86  C   UNL A   1      41.775  27.589  26.134  1.00  0.00     0.198 A 
ATOM     87  F   UNL A   1      42.203  29.579  27.317  1.00  0.00    -0.203 F 
ATOM     88  F   UNL A   1      39.860  24.659  27.066  1.00  0.00    -0.200 F 
ATOM     89  C   UNL A   1      41.186  26.336  26.063  1.00  0.00     0.200 A 
ATOM     90  F   UNL A   1      42.513  28.041  25.111  1.00  0.00    -0.200 F 
ATOM     91  F   UNL A   1      41.372  25.566  24.983  1.00  0.00    -0.200 F 
ENDBRANCH  57  81
BRANCH  69  92
ATOM     92  C   UNL A   1      44.030  28.174  34.528  1.00  0.00     0.064 A 
ATOM     93  C   UNL A   1      45.368  28.589  34.466  1.00  0.00     0.173 A 
ATOM     94  C   UNL A   1      43.745  26.978  35.204  1.00  0.00     0.173 A 
ATOM     95  F   UNL A   1      45.696  29.718  33.819  1.00  0.00    -0.203 F 
ATOM     96  C   UNL A   1      46.383  27.819  35.027  1.00  0.00     0.198 A 
ATOM     97  C   UNL A   1      44.758  26.230  35.797  1.00  0.00     0.198 A 
ATOM     98  F   UNL A   1      42.481  26.539  35.302  1.00  0.00    -0.203 F 
ATOM     99  F   UNL A   1      47.661  28.206  34.905  1.00  0.00    -0.200 F 
ATOM    100  C   UNL A   1      46.077  26.646  35.700  1.00  0.00     0.200 A 
ATOM    101  F   UNL A   1      44.457  25.105  36.462  1.00  0.00    -0.200 F 
ATOM    102  F   UNL A   1      47.054  25.910  36.246  1.00  0.00    -0.200 F 
ENDBRANCH  69  92
ENDBRANCH  43  44
ENDBRANCH  35  38
ENDBRANCH  33  34
ENDBRANCH  32  33
ENDBRANCH  31  32
ENDBRANCH  30  31
ENDBRANCH   1  30
TORSDOF 17
ENDMDL
MODEL 2
REMARK VINA RESULT:     -12.7      0.654      7.155
REMARK SMILES Cc1ccc(Cl)c(Nc2ccccc2C(=O)N[C@@H](C)C(=O)NCCCCCCNC(=O)c2ccc(-c3c4nc(c(-c5c(F)c(F)c(F)c(F)c5F)c5ccc([nH]5)c(-c5c(F)c(F)c(F)c(F)c5F)c5nc(c(-c6c(F)c(F)c(F)c(F)c6F)c6ccc3[nH]6)C=C5)C=C4)cc2)c1Cl
REMARK SMILES IDX 24 1 23 2 22 3 20 4 21 5 18 7 19 8 17 9 15 10 16 11 14 13
REMARK SMILES IDX 9 14 10 15 11 16 13 17 12 18 8 19 7 21 1 22 2 23 3 24 95 25
REMARK SMILES IDX 4 26 96 27 5 28 6 29 25 30 26 31 27 32 28 33 29 34 30 35
REMARK SMILES IDX 31 37 32 38 33 39 94 40 34 41 93 42 35 43 36 44 37 45 87 46
REMARK SMILES IDX 38 47 92 48 86 49 88 50 39 51 91 52 85 53 84 54 40 56 72 57
REMARK SMILES IDX 52 58 71 59 53 60 56 61 70 62 89 63 54 64 55 65 69 67 90 68
REMARK SMILES IDX 57 69 41 70 42 71 50 72 43 73 44 74 48 75 51 76 45 77 46 78
REMARK SMILES IDX 49 79 47 80 73 81 74 82 82 83 75 84 76 85 80 86 83 87 77 88
REMARK SMILES IDX 78 89 81 90 79 91 58 92 59 93 67 94 60 95 61 96 65 97 68 98
REMARK SMILES IDX 62 99 63 100 66 101 64 102
REMARK H PARENT 22 6 17 12 8 20 29 36 88 55 56 66
REMARK Flexibility Score: inf
ROOT
ATOM      1  C   UNL A   1      33.818  29.381  26.206  1.00  0.00     0.021 C 
ENDROOT
BRANCH   1   2
ATOM      2  C   UNL A   1      33.110  28.311  25.364  1.00  0.00     0.116 C 
BRANCH   2   3
ATOM      3  N   UNL A   1      32.965  27.052  26.058  1.00  0.00    -0.354 N 
ATOM      4  C   UNL A   1      31.685  26.602  26.205  1.00  0.00     0.242 C 
ATOM      5  O   UNL A   1      31.023  27.076  27.126  1.00  0.00    -0.273 OA
ATOM      6  H   UNL A   1      33.740  26.551  26.404  1.00  0.00     0.163 HD
BRANCH   4   7
ATOM      7  C   UNL A   1      31.127  25.582  25.187  1.00  0.00     0.168 C 
ATOM      8  C   UNL A   1      29.851  25.995  24.472  1.00  0.00     0.041 C 
BRANCH   7   9
ATOM      9  N   UNL A   1      30.960  24.378  25.981  1.00  0.00    -0.340 N 
ATOM     10  C   UNL A   1      31.961  23.654  26.594  1.00  0.00     0.254 C 
ATOM     11  O   UNL A   1      31.694  23.213  27.716  1.00  0.00    -0.269 OA
ATOM     12  H   UNL A   1      30.040  24.046  26.094  1.00  0.00     0.164 HD
BRANCH  10  13
ATOM     13  C   UNL A   1      33.174  23.137  25.878  1.00  0.00     0.063 A 
ATOM     14  C   UNL A   1      33.379  21.970  25.112  1.00  0.00     0.051 A 
ATOM     15  C   UNL A   1      34.700  21.680  24.687  1.00  0.00     0.027 A 
ATOM     16  C   UNL A   1      35.770  22.541  24.925  1.00  0.00     0.002 A 
ATOM     17  C   UNL A   1      34.275  24.009  26.081  1.00  0.00     0.016 A 
ATOM     18  C   UNL A   1      35.552  23.725  25.603  1.00  0.00     0.001 A 
BRANCH  14  19
ATOM     19  N   UNL A   1      32.417  21.074  24.601  1.00  0.00    -0.352 N 
ATOM     20  H   UNL A   1      31.502  21.438  24.629  1.00  0.00     0.167 HD
BRANCH  19  21
ATOM     21  C   UNL A   1      32.473  19.763  24.056  1.00  0.00     0.077 A 
ATOM     22  C   UNL A   1      33.831  16.249  24.757  1.00  0.00     0.046 C 
ATOM     23  C   UNL A   1      33.158  17.403  24.061  1.00  0.00    -0.030 A 
ATOM     24  C   UNL A   1      32.952  17.328  22.676  1.00  0.00     0.006 A 
ATOM     25  C   UNL A   1      32.853  18.600  24.757  1.00  0.00     0.069 A 
ATOM     26  C   UNL A   1      32.472  18.429  21.979  1.00  0.00     0.023 A 
ATOM     27  Cl  UNL A   1      32.902  18.566  26.494  1.00  0.00    -0.082 Cl
ATOM     28  C   UNL A   1      32.256  19.630  22.658  1.00  0.00     0.066 A 
ATOM     29  Cl  UNL A   1      31.779  21.000  21.701  1.00  0.00    -0.082 Cl
ENDBRANCH  19  21
ENDBRANCH  14  19
ENDBRANCH  10  13
ENDBRANCH   7   9
ENDBRANCH   4   7
ENDBRANCH   2   3
ENDBRANCH   1   2
BRANCH   1  30
ATOM     30  C   UNL A   1      32.916  30.169  27.165  1.00  0.00     0.002 C 
BRANCH  30  31
ATOM     31  C   UNL A   1      31.666  30.786  26.532  1.00  0.00     0.002 C 
BRANCH  31  32
ATOM     32  C   UNL A   1      31.468  32.276  26.800  1.00  0.00     0.021 C 
BRANCH  32  33
ATOM     33  C   UNL A   1      32.721  33.009  27.246  1.00  0.00     0.116 C 
BRANCH  33  34
ATOM     34  N   UNL A   1      32.445  34.376  27.637  1.00  0.00    -0.352 N 
ATOM     35  C   UNL A   1      32.988  35.077  28.686  1.00  0.00     0.251 C 
ATOM     36  H   UNL A   1      31.789  34.860  27.085  1.00  0.00     0.163 HD
ATOM     37  O   UNL A   1      32.527  36.157  29.023  1.00  0.00    -0.269 OA
BRANCH  35  38
ATOM     38  C   UNL A   1      34.125  34.485  29.427  1.00  0.00     0.039 A 
ATOM     39  C   UNL A   1      33.862  33.743  30.578  1.00  0.00     0.014 A 
ATOM     40  C   UNL A   1      35.438  34.636  28.967  1.00  0.00     0.014 A 
ATOM     41  C   UNL A   1      34.914  33.120  31.249  1.00  0.00     0.010 A 
ATOM     42  C   UNL A   1      36.471  33.939  29.585  1.00  0.00     0.010 A 
ATOM     43  C   UNL A   1      36.224  33.192  30.745  1.00  0.00    -0.014 A 
BRANCH  43  44
ATOM     44  C   UNL A   1      37.346  32.517  31.446  1.00  0.00     0.031 A 
ATOM     45  C   UNL A   1      38.068  31.375  30.785  1.00  0.00     0.074 A 
ATOM     46  C   UNL A   1      37.695  32.912  32.686  1.00  0.00     0.049 A 
ATOM     47  N   UNL A   1      39.064  30.653  31.234  1.00  0.00    -0.248 NA
ATOM     48  C   UNL A   1      37.591  30.972  29.452  1.00  0.00     0.031 C 
ATOM     49  C   UNL A   1      37.038  33.972  33.453  1.00  0.00     0.029 A 
ATOM     50  N   UNL A   1      38.689  32.466  33.521  1.00  0.00    -0.354 N 
ATOM     51  C   UNL A   1      39.322  29.712  30.247  1.00  0.00     0.074 A 
ATOM     52  C   UNL A   1      38.339  29.907  29.206  1.00  0.00     0.031 C 
ATOM     53  C   UNL A   1      37.668  34.119  34.629  1.00  0.00     0.029 A 
ATOM     54  C   UNL A   1      38.747  33.139  34.718  1.00  0.00     0.049 A 
ATOM     55  H   UNL A   1      39.304  31.734  33.285  1.00  0.00     0.167 HD
ATOM     56  C   UNL A   1      40.309  28.786  30.198  1.00  0.00     0.037 A 
ATOM     57  C   UNL A   1      39.574  32.980  35.768  1.00  0.00     0.037 A 
ATOM     58  C   UNL A   1      41.299  28.609  31.229  1.00  0.00     0.049 A 
ATOM     59  C   UNL A   1      40.657  31.935  35.693  1.00  0.00     0.074 A 
ATOM     60  C   UNL A   1      42.375  27.739  31.251  1.00  0.00     0.029 A 
ATOM     61  N   UNL A   1      41.327  29.311  32.425  1.00  0.00    -0.354 N 
ATOM     62  N   UNL A   1      40.942  31.104  34.721  1.00  0.00    -0.248 NA
ATOM     63  C   UNL A   1      41.539  31.814  36.862  1.00  0.00     0.031 C 
ATOM     64  C   UNL A   1      43.019  27.873  32.485  1.00  0.00     0.029 A 
ATOM     65  C   UNL A   1      42.385  28.874  33.205  1.00  0.00     0.049 A 
ATOM     66  H   UNL A   1      40.689  30.015  32.681  1.00  0.00     0.167 HD
ATOM     67  C   UNL A   1      42.051  30.385  35.144  1.00  0.00     0.074 A 
ATOM     68  C   UNL A   1      42.400  30.891  36.455  1.00  0.00     0.031 C 
ATOM     69  C   UNL A   1      42.723  29.393  34.506  1.00  0.00     0.037 A 
BRANCH  56  70
ATOM     70  C   UNL A   1      40.369  27.894  28.991  1.00  0.00     0.064 A 
ATOM     71  C   UNL A   1      39.643  26.693  28.921  1.00  0.00     0.173 A 
ATOM     72  C   UNL A   1      41.137  28.257  27.874  1.00  0.00     0.173 A 
ATOM     73  F   UNL A   1      38.901  26.292  29.964  1.00  0.00    -0.203 F 
ATOM     74  C   UNL A   1      39.712  25.877  27.796  1.00  0.00     0.198 A 
ATOM     75  C   UNL A   1      41.175  27.454  26.736  1.00  0.00     0.198 A 
ATOM     76  F   UNL A   1      41.847  29.395  27.883  1.00  0.00    -0.203 F 
ATOM     77  F   UNL A   1      39.054  24.709  27.776  1.00  0.00    -0.200 F 
ATOM     78  C   UNL A   1      40.470  26.262  26.702  1.00  0.00     0.200 A 
ATOM     79  F   UNL A   1      41.896  27.836  25.673  1.00  0.00    -0.200 F 
ATOM     80  F   UNL A   1      40.528  25.478  25.615  1.00  0.00    -0.200 F 
ENDBRANCH  56  70
BRANCH  57  81
ATOM     81  C   UNL A   1      39.430  33.845  36.969  1.00  0.00     0.064 A 
ATOM     82  C   UNL A   1      38.693  33.419  38.083  1.00  0.00     0.173 A 
ATOM     83  C   UNL A   1      40.016  35.119  37.023  1.00  0.00     0.173 A 
ATOM     84  F   UNL A   1      38.098  32.218  38.073  1.00  0.00    -0.203 F 
ATOM     85  C   UNL A   1      38.527  34.243  39.195  1.00  0.00     0.198 A 
ATOM     86  C   UNL A   1      39.876  35.929  38.149  1.00  0.00     0.198 A 
ATOM     87  F   UNL A   1      40.737  35.573  35.987  1.00  0.00    -0.203 F 
ATOM     88  F   UNL A   1      37.774  33.832  40.224  1.00  0.00    -0.200 F 
ATOM     89  C   UNL A   1      39.123  35.495  39.229  1.00  0.00     0.200 A 
ATOM     90  F   UNL A   1      40.468  37.130  38.184  1.00  0.00    -0.200 F 
ATOM     91  F   UNL A   1      38.966  36.286  40.299  1.00  0.00    -0.200 F 
ENDBRANCH  57  81
BRANCH  69  92
ATOM     92  C   UNL A   1      43.926  28.819  35.199  1.00  0.00     0.064 A 
ATOM     93  C   UNL A   1      43.824  27.739  36.088  1.00  0.00     0.173 A 
ATOM     94  C   UNL A   1      45.205  29.336  34.939  1.00  0.00     0.173 A 
ATOM     95  F   UNL A   1      42.623  27.218  36.381  1.00  0.00    -0.203 F 
ATOM     96  C   UNL A   1      44.952  27.220  36.717  1.00  0.00     0.198 A 
ATOM     97  C   UNL A   1      46.335  28.790  35.541  1.00  0.00     0.198 A 
ATOM     98  F   UNL A   1      45.362  30.362  34.089  1.00  0.00    -0.203 F 
ATOM     99  F   UNL A   1      44.823  26.226  37.607  1.00  0.00    -0.200 F 
ATOM    100  C   UNL A   1      46.207  27.740  36.437  1.00  0.00     0.200 A 
ATOM    101  F   UNL A   1      47.549  29.283  35.254  1.00  0.00    -0.200 F 
ATOM    102  F   UNL A   1      47.293  27.234  37.037  1.00  0.00    -0.200 F 
ENDBRANCH  69  92
ENDBRANCH  43  44
ENDBRANCH  35  38
ENDBRANCH  33  34
ENDBRANCH  32  33
ENDBRANCH  31  32
ENDBRANCH  30  31
ENDBRANCH   1  30
TORSDOF 17
ENDMDL
MODEL 3
REMARK VINA RESULT:     -12.5      2.606      4.426
REMARK SMILES Cc1ccc(Cl)c(Nc2ccccc2C(=O)N[C@@H](C)C(=O)NCCCCCCNC(=O)c2ccc(-c3c4nc(c(-c5c(F)c(F)c(F)c(F)c5F)c5ccc([nH]5)c(-c5c(F)c(F)c(F)c(F)c5F)c5nc(c(-c6c(F)c(F)c(F)c(F)c6F)c6ccc3[nH]6)C=C5)C=C4)cc2)c1Cl
REMARK SMILES IDX 24 1 23 2 22 3 20 4 21 5 18 7 19 8 17 9 15 10 16 11 14 13
REMARK SMILES IDX 9 14 10 15 11 16 13 17 12 18 8 19 7 21 1 22 2 23 3 24 95 25
REMARK SMILES IDX 4 26 96 27 5 28 6 29 25 30 26 31 27 32 28 33 29 34 30 35
REMARK SMILES IDX 31 37 32 38 33 39 94 40 34 41 93 42 35 43 36 44 37 45 87 46
REMARK SMILES IDX 38 47 92 48 86 49 88 50 39 51 91 52 85 53 84 54 40 56 72 57
REMARK SMILES IDX 52 58 71 59 53 60 56 61 70 62 89 63 54 64 55 65 69 67 90 68
REMARK SMILES IDX 57 69 41 70 42 71 50 72 43 73 44 74 48 75 51 76 45 77 46 78
REMARK SMILES IDX 49 79 47 80 73 81 74 82 82 83 75 84 76 85 80 86 83 87 77 88
REMARK SMILES IDX 78 89 81 90 79 91 58 92 59 93 67 94 60 95 61 96 65 97 68 98
REMARK SMILES IDX 62 99 63 100 66 101 64 102
REMARK H PARENT 22 6 17 12 8 20 29 36 88 55 56 66
REMARK Flexibility Score: inf
ROOT
ATOM      1  C   UNL A   1      35.347  31.399  28.033  1.00  0.00     0.021 C 
ENDROOT
BRANCH   1   2
ATOM      2  C   UNL A   1      34.703  30.068  27.619  1.00  0.00     0.116 C 
BRANCH   2   3
ATOM      3  N   UNL A   1      33.286  30.184  27.363  1.00  0.00    -0.354 N 
ATOM      4  C   UNL A   1      32.820  29.482  26.289  1.00  0.00     0.242 C 
ATOM      5  O   UNL A   1      32.965  29.989  25.178  1.00  0.00    -0.273 OA
ATOM      6  H   UNL A   1      32.694  30.734  27.926  1.00  0.00     0.163 HD
BRANCH   4   7
ATOM      7  C   UNL A   1      32.201  28.085  26.517  1.00  0.00     0.168 C 
ATOM      8  C   UNL A   1      31.355  27.935  27.771  1.00  0.00     0.041 C 
BRANCH   7   9
ATOM      9  N   UNL A   1      33.356  27.205  26.512  1.00  0.00    -0.340 N 
ATOM     10  C   UNL A   1      33.565  26.132  25.671  1.00  0.00     0.254 C 
ATOM     11  O   UNL A   1      34.722  25.987  25.265  1.00  0.00    -0.269 OA
ATOM     12  H   UNL A   1      34.060  27.393  27.173  1.00  0.00     0.164 HD
BRANCH  10  13
ATOM     13  C   UNL A   1      32.583  25.013  25.486  1.00  0.00     0.063 A 
ATOM     14  C   UNL A   1      31.496  24.863  24.598  1.00  0.00     0.051 A 
ATOM     15  C   UNL A   1      30.649  23.739  24.772  1.00  0.00     0.027 A 
ATOM     16  C   UNL A   1      30.901  22.750  25.722  1.00  0.00     0.002 A 
ATOM     17  C   UNL A   1      32.832  23.978  26.424  1.00  0.00     0.016 A 
ATOM     18  C   UNL A   1      32.013  22.856  26.534  1.00  0.00     0.001 A 
BRANCH  14  19
ATOM     19  N   UNL A   1      31.178  25.634  23.460  1.00  0.00    -0.352 N 
ATOM     20  H   UNL A   1      31.320  25.147  22.616  1.00  0.00     0.167 HD
BRANCH  19  21
ATOM     21  C   UNL A   1      30.700  26.957  23.261  1.00  0.00     0.077 A 
ATOM     22  C   UNL A   1      27.470  28.977  22.845  1.00  0.00     0.046 C 
ATOM     23  C   UNL A   1      28.934  28.633  22.928  1.00  0.00    -0.030 A 
ATOM     24  C   UNL A   1      29.869  29.526  22.381  1.00  0.00     0.006 A 
ATOM     25  C   UNL A   1      29.364  27.379  23.429  1.00  0.00     0.069 A 
ATOM     26  C   UNL A   1      31.210  29.175  22.306  1.00  0.00     0.023 A 
ATOM     27  Cl  UNL A   1      28.214  26.415  24.304  1.00  0.00    -0.082 Cl
ATOM     28  C   UNL A   1      31.612  27.904  22.722  1.00  0.00     0.066 A 
ATOM     29  Cl  UNL A   1      33.281  27.487  22.481  1.00  0.00    -0.082 Cl
ENDBRANCH  19  21
ENDBRANCH  14  19
ENDBRANCH  10  13
ENDBRANCH   7   9
ENDBRANCH   4   7
ENDBRANCH   2   3
ENDBRANCH   1   2
BRANCH   1  30
ATOM     30  C   UNL A   1      34.473  32.311  28.903  1.00  0.00     0.002 C 
BRANCH  30  31
ATOM     31  C   UNL A   1      34.548  33.804  28.570  1.00  0.00     0.002 C 
BRANCH  31  32
ATOM     32  C   UNL A   1      33.259  34.589  28.805  1.00  0.00     0.021 C 
BRANCH  32  33
ATOM     33  C   UNL A   1      33.446  35.910  29.530  1.00  0.00     0.116 C 
BRANCH  33  34
ATOM     34  N   UNL A   1      32.500  36.077  30.614  1.00  0.00    -0.352 N 
ATOM     35  C   UNL A   1      32.573  35.555  31.883  1.00  0.00     0.251 C 
ATOM     36  H   UNL A   1      31.711  36.630  30.417  1.00  0.00     0.163 HD
ATOM     37  O   UNL A   1      31.616  35.613  32.639  1.00  0.00    -0.269 OA
BRANCH  35  38
ATOM     38  C   UNL A   1      33.825  34.889  32.309  1.00  0.00     0.039 A 
ATOM     39  C   UNL A   1      33.776  33.548  32.687  1.00  0.00     0.014 A 
ATOM     40  C   UNL A   1      35.043  35.579  32.304  1.00  0.00     0.014 A 
ATOM     41  C   UNL A   1      34.956  32.886  33.024  1.00  0.00     0.010 A 
ATOM     42  C   UNL A   1      36.227  34.893  32.552  1.00  0.00     0.010 A 
ATOM     43  C   UNL A   1      36.194  33.545  32.936  1.00  0.00    -0.014 A 
BRANCH  43  44
ATOM     44  C   UNL A   1      37.456  32.841  33.279  1.00  0.00     0.031 A 
ATOM     45  C   UNL A   1      38.167  33.153  34.566  1.00  0.00     0.074 A 
ATOM     46  C   UNL A   1      37.977  31.944  32.419  1.00  0.00     0.049 A 
ATOM     47  N   UNL A   1      39.281  32.655  35.041  1.00  0.00    -0.248 NA
ATOM     48  C   UNL A   1      37.560  34.183  35.426  1.00  0.00     0.031 C 
ATOM     49  C   UNL A   1      37.408  31.592  31.116  1.00  0.00     0.029 A 
ATOM     50  N   UNL A   1      39.102  31.163  32.511  1.00  0.00    -0.354 N 
ATOM     51  C   UNL A   1      39.509  33.315  36.241  1.00  0.00     0.074 A 
ATOM     52  C   UNL A   1      38.458  34.296  36.392  1.00  0.00     0.031 C 
ATOM     53  C   UNL A   1      38.168  30.643  30.547  1.00  0.00     0.029 A 
ATOM     54  C   UNL A   1      39.297  30.346  31.424  1.00  0.00     0.049 A 
ATOM     55  H   UNL A   1      39.712  31.186  33.283  1.00  0.00     0.167 HD
ATOM     56  C   UNL A   1      40.489  33.102  37.151  1.00  0.00     0.037 A 
ATOM     57  C   UNL A   1      40.276  29.459  31.165  1.00  0.00     0.037 A 
ATOM     58  C   UNL A   1      41.522  32.109  37.005  1.00  0.00     0.049 A 
ATOM     59  C   UNL A   1      41.361  29.250  32.188  1.00  0.00     0.074 A 
ATOM     60  C   UNL A   1      42.528  31.774  37.894  1.00  0.00     0.029 A 
ATOM     61  N   UNL A   1      41.684  31.298  35.892  1.00  0.00    -0.354 N 
ATOM     62  N   UNL A   1      41.523  29.822  33.355  1.00  0.00    -0.248 NA
ATOM     63  C   UNL A   1      42.397  28.261  31.858  1.00  0.00     0.031 C 
ATOM     64  C   UNL A   1      43.334  30.802  37.294  1.00  0.00     0.029 A 
ATOM     65  C   UNL A   1      42.791  30.481  36.059  1.00  0.00     0.049 A 
ATOM     66  H   UNL A   1      41.099  31.301  35.100  1.00  0.00     0.167 HD
ATOM     67  C   UNL A   1      42.655  29.244  33.913  1.00  0.00     0.074 A 
ATOM     68  C   UNL A   1      43.131  28.261  32.962  1.00  0.00     0.031 C 
ATOM     69  C   UNL A   1      43.249  29.503  35.105  1.00  0.00     0.037 A 
BRANCH  56  70
ATOM     70  C   UNL A   1      40.491  33.958  38.386  1.00  0.00     0.064 A 
ATOM     71  C   UNL A   1      39.773  33.597  39.537  1.00  0.00     0.173 A 
ATOM     72  C   UNL A   1      41.246  35.140  38.431  1.00  0.00     0.173 A 
ATOM     73  F   UNL A   1      39.026  32.483  39.545  1.00  0.00    -0.203 F 
ATOM     74  C   UNL A   1      39.783  34.403  40.672  1.00  0.00     0.198 A 
ATOM     75  C   UNL A   1      41.282  35.925  39.581  1.00  0.00     0.198 A 
ATOM     76  F   UNL A   1      41.955  35.531  37.363  1.00  0.00    -0.203 F 
ATOM     77  F   UNL A   1      39.045  34.065  41.739  1.00  0.00    -0.200 F 
ATOM     78  C   UNL A   1      40.544  35.561  40.696  1.00  0.00     0.200 A 
ATOM     79  F   UNL A   1      42.031  37.037  39.609  1.00  0.00    -0.200 F 
ATOM     80  F   UNL A   1      40.560  36.332  41.794  1.00  0.00    -0.200 F 
ENDBRANCH  56  70
BRANCH  57  81
ATOM     81  C   UNL A   1      40.264  28.685  29.895  1.00  0.00     0.064 A 
ATOM     82  C   UNL A   1      40.920  29.161  28.751  1.00  0.00     0.173 A 
ATOM     83  C   UNL A   1      39.588  27.459  29.795  1.00  0.00     0.173 A 
ATOM     84  F   UNL A   1      41.564  30.336  28.789  1.00  0.00    -0.203 F 
ATOM     85  C   UNL A   1      40.880  28.454  27.550  1.00  0.00     0.198 A 
ATOM     86  C   UNL A   1      39.576  26.738  28.603  1.00  0.00     0.198 A 
ATOM     87  F   UNL A   1      38.950  26.955  30.862  1.00  0.00    -0.203 F 
ATOM     88  F   UNL A   1      41.471  28.959  26.459  1.00  0.00    -0.200 F 
ATOM     89  C   UNL A   1      40.212  27.241  27.479  1.00  0.00     0.200 A 
ATOM     90  F   UNL A   1      38.945  25.557  28.544  1.00  0.00    -0.200 F 
ATOM     91  F   UNL A   1      40.177  26.560  26.326  1.00  0.00    -0.200 F 
ENDBRANCH  57  81
BRANCH  69  92
ATOM     92  C   UNL A   1      44.455  28.683  35.467  1.00  0.00     0.064 A 
ATOM     93  C   UNL A   1      44.343  27.468  36.159  1.00  0.00     0.173 A 
ATOM     94  C   UNL A   1      45.737  29.103  35.082  1.00  0.00     0.173 A 
ATOM     95  F   UNL A   1      43.141  27.028  36.562  1.00  0.00    -0.203 F 
ATOM     96  C   UNL A   1      45.473  26.722  36.482  1.00  0.00     0.198 A 
ATOM     97  C   UNL A   1      46.861  28.336  35.374  1.00  0.00     0.198 A 
ATOM     98  F   UNL A   1      45.900  30.252  34.409  1.00  0.00    -0.203 F 
ATOM     99  F   UNL A   1      45.348  25.594  37.195  1.00  0.00    -0.200 F 
ATOM    100  C   UNL A   1      46.730  27.152  36.082  1.00  0.00     0.200 A 
ATOM    101  F   UNL A   1      48.073  28.745  34.970  1.00  0.00    -0.200 F 
ATOM    102  F   UNL A   1      47.816  26.428  36.388  1.00  0.00    -0.200 F 
ENDBRANCH  69  92
ENDBRANCH  43  44
ENDBRANCH  35  38
ENDBRANCH  33  34
ENDBRANCH  32  33
ENDBRANCH  31  32
ENDBRANCH  30  31
ENDBRANCH   1  30
TORSDOF 17
ENDMDL
