MODEL 1
REMARK VINA RESULT:     -12.5      0.000      0.000
REMARK SMILES O=C(NCCCCCCNC(=O)c1ccc(-c2ccn(C(F)F)c(=O)c2)cc1O)c1ccc(-c2c3nc(c(-c4c(F)c(F)c(F)c(F)c4F)c4ccc([nH]4)c(-c4c(F)c(F)c(F)c(F)c4F)c4nc(c(-c5c(F)c(F)c(F)c(F)c5F)c5ccc2[nH]5)C=C4)C=C3)cc1
REMARK SMILES IDX 6 1 5 2 4 3 3 4 1 5 2 6 30 8 31 9 92 10 32 11 91 12 33 13
REMARK SMILES IDX 34 14 35 15 85 16 36 17 90 18 84 19 86 20 37 21 89 22 83 23
REMARK SMILES IDX 82 24 38 26 70 27 50 28 69 29 51 30 54 31 68 32 87 33 52 34
REMARK SMILES IDX 53 35 67 37 88 38 55 39 39 40 40 41 48 42 41 43 42 44 46 45
REMARK SMILES IDX 49 46 43 47 44 48 47 49 45 50 71 51 72 52 80 53 73 54 74 55
REMARK SMILES IDX 78 56 81 57 75 58 76 59 79 60 77 61 56 62 57 63 65 64 58 65
REMARK SMILES IDX 59 66 63 67 66 68 60 69 61 70 64 71 62 72 7 73 8 74 9 75
REMARK SMILES IDX 10 76 11 77 12 79 13 80 14 81 28 82 15 83 27 84 16 85 29 86
REMARK SMILES IDX 17 88 18 89 26 90 19 91 24 92 20 93 25 94 21 95 22 96 23 97
REMARK H PARENT 3 7 86 25 54 36 10 78 29 87
REMARK Flexibility Score: inf
ROOT
ATOM      1  C   UNL A   1      32.887  26.694  26.223  1.00  0.00     0.002 C 
ENDROOT
BRANCH   1   2
ATOM      2  C   UNL A   1      32.174  28.005  25.888  1.00  0.00     0.021 C 
BRANCH   2   3
ATOM      3  C   UNL A   1      33.086  29.162  25.494  1.00  0.00     0.116 C 
BRANCH   3   4
ATOM      4  N   UNL A   1      32.588  30.448  25.947  1.00  0.00    -0.352 N 
ATOM      5  O   UNL A   1      32.419  32.262  27.269  1.00  0.00    -0.269 OA
ATOM      6  C   UNL A   1      33.070  31.275  26.928  1.00  0.00     0.251 C 
ATOM      7  H   UNL A   1      31.784  30.774  25.482  1.00  0.00     0.163 HD
BRANCH   6   8
ATOM      8  C   UNL A   1      34.358  30.985  27.598  1.00  0.00     0.039 A 
ATOM      9  C   UNL A   1      34.587  29.689  28.067  1.00  0.00     0.014 A 
ATOM     10  C   UNL A   1      35.315  31.981  27.811  1.00  0.00     0.014 A 
ATOM     11  C   UNL A   1      35.781  29.387  28.725  1.00  0.00     0.010 A 
ATOM     12  C   UNL A   1      36.539  31.662  28.397  1.00  0.00     0.010 A 
ATOM     13  C   UNL A   1      36.774  30.367  28.884  1.00  0.00    -0.014 A 
BRANCH  13  14
ATOM     14  C   UNL A   1      38.032  30.057  29.614  1.00  0.00     0.031 A 
ATOM     15  C   UNL A   1      38.242  30.587  31.007  1.00  0.00     0.074 A 
ATOM     16  C   UNL A   1      38.981  29.303  29.027  1.00  0.00     0.049 A 
ATOM     17  N   UNL A   1      39.263  30.418  31.810  1.00  0.00    -0.248 NA
ATOM     18  C   UNL A   1      37.178  31.435  31.570  1.00  0.00     0.031 C 
ATOM     19  C   UNL A   1      38.911  28.764  27.668  1.00  0.00     0.029 A 
ATOM     20  N   UNL A   1      40.187  28.848  29.501  1.00  0.00    -0.354 N 
ATOM     21  C   UNL A   1      38.964  31.138  32.959  1.00  0.00     0.074 A 
ATOM     22  C   UNL A   1      37.698  31.797  32.733  1.00  0.00     0.031 C 
ATOM     23  C   UNL A   1      40.002  28.018  27.434  1.00  0.00     0.029 A 
ATOM     24  C   UNL A   1      40.866  28.050  28.612  1.00  0.00     0.049 A 
ATOM     25  H   UNL A   1      40.534  29.074  30.395  1.00  0.00     0.167 HD
ATOM     26  C   UNL A   1      39.665  31.212  34.115  1.00  0.00     0.037 A 
ATOM     27  C   UNL A   1      42.044  27.409  28.737  1.00  0.00     0.037 A 
ATOM     28  C   UNL A   1      40.900  30.517  34.356  1.00  0.00     0.049 A 
ATOM     29  C   UNL A   1      42.804  27.512  30.032  1.00  0.00     0.074 A 
ATOM     30  C   UNL A   1      41.657  30.490  35.514  1.00  0.00     0.029 A 
ATOM     31  N   UNL A   1      41.550  29.719  33.429  1.00  0.00    -0.354 N 
ATOM     32  N   UNL A   1      42.480  28.148  31.131  1.00  0.00    -0.248 NA
ATOM     33  C   UNL A   1      44.092  26.806  30.110  1.00  0.00     0.031 C 
ATOM     34  C   UNL A   1      42.787  29.705  35.276  1.00  0.00     0.029 A 
ATOM     35  C   UNL A   1      42.709  29.207  33.985  1.00  0.00     0.049 A 
ATOM     36  H   UNL A   1      41.235  29.543  32.513  1.00  0.00     0.167 HD
ATOM     37  C   UNL A   1      43.500  27.893  32.037  1.00  0.00     0.074 A 
ATOM     38  C   UNL A   1      44.455  27.039  31.364  1.00  0.00     0.031 C 
ATOM     39  C   UNL A   1      43.634  28.333  33.311  1.00  0.00     0.037 A 
BRANCH  26  40
ATOM     40  C   UNL A   1      39.105  32.043  35.230  1.00  0.00     0.064 A 
ATOM     41  C   UNL A   1      38.380  31.459  36.279  1.00  0.00     0.173 A 
ATOM     42  C   UNL A   1      39.382  33.417  35.305  1.00  0.00     0.173 A 
ATOM     43  F   UNL A   1      38.083  30.151  36.248  1.00  0.00    -0.203 F 
ATOM     44  C   UNL A   1      37.949  32.221  37.361  1.00  0.00     0.198 A 
ATOM     45  C   UNL A   1      38.973  34.170  36.403  1.00  0.00     0.198 A 
ATOM     46  F   UNL A   1      40.078  34.021  34.331  1.00  0.00    -0.203 F 
ATOM     47  F   UNL A   1      37.239  31.646  38.342  1.00  0.00    -0.200 F 
ATOM     48  C   UNL A   1      38.255  33.571  37.429  1.00  0.00     0.200 A 
ATOM     49  F   UNL A   1      39.282  35.471  36.474  1.00  0.00    -0.200 F 
ATOM     50  F   UNL A   1      37.862  34.297  38.484  1.00  0.00    -0.200 F 
ENDBRANCH  26  40
BRANCH  27  51
ATOM     51  C   UNL A   1      42.557  26.574  27.617  1.00  0.00     0.064 A 
ATOM     52  C   UNL A   1      42.123  25.251  27.450  1.00  0.00     0.173 A 
ATOM     53  C   UNL A   1      43.483  27.077  26.692  1.00  0.00     0.173 A 
ATOM     54  F   UNL A   1      41.251  24.718  28.319  1.00  0.00    -0.203 F 
ATOM     55  C   UNL A   1      42.608  24.459  26.411  1.00  0.00     0.198 A 
ATOM     56  C   UNL A   1      43.946  26.294  25.637  1.00  0.00     0.198 A 
ATOM     57  F   UNL A   1      43.928  28.337  26.805  1.00  0.00    -0.203 F 
ATOM     58  F   UNL A   1      42.206  23.185  26.299  1.00  0.00    -0.200 F 
ATOM     59  C   UNL A   1      43.514  24.983  25.501  1.00  0.00     0.200 A 
ATOM     60  F   UNL A   1      44.811  26.808  24.753  1.00  0.00    -0.200 F 
ATOM     61  F   UNL A   1      43.974  24.223  24.498  1.00  0.00    -0.200 F 
ENDBRANCH  27  51
BRANCH  39  62
ATOM     62  C   UNL A   1      44.830  27.882  34.092  1.00  0.00     0.064 A 
ATOM     63  C   UNL A   1      44.823  26.675  34.805  1.00  0.00     0.173 A 
ATOM     64  C   UNL A   1      46.034  28.600  34.019  1.00  0.00     0.173 A 
ATOM     65  F   UNL A   1      43.693  25.959  34.909  1.00  0.00    -0.203 F 
ATOM     66  C   UNL A   1      45.981  26.202  35.415  1.00  0.00     0.198 A 
ATOM     67  C   UNL A   1      47.194  28.111  34.609  1.00  0.00     0.198 A 
ATOM     68  F   UNL A   1      46.092  29.755  33.339  1.00  0.00    -0.203 F 
ATOM     69  F   UNL A   1      45.951  25.052  36.102  1.00  0.00    -0.200 F 
ATOM     70  C   UNL A   1      47.168  26.912  35.306  1.00  0.00     0.200 A 
ATOM     71  F   UNL A   1      48.345  28.788  34.487  1.00  0.00    -0.200 F 
ATOM     72  F   UNL A   1      48.288  26.437  35.868  1.00  0.00    -0.200 F 
ENDBRANCH  39  62
ENDBRANCH  13  14
ENDBRANCH   6   8
ENDBRANCH   3   4
ENDBRANCH   2   3
ENDBRANCH   1   2
BRANCH   1  73
ATOM     73  C   UNL A   1      34.059  26.325  25.309  1.00  0.00     0.002 C 
BRANCH  73  74
ATOM     74  C   UNL A   1      34.576  24.889  25.441  1.00  0.00     0.021 C 
BRANCH  74  75
ATOM     75  C   UNL A   1      33.512  23.844  25.762  1.00  0.00     0.116 C 
BRANCH  75  76
ATOM     76  N   UNL A   1      33.327  22.894  24.681  1.00  0.00    -0.352 N 
ATOM     77  C   UNL A   1      32.605  23.054  23.526  1.00  0.00     0.255 C 
ATOM     78  H   UNL A   1      33.777  22.026  24.790  1.00  0.00     0.163 HD
ATOM     79  O   UNL A   1      32.484  22.120  22.734  1.00  0.00    -0.269 OA
BRANCH  77  80
ATOM     80  C   UNL A   1      31.901  24.324  23.265  1.00  0.00     0.081 A 
ATOM     81  C   UNL A   1      30.713  24.560  23.966  1.00  0.00     0.018 A 
ATOM     82  C   UNL A   1      32.371  25.271  22.350  1.00  0.00     0.128 A 
ATOM     83  C   UNL A   1      30.025  25.763  23.792  1.00  0.00     0.010 A 
ATOM     84  C   UNL A   1      31.690  26.474  22.181  1.00  0.00     0.055 A 
ATOM     85  C   UNL A   1      30.517  26.733  22.909  1.00  0.00    -0.014 A 
BRANCH  82  86
ATOM     86  O   UNL A   1      33.505  25.035  21.623  1.00  0.00    -0.507 OA
ATOM     87  H   UNL A   1      33.984  25.752  21.255  1.00  0.00     0.293 HD
ENDBRANCH  82  86
BRANCH  85  88
ATOM     88  C   UNL A   1      29.834  28.027  22.723  1.00  0.00    -0.011 A 
ATOM     89  C   UNL A   1      30.522  29.206  22.233  1.00  0.00     0.027 A 
ATOM     90  C   UNL A   1      28.545  28.131  23.091  1.00  0.00     0.080 A 
ATOM     91  C   UNL A   1      29.900  30.388  22.187  1.00  0.00     0.095 A 
ATOM     92  C   UNL A   1      27.831  29.437  23.026  1.00  0.00     0.255 A 
ATOM     93  N   UNL A   1      28.583  30.514  22.586  1.00  0.00    -0.258 N 
ATOM     94  O   UNL A   1      26.658  29.479  23.379  1.00  0.00    -0.269 OA
BRANCH  93  95
ATOM     95  C   UNL A   1      27.934  31.800  22.570  1.00  0.00     0.451 C 
ATOM     96  F   UNL A   1      28.743  32.766  23.069  1.00  0.00    -0.185 F 
ATOM     97  F   UNL A   1      27.589  32.150  21.307  1.00  0.00    -0.185 F 
ENDBRANCH  93  95
ENDBRANCH  85  88
ENDBRANCH  77  80
ENDBRANCH  75  76
ENDBRANCH  74  75
ENDBRANCH  73  74
ENDBRANCH   1  73
TORSDOF 16
ENDMDL
MODEL 2
REMARK VINA RESULT:     -12.3      4.460     10.030
REMARK SMILES O=C(NCCCCCCNC(=O)c1ccc(-c2ccn(C(F)F)c(=O)c2)cc1O)c1ccc(-c2c3nc(c(-c4c(F)c(F)c(F)c(F)c4F)c4ccc([nH]4)c(-c4c(F)c(F)c(F)c(F)c4F)c4nc(c(-c5c(F)c(F)c(F)c(F)c5F)c5ccc2[nH]5)C=C4)C=C3)cc1
REMARK SMILES IDX 6 1 5 2 4 3 3 4 1 5 2 6 30 8 31 9 92 10 32 11 91 12 33 13
REMARK SMILES IDX 34 14 35 15 85 16 36 17 90 18 84 19 86 20 37 21 89 22 83 23
REMARK SMILES IDX 82 24 38 26 70 27 50 28 69 29 51 30 54 31 68 32 87 33 52 34
REMARK SMILES IDX 53 35 67 37 88 38 55 39 39 40 40 41 48 42 41 43 42 44 46 45
REMARK SMILES IDX 49 46 43 47 44 48 47 49 45 50 71 51 72 52 80 53 73 54 74 55
REMARK SMILES IDX 78 56 81 57 75 58 76 59 79 60 77 61 56 62 57 63 65 64 58 65
REMARK SMILES IDX 59 66 63 67 66 68 60 69 61 70 64 71 62 72 7 73 8 74 9 75
REMARK SMILES IDX 10 76 11 77 12 79 13 80 14 81 28 82 15 83 27 84 16 85 29 86
REMARK SMILES IDX 17 88 18 89 26 90 19 91 24 92 20 93 25 94 21 95 22 96 23 97
REMARK H PARENT 3 7 86 25 54 36 10 78 29 87
REMARK Flexibility Score: inf
ROOT
ATOM      1  C   UNL A   1      35.145  23.889  24.063  1.00  0.00     0.002 C 
ENDROOT
BRANCH   1   2
ATOM      2  C   UNL A   1      35.592  22.464  24.392  1.00  0.00     0.021 C 
BRANCH   2   3
ATOM      3  C   UNL A   1      36.300  22.296  25.732  1.00  0.00     0.116 C 
BRANCH   3   4
ATOM      4  N   UNL A   1      37.263  21.210  25.725  1.00  0.00    -0.352 N 
ATOM      5  O   UNL A   1      39.289  20.229  25.753  1.00  0.00    -0.269 OA
ATOM      6  C   UNL A   1      38.614  21.240  25.951  1.00  0.00     0.251 C 
ATOM      7  H   UNL A   1      36.891  20.320  25.528  1.00  0.00     0.163 HD
BRANCH   6   8
ATOM      8  C   UNL A   1      39.278  22.480  26.411  1.00  0.00     0.039 A 
ATOM      9  C   UNL A   1      38.859  23.699  25.872  1.00  0.00     0.014 A 
ATOM     10  C   UNL A   1      40.335  22.451  27.326  1.00  0.00     0.014 A 
ATOM     11  C   UNL A   1      39.480  24.886  26.267  1.00  0.00     0.010 A 
ATOM     12  C   UNL A   1      40.902  23.642  27.779  1.00  0.00     0.010 A 
ATOM     13  C   UNL A   1      40.498  24.870  27.234  1.00  0.00    -0.014 A 
BRANCH  13  14
ATOM     14  C   UNL A   1      41.184  26.128  27.631  1.00  0.00     0.031 A 
ATOM     15  C   UNL A   1      42.600  26.383  27.188  1.00  0.00     0.074 A 
ATOM     16  C   UNL A   1      40.537  27.037  28.386  1.00  0.00     0.049 A 
ATOM     17  N   UNL A   1      43.363  27.422  27.421  1.00  0.00    -0.248 NA
ATOM     18  C   UNL A   1      43.256  25.329  26.397  1.00  0.00     0.031 C 
ATOM     19  C   UNL A   1      39.178  26.887  28.908  1.00  0.00     0.029 A 
ATOM     20  N   UNL A   1      40.930  28.273  28.837  1.00  0.00    -0.354 N 
ATOM     21  C   UNL A   1      44.579  27.141  26.813  1.00  0.00     0.074 A 
ATOM     22  C   UNL A   1      44.480  25.813  26.252  1.00  0.00     0.031 C 
ATOM     23  C   UNL A   1      38.836  28.003  29.571  1.00  0.00     0.029 A 
ATOM     24  C   UNL A   1      39.959  28.937  29.548  1.00  0.00     0.049 A 
ATOM     25  H   UNL A   1      41.824  28.649  28.667  1.00  0.00     0.167 HD
ATOM     26  C   UNL A   1      45.669  27.936  26.699  1.00  0.00     0.037 A 
ATOM     27  C   UNL A   1      39.971  30.162  30.109  1.00  0.00     0.037 A 
ATOM     28  C   UNL A   1      45.750  29.275  27.214  1.00  0.00     0.049 A 
ATOM     29  C   UNL A   1      41.198  31.023  29.969  1.00  0.00     0.074 A 
ATOM     30  C   UNL A   1      46.794  30.177  27.103  1.00  0.00     0.029 A 
ATOM     31  N   UNL A   1      44.743  29.908  27.927  1.00  0.00    -0.354 N 
ATOM     32  N   UNL A   1      42.319  30.767  29.339  1.00  0.00    -0.248 NA
ATOM     33  C   UNL A   1      41.165  32.345  30.614  1.00  0.00     0.031 C 
ATOM     34  C   UNL A   1      46.435  31.343  27.782  1.00  0.00     0.029 A 
ATOM     35  C   UNL A   1      45.150  31.184  28.275  1.00  0.00     0.049 A 
ATOM     36  H   UNL A   1      43.872  29.510  28.151  1.00  0.00     0.167 HD
ATOM     37  C   UNL A   1      43.106  31.901  29.482  1.00  0.00     0.074 A 
ATOM     38  C   UNL A   1      42.335  32.853  30.253  1.00  0.00     0.031 C 
ATOM     39  C   UNL A   1      44.358  32.130  29.017  1.00  0.00     0.037 A 
BRANCH  26  40
ATOM     40  C   UNL A   1      46.859  27.403  25.958  1.00  0.00     0.064 A 
ATOM     41  C   UNL A   1      47.010  27.610  24.579  1.00  0.00     0.173 A 
ATOM     42  C   UNL A   1      47.905  26.772  26.648  1.00  0.00     0.173 A 
ATOM     43  F   UNL A   1      46.033  28.201  23.875  1.00  0.00    -0.203 F 
ATOM     44  C   UNL A   1      48.163  27.200  23.916  1.00  0.00     0.198 A 
ATOM     45  C   UNL A   1      49.069  26.389  25.987  1.00  0.00     0.198 A 
ATOM     46  F   UNL A   1      47.813  26.558  27.969  1.00  0.00    -0.203 F 
ATOM     47  F   UNL A   1      48.276  27.389  22.594  1.00  0.00    -0.200 F 
ATOM     48  C   UNL A   1      49.196  26.602  24.621  1.00  0.00     0.200 A 
ATOM     49  F   UNL A   1      50.073  25.824  26.671  1.00  0.00    -0.200 F 
ATOM     50  F   UNL A   1      50.317  26.232  23.986  1.00  0.00    -0.200 F 
ENDBRANCH  26  40
BRANCH  27  51
ATOM     51  C   UNL A   1      38.764  30.666  30.816  1.00  0.00     0.064 A 
ATOM     52  C   UNL A   1      38.642  30.541  32.207  1.00  0.00     0.173 A 
ATOM     53  C   UNL A   1      37.713  31.284  30.123  1.00  0.00     0.173 A 
ATOM     54  F   UNL A   1      39.612  29.942  32.913  1.00  0.00    -0.203 F 
ATOM     55  C   UNL A   1      37.509  31.000  32.876  1.00  0.00     0.198 A 
ATOM     56  C   UNL A   1      36.592  31.767  30.796  1.00  0.00     0.198 A 
ATOM     57  F   UNL A   1      37.781  31.431  28.792  1.00  0.00    -0.203 F 
ATOM     58  F   UNL A   1      37.401  30.832  34.201  1.00  0.00    -0.200 F 
ATOM     59  C   UNL A   1      36.487  31.620  32.170  1.00  0.00     0.200 A 
ATOM     60  F   UNL A   1      35.615  32.377  30.112  1.00  0.00    -0.200 F 
ATOM     61  F   UNL A   1      35.401  32.066  32.814  1.00  0.00    -0.200 F 
ENDBRANCH  27  51
BRANCH  39  62
ATOM     62  C   UNL A   1      44.978  33.466  29.288  1.00  0.00     0.064 A 
ATOM     63  C   UNL A   1      45.826  33.668  30.386  1.00  0.00     0.173 A 
ATOM     64  C   UNL A   1      44.825  34.516  28.370  1.00  0.00     0.173 A 
ATOM     65  F   UNL A   1      45.996  32.697  31.295  1.00  0.00    -0.203 F 
ATOM     66  C   UNL A   1      46.501  34.874  30.552  1.00  0.00     0.198 A 
ATOM     67  C   UNL A   1      45.521  35.710  28.526  1.00  0.00     0.198 A 
ATOM     68  F   UNL A   1      44.033  34.366  27.297  1.00  0.00    -0.203 F 
ATOM     69  F   UNL A   1      47.298  35.051  31.615  1.00  0.00    -0.200 F 
ATOM     70  C   UNL A   1      46.359  35.888  29.616  1.00  0.00     0.200 A 
ATOM     71  F   UNL A   1      45.398  36.682  27.611  1.00  0.00    -0.200 F 
ATOM     72  F   UNL A   1      47.036  37.036  29.763  1.00  0.00    -0.200 F 
ENDBRANCH  39  62
ENDBRANCH  13  14
ENDBRANCH   6   8
ENDBRANCH   3   4
ENDBRANCH   2   3
ENDBRANCH   1   2
BRANCH   1  73
ATOM     73  C   UNL A   1      34.777  24.763  25.265  1.00  0.00     0.002 C 
BRANCH  73  74
ATOM     74  C   UNL A   1      33.959  26.018  24.947  1.00  0.00     0.021 C 
BRANCH  74  75
ATOM     75  C   UNL A   1      32.992  26.458  26.042  1.00  0.00     0.116 C 
BRANCH  75  76
ATOM     76  N   UNL A   1      31.654  26.694  25.533  1.00  0.00    -0.352 N 
ATOM     77  C   UNL A   1      30.779  25.785  24.994  1.00  0.00     0.255 C 
ATOM     78  H   UNL A   1      31.333  27.622  25.582  1.00  0.00     0.163 HD
ATOM     79  O   UNL A   1      29.699  26.158  24.536  1.00  0.00    -0.269 OA
BRANCH  77  80
ATOM     80  C   UNL A   1      31.163  24.365  24.885  1.00  0.00     0.081 A 
ATOM     81  C   UNL A   1      31.412  23.859  23.604  1.00  0.00     0.018 A 
ATOM     82  C   UNL A   1      31.273  23.528  25.999  1.00  0.00     0.128 A 
ATOM     83  C   UNL A   1      31.820  22.534  23.442  1.00  0.00     0.010 A 
ATOM     84  C   UNL A   1      31.687  22.207  25.840  1.00  0.00     0.055 A 
ATOM     85  C   UNL A   1      31.974  21.703  24.561  1.00  0.00    -0.014 A 
BRANCH  82  86
ATOM     86  O   UNL A   1      30.988  23.995  27.252  1.00  0.00    -0.507 OA
ATOM     87  H   UNL A   1      31.009  23.411  27.986  1.00  0.00     0.293 HD
ENDBRANCH  82  86
BRANCH  85  88
ATOM     88  C   UNL A   1      32.433  20.308  24.431  1.00  0.00    -0.011 A 
ATOM     89  C   UNL A   1      33.240  19.657  25.445  1.00  0.00     0.027 A 
ATOM     90  C   UNL A   1      32.151  19.643  23.297  1.00  0.00     0.080 A 
ATOM     91  C   UNL A   1      33.733  18.432  25.240  1.00  0.00     0.095 A 
ATOM     92  C   UNL A   1      32.676  18.268  23.062  1.00  0.00     0.255 A 
ATOM     93  N   UNL A   1      33.473  17.747  24.070  1.00  0.00    -0.258 N 
ATOM     94  O   UNL A   1      32.396  17.707  22.009  1.00  0.00    -0.269 OA
BRANCH  93  95
ATOM     95  C   UNL A   1      34.042  16.443  23.843  1.00  0.00     0.451 C 
ATOM     96  F   UNL A   1      35.106  16.223  24.653  1.00  0.00    -0.185 F 
ATOM     97  F   UNL A   1      33.127  15.471  24.073  1.00  0.00    -0.185 F 
ENDBRANCH  93  95
ENDBRANCH  85  88
ENDBRANCH  77  80
ENDBRANCH  75  76
ENDBRANCH  74  75
ENDBRANCH  73  74
ENDBRANCH   1  73
TORSDOF 16
ENDMDL
MODEL 3
REMARK VINA RESULT:     -12.3      5.162      8.432
REMARK SMILES O=C(NCCCCCCNC(=O)c1ccc(-c2ccn(C(F)F)c(=O)c2)cc1O)c1ccc(-c2c3nc(c(-c4c(F)c(F)c(F)c(F)c4F)c4ccc([nH]4)c(-c4c(F)c(F)c(F)c(F)c4F)c4nc(c(-c5c(F)c(F)c(F)c(F)c5F)c5ccc2[nH]5)C=C4)C=C3)cc1
REMARK SMILES IDX 6 1 5 2 4 3 3 4 1 5 2 6 30 8 31 9 92 10 32 11 91 12 33 13
REMARK SMILES IDX 34 14 35 15 85 16 36 17 90 18 84 19 86 20 37 21 89 22 83 23
REMARK SMILES IDX 82 24 38 26 70 27 50 28 69 29 51 30 54 31 68 32 87 33 52 34
REMARK SMILES IDX 53 35 67 37 88 38 55 39 39 40 40 41 48 42 41 43 42 44 46 45
REMARK SMILES IDX 49 46 43 47 44 48 47 49 45 50 71 51 72 52 80 53 73 54 74 55
REMARK SMILES IDX 78 56 81 57 75 58 76 59 79 60 77 61 56 62 57 63 65 64 58 65
REMARK SMILES IDX 59 66 63 67 66 68 60 69 61 70 64 71 62 72 7 73 8 74 9 75
REMARK SMILES IDX 10 76 11 77 12 79 13 80 14 81 28 82 15 83 27 84 16 85 29 86
REMARK SMILES IDX 17 88 18 89 26 90 19 91 24 92 20 93 25 94 21 95 22 96 23 97
REMARK H PARENT 3 7 86 25 54 36 10 78 29 87
REMARK Flexibility Score: inf
ROOT
ATOM      1  C   UNL A   1      35.519  34.678  28.814  1.00  0.00     0.002 C 
ENDROOT
BRANCH   1   2
ATOM      2  C   UNL A   1      35.872  33.189  28.799  1.00  0.00     0.021 C 
BRANCH   2   3
ATOM      3  C   UNL A   1      34.926  32.287  29.584  1.00  0.00     0.116 C 
BRANCH   3   4
ATOM      4  N   UNL A   1      34.258  31.309  28.745  1.00  0.00    -0.352 N 
ATOM      5  O   UNL A   1      34.071  29.618  27.271  1.00  0.00    -0.269 OA
ATOM      6  C   UNL A   1      34.783  30.250  28.052  1.00  0.00     0.251 C 
ATOM      7  H   UNL A   1      33.284  31.425  28.660  1.00  0.00     0.163 HD
BRANCH   6   8
ATOM      8  C   UNL A   1      36.203  29.866  28.216  1.00  0.00     0.039 A 
ATOM      9  C   UNL A   1      36.607  29.312  29.433  1.00  0.00     0.014 A 
ATOM     10  C   UNL A   1      37.145  30.091  27.207  1.00  0.00     0.014 A 
ATOM     11  C   UNL A   1      37.945  28.962  29.629  1.00  0.00     0.010 A 
ATOM     12  C   UNL A   1      38.463  29.669  27.374  1.00  0.00     0.010 A 
ATOM     13  C   UNL A   1      38.883  29.124  28.597  1.00  0.00    -0.014 A 
BRANCH  13  14
ATOM     14  C   UNL A   1      40.313  28.784  28.814  1.00  0.00     0.031 A 
ATOM     15  C   UNL A   1      41.212  29.747  29.542  1.00  0.00     0.074 A 
ATOM     16  C   UNL A   1      40.802  27.614  28.360  1.00  0.00     0.049 A 
ATOM     17  N   UNL A   1      42.482  29.627  29.840  1.00  0.00    -0.248 NA
ATOM     18  C   UNL A   1      40.618  31.022  29.977  1.00  0.00     0.031 C 
ATOM     19  C   UNL A   1      40.041  26.616  27.607  1.00  0.00     0.029 A 
ATOM     20  N   UNL A   1      42.054  27.059  28.473  1.00  0.00    -0.354 N 
ATOM     21  C   UNL A   1      42.832  30.805  30.487  1.00  0.00     0.074 A 
ATOM     22  C   UNL A   1      41.663  31.655  30.488  1.00  0.00     0.031 C 
ATOM     23  C   UNL A   1      40.826  25.555  27.364  1.00  0.00     0.029 A 
ATOM     24  C   UNL A   1      42.156  25.807  27.914  1.00  0.00     0.049 A 
ATOM     25  H   UNL A   1      42.807  27.515  28.912  1.00  0.00     0.167 HD
ATOM     26  C   UNL A   1      44.012  31.133  31.064  1.00  0.00     0.037 A 
ATOM     27  C   UNL A   1      43.200  24.957  27.861  1.00  0.00     0.037 A 
ATOM     28  C   UNL A   1      45.158  30.267  31.106  1.00  0.00     0.049 A 
ATOM     29  C   UNL A   1      44.501  25.350  28.508  1.00  0.00     0.074 A 
ATOM     30  C   UNL A   1      46.382  30.492  31.712  1.00  0.00     0.029 A 
ATOM     31  N   UNL A   1      45.218  29.008  30.529  1.00  0.00    -0.354 N 
ATOM     32  N   UNL A   1      44.799  26.442  29.169  1.00  0.00    -0.248 NA
ATOM     33  C   UNL A   1      45.614  24.393  28.407  1.00  0.00     0.031 C 
ATOM     34  C   UNL A   1      47.197  29.384  31.470  1.00  0.00     0.029 A 
ATOM     35  C   UNL A   1      46.465  28.451  30.752  1.00  0.00     0.049 A 
ATOM     36  H   UNL A   1      44.484  28.576  30.035  1.00  0.00     0.167 HD
ATOM     37  C   UNL A   1      46.113  26.290  29.588  1.00  0.00     0.074 A 
ATOM     38  C   UNL A   1      46.559  24.997  29.115  1.00  0.00     0.031 C 
ATOM     39  C   UNL A   1      46.882  27.150  30.300  1.00  0.00     0.037 A 
BRANCH  26  40
ATOM     40  C   UNL A   1      44.125  32.470  31.734  1.00  0.00     0.064 A 
ATOM     41  C   UNL A   1      43.788  32.637  33.085  1.00  0.00     0.173 A 
ATOM     42  C   UNL A   1      44.671  33.566  31.050  1.00  0.00     0.173 A 
ATOM     43  F   UNL A   1      43.254  31.620  33.778  1.00  0.00    -0.203 F 
ATOM     44  C   UNL A   1      43.989  33.856  33.726  1.00  0.00     0.198 A 
ATOM     45  C   UNL A   1      44.897  34.776  31.702  1.00  0.00     0.198 A 
ATOM     46  F   UNL A   1      45.017  33.455  29.758  1.00  0.00    -0.203 F 
ATOM     47  F   UNL A   1      43.640  34.000  35.011  1.00  0.00    -0.200 F 
ATOM     48  C   UNL A   1      44.554  34.920  33.039  1.00  0.00     0.200 A 
ATOM     49  F   UNL A   1      45.456  35.798  31.042  1.00  0.00    -0.200 F 
ATOM     50  F   UNL A   1      44.772  36.084  33.666  1.00  0.00    -0.200 F 
ENDBRANCH  26  40
BRANCH  27  51
ATOM     51  C   UNL A   1      43.044  23.630  27.209  1.00  0.00     0.064 A 
ATOM     52  C   UNL A   1      42.412  22.571  27.878  1.00  0.00     0.173 A 
ATOM     53  C   UNL A   1      43.515  23.391  25.910  1.00  0.00     0.173 A 
ATOM     54  F   UNL A   1      41.960  22.744  29.129  1.00  0.00    -0.203 F 
ATOM     55  C   UNL A   1      42.272  21.321  27.278  1.00  0.00     0.198 A 
ATOM     56  C   UNL A   1      43.350  22.149  25.301  1.00  0.00     0.198 A 
ATOM     57  F   UNL A   1      44.124  24.370  25.226  1.00  0.00    -0.203 F 
ATOM     58  F   UNL A   1      41.699  20.316  27.955  1.00  0.00    -0.200 F 
ATOM     59  C   UNL A   1      42.735  21.113  25.987  1.00  0.00     0.200 A 
ATOM     60  F   UNL A   1      43.786  21.956  24.049  1.00  0.00    -0.200 F 
ATOM     61  F   UNL A   1      42.594  19.912  25.409  1.00  0.00    -0.200 F 
ENDBRANCH  27  51
BRANCH  39  62
ATOM     62  C   UNL A   1      48.275  26.725  30.651  1.00  0.00     0.064 A 
ATOM     63  C   UNL A   1      48.529  25.901  31.756  1.00  0.00     0.173 A 
ATOM     64  C   UNL A   1      49.346  27.041  29.801  1.00  0.00     0.173 A 
ATOM     65  F   UNL A   1      47.539  25.580  32.602  1.00  0.00    -0.203 F 
ATOM     66  C   UNL A   1      49.808  25.405  31.995  1.00  0.00     0.198 A 
ATOM     67  C   UNL A   1      50.616  26.522  30.029  1.00  0.00     0.198 A 
ATOM     68  F   UNL A   1      49.148  27.817  28.725  1.00  0.00    -0.203 F 
ATOM     69  F   UNL A   1      50.033  24.628  33.063  1.00  0.00    -0.200 F 
ATOM     70  C   UNL A   1      50.846  25.705  31.125  1.00  0.00     0.200 A 
ATOM     71  F   UNL A   1      51.615  26.797  29.178  1.00  0.00    -0.200 F 
ATOM     72  F   UNL A   1      52.069  25.199  31.341  1.00  0.00    -0.200 F 
ENDBRANCH  39  62
ENDBRANCH  13  14
ENDBRANCH   6   8
ENDBRANCH   3   4
ENDBRANCH   2   3
ENDBRANCH   1   2
BRANCH   1  73
ATOM     73  C   UNL A   1      34.101  35.029  28.356  1.00  0.00     0.002 C 
BRANCH  73  74
ATOM     74  C   UNL A   1      33.357  36.047  29.224  1.00  0.00     0.021 C 
BRANCH  74  75
ATOM     75  C   UNL A   1      32.742  35.485  30.503  1.00  0.00     0.116 C 
BRANCH  75  76
ATOM     76  N   UNL A   1      32.906  36.380  31.633  1.00  0.00    -0.352 N 
ATOM     77  C   UNL A   1      33.762  36.254  32.697  1.00  0.00     0.255 C 
ATOM     78  H   UNL A   1      32.331  37.178  31.636  1.00  0.00     0.163 HD
ATOM     79  O   UNL A   1      33.730  37.067  33.621  1.00  0.00    -0.269 OA
BRANCH  77  80
ATOM     80  C   UNL A   1      34.673  35.096  32.779  1.00  0.00     0.081 A 
ATOM     81  C   UNL A   1      36.027  35.318  32.501  1.00  0.00     0.018 A 
ATOM     82  C   UNL A   1      34.230  33.812  33.110  1.00  0.00     0.128 A 
ATOM     83  C   UNL A   1      36.943  34.269  32.604  1.00  0.00     0.010 A 
ATOM     84  C   UNL A   1      35.144  32.766  33.220  1.00  0.00     0.055 A 
ATOM     85  C   UNL A   1      36.509  32.990  32.978  1.00  0.00    -0.014 A 
BRANCH  82  86
ATOM     86  O   UNL A   1      32.904  33.571  33.339  1.00  0.00    -0.507 OA
ATOM     87  H   UNL A   1      32.557  32.708  33.218  1.00  0.00     0.293 HD
ENDBRANCH  82  86
BRANCH  85  88
ATOM     88  C   UNL A   1      37.452  31.866  33.127  1.00  0.00    -0.011 A 
ATOM     89  C   UNL A   1      38.881  32.065  33.278  1.00  0.00     0.027 A 
ATOM     90  C   UNL A   1      36.973  30.612  33.049  1.00  0.00     0.080 A 
ATOM     91  C   UNL A   1      39.716  31.021  33.295  1.00  0.00     0.095 A 
ATOM     92  C   UNL A   1      37.889  29.437  33.087  1.00  0.00     0.255 A 
ATOM     93  N   UNL A   1      39.240  29.728  33.190  1.00  0.00    -0.258 N 
ATOM     94  O   UNL A   1      37.403  28.315  33.004  1.00  0.00    -0.269 OA
BRANCH  93  95
ATOM     95  C   UNL A   1      40.152  28.613  33.169  1.00  0.00     0.451 C 
ATOM     96  F   UNL A   1      40.041  27.908  32.017  1.00  0.00    -0.185 F 
ATOM     97  F   UNL A   1      41.434  29.038  33.283  1.00  0.00    -0.185 F 
ENDBRANCH  93  95
ENDBRANCH  85  88
ENDBRANCH  77  80
ENDBRANCH  75  76
ENDBRANCH  74  75
ENDBRANCH  73  74
ENDBRANCH   1  73
TORSDOF 16
ENDMDL
