MODEL 1
REMARK VINA RESULT:     -12.3      0.000      0.000
REMARK SMILES O=C(NCCCCCCNC(=O)[C@@H]1CN(C(=O)C2(Cc3ccccc3)CCC2)CCO1)c1ccc(-c2c3nc(c(-c4c(F)c(F)c(F)c(F)c4F)c4ccc([nH]4)c(-c4c(F)c(F)c(F)c(F)c4F)c4nc(c(-c5c(F)c(F)c(F)c(F)c5F)c5ccc2[nH]5)C=C4)C=C3)cc1
REMARK SMILES IDX 7 1 6 2 5 3 4 4 3 5 1 6 2 7 32 9 33 10 94 11 34 12 93 13
REMARK SMILES IDX 35 14 36 15 37 16 87 17 38 18 92 19 86 20 88 21 39 22 91 23
REMARK SMILES IDX 85 24 84 25 40 27 72 28 52 29 71 30 53 31 56 32 70 33 89 34
REMARK SMILES IDX 54 35 55 36 69 38 90 39 57 40 41 41 42 42 50 43 43 44 44 45
REMARK SMILES IDX 48 46 51 47 45 48 46 49 49 50 47 51 73 52 74 53 82 54 75 55
REMARK SMILES IDX 76 56 80 57 83 58 77 59 78 60 81 61 79 62 58 63 59 64 67 65
REMARK SMILES IDX 60 66 61 67 65 68 68 69 62 70 63 71 66 72 64 73 8 74 9 75
REMARK SMILES IDX 10 76 11 77 12 79 13 80 14 81 31 82 15 83 30 84 29 85 16 86
REMARK SMILES IDX 17 87 18 88 26 89 28 90 27 91 19 92 20 93 21 94 25 95 22 96
REMARK SMILES IDX 24 97 23 98
REMARK H PARENT 3 8 88 26 56 37 10 78
REMARK Flexibility Score: inf
ROOT
ATOM      1  C   UNL A   1      35.800  20.361  25.001  1.00  0.00     0.002 C 
ENDROOT
BRANCH   1   2
ATOM      2  C   UNL A   1      36.910  19.304  25.001  1.00  0.00     0.002 C 
BRANCH   2   3
ATOM      3  C   UNL A   1      38.301  19.824  24.637  1.00  0.00     0.021 C 
BRANCH   3   4
ATOM      4  C   UNL A   1      39.205  20.091  25.835  1.00  0.00     0.116 C 
BRANCH   4   5
ATOM      5  N   UNL A   1      40.213  19.055  25.984  1.00  0.00    -0.352 N 
ATOM      6  O   UNL A   1      42.307  18.214  25.976  1.00  0.00    -0.269 OA
ATOM      7  C   UNL A   1      41.570  19.191  26.105  1.00  0.00     0.251 C 
ATOM      8  H   UNL A   1      39.874  18.131  25.999  1.00  0.00     0.163 HD
BRANCH   7   9
ATOM      9  C   UNL A   1      42.153  20.516  26.398  1.00  0.00     0.039 A 
ATOM     10  C   UNL A   1      42.517  21.373  25.355  1.00  0.00     0.014 A 
ATOM     11  C   UNL A   1      42.278  20.929  27.727  1.00  0.00     0.014 A 
ATOM     12  C   UNL A   1      43.077  22.613  25.641  1.00  0.00     0.010 A 
ATOM     13  C   UNL A   1      42.775  22.202  28.012  1.00  0.00     0.010 A 
ATOM     14  C   UNL A   1      43.175  23.054  26.970  1.00  0.00    -0.014 A 
BRANCH  14  15
ATOM     15  C   UNL A   1      43.554  24.461  27.242  1.00  0.00     0.031 A 
ATOM     16  C   UNL A   1      42.555  25.457  27.749  1.00  0.00     0.074 A 
ATOM     17  C   UNL A   1      44.827  24.830  26.998  1.00  0.00     0.049 A 
ATOM     18  N   UNL A   1      42.723  26.730  28.004  1.00  0.00    -0.248 NA
ATOM     19  C   UNL A   1      41.190  24.971  27.999  1.00  0.00     0.031 C 
ATOM     20  C   UNL A   1      45.872  23.944  26.477  1.00  0.00     0.029 A 
ATOM     21  N   UNL A   1      45.460  26.036  27.145  1.00  0.00    -0.354 N 
ATOM     22  C   UNL A   1      41.487  27.201  28.423  1.00  0.00     0.074 A 
ATOM     23  C   UNL A   1      40.571  26.082  28.380  1.00  0.00     0.031 C 
ATOM     24  C   UNL A   1      47.018  24.630  26.364  1.00  0.00     0.029 A 
ATOM     25  C   UNL A   1      46.774  26.016  26.743  1.00  0.00     0.049 A 
ATOM     26  H   UNL A   1      45.018  26.839  27.505  1.00  0.00     0.167 HD
ATOM     27  C   UNL A   1      41.159  28.457  28.810  1.00  0.00     0.037 A 
ATOM     28  C   UNL A   1      47.674  27.012  26.652  1.00  0.00     0.037 A 
ATOM     29  C   UNL A   1      42.088  29.557  28.870  1.00  0.00     0.049 A 
ATOM     30  C   UNL A   1      47.264  28.398  27.058  1.00  0.00     0.074 A 
ATOM     31  C   UNL A   1      41.873  30.842  29.337  1.00  0.00     0.029 A 
ATOM     32  N   UNL A   1      43.404  29.506  28.433  1.00  0.00    -0.354 N 
ATOM     33  N   UNL A   1      46.115  28.812  27.534  1.00  0.00    -0.248 NA
ATOM     34  C   UNL A   1      48.271  29.457  26.909  1.00  0.00     0.031 C 
ATOM     35  C   UNL A   1      43.038  31.585  29.126  1.00  0.00     0.029 A 
ATOM     36  C   UNL A   1      43.996  30.752  28.576  1.00  0.00     0.049 A 
ATOM     37  H   UNL A   1      43.851  28.705  28.075  1.00  0.00     0.167 HD
ATOM     38  C   UNL A   1      46.261  30.175  27.745  1.00  0.00     0.074 A 
ATOM     39  C   UNL A   1      47.621  30.513  27.377  1.00  0.00     0.031 C 
ATOM     40  C   UNL A   1      45.348  31.069  28.193  1.00  0.00     0.037 A 
BRANCH  27  41
ATOM     41  C   UNL A   1      39.735  28.737  29.192  1.00  0.00     0.064 A 
ATOM     42  C   UNL A   1      39.288  28.612  30.515  1.00  0.00     0.173 A 
ATOM     43  C   UNL A   1      38.837  29.243  28.240  1.00  0.00     0.173 A 
ATOM     44  F   UNL A   1      40.106  28.128  31.461  1.00  0.00    -0.203 F 
ATOM     45  C   UNL A   1      37.993  28.981  30.869  1.00  0.00     0.198 A 
ATOM     46  C   UNL A   1      37.550  29.631  28.601  1.00  0.00     0.198 A 
ATOM     47  F   UNL A   1      39.219  29.389  26.961  1.00  0.00    -0.203 F 
ATOM     48  F   UNL A   1      37.579  28.839  32.136  1.00  0.00    -0.200 F 
ATOM     49  C   UNL A   1      37.128  29.500  29.915  1.00  0.00     0.200 A 
ATOM     50  F   UNL A   1      36.723  30.146  27.680  1.00  0.00    -0.200 F 
ATOM     51  F   UNL A   1      35.890  29.876  30.264  1.00  0.00    -0.200 F 
ENDBRANCH  27  41
BRANCH  28  52
ATOM     52  C   UNL A   1      49.032  26.740  26.112  1.00  0.00     0.064 A 
ATOM     53  C   UNL A   1      50.063  26.278  26.939  1.00  0.00     0.173 A 
ATOM     54  C   UNL A   1      49.328  26.953  24.756  1.00  0.00     0.173 A 
ATOM     55  F   UNL A   1      49.834  26.077  28.245  1.00  0.00    -0.203 F 
ATOM     56  C   UNL A   1      51.345  26.062  26.437  1.00  0.00     0.198 A 
ATOM     57  C   UNL A   1      50.600  26.705  24.249  1.00  0.00     0.198 A 
ATOM     58  F   UNL A   1      48.375  27.391  23.920  1.00  0.00    -0.203 F 
ATOM     59  F   UNL A   1      52.326  25.672  27.261  1.00  0.00    -0.200 F 
ATOM     60  C   UNL A   1      51.611  26.271  25.092  1.00  0.00     0.200 A 
ATOM     61  F   UNL A   1      50.847  26.891  22.945  1.00  0.00    -0.200 F 
ATOM     62  F   UNL A   1      52.844  26.063  24.611  1.00  0.00    -0.200 F 
ENDBRANCH  28  52
BRANCH  40  63
ATOM     63  C   UNL A   1      45.793  32.497  28.308  1.00  0.00     0.064 A 
ATOM     64  C   UNL A   1      46.405  32.976  29.475  1.00  0.00     0.173 A 
ATOM     65  C   UNL A   1      45.637  33.383  27.232  1.00  0.00     0.173 A 
ATOM     66  F   UNL A   1      46.557  32.172  30.538  1.00  0.00    -0.203 F 
ATOM     67  C   UNL A   1      46.826  34.299  29.569  1.00  0.00     0.198 A 
ATOM     68  C   UNL A   1      46.086  34.698  27.319  1.00  0.00     0.198 A 
ATOM     69  F   UNL A   1      45.061  32.971  26.094  1.00  0.00    -0.203 F 
ATOM     70  F   UNL A   1      47.365  34.749  30.710  1.00  0.00    -0.200 F 
ATOM     71  C   UNL A   1      46.674  35.156  28.489  1.00  0.00     0.200 A 
ATOM     72  F   UNL A   1      45.950  35.520  26.270  1.00  0.00    -0.200 F 
ATOM     73  F   UNL A   1      47.087  36.428  28.578  1.00  0.00    -0.200 F 
ENDBRANCH  40  63
ENDBRANCH  14  15
ENDBRANCH   7   9
ENDBRANCH   4   5
ENDBRANCH   3   4
ENDBRANCH   2   3
ENDBRANCH   1   2
BRANCH   1  74
ATOM     74  C   UNL A   1      36.256  21.764  24.583  1.00  0.00     0.021 C 
BRANCH  74  75
ATOM     75  C   UNL A   1      36.417  22.736  25.750  1.00  0.00     0.116 C 
BRANCH  75  76
ATOM     76  N   UNL A   1      35.474  22.430  26.803  1.00  0.00    -0.354 N 
ATOM     77  C   UNL A   1      34.134  22.684  26.873  1.00  0.00     0.250 C 
ATOM     78  H   UNL A   1      35.855  21.968  27.586  1.00  0.00     0.163 HD
ATOM     79  O   UNL A   1      33.560  22.392  27.924  1.00  0.00    -0.272 OA
BRANCH  77  80
ATOM     80  C   UNL A   1      33.409  23.296  25.661  1.00  0.00     0.226 C 
ATOM     81  C   UNL A   1      32.439  24.394  26.130  1.00  0.00     0.161 C 
ATOM     82  O   UNL A   1      32.695  22.265  24.954  1.00  0.00    -0.365 OA
ATOM     83  N   UNL A   1      31.635  24.917  25.017  1.00  0.00    -0.337 N 
ATOM     84  C   UNL A   1      32.005  22.793  23.817  1.00  0.00     0.183 C 
ATOM     85  C   UNL A   1      30.992  23.857  24.234  1.00  0.00     0.148 C 
BRANCH  83  86
ATOM     86  C   UNL A   1      30.991  26.161  25.042  1.00  0.00     0.229 C 
ATOM     87  O   UNL A   1      29.906  26.241  25.643  1.00  0.00    -0.274 OA
BRANCH  86  88
ATOM     88  C   UNL A   1      31.587  27.403  24.254  1.00  0.00     0.053 C 
ATOM     89  C   UNL A   1      31.402  28.772  24.998  1.00  0.00     0.017 C 
ATOM     90  C   UNL A   1      33.121  27.722  24.257  1.00  0.00     0.017 C 
ATOM     91  C   UNL A   1      32.775  29.208  24.463  1.00  0.00     0.002 C 
BRANCH  88  92
ATOM     92  C   UNL A   1      30.980  27.486  22.818  1.00  0.00     0.052 C 
BRANCH  92  93
ATOM     93  C   UNL A   1      29.797  28.426  22.710  1.00  0.00    -0.047 A 
ATOM     94  C   UNL A   1      29.970  29.705  22.155  1.00  0.00     0.004 A 
ATOM     95  C   UNL A   1      28.532  28.084  23.204  1.00  0.00     0.004 A 
ATOM     96  C   UNL A   1      28.907  30.609  22.088  1.00  0.00     0.000 A 
ATOM     97  C   UNL A   1      27.465  28.983  23.127  1.00  0.00     0.000 A 
ATOM     98  C   UNL A   1      27.653  30.246  22.571  1.00  0.00     0.000 A 
ENDBRANCH  92  93
ENDBRANCH  88  92
ENDBRANCH  86  88
ENDBRANCH  83  86
ENDBRANCH  77  80
ENDBRANCH  75  76
ENDBRANCH  74  75
ENDBRANCH   1  74
TORSDOF 17
ENDMDL
MODEL 2
REMARK VINA RESULT:     -12.1      1.277      2.331
REMARK SMILES O=C(NCCCCCCNC(=O)[C@@H]1CN(C(=O)C2(Cc3ccccc3)CCC2)CCO1)c1ccc(-c2c3nc(c(-c4c(F)c(F)c(F)c(F)c4F)c4ccc([nH]4)c(-c4c(F)c(F)c(F)c(F)c4F)c4nc(c(-c5c(F)c(F)c(F)c(F)c5F)c5ccc2[nH]5)C=C4)C=C3)cc1
REMARK SMILES IDX 7 1 6 2 5 3 4 4 3 5 1 6 2 7 32 9 33 10 94 11 34 12 93 13
REMARK SMILES IDX 35 14 36 15 37 16 87 17 38 18 92 19 86 20 88 21 39 22 91 23
REMARK SMILES IDX 85 24 84 25 40 27 72 28 52 29 71 30 53 31 56 32 70 33 89 34
REMARK SMILES IDX 54 35 55 36 69 38 90 39 57 40 41 41 42 42 50 43 43 44 44 45
REMARK SMILES IDX 48 46 51 47 45 48 46 49 49 50 47 51 73 52 74 53 82 54 75 55
REMARK SMILES IDX 76 56 80 57 83 58 77 59 78 60 81 61 79 62 58 63 59 64 67 65
REMARK SMILES IDX 60 66 61 67 65 68 68 69 62 70 63 71 66 72 64 73 8 74 9 75
REMARK SMILES IDX 10 76 11 77 12 79 13 80 14 81 31 82 15 83 30 84 29 85 16 86
REMARK SMILES IDX 17 87 18 88 26 89 28 90 27 91 19 92 20 93 21 94 25 95 22 96
REMARK SMILES IDX 24 97 23 98
REMARK H PARENT 3 8 88 26 56 37 10 78
REMARK Flexibility Score: inf
ROOT
ATOM      1  C   UNL A   1      38.894  23.646  26.097  1.00  0.00     0.002 C 
ENDROOT
BRANCH   1   2
ATOM      2  C   UNL A   1      39.609  22.522  26.853  1.00  0.00     0.002 C 
BRANCH   2   3
ATOM      3  C   UNL A   1      39.744  21.206  26.084  1.00  0.00     0.021 C 
BRANCH   3   4
ATOM      4  C   UNL A   1      40.150  20.015  26.944  1.00  0.00     0.116 C 
BRANCH   4   5
ATOM      5  N   UNL A   1      41.162  19.204  26.287  1.00  0.00    -0.352 N 
ATOM      6  O   UNL A   1      42.990  18.837  25.015  1.00  0.00    -0.269 OA
ATOM      7  C   UNL A   1      42.359  19.595  25.751  1.00  0.00     0.251 C 
ATOM      8  H   UNL A   1      40.958  18.243  26.219  1.00  0.00     0.163 HD
BRANCH   7   9
ATOM      9  C   UNL A   1      42.901  20.934  26.062  1.00  0.00     0.039 A 
ATOM     10  C   UNL A   1      43.146  21.851  25.036  1.00  0.00     0.014 A 
ATOM     11  C   UNL A   1      43.105  21.296  27.396  1.00  0.00     0.014 A 
ATOM     12  C   UNL A   1      43.670  23.104  25.337  1.00  0.00     0.010 A 
ATOM     13  C   UNL A   1      43.564  22.579  27.702  1.00  0.00     0.010 A 
ATOM     14  C   UNL A   1      43.846  23.492  26.674  1.00  0.00    -0.014 A 
BRANCH  14  15
ATOM     15  C   UNL A   1      44.179  24.903  26.983  1.00  0.00     0.031 A 
ATOM     16  C   UNL A   1      43.139  25.864  27.475  1.00  0.00     0.074 A 
ATOM     17  C   UNL A   1      45.449  25.309  26.784  1.00  0.00     0.049 A 
ATOM     18  N   UNL A   1      43.266  27.137  27.757  1.00  0.00    -0.248 NA
ATOM     19  C   UNL A   1      41.780  25.339  27.672  1.00  0.00     0.031 C 
ATOM     20  C   UNL A   1      46.532  24.460  26.282  1.00  0.00     0.029 A 
ATOM     21  N   UNL A   1      46.045  26.528  26.973  1.00  0.00    -0.354 N 
ATOM     22  C   UNL A   1      42.005  27.568  28.145  1.00  0.00     0.074 A 
ATOM     23  C   UNL A   1      41.121  26.426  28.054  1.00  0.00     0.031 C 
ATOM     24  C   UNL A   1      47.663  25.177  26.217  1.00  0.00     0.029 A 
ATOM     25  C   UNL A   1      47.371  26.549  26.612  1.00  0.00     0.049 A 
ATOM     26  H   UNL A   1      45.571  27.313  27.333  1.00  0.00     0.167 HD
ATOM     27  C   UNL A   1      41.632  28.808  28.543  1.00  0.00     0.037 A 
ATOM     28  C   UNL A   1      48.247  27.569  26.567  1.00  0.00     0.037 A 
ATOM     29  C   UNL A   1      42.530  29.930  28.651  1.00  0.00     0.049 A 
ATOM     30  C   UNL A   1      47.788  28.937  26.984  1.00  0.00     0.074 A 
ATOM     31  C   UNL A   1      42.267  31.200  29.133  1.00  0.00     0.029 A 
ATOM     32  N   UNL A   1      43.860  29.921  28.255  1.00  0.00    -0.354 N 
ATOM     33  N   UNL A   1      46.615  29.313  27.430  1.00  0.00    -0.248 NA
ATOM     34  C   UNL A   1      48.772  30.024  26.885  1.00  0.00     0.031 C 
ATOM     35  C   UNL A   1      43.418  31.977  28.972  1.00  0.00     0.029 A 
ATOM     36  C   UNL A   1      44.415  31.178  28.438  1.00  0.00     0.049 A 
ATOM     37  H   UNL A   1      44.338  29.138  27.898  1.00  0.00     0.167 HD
ATOM     38  C   UNL A   1      46.719  30.674  27.670  1.00  0.00     0.074 A 
ATOM     39  C   UNL A   1      48.080  31.054  27.351  1.00  0.00     0.031 C 
ATOM     40  C   UNL A   1      45.769  31.537  28.104  1.00  0.00     0.037 A 
BRANCH  27  41
ATOM     41  C   UNL A   1      40.191  29.045  28.884  1.00  0.00     0.064 A 
ATOM     42  C   UNL A   1      39.236  29.324  27.896  1.00  0.00     0.173 A 
ATOM     43  C   UNL A   1      39.743  28.881  30.204  1.00  0.00     0.173 A 
ATOM     44  F   UNL A   1      39.613  29.495  26.621  1.00  0.00    -0.203 F 
ATOM     45  C   UNL A   1      37.885  29.432  28.219  1.00  0.00     0.198 A 
ATOM     46  C   UNL A   1      38.390  28.969  30.520  1.00  0.00     0.198 A 
ATOM     47  F   UNL A   1      40.617  28.606  31.184  1.00  0.00    -0.203 F 
ATOM     48  F   UNL A   1      36.989  29.715  27.263  1.00  0.00    -0.200 F 
ATOM     49  C   UNL A   1      37.462  29.244  29.528  1.00  0.00     0.200 A 
ATOM     50  F   UNL A   1      37.983  28.772  31.782  1.00  0.00    -0.200 F 
ATOM     51  F   UNL A   1      36.159  29.326  29.831  1.00  0.00    -0.200 F 
ENDBRANCH  27  41
BRANCH  28  52
ATOM     52  C   UNL A   1      49.628  27.342  26.065  1.00  0.00     0.064 A 
ATOM     53  C   UNL A   1      49.917  27.378  24.695  1.00  0.00     0.173 A 
ATOM     54  C   UNL A   1      50.684  27.068  26.948  1.00  0.00     0.173 A 
ATOM     55  F   UNL A   1      48.937  27.617  23.811  1.00  0.00    -0.203 F 
ATOM     56  C   UNL A   1      51.204  27.125  24.226  1.00  0.00     0.198 A 
ATOM     57  C   UNL A   1      51.976  26.849  26.480  1.00  0.00     0.198 A 
ATOM     58  F   UNL A   1      50.461  27.026  28.270  1.00  0.00    -0.203 F 
ATOM     59  F   UNL A   1      51.442  27.112  22.907  1.00  0.00    -0.200 F 
ATOM     60  C   UNL A   1      52.233  26.866  25.119  1.00  0.00     0.200 A 
ATOM     61  F   UNL A   1      52.971  26.617  27.348  1.00  0.00    -0.200 F 
ATOM     62  F   UNL A   1      53.471  26.623  24.666  1.00  0.00    -0.200 F 
ENDBRANCH  28  52
BRANCH  40  63
ATOM     63  C   UNL A   1      46.173  32.973  28.257  1.00  0.00     0.064 A 
ATOM     64  C   UNL A   1      46.735  33.447  29.452  1.00  0.00     0.173 A 
ATOM     65  C   UNL A   1      46.027  33.875  27.193  1.00  0.00     0.173 A 
ATOM     66  F   UNL A   1      46.875  32.627  30.504  1.00  0.00    -0.203 F 
ATOM     67  C   UNL A   1      47.119  34.778  29.582  1.00  0.00     0.198 A 
ATOM     68  C   UNL A   1      46.438  35.199  27.317  1.00  0.00     0.198 A 
ATOM     69  F   UNL A   1      45.497  33.469  26.030  1.00  0.00    -0.203 F 
ATOM     70  F   UNL A   1      47.610  35.221  30.747  1.00  0.00    -0.200 F 
ATOM     71  C   UNL A   1      46.978  35.650  28.512  1.00  0.00     0.200 A 
ATOM     72  F   UNL A   1      46.314  36.036  26.279  1.00  0.00    -0.200 F 
ATOM     73  F   UNL A   1      47.354  36.930  28.636  1.00  0.00    -0.200 F 
ENDBRANCH  40  63
ENDBRANCH  14  15
ENDBRANCH   7   9
ENDBRANCH   4   5
ENDBRANCH   3   4
ENDBRANCH   2   3
ENDBRANCH   1   2
BRANCH   1  74
ATOM     74  C   UNL A   1      37.382  23.717  26.340  1.00  0.00     0.021 C 
BRANCH  74  75
ATOM     75  C   UNL A   1      36.584  22.648  25.597  1.00  0.00     0.116 C 
BRANCH  75  76
ATOM     76  N   UNL A   1      35.691  21.959  26.501  1.00  0.00    -0.354 N 
ATOM     77  C   UNL A   1      34.342  22.102  26.670  1.00  0.00     0.250 C 
ATOM     78  H   UNL A   1      36.117  21.286  27.081  1.00  0.00     0.163 HD
ATOM     79  O   UNL A   1      33.816  21.447  27.572  1.00  0.00    -0.272 OA
BRANCH  77  80
ATOM     80  C   UNL A   1      33.552  23.039  25.741  1.00  0.00     0.226 C 
ATOM     81  C   UNL A   1      32.585  23.904  26.568  1.00  0.00     0.161 C 
ATOM     82  O   UNL A   1      32.825  22.261  24.772  1.00  0.00    -0.365 OA
ATOM     83  N   UNL A   1      31.722  24.725  25.707  1.00  0.00    -0.337 N 
ATOM     84  C   UNL A   1      32.075  23.097  23.886  1.00  0.00     0.183 C 
ATOM     85  C   UNL A   1      31.063  23.944  24.655  1.00  0.00     0.148 C 
BRANCH  83  86
ATOM     86  C   UNL A   1      31.057  25.877  26.147  1.00  0.00     0.229 C 
ATOM     87  O   UNL A   1      29.871  25.764  26.500  1.00  0.00    -0.274 OA
BRANCH  86  88
ATOM     88  C   UNL A   1      31.774  27.293  26.112  1.00  0.00     0.053 C 
ATOM     89  C   UNL A   1      31.446  28.199  27.350  1.00  0.00     0.017 C 
ATOM     90  C   UNL A   1      33.279  27.465  26.509  1.00  0.00     0.017 C 
ATOM     91  C   UNL A   1      32.888  28.727  27.302  1.00  0.00     0.002 C 
BRANCH  88  92
ATOM     92  C   UNL A   1      31.432  28.050  24.789  1.00  0.00     0.052 C 
BRANCH  92  93
ATOM     93  C   UNL A   1      31.915  27.341  23.540  1.00  0.00    -0.047 A 
ATOM     94  C   UNL A   1      30.989  26.939  22.564  1.00  0.00     0.004 A 
ATOM     95  C   UNL A   1      33.264  27.016  23.348  1.00  0.00     0.004 A 
ATOM     96  C   UNL A   1      31.403  26.240  21.426  1.00  0.00     0.000 A 
ATOM     97  C   UNL A   1      33.680  26.329  22.204  1.00  0.00     0.000 A 
ATOM     98  C   UNL A   1      32.749  25.939  21.245  1.00  0.00     0.000 A 
ENDBRANCH  92  93
ENDBRANCH  88  92
ENDBRANCH  86  88
ENDBRANCH  83  86
ENDBRANCH  77  80
ENDBRANCH  75  76
ENDBRANCH  74  75
ENDBRANCH   1  74
TORSDOF 17
ENDMDL
MODEL 3
REMARK VINA RESULT:     -11.9      1.094      1.965
REMARK SMILES O=C(NCCCCCCNC(=O)[C@@H]1CN(C(=O)C2(Cc3ccccc3)CCC2)CCO1)c1ccc(-c2c3nc(c(-c4c(F)c(F)c(F)c(F)c4F)c4ccc([nH]4)c(-c4c(F)c(F)c(F)c(F)c4F)c4nc(c(-c5c(F)c(F)c(F)c(F)c5F)c5ccc2[nH]5)C=C4)C=C3)cc1
REMARK SMILES IDX 7 1 6 2 5 3 4 4 3 5 1 6 2 7 32 9 33 10 94 11 34 12 93 13
REMARK SMILES IDX 35 14 36 15 37 16 87 17 38 18 92 19 86 20 88 21 39 22 91 23
REMARK SMILES IDX 85 24 84 25 40 27 72 28 52 29 71 30 53 31 56 32 70 33 89 34
REMARK SMILES IDX 54 35 55 36 69 38 90 39 57 40 41 41 42 42 50 43 43 44 44 45
REMARK SMILES IDX 48 46 51 47 45 48 46 49 49 50 47 51 73 52 74 53 82 54 75 55
REMARK SMILES IDX 76 56 80 57 83 58 77 59 78 60 81 61 79 62 58 63 59 64 67 65
REMARK SMILES IDX 60 66 61 67 65 68 68 69 62 70 63 71 66 72 64 73 8 74 9 75
REMARK SMILES IDX 10 76 11 77 12 79 13 80 14 81 31 82 15 83 30 84 29 85 16 86
REMARK SMILES IDX 17 87 18 88 26 89 28 90 27 91 19 92 20 93 21 94 25 95 22 96
REMARK SMILES IDX 24 97 23 98
REMARK H PARENT 3 8 88 26 56 37 10 78
REMARK Flexibility Score: inf
ROOT
ATOM      1  C   UNL A   1      38.948  23.435  26.845  1.00  0.00     0.002 C 
ENDROOT
BRANCH   1   2
ATOM      2  C   UNL A   1      39.462  22.360  25.880  1.00  0.00     0.002 C 
BRANCH   2   3
ATOM      3  C   UNL A   1      39.544  20.949  26.465  1.00  0.00     0.021 C 
BRANCH   3   4
ATOM      4  C   UNL A   1      39.797  19.856  25.434  1.00  0.00     0.116 C 
BRANCH   4   5
ATOM      5  N   UNL A   1      40.714  18.848  25.940  1.00  0.00    -0.352 N 
ATOM      6  O   UNL A   1      42.727  18.018  26.533  1.00  0.00    -0.269 OA
ATOM      7  C   UNL A   1      42.006  19.001  26.366  1.00  0.00     0.251 C 
ATOM      8  H   UNL A   1      40.357  17.931  25.982  1.00  0.00     0.163 HD
BRANCH   7   9
ATOM      9  C   UNL A   1      42.536  20.353  26.633  1.00  0.00     0.039 A 
ATOM     10  C   UNL A   1      43.033  21.136  25.586  1.00  0.00     0.014 A 
ATOM     11  C   UNL A   1      42.479  20.867  27.931  1.00  0.00     0.014 A 
ATOM     12  C   UNL A   1      43.543  22.402  25.849  1.00  0.00     0.010 A 
ATOM     13  C   UNL A   1      42.926  22.165  28.182  1.00  0.00     0.010 A 
ATOM     14  C   UNL A   1      43.458  22.943  27.142  1.00  0.00    -0.014 A 
BRANCH  14  15
ATOM     15  C   UNL A   1      43.788  24.372  27.354  1.00  0.00     0.031 A 
ATOM     16  C   UNL A   1      42.750  25.360  27.793  1.00  0.00     0.074 A 
ATOM     17  C   UNL A   1      45.055  24.769  27.117  1.00  0.00     0.049 A 
ATOM     18  N   UNL A   1      42.874  26.648  27.990  1.00  0.00    -0.248 NA
ATOM     19  C   UNL A   1      41.394  24.844  28.039  1.00  0.00     0.031 C 
ATOM     20  C   UNL A   1      46.136  23.892  26.659  1.00  0.00     0.029 A 
ATOM     21  N   UNL A   1      45.648  26.000  27.219  1.00  0.00    -0.354 N 
ATOM     22  C   UNL A   1      41.616  27.100  28.363  1.00  0.00     0.074 A 
ATOM     23  C   UNL A   1      40.735  25.952  28.355  1.00  0.00     0.031 C 
ATOM     24  C   UNL A   1      47.263  24.607  26.536  1.00  0.00     0.029 A 
ATOM     25  C   UNL A   1      46.970  26.001  26.844  1.00  0.00     0.049 A 
ATOM     26  H   UNL A   1      45.175  26.804  27.532  1.00  0.00     0.167 HD
ATOM     27  C   UNL A   1      41.242  28.362  28.683  1.00  0.00     0.037 A 
ATOM     28  C   UNL A   1      47.842  27.019  26.724  1.00  0.00     0.037 A 
ATOM     29  C   UNL A   1      42.137  29.492  28.708  1.00  0.00     0.049 A 
ATOM     30  C   UNL A   1      47.381  28.409  27.055  1.00  0.00     0.074 A 
ATOM     31  C   UNL A   1      41.873  30.789  29.109  1.00  0.00     0.029 A 
ATOM     32  N   UNL A   1      43.462  29.461  28.300  1.00  0.00    -0.354 N 
ATOM     33  N   UNL A   1      46.211  28.810  27.488  1.00  0.00    -0.248 NA
ATOM     34  C   UNL A   1      48.360  29.491  26.876  1.00  0.00     0.031 C 
ATOM     35  C   UNL A   1      43.020  31.558  28.886  1.00  0.00     0.029 A 
ATOM     36  C   UNL A   1      44.014  30.729  28.395  1.00  0.00     0.049 A 
ATOM     37  H   UNL A   1      43.940  28.658  27.990  1.00  0.00     0.167 HD
ATOM     38  C   UNL A   1      46.312  30.184  27.637  1.00  0.00     0.074 A 
ATOM     39  C   UNL A   1      47.668  30.547  27.281  1.00  0.00     0.031 C 
ATOM     40  C   UNL A   1      45.363  31.070  28.024  1.00  0.00     0.037 A 
BRANCH  27  41
ATOM     41  C   UNL A   1      39.803  28.615  29.023  1.00  0.00     0.064 A 
ATOM     42  C   UNL A   1      39.311  28.442  30.325  1.00  0.00     0.173 A 
ATOM     43  C   UNL A   1      38.933  29.144  28.056  1.00  0.00     0.173 A 
ATOM     44  F   UNL A   1      40.100  27.934  31.283  1.00  0.00    -0.203 F 
ATOM     45  C   UNL A   1      38.000  28.786  30.644  1.00  0.00     0.198 A 
ATOM     46  C   UNL A   1      37.630  29.507  28.385  1.00  0.00     0.198 A 
ATOM     47  F   UNL A   1      39.359  29.335  26.798  1.00  0.00    -0.203 F 
ATOM     48  F   UNL A   1      37.544  28.598  31.891  1.00  0.00    -0.200 F 
ATOM     49  C   UNL A   1      37.164  29.329  29.678  1.00  0.00     0.200 A 
ATOM     50  F   UNL A   1      36.831  30.044  27.453  1.00  0.00    -0.200 F 
ATOM     51  F   UNL A   1      35.911  29.681  29.995  1.00  0.00    -0.200 F 
ENDBRANCH  27  41
BRANCH  28  52
ATOM     52  C   UNL A   1      49.218  26.764  26.223  1.00  0.00     0.064 A 
ATOM     53  C   UNL A   1      50.245  26.373  27.092  1.00  0.00     0.173 A 
ATOM     54  C   UNL A   1      49.536  26.923  24.866  1.00  0.00     0.173 A 
ATOM     55  F   UNL A   1      49.994  26.225  28.401  1.00  0.00    -0.203 F 
ATOM     56  C   UNL A   1      51.542  26.174  26.626  1.00  0.00     0.198 A 
ATOM     57  C   UNL A   1      50.826  26.691  24.396  1.00  0.00     0.198 A 
ATOM     58  F   UNL A   1      48.589  27.293  23.992  1.00  0.00    -0.203 F 
ATOM     59  F   UNL A   1      52.518  25.852  27.487  1.00  0.00    -0.200 F 
ATOM     60  C   UNL A   1      51.831  26.328  25.278  1.00  0.00     0.200 A 
ATOM     61  F   UNL A   1      51.095  26.824  23.090  1.00  0.00    -0.200 F 
ATOM     62  F   UNL A   1      53.079  26.136  24.831  1.00  0.00    -0.200 F 
ENDBRANCH  28  52
BRANCH  40  63
ATOM     63  C   UNL A   1      45.763  32.515  28.080  1.00  0.00     0.064 A 
ATOM     64  C   UNL A   1      46.341  33.066  29.232  1.00  0.00     0.173 A 
ATOM     65  C   UNL A   1      45.597  33.346  26.963  1.00  0.00     0.173 A 
ATOM     66  F   UNL A   1      46.501  32.315  30.333  1.00  0.00    -0.203 F 
ATOM     67  C   UNL A   1      46.721  34.404  29.271  1.00  0.00     0.198 A 
ATOM     68  C   UNL A   1      46.004  34.677  26.995  1.00  0.00     0.198 A 
ATOM     69  F   UNL A   1      45.051  32.865  25.836  1.00  0.00    -0.203 F 
ATOM     70  F   UNL A   1      47.228  34.922  30.398  1.00  0.00    -0.200 F 
ATOM     71  C   UNL A   1      46.559  35.205  28.151  1.00  0.00     0.200 A 
ATOM     72  F   UNL A   1      45.859  35.446  25.908  1.00  0.00    -0.200 F 
ATOM     73  F   UNL A   1      46.932  36.492  28.188  1.00  0.00    -0.200 F 
ENDBRANCH  40  63
ENDBRANCH  14  15
ENDBRANCH   7   9
ENDBRANCH   4   5
ENDBRANCH   3   4
ENDBRANCH   2   3
ENDBRANCH   1   2
BRANCH   1  74
ATOM     74  C   UNL A   1      37.619  24.078  26.434  1.00  0.00     0.021 C 
BRANCH  74  75
ATOM     75  C   UNL A   1      36.651  23.117  25.748  1.00  0.00     0.116 C 
BRANCH  75  76
ATOM     76  N   UNL A   1      35.503  22.863  26.589  1.00  0.00    -0.354 N 
ATOM     77  C   UNL A   1      34.173  22.885  26.277  1.00  0.00     0.250 C 
ATOM     78  H   UNL A   1      35.710  22.640  27.526  1.00  0.00     0.163 HD
ATOM     79  O   UNL A   1      33.375  22.709  27.200  1.00  0.00    -0.272 OA
BRANCH  77  80
ATOM     80  C   UNL A   1      33.735  23.107  24.819  1.00  0.00     0.226 C 
ATOM     81  C   UNL A   1      33.400  24.592  24.593  1.00  0.00     0.161 C 
ATOM     82  O   UNL A   1      32.590  22.285  24.527  1.00  0.00    -0.365 OA
ATOM     83  N   UNL A   1      32.858  24.825  23.247  1.00  0.00    -0.337 N 
ATOM     84  C   UNL A   1      32.150  22.462  23.177  1.00  0.00     0.183 C 
ATOM     85  C   UNL A   1      31.758  23.915  22.912  1.00  0.00     0.148 C 
BRANCH  83  86
ATOM     86  C   UNL A   1      32.852  26.077  22.619  1.00  0.00     0.229 C 
ATOM     87  O   UNL A   1      33.653  26.264  21.688  1.00  0.00    -0.274 OA
BRANCH  86  88
ATOM     88  C   UNL A   1      31.912  27.245  23.141  1.00  0.00     0.053 C 
ATOM     89  C   UNL A   1      30.653  27.494  22.238  1.00  0.00     0.017 C 
ATOM     90  C   UNL A   1      30.902  27.025  24.319  1.00  0.00     0.017 C 
ATOM     91  C   UNL A   1      29.846  27.803  23.510  1.00  0.00     0.002 C 
BRANCH  88  92
ATOM     92  C   UNL A   1      32.722  28.569  23.311  1.00  0.00     0.052 C 
BRANCH  92  93
ATOM     93  C   UNL A   1      32.954  28.961  24.756  1.00  0.00    -0.047 A 
ATOM     94  C   UNL A   1      33.892  28.255  25.527  1.00  0.00     0.004 A 
ATOM     95  C   UNL A   1      32.215  29.976  25.376  1.00  0.00     0.004 A 
ATOM     96  C   UNL A   1      34.090  28.563  26.876  1.00  0.00     0.000 A 
ATOM     97  C   UNL A   1      32.422  30.293  26.722  1.00  0.00     0.000 A 
ATOM     98  C   UNL A   1      33.357  29.585  27.471  1.00  0.00     0.000 A 
ENDBRANCH  92  93
ENDBRANCH  88  92
ENDBRANCH  86  88
ENDBRANCH  83  86
ENDBRANCH  77  80
ENDBRANCH  75  76
ENDBRANCH  74  75
ENDBRANCH   1  74
TORSDOF 17
ENDMDL
