MODEL 1
REMARK VINA RESULT:     -12.8      0.000      0.000
REMARK SMILES O=C(NCCCCCCNC(=O)c1ccc(-c2c3nc(c(-c4c(F)c(F)c(F)c(F)c4F)c4ccc([nH]4)c(-c4c(F)c(F)c(F)c(F)c4F)c4nc(c(-c5c(F)c(F)c(F)c(F)c5F)c5ccc2[nH]5)C=C4)C=C3)cc1)C1=Cc2cc(OC(F)(F)F)ccc2O[C@@H]1C(F)(F)F
REMARK SMILES IDX 6 1 5 2 4 3 3 4 1 5 2 6 76 8 77 9 90 10 78 11 89 12 79 13
REMARK SMILES IDX 88 14 80 15 87 16 86 17 91 18 92 19 93 20 94 21 81 22 82 23
REMARK SMILES IDX 83 24 84 25 85 26 7 27 8 28 9 29 10 30 11 31 12 33 13 34
REMARK SMILES IDX 14 35 75 36 15 37 74 38 16 39 17 40 18 41 68 42 19 43 73 44
REMARK SMILES IDX 67 45 69 46 20 47 72 48 66 49 65 50 21 52 53 53 33 54 52 55
REMARK SMILES IDX 34 56 37 57 51 58 70 59 35 60 36 61 50 63 71 64 38 65 22 66
REMARK SMILES IDX 23 67 31 68 24 69 25 70 29 71 32 72 26 73 27 74 30 75 28 76
REMARK SMILES IDX 54 77 55 78 63 79 56 80 57 81 61 82 64 83 58 84 59 85 62 86
REMARK SMILES IDX 60 87 39 88 40 89 48 90 41 91 42 92 46 93 49 94 43 95 44 96
REMARK SMILES IDX 47 97 45 98
REMARK H PARENT 3 7 10 32 69 51 37 62
REMARK Flexibility Score: inf
ROOT
ATOM      1  C   UNL A   1      32.189  29.489  27.109  1.00  0.00     0.002 C 
ENDROOT
BRANCH   1   2
ATOM      2  C   UNL A   1      31.509  28.171  27.474  1.00  0.00     0.021 C 
BRANCH   2   3
ATOM      3  C   UNL A   1      31.896  26.964  26.629  1.00  0.00     0.116 C 
BRANCH   3   4
ATOM      4  N   UNL A   1      31.139  25.752  26.887  1.00  0.00    -0.352 N 
ATOM      5  O   UNL A   1      30.777  23.547  27.122  1.00  0.00    -0.270 OA
ATOM      6  C   UNL A   1      31.481  24.446  26.664  1.00  0.00     0.251 C 
ATOM      7  H   UNL A   1      30.247  25.891  27.280  1.00  0.00     0.163 HD
BRANCH   6   8
ATOM      8  C   UNL A   1      32.744  24.062  25.965  1.00  0.00     0.067 C 
ATOM      9  C   UNL A   1      33.419  22.945  26.289  1.00  0.00     0.025 C 
ATOM     10  C   UNL A   1      32.810  24.583  24.548  1.00  0.00     0.314 C 
ATOM     11  C   UNL A   1      33.327  21.921  25.217  1.00  0.00     0.021 A 
ATOM     12  O   UNL A   1      32.490  23.540  23.587  1.00  0.00    -0.475 OA
ATOM     13  C   UNL A   1      33.519  20.575  25.560  1.00  0.00     0.058 A 
ATOM     14  C   UNL A   1      32.750  22.252  23.982  1.00  0.00     0.128 A 
ATOM     15  C   UNL A   1      33.026  19.561  24.733  1.00  0.00     0.130 A 
ATOM     16  C   UNL A   1      32.287  21.241  23.145  1.00  0.00     0.051 A 
ATOM     17  C   UNL A   1      32.400  19.898  23.531  1.00  0.00     0.050 A 
BRANCH  10  18
ATOM     18  C   UNL A   1      34.160  25.250  24.238  1.00  0.00     0.429 C 
ATOM     19  F   UNL A   1      35.035  24.367  23.701  1.00  0.00    -0.167 F 
ATOM     20  F   UNL A   1      34.026  26.261  23.345  1.00  0.00    -0.167 F 
ATOM     21  F   UNL A   1      34.745  25.773  25.342  1.00  0.00    -0.167 F 
ENDBRANCH  10  18
BRANCH  15  22
ATOM     22  O   UNL A   1      33.244  18.287  25.177  1.00  0.00    -0.406 OA
BRANCH  22  23
ATOM     23  C   UNL A   1      34.259  17.546  24.517  1.00  0.00     0.573 C 
ATOM     24  F   UNL A   1      33.849  17.163  23.287  1.00  0.00    -0.132 F 
ATOM     25  F   UNL A   1      35.409  18.242  24.408  1.00  0.00    -0.132 F 
ATOM     26  F   UNL A   1      34.515  16.427  25.232  1.00  0.00    -0.132 F 
ENDBRANCH  22  23
ENDBRANCH  15  22
ENDBRANCH   6   8
ENDBRANCH   3   4
ENDBRANCH   2   3
ENDBRANCH   1   2
BRANCH   1  27
ATOM     27  C   UNL A   1      31.455  30.386  26.103  1.00  0.00     0.002 C 
BRANCH  27  28
ATOM     28  C   UNL A   1      31.356  31.875  26.444  1.00  0.00     0.021 C 
BRANCH  28  29
ATOM     29  C   UNL A   1      32.588  32.508  27.084  1.00  0.00     0.116 C 
BRANCH  29  30
ATOM     30  N   UNL A   1      32.374  33.873  27.524  1.00  0.00    -0.352 N 
ATOM     31  C   UNL A   1      33.038  34.604  28.480  1.00  0.00     0.251 C 
ATOM     32  H   UNL A   1      31.641  34.348  27.070  1.00  0.00     0.163 HD
ATOM     33  O   UNL A   1      32.625  35.715  28.789  1.00  0.00    -0.269 OA
BRANCH  31  34
ATOM     34  C   UNL A   1      34.233  34.053  29.163  1.00  0.00     0.039 A 
ATOM     35  C   UNL A   1      34.040  33.114  30.181  1.00  0.00     0.014 A 
ATOM     36  C   UNL A   1      35.528  34.473  28.844  1.00  0.00     0.014 A 
ATOM     37  C   UNL A   1      35.141  32.562  30.842  1.00  0.00     0.010 A 
ATOM     38  C   UNL A   1      36.629  33.871  29.456  1.00  0.00     0.010 A 
ATOM     39  C   UNL A   1      36.447  32.914  30.468  1.00  0.00    -0.014 A 
BRANCH  39  40
ATOM     40  C   UNL A   1      37.624  32.292  31.132  1.00  0.00     0.031 A 
ATOM     41  C   UNL A   1      38.410  31.213  30.440  1.00  0.00     0.074 A 
ATOM     42  C   UNL A   1      37.967  32.676  32.378  1.00  0.00     0.049 A 
ATOM     43  N   UNL A   1      39.453  30.544  30.865  1.00  0.00    -0.248 NA
ATOM     44  C   UNL A   1      37.954  30.819  29.099  1.00  0.00     0.031 C 
ATOM     45  C   UNL A   1      37.268  33.686  33.171  1.00  0.00     0.029 A 
ATOM     46  N   UNL A   1      38.989  32.260  33.195  1.00  0.00    -0.354 N 
ATOM     47  C   UNL A   1      39.764  29.643  29.854  1.00  0.00     0.074 A 
ATOM     48  C   UNL A   1      38.771  29.816  28.817  1.00  0.00     0.031 C 
ATOM     49  C   UNL A   1      37.898  33.836  34.347  1.00  0.00     0.029 A 
ATOM     50  C   UNL A   1      39.020  32.903  34.409  1.00  0.00     0.049 A 
ATOM     51  H   UNL A   1      39.638  31.566  32.936  1.00  0.00     0.167 HD
ATOM     52  C   UNL A   1      40.795  28.766  29.789  1.00  0.00     0.037 A 
ATOM     53  C   UNL A   1      39.856  32.756  35.455  1.00  0.00     0.037 A 
ATOM     54  C   UNL A   1      41.794  28.609  30.816  1.00  0.00     0.049 A 
ATOM     55  C   UNL A   1      40.978  31.755  35.366  1.00  0.00     0.074 A 
ATOM     56  C   UNL A   1      42.916  27.798  30.812  1.00  0.00     0.029 A 
ATOM     57  N   UNL A   1      41.784  29.269  32.036  1.00  0.00    -0.354 N 
ATOM     58  N   UNL A   1      41.309  30.966  34.374  1.00  0.00    -0.248 NA
ATOM     59  C   UNL A   1      41.843  31.628  36.548  1.00  0.00     0.031 C 
ATOM     60  C   UNL A   1      43.547  27.917  32.053  1.00  0.00     0.029 A 
ATOM     61  C   UNL A   1      42.859  28.854  32.807  1.00  0.00     0.049 A 
ATOM     62  H   UNL A   1      41.113  29.933  32.314  1.00  0.00     0.167 HD
ATOM     63  C   UNL A   1      42.438  30.276  34.795  1.00  0.00     0.074 A 
ATOM     64  C   UNL A   1      42.743  30.749  36.129  1.00  0.00     0.031 C 
ATOM     65  C   UNL A   1      43.158  29.336  34.133  1.00  0.00     0.037 A 
BRANCH  52  66
ATOM     66  C   UNL A   1      40.891  27.893  28.569  1.00  0.00     0.064 A 
ATOM     67  C   UNL A   1      40.212  26.668  28.478  1.00  0.00     0.173 A 
ATOM     68  C   UNL A   1      41.648  28.303  27.460  1.00  0.00     0.173 A 
ATOM     69  F   UNL A   1      39.479  26.223  29.511  1.00  0.00    -0.203 F 
ATOM     70  C   UNL A   1      40.316  25.871  27.341  1.00  0.00     0.198 A 
ATOM     71  C   UNL A   1      41.722  27.520  26.311  1.00  0.00     0.198 A 
ATOM     72  F   UNL A   1      42.311  29.469  27.488  1.00  0.00    -0.203 F 
ATOM     73  F   UNL A   1      39.705  24.679  27.302  1.00  0.00    -0.200 F 
ATOM     74  C   UNL A   1      41.065  26.300  26.256  1.00  0.00     0.200 A 
ATOM     75  F   UNL A   1      42.432  27.945  25.258  1.00  0.00    -0.200 F 
ATOM     76  F   UNL A   1      41.160  25.536  25.160  1.00  0.00    -0.200 F 
ENDBRANCH  52  66
BRANCH  53  77
ATOM     77  C   UNL A   1      39.683  33.596  36.669  1.00  0.00     0.064 A 
ATOM     78  C   UNL A   1      38.848  33.181  37.716  1.00  0.00     0.173 A 
ATOM     79  C   UNL A   1      40.339  34.829  36.806  1.00  0.00     0.173 A 
ATOM     80  F   UNL A   1      38.182  32.021  37.622  1.00  0.00    -0.203 F 
ATOM     81  C   UNL A   1      38.659  33.976  38.845  1.00  0.00     0.198 A 
ATOM     82  C   UNL A   1      40.174  35.607  37.950  1.00  0.00     0.198 A 
ATOM     83  F   UNL A   1      41.150  35.270  35.836  1.00  0.00    -0.203 F 
ATOM     84  F   UNL A   1      37.819  33.577  39.809  1.00  0.00    -0.200 F 
ATOM     85  C   UNL A   1      39.328  35.185  38.964  1.00  0.00     0.200 A 
ATOM     86  F   UNL A   1      40.833  36.768  38.068  1.00  0.00    -0.200 F 
ATOM     87  F   UNL A   1      39.151  35.946  40.053  1.00  0.00    -0.200 F 
ENDBRANCH  53  77
BRANCH  65  88
ATOM     88  C   UNL A   1      44.373  28.783  34.824  1.00  0.00     0.064 A 
ATOM     89  C   UNL A   1      44.324  27.596  35.570  1.00  0.00     0.173 A 
ATOM     90  C   UNL A   1      45.613  29.430  34.703  1.00  0.00     0.173 A 
ATOM     91  F   UNL A   1      43.163  26.944  35.729  1.00  0.00    -0.203 F 
ATOM     92  C   UNL A   1      45.465  27.095  36.194  1.00  0.00     0.198 A 
ATOM     93  C   UNL A   1      46.758  28.908  35.300  1.00  0.00     0.198 A 
ATOM     94  F   UNL A   1      45.718  30.565  33.995  1.00  0.00    -0.203 F 
ATOM     95  F   UNL A   1      45.383  25.989  36.948  1.00  0.00    -0.200 F 
ATOM     96  C   UNL A   1      46.681  27.747  36.052  1.00  0.00     0.200 A 
ATOM     97  F   UNL A   1      47.935  29.530  35.146  1.00  0.00    -0.200 F 
ATOM     98  F   UNL A   1      47.779  27.257  36.646  1.00  0.00    -0.200 F 
ENDBRANCH  65  88
ENDBRANCH  39  40
ENDBRANCH  31  34
ENDBRANCH  29  30
ENDBRANCH  28  29
ENDBRANCH  27  28
ENDBRANCH   1  27
TORSDOF 16
ENDMDL
MODEL 2
REMARK VINA RESULT:     -12.6      1.981      7.707
REMARK SMILES O=C(NCCCCCCNC(=O)c1ccc(-c2c3nc(c(-c4c(F)c(F)c(F)c(F)c4F)c4ccc([nH]4)c(-c4c(F)c(F)c(F)c(F)c4F)c4nc(c(-c5c(F)c(F)c(F)c(F)c5F)c5ccc2[nH]5)C=C4)C=C3)cc1)C1=Cc2cc(OC(F)(F)F)ccc2O[C@@H]1C(F)(F)F
REMARK SMILES IDX 6 1 5 2 4 3 3 4 1 5 2 6 76 8 77 9 90 10 78 11 89 12 79 13
REMARK SMILES IDX 88 14 80 15 87 16 86 17 91 18 92 19 93 20 94 21 81 22 82 23
REMARK SMILES IDX 83 24 84 25 85 26 7 27 8 28 9 29 10 30 11 31 12 33 13 34
REMARK SMILES IDX 14 35 75 36 15 37 74 38 16 39 17 40 18 41 68 42 19 43 73 44
REMARK SMILES IDX 67 45 69 46 20 47 72 48 66 49 65 50 21 52 53 53 33 54 52 55
REMARK SMILES IDX 34 56 37 57 51 58 70 59 35 60 36 61 50 63 71 64 38 65 22 66
REMARK SMILES IDX 23 67 31 68 24 69 25 70 29 71 32 72 26 73 27 74 30 75 28 76
REMARK SMILES IDX 54 77 55 78 63 79 56 80 57 81 61 82 64 83 58 84 59 85 62 86
REMARK SMILES IDX 60 87 39 88 40 89 48 90 41 91 42 92 46 93 49 94 43 95 44 96
REMARK SMILES IDX 47 97 45 98
REMARK H PARENT 3 7 10 32 69 51 37 62
REMARK Flexibility Score: inf
ROOT
ATOM      1  C   UNL A   1      33.191  27.579  22.367  1.00  0.00     0.002 C 
ENDROOT
BRANCH   1   2
ATOM      2  C   UNL A   1      31.681  27.353  22.379  1.00  0.00     0.021 C 
BRANCH   2   3
ATOM      3  C   UNL A   1      31.208  25.980  21.917  1.00  0.00     0.116 C 
BRANCH   3   4
ATOM      4  N   UNL A   1      32.245  25.101  21.409  1.00  0.00    -0.352 N 
ATOM      5  O   UNL A   1      33.650  23.347  21.395  1.00  0.00    -0.270 OA
ATOM      6  C   UNL A   1      32.938  24.109  22.049  1.00  0.00     0.251 C 
ATOM      7  H   UNL A   1      32.486  25.239  20.464  1.00  0.00     0.163 HD
BRANCH   6   8
ATOM      8  C   UNL A   1      32.785  23.847  23.511  1.00  0.00     0.067 C 
ATOM      9  C   UNL A   1      32.160  22.747  23.970  1.00  0.00     0.025 C 
ATOM     10  C   UNL A   1      33.884  24.474  24.337  1.00  0.00     0.314 C 
ATOM     11  C   UNL A   1      33.115  21.801  24.602  1.00  0.00     0.021 A 
ATOM     12  O   UNL A   1      34.881  23.488  24.721  1.00  0.00    -0.475 OA
ATOM     13  C   UNL A   1      32.762  20.447  24.678  1.00  0.00     0.058 A 
ATOM     14  C   UNL A   1      34.445  22.190  24.817  1.00  0.00     0.128 A 
ATOM     15  C   UNL A   1      33.750  19.470  24.842  1.00  0.00     0.130 A 
ATOM     16  C   UNL A   1      35.424  21.220  25.012  1.00  0.00     0.051 A 
ATOM     17  C   UNL A   1      35.082  19.861  24.998  1.00  0.00     0.050 A 
BRANCH  10  18
ATOM     18  C   UNL A   1      33.333  25.234  25.554  1.00  0.00     0.429 C 
ATOM     19  F   UNL A   1      33.172  24.412  26.617  1.00  0.00    -0.167 F 
ATOM     20  F   UNL A   1      34.172  26.224  25.947  1.00  0.00    -0.167 F 
ATOM     21  F   UNL A   1      32.132  25.809  25.305  1.00  0.00    -0.167 F 
ENDBRANCH  10  18
BRANCH  15  22
ATOM     22  O   UNL A   1      33.299  18.181  24.874  1.00  0.00    -0.406 OA
BRANCH  22  23
ATOM     23  C   UNL A   1      33.560  17.385  23.728  1.00  0.00     0.573 C 
ATOM     24  F   UNL A   1      33.104  17.992  22.609  1.00  0.00    -0.132 F 
ATOM     25  F   UNL A   1      34.873  17.114  23.586  1.00  0.00    -0.132 F 
ATOM     26  F   UNL A   1      32.903  16.210  23.856  1.00  0.00    -0.132 F 
ENDBRANCH  22  23
ENDBRANCH  15  22
ENDBRANCH   6   8
ENDBRANCH   3   4
ENDBRANCH   2   3
ENDBRANCH   1   2
BRANCH   1  27
ATOM     27  C   UNL A   1      33.760  28.482  23.470  1.00  0.00     0.002 C 
BRANCH  27  28
ATOM     28  C   UNL A   1      32.750  29.246  24.331  1.00  0.00     0.021 C 
BRANCH  28  29
ATOM     29  C   UNL A   1      33.146  29.489  25.785  1.00  0.00     0.116 C 
BRANCH  29  30
ATOM     30  N   UNL A   1      32.832  30.825  26.254  1.00  0.00    -0.352 N 
ATOM     31  C   UNL A   1      33.430  31.576  27.237  1.00  0.00     0.251 C 
ATOM     32  H   UNL A   1      32.074  31.259  25.799  1.00  0.00     0.163 HD
ATOM     33  O   UNL A   1      32.937  32.649  27.566  1.00  0.00    -0.269 OA
BRANCH  31  34
ATOM     34  C   UNL A   1      34.650  31.092  27.925  1.00  0.00     0.039 A 
ATOM     35  C   UNL A   1      35.719  31.980  28.082  1.00  0.00     0.014 A 
ATOM     36  C   UNL A   1      34.771  29.776  28.382  1.00  0.00     0.014 A 
ATOM     37  C   UNL A   1      36.884  31.567  28.735  1.00  0.00     0.010 A 
ATOM     38  C   UNL A   1      35.905  29.385  29.095  1.00  0.00     0.010 A 
ATOM     39  C   UNL A   1      36.978  30.274  29.273  1.00  0.00    -0.014 A 
BRANCH  39  40
ATOM     40  C   UNL A   1      38.194  29.844  30.014  1.00  0.00     0.031 A 
ATOM     41  C   UNL A   1      38.457  30.348  31.406  1.00  0.00     0.074 A 
ATOM     42  C   UNL A   1      39.081  29.022  29.420  1.00  0.00     0.049 A 
ATOM     43  N   UNL A   1      39.468  30.098  32.202  1.00  0.00    -0.248 NA
ATOM     44  C   UNL A   1      37.464  31.272  31.975  1.00  0.00     0.031 C 
ATOM     45  C   UNL A   1      38.960  28.490  28.064  1.00  0.00     0.029 A 
ATOM     46  N   UNL A   1      40.262  28.494  29.882  1.00  0.00    -0.354 N 
ATOM     47  C   UNL A   1      39.240  30.843  33.352  1.00  0.00     0.074 A 
ATOM     48  C   UNL A   1      38.022  31.593  33.132  1.00  0.00     0.031 C 
ATOM     49  C   UNL A   1      40.006  27.685  27.813  1.00  0.00     0.029 A 
ATOM     50  C   UNL A   1      40.892  27.678  28.973  1.00  0.00     0.049 A 
ATOM     51  H   UNL A   1      40.623  28.682  30.778  1.00  0.00     0.167 HD
ATOM     52  C   UNL A   1      39.968  30.884  34.494  1.00  0.00     0.037 A 
ATOM     53  C   UNL A   1      42.054  27.003  29.063  1.00  0.00     0.037 A 
ATOM     54  C   UNL A   1      41.171  30.121  34.717  1.00  0.00     0.049 A 
ATOM     55  C   UNL A   1      42.858  27.086  30.334  1.00  0.00     0.074 A 
ATOM     56  C   UNL A   1      41.941  30.040  35.864  1.00  0.00     0.029 A 
ATOM     57  N   UNL A   1      41.784  29.316  33.768  1.00  0.00    -0.354 N 
ATOM     58  N   UNL A   1      42.591  27.731  31.443  1.00  0.00    -0.248 NA
ATOM     59  C   UNL A   1      44.125  26.342  30.363  1.00  0.00     0.031 C 
ATOM     60  C   UNL A   1      43.054  29.241  35.590  1.00  0.00     0.029 A 
ATOM     61  C   UNL A   1      42.944  28.766  34.293  1.00  0.00     0.049 A 
ATOM     62  H   UNL A   1      41.447  29.159  32.857  1.00  0.00     0.167 HD
ATOM     63  C   UNL A   1      43.636  27.444  32.312  1.00  0.00     0.074 A 
ATOM     64  C   UNL A   1      44.535  26.556  31.606  1.00  0.00     0.031 C 
ATOM     65  C   UNL A   1      43.830  27.878  33.583  1.00  0.00     0.037 A 
BRANCH  52  66
ATOM     66  C   UNL A   1      39.494  31.795  35.591  1.00  0.00     0.064 A 
ATOM     67  C   UNL A   1      39.939  33.122  35.697  1.00  0.00     0.173 A 
ATOM     68  C   UNL A   1      38.555  31.344  36.532  1.00  0.00     0.173 A 
ATOM     69  F   UNL A   1      40.842  33.604  34.829  1.00  0.00    -0.203 F 
ATOM     70  C   UNL A   1      39.490  33.950  36.724  1.00  0.00     0.198 A 
ATOM     71  C   UNL A   1      38.083  32.185  37.537  1.00  0.00     0.198 A 
ATOM     72  F   UNL A   1      38.089  30.087  36.474  1.00  0.00    -0.203 F 
ATOM     73  F   UNL A   1      39.974  35.194  36.838  1.00  0.00    -0.200 F 
ATOM     74  C   UNL A   1      38.558  33.484  37.638  1.00  0.00     0.200 A 
ATOM     75  F   UNL A   1      37.169  31.738  38.408  1.00  0.00    -0.200 F 
ATOM     76  F   UNL A   1      38.123  34.282  38.621  1.00  0.00    -0.200 F 
ENDBRANCH  52  66
BRANCH  53  77
ATOM     77  C   UNL A   1      42.517  26.165  27.926  1.00  0.00     0.064 A 
ATOM     78  C   UNL A   1      43.441  26.663  26.996  1.00  0.00     0.173 A 
ATOM     79  C   UNL A   1      42.046  24.857  27.740  1.00  0.00     0.173 A 
ATOM     80  F   UNL A   1      43.904  27.917  27.118  1.00  0.00    -0.203 F 
ATOM     81  C   UNL A   1      43.859  25.894  25.912  1.00  0.00     0.198 A 
ATOM     82  C   UNL A   1      42.489  24.077  26.673  1.00  0.00     0.198 A 
ATOM     83  F   UNL A   1      41.164  24.331  28.602  1.00  0.00    -0.203 F 
ATOM     84  F   UNL A   1      44.705  26.412  25.012  1.00  0.00    -0.200 F 
ATOM     85  C   UNL A   1      43.388  24.599  25.756  1.00  0.00     0.200 A 
ATOM     86  F   UNL A   1      42.044  22.821  26.534  1.00  0.00    -0.200 F 
ATOM     87  F   UNL A   1      43.795  23.857  24.717  1.00  0.00    -0.200 F 
ENDBRANCH  53  77
BRANCH  65  88
ATOM     88  C   UNL A   1      45.042  27.366  34.309  1.00  0.00     0.064 A 
ATOM     89  C   UNL A   1      46.262  28.060  34.296  1.00  0.00     0.173 A 
ATOM     90  C   UNL A   1      44.970  26.184  35.064  1.00  0.00     0.173 A 
ATOM     91  F   UNL A   1      46.390  29.187  33.580  1.00  0.00    -0.203 F 
ATOM     92  C   UNL A   1      47.370  27.573  34.985  1.00  0.00     0.198 A 
ATOM     93  C   UNL A   1      46.070  25.719  35.779  1.00  0.00     0.198 A 
ATOM     94  F   UNL A   1      43.826  25.485  35.118  1.00  0.00    -0.203 F 
ATOM     95  F   UNL A   1      48.540  28.224  34.912  1.00  0.00    -0.200 F 
ATOM     96  C   UNL A   1      47.271  26.409  35.732  1.00  0.00     0.200 A 
ATOM     97  F   UNL A   1      45.967  24.603  36.514  1.00  0.00    -0.200 F 
ATOM     98  F   UNL A   1      48.338  25.948  36.401  1.00  0.00    -0.200 F 
ENDBRANCH  65  88
ENDBRANCH  39  40
ENDBRANCH  31  34
ENDBRANCH  29  30
ENDBRANCH  28  29
ENDBRANCH  27  28
ENDBRANCH   1  27
TORSDOF 16
ENDMDL
MODEL 3
REMARK VINA RESULT:     -12.6      1.764      3.879
REMARK SMILES O=C(NCCCCCCNC(=O)c1ccc(-c2c3nc(c(-c4c(F)c(F)c(F)c(F)c4F)c4ccc([nH]4)c(-c4c(F)c(F)c(F)c(F)c4F)c4nc(c(-c5c(F)c(F)c(F)c(F)c5F)c5ccc2[nH]5)C=C4)C=C3)cc1)C1=Cc2cc(OC(F)(F)F)ccc2O[C@@H]1C(F)(F)F
REMARK SMILES IDX 6 1 5 2 4 3 3 4 1 5 2 6 76 8 77 9 90 10 78 11 89 12 79 13
REMARK SMILES IDX 88 14 80 15 87 16 86 17 91 18 92 19 93 20 94 21 81 22 82 23
REMARK SMILES IDX 83 24 84 25 85 26 7 27 8 28 9 29 10 30 11 31 12 33 13 34
REMARK SMILES IDX 14 35 75 36 15 37 74 38 16 39 17 40 18 41 68 42 19 43 73 44
REMARK SMILES IDX 67 45 69 46 20 47 72 48 66 49 65 50 21 52 53 53 33 54 52 55
REMARK SMILES IDX 34 56 37 57 51 58 70 59 35 60 36 61 50 63 71 64 38 65 22 66
REMARK SMILES IDX 23 67 31 68 24 69 25 70 29 71 32 72 26 73 27 74 30 75 28 76
REMARK SMILES IDX 54 77 55 78 63 79 56 80 57 81 61 82 64 83 58 84 59 85 62 86
REMARK SMILES IDX 60 87 39 88 40 89 48 90 41 91 42 92 46 93 49 94 43 95 44 96
REMARK SMILES IDX 47 97 45 98
REMARK H PARENT 3 7 10 32 69 51 37 62
REMARK Flexibility Score: inf
ROOT
ATOM      1  C   UNL A   1      32.237  29.424  26.867  1.00  0.00     0.002 C 
ENDROOT
BRANCH   1   2
ATOM      2  C   UNL A   1      31.456  28.215  27.379  1.00  0.00     0.021 C 
BRANCH   2   3
ATOM      3  C   UNL A   1      31.189  27.113  26.362  1.00  0.00     0.116 C 
BRANCH   3   4
ATOM      4  N   UNL A   1      31.259  25.758  26.876  1.00  0.00    -0.352 N 
ATOM      5  O   UNL A   1      31.851  23.591  26.931  1.00  0.00    -0.270 OA
ATOM      6  C   UNL A   1      31.696  24.613  26.265  1.00  0.00     0.251 C 
ATOM      7  H   UNL A   1      30.943  25.644  27.802  1.00  0.00     0.163 HD
BRANCH   6   8
ATOM      8  C   UNL A   1      32.094  24.583  24.826  1.00  0.00     0.067 C 
ATOM      9  C   UNL A   1      31.247  24.961  23.851  1.00  0.00     0.025 C 
ATOM     10  C   UNL A   1      33.581  24.761  24.626  1.00  0.00     0.314 C 
ATOM     11  C   UNL A   1      31.669  26.242  23.228  1.00  0.00     0.021 A 
ATOM     12  O   UNL A   1      33.900  26.121  24.222  1.00  0.00    -0.475 OA
ATOM     13  C   UNL A   1      30.699  27.022  22.583  1.00  0.00     0.058 A 
ATOM     14  C   UNL A   1      32.912  26.802  23.555  1.00  0.00     0.128 A 
ATOM     15  C   UNL A   1      30.918  28.387  22.376  1.00  0.00     0.130 A 
ATOM     16  C   UNL A   1      33.142  28.154  23.320  1.00  0.00     0.051 A 
ATOM     17  C   UNL A   1      32.138  28.953  22.756  1.00  0.00     0.050 A 
BRANCH  10  18
ATOM     18  C   UNL A   1      34.163  23.724  23.651  1.00  0.00     0.429 C 
ATOM     19  F   UNL A   1      35.509  23.834  23.561  1.00  0.00    -0.167 F 
ATOM     20  F   UNL A   1      33.898  22.456  24.052  1.00  0.00    -0.167 F 
ATOM     21  F   UNL A   1      33.665  23.855  22.398  1.00  0.00    -0.167 F 
ENDBRANCH  10  18
BRANCH  15  22
ATOM     22  O   UNL A   1      29.897  29.057  21.764  1.00  0.00    -0.406 OA
BRANCH  22  23
ATOM     23  C   UNL A   1      28.899  29.610  22.610  1.00  0.00     0.573 C 
ATOM     24  F   UNL A   1      28.310  28.645  23.350  1.00  0.00    -0.132 F 
ATOM     25  F   UNL A   1      29.397  30.560  23.428  1.00  0.00    -0.132 F 
ATOM     26  F   UNL A   1      27.944  30.181  21.841  1.00  0.00    -0.132 F 
ENDBRANCH  22  23
ENDBRANCH  15  22
ENDBRANCH   6   8
ENDBRANCH   3   4
ENDBRANCH   2   3
ENDBRANCH   1   2
BRANCH   1  27
ATOM     27  C   UNL A   1      31.470  30.408  25.974  1.00  0.00     0.002 C 
BRANCH  27  28
ATOM     28  C   UNL A   1      31.298  31.836  26.501  1.00  0.00     0.021 C 
BRANCH  28  29
ATOM     29  C   UNL A   1      32.568  32.548  26.955  1.00  0.00     0.116 C 
BRANCH  29  30
ATOM     30  N   UNL A   1      32.336  33.900  27.427  1.00  0.00    -0.352 N 
ATOM     31  C   UNL A   1      32.967  34.605  28.423  1.00  0.00     0.251 C 
ATOM     32  H   UNL A   1      31.615  34.385  26.964  1.00  0.00     0.163 HD
ATOM     33  O   UNL A   1      32.541  35.706  28.751  1.00  0.00    -0.269 OA
BRANCH  31  34
ATOM     34  C   UNL A   1      34.142  34.039  29.127  1.00  0.00     0.039 A 
ATOM     35  C   UNL A   1      33.918  33.123  30.160  1.00  0.00     0.014 A 
ATOM     36  C   UNL A   1      35.449  34.422  28.812  1.00  0.00     0.014 A 
ATOM     37  C   UNL A   1      35.000  32.558  30.841  1.00  0.00     0.010 A 
ATOM     38  C   UNL A   1      36.530  33.805  29.445  1.00  0.00     0.010 A 
ATOM     39  C   UNL A   1      36.317  32.872  30.472  1.00  0.00    -0.014 A 
BRANCH  39  40
ATOM     40  C   UNL A   1      37.473  32.234  31.159  1.00  0.00     0.031 A 
ATOM     41  C   UNL A   1      38.233  31.118  30.497  1.00  0.00     0.074 A 
ATOM     42  C   UNL A   1      37.820  32.639  32.397  1.00  0.00     0.049 A 
ATOM     43  N   UNL A   1      39.255  30.431  30.945  1.00  0.00    -0.248 NA
ATOM     44  C   UNL A   1      37.773  30.704  29.163  1.00  0.00     0.031 C 
ATOM     45  C   UNL A   1      37.144  33.687  33.161  1.00  0.00     0.029 A 
ATOM     46  N   UNL A   1      38.826  32.215  33.229  1.00  0.00    -0.354 N 
ATOM     47  C   UNL A   1      39.547  29.498  29.958  1.00  0.00     0.074 A 
ATOM     48  C   UNL A   1      38.564  29.673  28.911  1.00  0.00     0.031 C 
ATOM     49  C   UNL A   1      37.773  33.848  34.337  1.00  0.00     0.029 A 
ATOM     50  C   UNL A   1      38.868  32.887  34.427  1.00  0.00     0.049 A 
ATOM     51  H   UNL A   1      39.457  31.498  32.991  1.00  0.00     0.167 HD
ATOM     52  C   UNL A   1      40.554  28.591  29.920  1.00  0.00     0.037 A 
ATOM     53  C   UNL A   1      39.695  32.742  35.482  1.00  0.00     0.037 A 
ATOM     54  C   UNL A   1      41.542  28.433  30.957  1.00  0.00     0.049 A 
ATOM     55  C   UNL A   1      40.788  31.709  35.424  1.00  0.00     0.074 A 
ATOM     56  C   UNL A   1      42.641  27.592  30.979  1.00  0.00     0.029 A 
ATOM     57  N   UNL A   1      41.544  29.122  32.160  1.00  0.00    -0.354 N 
ATOM     58  N   UNL A   1      41.103  30.888  34.453  1.00  0.00    -0.248 NA
ATOM     59  C   UNL A   1      41.644  31.588  36.614  1.00  0.00     0.031 C 
ATOM     60  C   UNL A   1      43.269  27.724  32.221  1.00  0.00     0.029 A 
ATOM     61  C   UNL A   1      42.603  28.697  32.947  1.00  0.00     0.049 A 
ATOM     62  H   UNL A   1      40.890  29.811  32.418  1.00  0.00     0.167 HD
ATOM     63  C   UNL A   1      42.211  30.177  34.898  1.00  0.00     0.074 A 
ATOM     64  C   UNL A   1      42.522  30.675  36.221  1.00  0.00     0.031 C 
ATOM     65  C   UNL A   1      42.909  29.202  34.263  1.00  0.00     0.037 A 
BRANCH  52  66
ATOM     66  C   UNL A   1      40.632  27.686  28.722  1.00  0.00     0.064 A 
ATOM     67  C   UNL A   1      39.913  26.483  28.653  1.00  0.00     0.173 A 
ATOM     68  C   UNL A   1      41.413  28.045  27.612  1.00  0.00     0.173 A 
ATOM     69  F   UNL A   1      39.155  26.089  29.689  1.00  0.00    -0.203 F 
ATOM     70  C   UNL A   1      40.001  25.656  27.536  1.00  0.00     0.198 A 
ATOM     71  C   UNL A   1      41.472  27.232  26.483  1.00  0.00     0.198 A 
ATOM     72  F   UNL A   1      42.115  29.188  27.619  1.00  0.00    -0.203 F 
ATOM     73  F   UNL A   1      39.351  24.485  27.519  1.00  0.00    -0.200 F 
ATOM     74  C   UNL A   1      40.775  26.034  26.450  1.00  0.00     0.200 A 
ATOM     75  F   UNL A   1      42.207  27.607  25.427  1.00  0.00    -0.200 F 
ATOM     76  F   UNL A   1      40.855  25.241  25.373  1.00  0.00    -0.200 F 
ENDBRANCH  52  66
BRANCH  53  77
ATOM     77  C   UNL A   1      39.538  33.617  36.674  1.00  0.00     0.064 A 
ATOM     78  C   UNL A   1      40.186  34.858  36.744  1.00  0.00     0.173 A 
ATOM     79  C   UNL A   1      38.744  33.233  37.765  1.00  0.00     0.173 A 
ATOM     80  F   UNL A   1      40.974  35.260  35.735  1.00  0.00    -0.203 F 
ATOM     81  C   UNL A   1      40.065  35.672  37.869  1.00  0.00     0.198 A 
ATOM     82  C   UNL A   1      38.599  34.062  38.876  1.00  0.00     0.198 A 
ATOM     83  F   UNL A   1      38.100  32.058  37.747  1.00  0.00    -0.203 F 
ATOM     84  F   UNL A   1      40.735  36.830  37.930  1.00  0.00    -0.200 F 
ATOM     85  C   UNL A   1      39.266  35.276  38.931  1.00  0.00     0.200 A 
ATOM     86  F   UNL A   1      37.814  33.683  39.894  1.00  0.00    -0.200 F 
ATOM     87  F   UNL A   1      39.145  36.061  40.010  1.00  0.00    -0.200 F 
ENDBRANCH  53  77
BRANCH  65  88
ATOM     88  C   UNL A   1      44.104  28.634  34.974  1.00  0.00     0.064 A 
ATOM     89  C   UNL A   1      44.010  27.493  35.785  1.00  0.00     0.173 A 
ATOM     90  C   UNL A   1      45.371  29.216  34.809  1.00  0.00     0.173 A 
ATOM     91  F   UNL A   1      42.821  26.904  35.989  1.00  0.00    -0.203 F 
ATOM     92  C   UNL A   1      45.133  26.976  36.427  1.00  0.00     0.198 A 
ATOM     93  C   UNL A   1      46.497  28.676  35.425  1.00  0.00     0.198 A 
ATOM     94  F   UNL A   1      45.519  30.305  34.038  1.00  0.00    -0.203 F 
ATOM     95  F   UNL A   1      45.008  25.917  37.241  1.00  0.00    -0.200 F 
ATOM     96  C   UNL A   1      46.375  27.563  36.240  1.00  0.00     0.200 A 
ATOM     97  F   UNL A   1      47.699  29.235  35.228  1.00  0.00    -0.200 F 
ATOM     98  F   UNL A   1      47.456  27.057  36.852  1.00  0.00    -0.200 F 
ENDBRANCH  65  88
ENDBRANCH  39  40
ENDBRANCH  31  34
ENDBRANCH  29  30
ENDBRANCH  28  29
ENDBRANCH  27  28
ENDBRANCH   1  27
TORSDOF 16
ENDMDL
