MODEL 1
REMARK VINA RESULT:     -12.6      0.000      0.000
REMARK SMILES CC(C)c1ccc(-c2cnc([C@@H]3[NH2+][C@H](C(=O)NCCCCCCNC(=O)c4ccc(-c5c6nc(c(-c7c(F)c(F)c(F)c(F)c7F)c7ccc([nH]7)c(-c7c(F)c(F)c(F)c(F)c7F)c7nc(c(-c8c(F)c(F)c(F)c(F)c8F)c8ccc5[nH]8)C=C7)C=C6)cc4)C(C)(C)S3)s2)cc1
REMARK SMILES IDX 20 1 19 2 18 3 17 4 15 5 16 6 14 8 12 9 13 10 93 11 90 14
REMARK SMILES IDX 91 15 92 16 11 17 8 18 9 19 94 20 10 21 7 22 4 23 5 24 96 25
REMARK SMILES IDX 6 26 95 27 2 28 1 29 3 30 21 31 22 32 23 33 24 34 25 35
REMARK SMILES IDX 26 37 27 38 28 39 89 40 29 41 88 42 30 43 31 44 32 45 82 46
REMARK SMILES IDX 33 47 87 48 81 49 83 50 34 51 86 52 80 53 79 54 35 56 67 57
REMARK SMILES IDX 47 58 66 59 48 60 51 61 65 62 84 63 49 64 50 65 64 67 85 68
REMARK SMILES IDX 52 69 36 70 37 71 45 72 38 73 39 74 43 75 46 76 40 77 41 78
REMARK SMILES IDX 44 79 42 80 68 81 69 82 77 83 70 84 71 85 75 86 78 87 72 88
REMARK SMILES IDX 73 89 76 90 74 91 53 92 54 93 62 94 55 95 56 96 60 97 63 98
REMARK SMILES IDX 57 99 58 100 61 101 59 102
REMARK H PARENT 17 7 13 12 13 13 24 36 83 55 51 66
REMARK Flexibility Score: inf
ROOT
ATOM      1  C   UNL A   1      37.384  21.635  25.539  1.00  0.00     0.002 C 
ENDROOT
BRANCH   1   2
ATOM      2  C   UNL A   1      37.019  22.881  24.720  1.00  0.00     0.021 C 
BRANCH   2   3
ATOM      3  C   UNL A   1      36.673  24.128  25.546  1.00  0.00     0.116 C 
BRANCH   3   4
ATOM      4  N   UNL A   1      35.417  24.704  25.118  1.00  0.00    -0.351 N 
ATOM      5  C   UNL A   1      34.317  23.931  24.834  1.00  0.00     0.279 C 
ATOM      6  O   UNL A   1      33.908  23.961  23.680  1.00  0.00    -0.268 OA
ATOM      7  H   UNL A   1      35.348  25.682  25.026  1.00  0.00     0.163 HD
BRANCH   5   8
ATOM      8  C   UNL A   1      33.716  23.104  25.995  1.00  0.00     0.289 C 
ATOM      9  C   UNL A   1      31.360  23.650  26.138  1.00  0.00     0.304 C 
ATOM     10  N   UNL A   1      32.688  23.900  26.741  1.00  0.00    -0.318 N 
ATOM     11  S   UNL A   1      31.360  21.981  25.411  1.00  0.00    -0.079 SA
ATOM     12  H   UNL A   1      32.679  23.615  27.720  1.00  0.00     0.348 HD
ATOM     13  H   UNL A   1      32.913  24.894  26.684  1.00  0.00     0.348 HD
ATOM     14  C   UNL A   1      33.146  21.714  25.642  1.00  0.00     0.078 C 
ATOM     15  C   UNL A   1      33.305  20.758  26.841  1.00  0.00     0.030 C 
ATOM     16  C   UNL A   1      33.762  21.056  24.408  1.00  0.00     0.030 C 
BRANCH   9  17
ATOM     17  C   UNL A   1      30.912  24.711  25.153  1.00  0.00     0.162 A 
ATOM     18  C   UNL A   1      30.160  26.767  24.068  1.00  0.00     0.055 A 
ATOM     19  C   UNL A   1      30.311  25.663  23.253  1.00  0.00     0.132 A 
ATOM     20  S   UNL A   1      30.623  26.338  25.666  1.00  0.00    -0.112 S 
ATOM     21  N   UNL A   1      30.674  24.502  23.877  1.00  0.00    -0.242 NA
BRANCH  18  22
ATOM     22  C   UNL A   1      29.645  28.086  23.699  1.00  0.00    -0.007 A 
ATOM     23  C   UNL A   1      28.562  30.581  22.856  1.00  0.00    -0.045 A 
ATOM     24  C   UNL A   1      29.836  30.495  23.449  1.00  0.00     0.004 A 
ATOM     25  C   UNL A   1      27.847  29.390  22.687  1.00  0.00     0.004 A 
ATOM     26  C   UNL A   1      30.367  29.268  23.873  1.00  0.00     0.010 A 
ATOM     27  C   UNL A   1      28.380  28.168  23.100  1.00  0.00     0.010 A 
BRANCH  23  28
ATOM     28  C   UNL A   1      28.024  31.929  22.390  1.00  0.00     0.013 C 
ATOM     29  C   UNL A   1      28.784  33.152  22.925  1.00  0.00     0.012 C 
ATOM     30  C   UNL A   1      27.976  32.019  20.858  1.00  0.00     0.012 C 
ENDBRANCH  23  28
ENDBRANCH  18  22
ENDBRANCH   9  17
ENDBRANCH   5   8
ENDBRANCH   3   4
ENDBRANCH   2   3
ENDBRANCH   1   2
BRANCH   1  31
ATOM     31  C   UNL A   1      37.189  20.294  24.826  1.00  0.00     0.002 C 
BRANCH  31  32
ATOM     32  C   UNL A   1      38.306  19.274  25.042  1.00  0.00     0.021 C 
BRANCH  32  33
ATOM     33  C   UNL A   1      39.496  19.786  25.844  1.00  0.00     0.116 C 
BRANCH  33  34
ATOM     34  N   UNL A   1      40.572  18.814  25.930  1.00  0.00    -0.352 N 
ATOM     35  C   UNL A   1      41.915  19.028  26.104  1.00  0.00     0.251 C 
ATOM     36  H   UNL A   1      40.298  17.871  25.855  1.00  0.00     0.163 HD
ATOM     37  O   UNL A   1      42.711  18.094  26.002  1.00  0.00    -0.269 OA
BRANCH  35  38
ATOM     38  C   UNL A   1      42.419  20.389  26.386  1.00  0.00     0.039 A 
ATOM     39  C   UNL A   1      42.787  21.208  25.315  1.00  0.00     0.014 A 
ATOM     40  C   UNL A   1      42.540  20.856  27.699  1.00  0.00     0.014 A 
ATOM     41  C   UNL A   1      43.228  22.510  25.556  1.00  0.00     0.010 A 
ATOM     42  C   UNL A   1      42.916  22.176  27.935  1.00  0.00     0.010 A 
ATOM     43  C   UNL A   1      43.273  23.013  26.866  1.00  0.00    -0.014 A 
BRANCH  43  44
ATOM     44  C   UNL A   1      43.717  24.403  27.140  1.00  0.00     0.031 A 
ATOM     45  C   UNL A   1      42.742  25.412  27.679  1.00  0.00     0.074 A 
ATOM     46  C   UNL A   1      44.980  24.772  26.853  1.00  0.00     0.049 A 
ATOM     47  N   UNL A   1      42.916  26.686  27.924  1.00  0.00    -0.248 NA
ATOM     48  C   UNL A   1      41.379  24.928  27.954  1.00  0.00     0.031 C 
ATOM     49  C   UNL A   1      46.009  23.900  26.284  1.00  0.00     0.029 A 
ATOM     50  N   UNL A   1      45.610  25.983  26.991  1.00  0.00    -0.354 N 
ATOM     51  C   UNL A   1      41.686  27.158  28.360  1.00  0.00     0.074 A 
ATOM     52  C   UNL A   1      40.762  26.047  28.301  1.00  0.00     0.031 C 
ATOM     53  C   UNL A   1      47.146  24.598  26.142  1.00  0.00     0.029 A 
ATOM     54  C   UNL A   1      46.920  25.973  26.582  1.00  0.00     0.049 A 
ATOM     55  H   UNL A   1      45.165  26.785  27.350  1.00  0.00     0.167 HD
ATOM     56  C   UNL A   1      41.361  28.400  28.792  1.00  0.00     0.037 A 
ATOM     57  C   UNL A   1      47.836  26.960  26.565  1.00  0.00     0.037 A 
ATOM     58  C   UNL A   1      42.290  29.496  28.882  1.00  0.00     0.049 A 
ATOM     59  C   UNL A   1      47.457  28.325  27.071  1.00  0.00     0.074 A 
ATOM     60  C   UNL A   1      42.072  30.777  29.358  1.00  0.00     0.029 A 
ATOM     61  N   UNL A   1      43.620  29.435  28.491  1.00  0.00    -0.354 N 
ATOM     62  N   UNL A   1      46.305  28.746  27.535  1.00  0.00    -0.248 NA
ATOM     63  C   UNL A   1      48.510  29.351  27.060  1.00  0.00     0.031 C 
ATOM     64  C   UNL A   1      43.261  31.502  29.226  1.00  0.00     0.029 A 
ATOM     65  C   UNL A   1      44.231  30.660  28.705  1.00  0.00     0.049 A 
ATOM     66  H   UNL A   1      44.063  28.640  28.118  1.00  0.00     0.167 HD
ATOM     67  C   UNL A   1      46.501  30.070  27.898  1.00  0.00     0.074 A 
ATOM     68  C   UNL A   1      47.886  30.383  27.609  1.00  0.00     0.031 C 
ATOM     69  C   UNL A   1      45.614  30.950  28.425  1.00  0.00     0.037 A 
BRANCH  56  70
ATOM     70  C   UNL A   1      39.939  28.637  29.204  1.00  0.00     0.064 A 
ATOM     71  C   UNL A   1      39.510  28.416  30.522  1.00  0.00     0.173 A 
ATOM     72  C   UNL A   1      38.997  29.109  28.278  1.00  0.00     0.173 A 
ATOM     73  F   UNL A   1      40.370  27.952  31.442  1.00  0.00    -0.203 F 
ATOM     74  C   UNL A   1      38.185  28.632  30.890  1.00  0.00     0.198 A 
ATOM     75  C   UNL A   1      37.679  29.352  28.657  1.00  0.00     0.198 A 
ATOM     76  F   UNL A   1      39.356  29.341  27.006  1.00  0.00    -0.203 F 
ATOM     77  F   UNL A   1      37.788  28.365  32.142  1.00  0.00    -0.200 F 
ATOM     78  C   UNL A   1      37.272  29.104  29.959  1.00  0.00     0.200 A 
ATOM     79  F   UNL A   1      36.800  29.818  27.759  1.00  0.00    -0.200 F 
ATOM     80  F   UNL A   1      35.997  29.314  30.316  1.00  0.00    -0.200 F 
ENDBRANCH  56  70
BRANCH  57  81
ATOM     81  C   UNL A   1      49.214  26.682  26.089  1.00  0.00     0.064 A 
ATOM     82  C   UNL A   1      49.583  26.954  24.764  1.00  0.00     0.173 A 
ATOM     83  C   UNL A   1      50.188  26.145  26.942  1.00  0.00     0.173 A 
ATOM     84  F   UNL A   1      48.678  27.450  23.908  1.00  0.00    -0.203 F 
ATOM     85  C   UNL A   1      50.870  26.684  24.306  1.00  0.00     0.198 A 
ATOM     86  C   UNL A   1      51.481  25.896  26.489  1.00  0.00     0.198 A 
ATOM     87  F   UNL A   1      49.885  25.871  28.220  1.00  0.00    -0.203 F 
ATOM     88  F   UNL A   1      51.184  26.917  23.024  1.00  0.00    -0.200 F 
ATOM     89  C   UNL A   1      51.820  26.160  25.170  1.00  0.00     0.200 A 
ATOM     90  F   UNL A   1      52.400  25.401  27.329  1.00  0.00    -0.200 F 
ATOM     91  F   UNL A   1      53.059  25.904  24.729  1.00  0.00    -0.200 F 
ENDBRANCH  57  81
BRANCH  69  92
ATOM     92  C   UNL A   1      46.122  32.320  28.761  1.00  0.00     0.064 A 
ATOM     93  C   UNL A   1      46.069  33.372  27.835  1.00  0.00     0.173 A 
ATOM     94  C   UNL A   1      46.636  32.591  30.038  1.00  0.00     0.173 A 
ATOM     95  F   UNL A   1      45.601  33.157  26.596  1.00  0.00    -0.203 F 
ATOM     96  C   UNL A   1      46.534  34.641  28.170  1.00  0.00     0.198 A 
ATOM     97  C   UNL A   1      47.075  33.868  30.377  1.00  0.00     0.198 A 
ATOM     98  F   UNL A   1      46.702  31.619  30.960  1.00  0.00    -0.203 F 
ATOM     99  F   UNL A   1      46.514  35.621  27.256  1.00  0.00    -0.200 F 
ATOM    100  C   UNL A   1      47.030  34.889  29.441  1.00  0.00     0.200 A 
ATOM    101  F   UNL A   1      47.544  34.108  31.609  1.00  0.00    -0.200 F 
ATOM    102  F   UNL A   1      47.472  36.113  29.761  1.00  0.00    -0.200 F 
ENDBRANCH  69  92
ENDBRANCH  43  44
ENDBRANCH  35  38
ENDBRANCH  33  34
ENDBRANCH  32  33
ENDBRANCH  31  32
ENDBRANCH   1  31
TORSDOF 16
ENDMDL
MODEL 2
REMARK VINA RESULT:     -12.4      0.798      7.181
REMARK SMILES CC(C)c1ccc(-c2cnc([C@@H]3[NH2+][C@H](C(=O)NCCCCCCNC(=O)c4ccc(-c5c6nc(c(-c7c(F)c(F)c(F)c(F)c7F)c7ccc([nH]7)c(-c7c(F)c(F)c(F)c(F)c7F)c7nc(c(-c8c(F)c(F)c(F)c(F)c8F)c8ccc5[nH]8)C=C7)C=C6)cc4)C(C)(C)S3)s2)cc1
REMARK SMILES IDX 20 1 19 2 18 3 17 4 15 5 16 6 14 8 12 9 13 10 93 11 90 14
REMARK SMILES IDX 91 15 92 16 11 17 8 18 9 19 94 20 10 21 7 22 4 23 5 24 96 25
REMARK SMILES IDX 6 26 95 27 2 28 1 29 3 30 21 31 22 32 23 33 24 34 25 35
REMARK SMILES IDX 26 37 27 38 28 39 89 40 29 41 88 42 30 43 31 44 32 45 82 46
REMARK SMILES IDX 33 47 87 48 81 49 83 50 34 51 86 52 80 53 79 54 35 56 67 57
REMARK SMILES IDX 47 58 66 59 48 60 51 61 65 62 84 63 49 64 50 65 64 67 85 68
REMARK SMILES IDX 52 69 36 70 37 71 45 72 38 73 39 74 43 75 46 76 40 77 41 78
REMARK SMILES IDX 44 79 42 80 68 81 69 82 77 83 70 84 71 85 75 86 78 87 72 88
REMARK SMILES IDX 73 89 76 90 74 91 53 92 54 93 62 94 55 95 56 96 60 97 63 98
REMARK SMILES IDX 57 99 58 100 61 101 59 102
REMARK H PARENT 17 7 13 12 13 13 24 36 83 55 51 66
REMARK Flexibility Score: inf
ROOT
ATOM      1  C   UNL A   1      37.479  21.663  25.166  1.00  0.00     0.002 C 
ENDROOT
BRANCH   1   2
ATOM      2  C   UNL A   1      37.079  22.755  24.163  1.00  0.00     0.021 C 
BRANCH   2   3
ATOM      3  C   UNL A   1      36.354  23.965  24.769  1.00  0.00     0.116 C 
BRANCH   3   4
ATOM      4  N   UNL A   1      35.054  24.150  24.162  1.00  0.00    -0.351 N 
ATOM      5  C   UNL A   1      34.247  23.091  23.824  1.00  0.00     0.279 C 
ATOM      6  O   UNL A   1      33.995  22.951  22.633  1.00  0.00    -0.268 OA
ATOM      7  H   UNL A   1      34.737  25.066  23.985  1.00  0.00     0.163 HD
BRANCH   5   8
ATOM      8  C   UNL A   1      33.748  22.186  24.976  1.00  0.00     0.289 C 
ATOM      9  C   UNL A   1      32.153  23.468  26.272  1.00  0.00     0.304 C 
ATOM     10  N   UNL A   1      33.550  22.981  26.230  1.00  0.00    -0.318 N 
ATOM     11  S   UNL A   1      31.103  22.294  25.360  1.00  0.00    -0.079 SA
ATOM     12  H   UNL A   1      33.732  22.391  27.041  1.00  0.00     0.348 HD
ATOM     13  H   UNL A   1      34.193  23.773  26.242  1.00  0.00     0.348 HD
ATOM     14  C   UNL A   1      32.497  21.327  24.698  1.00  0.00     0.078 C 
ATOM     15  C   UNL A   1      32.564  20.020  25.512  1.00  0.00     0.030 C 
ATOM     16  C   UNL A   1      32.266  20.975  23.228  1.00  0.00     0.030 C 
BRANCH   9  17
ATOM     17  C   UNL A   1      31.975  24.895  25.795  1.00  0.00     0.162 A 
ATOM     18  C   UNL A   1      31.130  26.995  24.876  1.00  0.00     0.055 A 
ATOM     19  C   UNL A   1      32.441  26.998  25.306  1.00  0.00     0.132 A 
ATOM     20  S   UNL A   1      30.451  25.447  25.186  1.00  0.00    -0.112 S 
ATOM     21  N   UNL A   1      32.925  25.804  25.763  1.00  0.00    -0.242 NA
BRANCH  18  22
ATOM     22  C   UNL A   1      30.405  28.079  24.211  1.00  0.00    -0.007 A 
ATOM     23  C   UNL A   1      29.019  30.280  23.051  1.00  0.00    -0.045 A 
ATOM     24  C   UNL A   1      28.665  28.950  22.756  1.00  0.00     0.004 A 
ATOM     25  C   UNL A   1      30.076  30.483  23.946  1.00  0.00     0.004 A 
ATOM     26  C   UNL A   1      29.353  27.864  23.318  1.00  0.00     0.010 A 
ATOM     27  C   UNL A   1      30.754  29.403  24.514  1.00  0.00     0.010 A 
BRANCH  23  28
ATOM     28  C   UNL A   1      28.237  31.435  22.435  1.00  0.00     0.013 C 
ATOM     29  C   UNL A   1      28.799  32.832  22.737  1.00  0.00     0.012 C 
ATOM     30  C   UNL A   1      28.107  31.282  20.913  1.00  0.00     0.012 C 
ENDBRANCH  23  28
ENDBRANCH  18  22
ENDBRANCH   9  17
ENDBRANCH   5   8
ENDBRANCH   3   4
ENDBRANCH   2   3
ENDBRANCH   1   2
BRANCH   1  31
ATOM     31  C   UNL A   1      37.179  20.226  24.732  1.00  0.00     0.002 C 
BRANCH  31  32
ATOM     32  C   UNL A   1      38.297  19.219  25.003  1.00  0.00     0.021 C 
BRANCH  32  33
ATOM     33  C   UNL A   1      39.437  19.743  25.866  1.00  0.00     0.116 C 
BRANCH  33  34
ATOM     34  N   UNL A   1      40.584  18.851  25.879  1.00  0.00    -0.352 N 
ATOM     35  C   UNL A   1      41.913  19.159  26.012  1.00  0.00     0.251 C 
ATOM     36  H   UNL A   1      40.377  17.894  25.779  1.00  0.00     0.163 HD
ATOM     37  O   UNL A   1      42.771  18.291  25.849  1.00  0.00    -0.269 OA
BRANCH  35  38
ATOM     38  C   UNL A   1      42.327  20.543  26.327  1.00  0.00     0.039 A 
ATOM     39  C   UNL A   1      42.698  21.390  25.278  1.00  0.00     0.014 A 
ATOM     40  C   UNL A   1      42.360  21.005  27.647  1.00  0.00     0.014 A 
ATOM     41  C   UNL A   1      43.054  22.713  25.548  1.00  0.00     0.010 A 
ATOM     42  C   UNL A   1      42.650  22.342  27.908  1.00  0.00     0.010 A 
ATOM     43  C   UNL A   1      43.010  23.206  26.862  1.00  0.00    -0.014 A 
BRANCH  43  44
ATOM     44  C   UNL A   1      43.362  24.616  27.165  1.00  0.00     0.031 A 
ATOM     45  C   UNL A   1      44.759  25.112  26.917  1.00  0.00     0.074 A 
ATOM     46  C   UNL A   1      42.443  25.434  27.713  1.00  0.00     0.049 A 
ATOM     47  N   UNL A   1      45.280  26.286  27.173  1.00  0.00    -0.248 NA
ATOM     48  C   UNL A   1      45.704  24.151  26.327  1.00  0.00     0.031 C 
ATOM     49  C   UNL A   1      41.067  25.060  28.044  1.00  0.00     0.029 A 
ATOM     50  N   UNL A   1      42.533  26.747  28.098  1.00  0.00    -0.354 N 
ATOM     51  C   UNL A   1      46.613  26.197  26.796  1.00  0.00     0.074 A 
ATOM     52  C   UNL A   1      46.833  24.842  26.338  1.00  0.00     0.031 C 
ATOM     53  C   UNL A   1      40.436  26.125  28.563  1.00  0.00     0.029 A 
ATOM     54  C   UNL A   1      41.369  27.247  28.628  1.00  0.00     0.049 A 
ATOM     55  H   UNL A   1      43.355  27.282  28.005  1.00  0.00     0.167 HD
ATOM     56  C   UNL A   1      47.562  27.163  26.808  1.00  0.00     0.037 A 
ATOM     57  C   UNL A   1      41.087  28.473  29.109  1.00  0.00     0.037 A 
ATOM     58  C   UNL A   1      47.334  28.519  27.231  1.00  0.00     0.049 A 
ATOM     59  C   UNL A   1      42.151  29.535  29.092  1.00  0.00     0.074 A 
ATOM     60  C   UNL A   1      48.215  29.586  27.230  1.00  0.00     0.029 A 
ATOM     61  N   UNL A   1      46.129  28.997  27.728  1.00  0.00    -0.354 N 
ATOM     62  N   UNL A   1      43.393  29.456  28.679  1.00  0.00    -0.248 NA
ATOM     63  C   UNL A   1      41.771  30.862  29.598  1.00  0.00     0.031 C 
ATOM     64  C   UNL A   1      47.554  30.702  27.755  1.00  0.00     0.029 A 
ATOM     65  C   UNL A   1      46.248  30.340  28.046  1.00  0.00     0.049 A 
ATOM     66  H   UNL A   1      45.312  28.460  27.837  1.00  0.00     0.167 HD
ATOM     67  C   UNL A   1      43.932  30.723  28.846  1.00  0.00     0.074 A 
ATOM     68  C   UNL A   1      42.880  31.557  29.390  1.00  0.00     0.031 C 
ATOM     69  C   UNL A   1      45.187  31.158  28.573  1.00  0.00     0.037 A 
BRANCH  56  70
ATOM     70  C   UNL A   1      48.938  26.785  26.345  1.00  0.00     0.064 A 
ATOM     71  C   UNL A   1      49.873  26.204  27.216  1.00  0.00     0.173 A 
ATOM     72  C   UNL A   1      49.321  26.986  25.010  1.00  0.00     0.173 A 
ATOM     73  F   UNL A   1      49.559  26.004  28.505  1.00  0.00    -0.203 F 
ATOM     74  C   UNL A   1      51.149  25.867  26.775  1.00  0.00     0.198 A 
ATOM     75  C   UNL A   1      50.589  26.620  24.566  1.00  0.00     0.198 A 
ATOM     76  F   UNL A   1      48.463  27.533  24.135  1.00  0.00    -0.203 F 
ATOM     77  F   UNL A   1      52.041  25.361  27.637  1.00  0.00    -0.200 F 
ATOM     78  C   UNL A   1      51.504  26.069  25.450  1.00  0.00     0.200 A 
ATOM     79  F   UNL A   1      50.928  26.806  23.282  1.00  0.00    -0.200 F 
ATOM     80  F   UNL A   1      52.733  25.740  25.027  1.00  0.00    -0.200 F 
ENDBRANCH  56  70
BRANCH  57  81
ATOM     81  C   UNL A   1      39.722  28.773  29.612  1.00  0.00     0.064 A 
ATOM     82  C   UNL A   1      39.382  28.531  30.950  1.00  0.00     0.173 A 
ATOM     83  C   UNL A   1      38.736  29.309  28.772  1.00  0.00     0.173 A 
ATOM     84  F   UNL A   1      40.288  28.000  31.784  1.00  0.00    -0.203 F 
ATOM     85  C   UNL A   1      38.101  28.797  31.425  1.00  0.00     0.198 A 
ATOM     86  C   UNL A   1      37.461  29.596  29.255  1.00  0.00     0.198 A 
ATOM     87  F   UNL A   1      39.014  29.563  27.485  1.00  0.00    -0.203 F 
ATOM     88  F   UNL A   1      37.790  28.518  32.700  1.00  0.00    -0.200 F 
ATOM     89  C   UNL A   1      37.143  29.335  30.579  1.00  0.00     0.200 A 
ATOM     90  F   UNL A   1      36.541  30.127  28.438  1.00  0.00    -0.200 F 
ATOM     91  F   UNL A   1      35.911  29.594  31.039  1.00  0.00    -0.200 F 
ENDBRANCH  57  81
BRANCH  69  92
ATOM     92  C   UNL A   1      45.480  32.608  28.819  1.00  0.00     0.064 A 
ATOM     93  C   UNL A   1      46.012  33.055  30.037  1.00  0.00     0.173 A 
ATOM     94  C   UNL A   1      45.258  33.557  27.809  1.00  0.00     0.173 A 
ATOM     95  F   UNL A   1      46.227  32.188  31.038  1.00  0.00    -0.203 F 
ATOM     96  C   UNL A   1      46.290  34.404  30.242  1.00  0.00     0.198 A 
ATOM     97  C   UNL A   1      45.561  34.900  28.009  1.00  0.00     0.198 A 
ATOM     98  F   UNL A   1      44.755  33.178  26.625  1.00  0.00    -0.203 F 
ATOM     99  F   UNL A   1      46.758  34.816  31.428  1.00  0.00    -0.200 F 
ATOM    100  C   UNL A   1      46.071  35.323  29.227  1.00  0.00     0.200 A 
ATOM    101  F   UNL A   1      45.358  35.785  27.024  1.00  0.00    -0.200 F 
ATOM    102  F   UNL A   1      46.343  36.620  29.426  1.00  0.00    -0.200 F 
ENDBRANCH  69  92
ENDBRANCH  43  44
ENDBRANCH  35  38
ENDBRANCH  33  34
ENDBRANCH  32  33
ENDBRANCH  31  32
ENDBRANCH   1  31
TORSDOF 16
ENDMDL
MODEL 3
REMARK VINA RESULT:     -12.4      1.859      2.838
REMARK SMILES CC(C)c1ccc(-c2cnc([C@@H]3[NH2+][C@H](C(=O)NCCCCCCNC(=O)c4ccc(-c5c6nc(c(-c7c(F)c(F)c(F)c(F)c7F)c7ccc([nH]7)c(-c7c(F)c(F)c(F)c(F)c7F)c7nc(c(-c8c(F)c(F)c(F)c(F)c8F)c8ccc5[nH]8)C=C7)C=C6)cc4)C(C)(C)S3)s2)cc1
REMARK SMILES IDX 20 1 19 2 18 3 17 4 15 5 16 6 14 8 12 9 13 10 93 11 90 14
REMARK SMILES IDX 91 15 92 16 11 17 8 18 9 19 94 20 10 21 7 22 4 23 5 24 96 25
REMARK SMILES IDX 6 26 95 27 2 28 1 29 3 30 21 31 22 32 23 33 24 34 25 35
REMARK SMILES IDX 26 37 27 38 28 39 89 40 29 41 88 42 30 43 31 44 32 45 82 46
REMARK SMILES IDX 33 47 87 48 81 49 83 50 34 51 86 52 80 53 79 54 35 56 67 57
REMARK SMILES IDX 47 58 66 59 48 60 51 61 65 62 84 63 49 64 50 65 64 67 85 68
REMARK SMILES IDX 52 69 36 70 37 71 45 72 38 73 39 74 43 75 46 76 40 77 41 78
REMARK SMILES IDX 44 79 42 80 68 81 69 82 77 83 70 84 71 85 75 86 78 87 72 88
REMARK SMILES IDX 73 89 76 90 74 91 53 92 54 93 62 94 55 95 56 96 60 97 63 98
REMARK SMILES IDX 57 99 58 100 61 101 59 102
REMARK H PARENT 17 7 13 12 13 13 24 36 83 55 51 66
REMARK Flexibility Score: inf
ROOT
ATOM      1  C   UNL A   1      37.577  21.912  25.003  1.00  0.00     0.002 C 
ENDROOT
BRANCH   1   2
ATOM      2  C   UNL A   1      36.453  22.957  24.973  1.00  0.00     0.021 C 
BRANCH   2   3
ATOM      3  C   UNL A   1      35.425  22.843  26.108  1.00  0.00     0.116 C 
BRANCH   3   4
ATOM      4  N   UNL A   1      34.942  24.148  26.505  1.00  0.00    -0.351 N 
ATOM      5  C   UNL A   1      33.861  24.742  25.901  1.00  0.00     0.279 C 
ATOM      6  O   UNL A   1      34.073  25.789  25.302  1.00  0.00    -0.268 OA
ATOM      7  H   UNL A   1      35.404  24.626  27.232  1.00  0.00     0.163 HD
BRANCH   5   8
ATOM      8  C   UNL A   1      32.495  24.028  26.036  1.00  0.00     0.289 C 
ATOM      9  C   UNL A   1      30.771  25.728  25.965  1.00  0.00     0.304 C 
ATOM     10  N   UNL A   1      31.546  24.843  26.862  1.00  0.00    -0.318 N 
ATOM     11  S   UNL A   1      30.636  24.927  24.336  1.00  0.00    -0.079 SA
ATOM     12  H   UNL A   1      30.912  24.223  27.365  1.00  0.00     0.348 HD
ATOM     13  H   UNL A   1      32.069  25.404  27.535  1.00  0.00     0.348 HD
ATOM     14  C   UNL A   1      31.804  23.587  24.729  1.00  0.00     0.078 C 
ATOM     15  C   UNL A   1      30.964  22.318  24.978  1.00  0.00     0.030 C 
ATOM     16  C   UNL A   1      32.747  23.324  23.554  1.00  0.00     0.030 C 
BRANCH   9  17
ATOM     17  C   UNL A   1      31.304  27.143  25.872  1.00  0.00     0.162 A 
ATOM     18  C   UNL A   1      32.185  29.376  26.330  1.00  0.00     0.055 A 
ATOM     19  C   UNL A   1      31.927  29.078  25.007  1.00  0.00     0.132 A 
ATOM     20  S   UNL A   1      31.834  27.991  27.284  1.00  0.00    -0.112 S 
ATOM     21  N   UNL A   1      31.379  27.849  24.764  1.00  0.00    -0.242 NA
BRANCH  18  22
ATOM     22  C   UNL A   1      32.627  30.655  26.887  1.00  0.00    -0.007 A 
ATOM     23  C   UNL A   1      33.557  33.059  28.096  1.00  0.00    -0.045 A 
ATOM     24  C   UNL A   1      32.349  33.018  27.376  1.00  0.00     0.004 A 
ATOM     25  C   UNL A   1      34.284  31.869  28.206  1.00  0.00     0.004 A 
ATOM     26  C   UNL A   1      31.894  31.837  26.771  1.00  0.00     0.010 A 
ATOM     27  C   UNL A   1      33.827  30.690  27.613  1.00  0.00     0.010 A 
BRANCH  23  28
ATOM     28  C   UNL A   1      34.012  34.357  28.756  1.00  0.00     0.013 C 
ATOM     29  C   UNL A   1      32.970  35.484  28.757  1.00  0.00     0.012 C 
ATOM     30  C   UNL A   1      34.477  34.124  30.200  1.00  0.00     0.012 C 
ENDBRANCH  23  28
ENDBRANCH  18  22
ENDBRANCH   9  17
ENDBRANCH   5   8
ENDBRANCH   3   4
ENDBRANCH   2   3
ENDBRANCH   1   2
BRANCH   1  31
ATOM     31  C   UNL A   1      37.137  20.461  24.787  1.00  0.00     0.002 C 
BRANCH  31  32
ATOM     32  C   UNL A   1      38.205  19.407  25.080  1.00  0.00     0.021 C 
BRANCH  32  33
ATOM     33  C   UNL A   1      39.445  19.932  25.792  1.00  0.00     0.116 C 
BRANCH  33  34
ATOM     34  N   UNL A   1      40.511  18.947  25.855  1.00  0.00    -0.352 N 
ATOM     35  C   UNL A   1      41.856  19.143  26.036  1.00  0.00     0.251 C 
ATOM     36  H   UNL A   1      40.228  18.009  25.756  1.00  0.00     0.163 HD
ATOM     37  O   UNL A   1      42.642  18.204  25.913  1.00  0.00    -0.269 OA
BRANCH  35  38
ATOM     38  C   UNL A   1      42.373  20.491  26.354  1.00  0.00     0.039 A 
ATOM     39  C   UNL A   1      42.930  21.259  25.327  1.00  0.00     0.014 A 
ATOM     40  C   UNL A   1      42.321  20.996  27.658  1.00  0.00     0.014 A 
ATOM     41  C   UNL A   1      43.388  22.550  25.596  1.00  0.00     0.010 A 
ATOM     42  C   UNL A   1      42.716  22.307  27.911  1.00  0.00     0.010 A 
ATOM     43  C   UNL A   1      43.263  23.093  26.885  1.00  0.00    -0.014 A 
BRANCH  43  44
ATOM     44  C   UNL A   1      43.724  24.473  27.184  1.00  0.00     0.031 A 
ATOM     45  C   UNL A   1      42.746  25.501  27.678  1.00  0.00     0.074 A 
ATOM     46  C   UNL A   1      45.007  24.815  26.960  1.00  0.00     0.049 A 
ATOM     47  N   UNL A   1      42.936  26.771  27.935  1.00  0.00    -0.248 NA
ATOM     48  C   UNL A   1      41.361  25.048  27.886  1.00  0.00     0.031 C 
ATOM     49  C   UNL A   1      46.043  23.922  26.439  1.00  0.00     0.029 A 
ATOM     50  N   UNL A   1      45.655  26.012  27.133  1.00  0.00    -0.354 N 
ATOM     51  C   UNL A   1      41.696  27.270  28.313  1.00  0.00     0.074 A 
ATOM     52  C   UNL A   1      40.752  26.179  28.206  1.00  0.00     0.031 C 
ATOM     53  C   UNL A   1      47.200  24.595  26.355  1.00  0.00     0.029 A 
ATOM     54  C   UNL A   1      46.983  25.973  26.787  1.00  0.00     0.049 A 
ATOM     55  H   UNL A   1      45.211  26.822  27.472  1.00  0.00     0.167 HD
ATOM     56  C   UNL A   1      41.378  28.517  28.732  1.00  0.00     0.037 A 
ATOM     57  C   UNL A   1      47.920  26.941  26.818  1.00  0.00     0.037 A 
ATOM     58  C   UNL A   1      42.325  29.592  28.871  1.00  0.00     0.049 A 
ATOM     59  C   UNL A   1      47.547  28.313  27.309  1.00  0.00     0.074 A 
ATOM     60  C   UNL A   1      42.112  30.877  29.339  1.00  0.00     0.029 A 
ATOM     61  N   UNL A   1      43.670  29.504  28.544  1.00  0.00    -0.354 N 
ATOM     62  N   UNL A   1      46.384  28.757  27.718  1.00  0.00    -0.248 NA
ATOM     63  C   UNL A   1      48.621  29.315  27.352  1.00  0.00     0.031 C 
ATOM     64  C   UNL A   1      43.322  31.576  29.268  1.00  0.00     0.029 A 
ATOM     65  C   UNL A   1      44.297  30.714  28.792  1.00  0.00     0.049 A 
ATOM     66  H   UNL A   1      44.113  28.700  28.191  1.00  0.00     0.167 HD
ATOM     67  C   UNL A   1      46.590  30.077  28.094  1.00  0.00     0.074 A 
ATOM     68  C   UNL A   1      47.994  30.360  27.874  1.00  0.00     0.031 C 
ATOM     69  C   UNL A   1      45.698  30.974  28.580  1.00  0.00     0.037 A 
BRANCH  56  70
ATOM     70  C   UNL A   1      39.943  28.785  29.076  1.00  0.00     0.064 A 
ATOM     71  C   UNL A   1      39.031  29.250  28.115  1.00  0.00     0.173 A 
ATOM     72  C   UNL A   1      39.466  28.555  30.375  1.00  0.00     0.173 A 
ATOM     73  F   UNL A   1      39.442  29.498  26.861  1.00  0.00    -0.203 F 
ATOM     74  C   UNL A   1      37.704  29.502  28.450  1.00  0.00     0.198 A 
ATOM     75  C   UNL A   1      38.131  28.781  30.699  1.00  0.00     0.198 A 
ATOM     76  F   UNL A   1      40.295  28.106  31.330  1.00  0.00    -0.203 F 
ATOM     77  F   UNL A   1      36.866  29.994  27.527  1.00  0.00    -0.200 F 
ATOM     78  C   UNL A   1      37.254  29.263  29.739  1.00  0.00     0.200 A 
ATOM     79  F   UNL A   1      37.694  28.540  31.943  1.00  0.00    -0.200 F 
ATOM     80  F   UNL A   1      35.975  29.504  30.058  1.00  0.00    -0.200 F 
ENDBRANCH  56  70
BRANCH  57  81
ATOM     81  C   UNL A   1      49.314  26.633  26.408  1.00  0.00     0.064 A 
ATOM     82  C   UNL A   1      49.726  26.813  25.081  1.00  0.00     0.173 A 
ATOM     83  C   UNL A   1      50.258  26.160  27.329  1.00  0.00     0.173 A 
ATOM     84  F   UNL A   1      48.850  27.245  24.162  1.00  0.00    -0.203 F 
ATOM     85  C   UNL A   1      51.028  26.515  24.686  1.00  0.00     0.198 A 
ATOM     86  C   UNL A   1      51.567  25.883  26.937  1.00  0.00     0.198 A 
ATOM     87  F   UNL A   1      49.914  25.975  28.612  1.00  0.00    -0.203 F 
ATOM     88  F   UNL A   1      51.385  26.658  23.401  1.00  0.00    -0.200 F 
ATOM     89  C   UNL A   1      51.948  26.055  25.615  1.00  0.00     0.200 A 
ATOM     90  F   UNL A   1      52.457  25.451  27.840  1.00  0.00    -0.200 F 
ATOM     91  F   UNL A   1      53.202  25.771  25.235  1.00  0.00    -0.200 F 
ENDBRANCH  57  81
BRANCH  69  92
ATOM     92  C   UNL A   1      46.219  32.332  28.944  1.00  0.00     0.064 A 
ATOM     93  C   UNL A   1      46.238  33.386  28.019  1.00  0.00     0.173 A 
ATOM     94  C   UNL A   1      46.672  32.591  30.247  1.00  0.00     0.173 A 
ATOM     95  F   UNL A   1      45.830  33.182  26.757  1.00  0.00    -0.203 F 
ATOM     96  C   UNL A   1      46.713  34.644  28.380  1.00  0.00     0.198 A 
ATOM     97  C   UNL A   1      47.121  33.857  30.611  1.00  0.00     0.198 A 
ATOM     98  F   UNL A   1      46.669  31.617  31.170  1.00  0.00    -0.203 F 
ATOM     99  F   UNL A   1      46.762  35.625  27.468  1.00  0.00    -0.200 F 
ATOM    100  C   UNL A   1      47.148  34.879  29.676  1.00  0.00     0.200 A 
ATOM    101  F   UNL A   1      47.532  34.085  31.866  1.00  0.00    -0.200 F 
ATOM    102  F   UNL A   1      47.601  36.093  30.021  1.00  0.00    -0.200 F 
ENDBRANCH  69  92
ENDBRANCH  43  44
ENDBRANCH  35  38
ENDBRANCH  33  34
ENDBRANCH  32  33
ENDBRANCH  31  32
ENDBRANCH   1  31
TORSDOF 16
ENDMDL
