MODEL 1
REMARK VINA RESULT:     -12.4      0.000      0.000
REMARK SMILES O=C(NCCCCCCNC(=O)c1[nH]ncc1C[N@H+]1CCC[C@@H](C(=O)c2ccc(Oc3ccccc3)cc2)C1)c1ccc(-c2c3nc(c(-c4c(F)c(F)c(F)c(F)c4F)c4ccc([nH]4)c(-c4c(F)c(F)c(F)c(F)c4F)c4nc(c(-c5c(F)c(F)c(F)c(F)c5F)c5ccc2[nH]5)C=C4)C=C3)cc1
REMARK SMILES IDX 8 1 7 2 6 3 5 4 4 5 3 6 1 7 2 8 40 10 41 11 102 12 42 13
REMARK SMILES IDX 101 14 43 15 44 16 45 17 95 18 46 19 100 20 94 21 96 22
REMARK SMILES IDX 47 23 99 24 93 25 92 26 48 28 80 29 60 30 79 31 61 32 64 33
REMARK SMILES IDX 78 34 97 35 62 36 63 37 77 39 98 40 65 41 49 42 50 43 58 44
REMARK SMILES IDX 51 45 52 46 56 47 59 48 53 49 54 50 57 51 55 52 81 53 82 54
REMARK SMILES IDX 90 55 83 56 84 57 88 58 91 59 85 60 86 61 89 62 87 63 66 64
REMARK SMILES IDX 67 65 75 66 68 67 69 68 73 69 76 70 70 71 71 72 74 73 72 74
REMARK SMILES IDX 9 75 10 76 11 77 12 79 13 80 14 81 17 82 15 83 16 85 18 86
REMARK SMILES IDX 19 87 20 88 39 89 21 91 23 92 22 93 24 94 25 95 26 96 27 97
REMARK SMILES IDX 38 98 28 99 37 100 29 101 30 102 31 103 32 104 36 105 33 106
REMARK SMILES IDX 35 107 34 108
REMARK H PARENT 3 9 96 27 64 38 10 78 14 84 19 90
REMARK Flexibility Score: inf
ROOT
ATOM      1  C   UNL A   1      39.794  22.919  27.265  1.00  0.00     0.021 C 
ENDROOT
BRANCH   1   2
ATOM      2  C   UNL A   1      41.176  22.282  27.094  1.00  0.00     0.002 C 
BRANCH   2   3
ATOM      3  C   UNL A   1      41.295  20.803  27.474  1.00  0.00     0.002 C 
BRANCH   3   4
ATOM      4  C   UNL A   1      41.669  19.844  26.345  1.00  0.00     0.021 C 
BRANCH   4   5
ATOM      5  C   UNL A   1      42.952  19.054  26.553  1.00  0.00     0.116 C 
BRANCH   5   6
ATOM      6  N   UNL A   1      43.611  18.687  25.312  1.00  0.00    -0.352 N 
ATOM      7  O   UNL A   1      44.730  19.038  23.381  1.00  0.00    -0.269 OA
ATOM      8  C   UNL A   1      44.322  19.486  24.447  1.00  0.00     0.251 C 
ATOM      9  H   UNL A   1      43.538  17.739  25.055  1.00  0.00     0.163 HD
BRANCH   8  10
ATOM     10  C   UNL A   1      44.568  20.904  24.795  1.00  0.00     0.039 A 
ATOM     11  C   UNL A   1      45.400  21.242  25.864  1.00  0.00     0.014 A 
ATOM     12  C   UNL A   1      43.950  21.908  24.043  1.00  0.00     0.014 A 
ATOM     13  C   UNL A   1      45.493  22.567  26.272  1.00  0.00     0.010 A 
ATOM     14  C   UNL A   1      44.123  23.252  24.397  1.00  0.00     0.010 A 
ATOM     15  C   UNL A   1      44.873  23.589  25.533  1.00  0.00    -0.014 A 
BRANCH  15  16
ATOM     16  C   UNL A   1      45.103  24.999  25.939  1.00  0.00     0.031 A 
ATOM     17  C   UNL A   1      44.025  25.821  26.586  1.00  0.00     0.074 A 
ATOM     18  C   UNL A   1      46.337  25.514  25.770  1.00  0.00     0.049 A 
ATOM     19  N   UNL A   1      44.095  27.037  27.068  1.00  0.00    -0.248 NA
ATOM     20  C   UNL A   1      42.692  25.208  26.702  1.00  0.00     0.031 C 
ATOM     21  C   UNL A   1      47.453  24.817  25.126  1.00  0.00     0.029 A 
ATOM     22  N   UNL A   1      46.873  26.716  26.150  1.00  0.00    -0.354 N 
ATOM     23  C   UNL A   1      42.823  27.338  27.535  1.00  0.00     0.074 A 
ATOM     24  C   UNL A   1      41.989  26.189  27.254  1.00  0.00     0.031 C 
ATOM     25  C   UNL A   1      48.554  25.576  25.212  1.00  0.00     0.029 A 
ATOM     26  C   UNL A   1      48.210  26.833  25.863  1.00  0.00     0.049 A 
ATOM     27  H   UNL A   1      46.349  27.426  26.588  1.00  0.00     0.167 HD
ATOM     28  C   UNL A   1      42.397  28.469  28.151  1.00  0.00     0.037 A 
ATOM     29  C   UNL A   1      49.067  27.844  26.093  1.00  0.00     0.037 A 
ATOM     30  C   UNL A   1      43.235  29.607  28.435  1.00  0.00     0.049 A 
ATOM     31  C   UNL A   1      48.567  29.075  26.790  1.00  0.00     0.074 A 
ATOM     32  C   UNL A   1      42.897  30.795  29.061  1.00  0.00     0.029 A 
ATOM     33  N   UNL A   1      44.582  29.697  28.114  1.00  0.00    -0.354 N 
ATOM     34  N   UNL A   1      47.366  29.337  27.245  1.00  0.00    -0.248 NA
ATOM     35  C   UNL A   1      49.542  30.153  27.006  1.00  0.00     0.031 C 
ATOM     36  C   UNL A   1      44.029  31.616  29.089  1.00  0.00     0.029 A 
ATOM     37  C   UNL A   1      45.085  30.925  28.518  1.00  0.00     0.049 A 
ATOM     38  H   UNL A   1      45.102  28.994  27.664  1.00  0.00     0.167 HD
ATOM     39  C   UNL A   1      47.438  30.606  27.797  1.00  0.00     0.074 A 
ATOM     40  C   UNL A   1      48.811  31.045  27.659  1.00  0.00     0.031 C 
ATOM     41  C   UNL A   1      46.451  31.348  28.358  1.00  0.00     0.037 A 
BRANCH  28  42
ATOM     42  C   UNL A   1      40.955  28.540  28.563  1.00  0.00     0.064 A 
ATOM     43  C   UNL A   1      40.547  28.206  29.863  1.00  0.00     0.173 A 
ATOM     44  C   UNL A   1      39.980  29.013  27.671  1.00  0.00     0.173 A 
ATOM     45  F   UNL A   1      41.438  27.738  30.750  1.00  0.00    -0.203 F 
ATOM     46  C   UNL A   1      39.216  28.332  30.250  1.00  0.00     0.198 A 
ATOM     47  C   UNL A   1      38.654  29.160  28.069  1.00  0.00     0.198 A 
ATOM     48  F   UNL A   1      40.319  29.352  26.418  1.00  0.00    -0.203 F 
ATOM     49  F   UNL A   1      38.844  27.979  31.490  1.00  0.00    -0.200 F 
ATOM     50  C   UNL A   1      38.272  28.816  29.357  1.00  0.00     0.200 A 
ATOM     51  F   UNL A   1      37.745  29.639  27.207  1.00  0.00    -0.200 F 
ATOM     52  F   UNL A   1      36.993  28.950  29.737  1.00  0.00    -0.200 F 
ENDBRANCH  28  42
BRANCH  29  53
ATOM     53  C   UNL A   1      50.480  27.726  25.652  1.00  0.00     0.064 A 
ATOM     54  C   UNL A   1      51.503  27.442  26.567  1.00  0.00     0.173 A 
ATOM     55  C   UNL A   1      50.832  27.882  24.304  1.00  0.00     0.173 A 
ATOM     56  F   UNL A   1      51.218  27.302  27.870  1.00  0.00    -0.203 F 
ATOM     57  C   UNL A   1      52.828  27.335  26.150  1.00  0.00     0.198 A 
ATOM     58  C   UNL A   1      52.152  27.742  23.883  1.00  0.00     0.198 A 
ATOM     59  F   UNL A   1      49.888  28.146  23.389  1.00  0.00    -0.203 F 
ATOM     60  F   UNL A   1      53.795  27.106  27.050  1.00  0.00    -0.200 F 
ATOM     61  C   UNL A   1      53.151  27.478  24.809  1.00  0.00     0.200 A 
ATOM     62  F   UNL A   1      52.455  27.862  22.584  1.00  0.00    -0.200 F 
ATOM     63  F   UNL A   1      54.424  27.365  24.407  1.00  0.00    -0.200 F 
ENDBRANCH  29  53
BRANCH  41  64
ATOM     64  C   UNL A   1      46.835  32.710  28.855  1.00  0.00     0.064 A 
ATOM     65  C   UNL A   1      47.283  32.906  30.170  1.00  0.00     0.173 A 
ATOM     66  C   UNL A   1      46.752  33.827  28.013  1.00  0.00     0.173 A 
ATOM     67  F   UNL A   1      47.362  31.869  31.018  1.00  0.00    -0.203 F 
ATOM     68  C   UNL A   1      47.603  34.178  30.633  1.00  0.00     0.198 A 
ATOM     69  C   UNL A   1      47.099  35.095  28.471  1.00  0.00     0.198 A 
ATOM     70  F   UNL A   1      46.333  33.691  26.746  1.00  0.00    -0.203 F 
ATOM     71  F   UNL A   1      47.974  34.351  31.909  1.00  0.00    -0.200 F 
ATOM     72  C   UNL A   1      47.514  35.271  29.783  1.00  0.00     0.200 A 
ATOM     73  F   UNL A   1      47.020  36.148  27.647  1.00  0.00    -0.200 F 
ATOM     74  F   UNL A   1      47.817  36.496  30.232  1.00  0.00    -0.200 F 
ENDBRANCH  41  64
ENDBRANCH  15  16
ENDBRANCH   8  10
ENDBRANCH   5   6
ENDBRANCH   4   5
ENDBRANCH   3   4
ENDBRANCH   2   3
ENDBRANCH   1   2
BRANCH   1  75
ATOM     75  C   UNL A   1      38.868  22.811  26.059  1.00  0.00     0.116 C 
BRANCH  75  76
ATOM     76  N   UNL A   1      38.551  21.439  25.711  1.00  0.00    -0.351 N 
ATOM     77  C   UNL A   1      37.513  20.969  24.949  1.00  0.00     0.269 C 
ATOM     78  H   UNL A   1      39.160  20.754  26.071  1.00  0.00     0.163 HD
ATOM     79  O   UNL A   1      37.296  19.758  24.921  1.00  0.00    -0.268 OA
BRANCH  77  80
ATOM     80  C   UNL A   1      36.676  21.918  24.279  1.00  0.00     0.131 A 
ATOM     81  N   UNL A   1      37.054  22.501  23.101  1.00  0.00    -0.272 N 
ATOM     82  C   UNL A   1      35.441  22.476  24.594  1.00  0.00     0.057 A 
ATOM     83  N   UNL A   1      36.077  23.206  22.513  1.00  0.00    -0.183 NA
ATOM     84  H   UNL A   1      37.958  22.412  22.721  1.00  0.00     0.190 HD
ATOM     85  C   UNL A   1      35.102  23.197  23.422  1.00  0.00     0.145 A 
BRANCH  82  86
ATOM     86  C   UNL A   1      34.630  22.292  25.842  1.00  0.00     0.303 C 
BRANCH  86  87
ATOM     87  N   UNL A   1      33.206  22.638  25.714  1.00  0.00    -0.330 N 
ATOM     88  C   UNL A   1      32.339  21.856  26.604  1.00  0.00     0.262 C 
ATOM     89  C   UNL A   1      32.962  24.077  25.827  1.00  0.00     0.274 C 
ATOM     90  H   UNL A   1      32.944  22.373  24.764  1.00  0.00     0.348 HD
ATOM     91  C   UNL A   1      30.860  22.162  26.344  1.00  0.00     0.062 C 
ATOM     92  C   UNL A   1      31.501  24.453  25.558  1.00  0.00     0.116 C 
ATOM     93  C   UNL A   1      30.569  23.656  26.470  1.00  0.00     0.023 C 
BRANCH  92  94
ATOM     94  C   UNL A   1      31.378  25.945  25.818  1.00  0.00     0.171 C 
ATOM     95  O   UNL A   1      31.946  26.514  26.748  1.00  0.00    -0.294 OA
BRANCH  94  96
ATOM     96  C   UNL A   1      30.602  26.761  24.863  1.00  0.00     0.018 A 
ATOM     97  C   UNL A   1      29.312  26.343  24.522  1.00  0.00     0.015 A 
ATOM     98  C   UNL A   1      31.150  27.910  24.293  1.00  0.00     0.015 A 
ATOM     99  C   UNL A   1      28.568  27.081  23.602  1.00  0.00     0.048 A 
ATOM    100  C   UNL A   1      30.402  28.643  23.371  1.00  0.00     0.048 A 
ATOM    101  C   UNL A   1      29.116  28.221  23.008  1.00  0.00     0.127 A 
BRANCH 101 102
ATOM    102  O   UNL A   1      28.297  28.860  22.099  1.00  0.00    -0.457 OA
BRANCH 102 103
ATOM    103  C   UNL A   1      28.260  30.232  22.126  1.00  0.00     0.127 A 
ATOM    104  C   UNL A   1      28.221  30.907  20.908  1.00  0.00     0.047 A 
ATOM    105  C   UNL A   1      28.296  30.934  23.332  1.00  0.00     0.047 A 
ATOM    106  C   UNL A   1      28.159  32.299  20.896  1.00  0.00     0.004 A 
ATOM    107  C   UNL A   1      28.224  32.326  23.317  1.00  0.00     0.004 A 
ATOM    108  C   UNL A   1      28.150  33.007  22.100  1.00  0.00     0.000 A 
ENDBRANCH 102 103
ENDBRANCH 101 102
ENDBRANCH  94  96
ENDBRANCH  92  94
ENDBRANCH  86  87
ENDBRANCH  82  86
ENDBRANCH  77  80
ENDBRANCH  75  76
ENDBRANCH   1  75
TORSDOF 19
ENDMDL
MODEL 2
REMARK VINA RESULT:     -12.3      0.412      7.018
REMARK SMILES O=C(NCCCCCCNC(=O)c1[nH]ncc1C[N@H+]1CCC[C@@H](C(=O)c2ccc(Oc3ccccc3)cc2)C1)c1ccc(-c2c3nc(c(-c4c(F)c(F)c(F)c(F)c4F)c4ccc([nH]4)c(-c4c(F)c(F)c(F)c(F)c4F)c4nc(c(-c5c(F)c(F)c(F)c(F)c5F)c5ccc2[nH]5)C=C4)C=C3)cc1
REMARK SMILES IDX 8 1 7 2 6 3 5 4 4 5 3 6 1 7 2 8 40 10 41 11 102 12 42 13
REMARK SMILES IDX 101 14 43 15 44 16 45 17 95 18 46 19 100 20 94 21 96 22
REMARK SMILES IDX 47 23 99 24 93 25 92 26 48 28 80 29 60 30 79 31 61 32 64 33
REMARK SMILES IDX 78 34 97 35 62 36 63 37 77 39 98 40 65 41 49 42 50 43 58 44
REMARK SMILES IDX 51 45 52 46 56 47 59 48 53 49 54 50 57 51 55 52 81 53 82 54
REMARK SMILES IDX 90 55 83 56 84 57 88 58 91 59 85 60 86 61 89 62 87 63 66 64
REMARK SMILES IDX 67 65 75 66 68 67 69 68 73 69 76 70 70 71 71 72 74 73 72 74
REMARK SMILES IDX 9 75 10 76 11 77 12 79 13 80 14 81 17 82 15 83 16 85 18 86
REMARK SMILES IDX 19 87 20 88 39 89 21 91 23 92 22 93 24 94 25 95 26 96 27 97
REMARK SMILES IDX 38 98 28 99 37 100 29 101 30 102 31 103 32 104 36 105 33 106
REMARK SMILES IDX 35 107 34 108
REMARK H PARENT 3 9 96 27 64 38 10 78 14 84 19 90
REMARK Flexibility Score: inf
ROOT
ATOM      1  C   UNL A   1      39.788  22.926  27.267  1.00  0.00     0.021 C 
ENDROOT
BRANCH   1   2
ATOM      2  C   UNL A   1      41.152  22.269  27.038  1.00  0.00     0.002 C 
BRANCH   2   3
ATOM      3  C   UNL A   1      41.240  20.767  27.327  1.00  0.00     0.002 C 
BRANCH   3   4
ATOM      4  C   UNL A   1      41.547  19.867  26.131  1.00  0.00     0.021 C 
BRANCH   4   5
ATOM      5  C   UNL A   1      42.817  19.038  26.241  1.00  0.00     0.116 C 
BRANCH   5   6
ATOM      6  N   UNL A   1      43.502  18.861  24.973  1.00  0.00    -0.352 N 
ATOM      7  O   UNL A   1      44.668  19.494  23.144  1.00  0.00    -0.269 OA
ATOM      8  C   UNL A   1      44.238  19.776  24.258  1.00  0.00     0.251 C 
ATOM      9  H   UNL A   1      43.429  17.965  24.571  1.00  0.00     0.163 HD
BRANCH   8  10
ATOM     10  C   UNL A   1      44.486  21.121  24.827  1.00  0.00     0.039 A 
ATOM     11  C   UNL A   1      43.852  22.247  24.299  1.00  0.00     0.014 A 
ATOM     12  C   UNL A   1      45.373  21.255  25.901  1.00  0.00     0.014 A 
ATOM     13  C   UNL A   1      44.215  23.512  24.741  1.00  0.00     0.010 A 
ATOM     14  C   UNL A   1      45.666  22.525  26.409  1.00  0.00     0.010 A 
ATOM     15  C   UNL A   1      45.111  23.667  25.813  1.00  0.00    -0.014 A 
BRANCH  15  16
ATOM     16  C   UNL A   1      45.374  25.035  26.328  1.00  0.00     0.031 A 
ATOM     17  C   UNL A   1      46.722  25.684  26.196  1.00  0.00     0.074 A 
ATOM     18  C   UNL A   1      44.344  25.717  26.868  1.00  0.00     0.049 A 
ATOM     19  N   UNL A   1      47.086  26.899  26.522  1.00  0.00    -0.248 NA
ATOM     20  C   UNL A   1      47.808  24.866  25.633  1.00  0.00     0.031 C 
ATOM     21  C   UNL A   1      42.998  25.176  27.074  1.00  0.00     0.029 A 
ATOM     22  N   UNL A   1      44.251  27.012  27.307  1.00  0.00    -0.354 N 
ATOM     23  C   UNL A   1      48.436  26.991  26.216  1.00  0.00     0.074 A 
ATOM     24  C   UNL A   1      48.839  25.699  25.702  1.00  0.00     0.031 C 
ATOM     25  C   UNL A   1      42.201  26.148  27.539  1.00  0.00     0.029 A 
ATOM     26  C   UNL A   1      42.989  27.360  27.719  1.00  0.00     0.049 A 
ATOM     27  H   UNL A   1      45.016  27.632  27.325  1.00  0.00     0.167 HD
ATOM     28  C   UNL A   1      49.259  28.061  26.342  1.00  0.00     0.037 A 
ATOM     29  C   UNL A   1      42.516  28.526  28.195  1.00  0.00     0.037 A 
ATOM     30  C   UNL A   1      48.849  29.348  26.848  1.00  0.00     0.049 A 
ATOM     31  C   UNL A   1      43.449  29.695  28.309  1.00  0.00     0.074 A 
ATOM     32  C   UNL A   1      49.608  30.496  27.007  1.00  0.00     0.029 A 
ATOM     33  N   UNL A   1      47.566  29.659  27.272  1.00  0.00    -0.354 N 
ATOM     34  N   UNL A   1      44.719  29.772  27.995  1.00  0.00    -0.248 NA
ATOM     35  C   UNL A   1      42.884  30.940  28.845  1.00  0.00     0.031 C 
ATOM     36  C   UNL A   1      48.792  31.490  27.559  1.00  0.00     0.029 A 
ATOM     37  C   UNL A   1      47.514  30.976  27.704  1.00  0.00     0.049 A 
ATOM     38  H   UNL A   1      46.804  29.036  27.268  1.00  0.00     0.167 HD
ATOM     39  C   UNL A   1      45.106  31.068  28.296  1.00  0.00     0.074 A 
ATOM     40  C   UNL A   1      43.926  31.756  28.778  1.00  0.00     0.031 C 
ATOM     41  C   UNL A   1      46.333  31.636  28.195  1.00  0.00     0.037 A 
BRANCH  28  42
ATOM     42  C   UNL A   1      50.693  27.894  25.931  1.00  0.00     0.064 A 
ATOM     43  C   UNL A   1      51.113  28.149  24.617  1.00  0.00     0.173 A 
ATOM     44  C   UNL A   1      51.670  27.543  26.876  1.00  0.00     0.173 A 
ATOM     45  F   UNL A   1      50.217  28.476  23.674  1.00  0.00    -0.203 F 
ATOM     46  C   UNL A   1      52.455  28.046  24.262  1.00  0.00     0.198 A 
ATOM     47  C   UNL A   1      53.015  27.465  26.523  1.00  0.00     0.198 A 
ATOM     48  F   UNL A   1      51.323  27.295  28.148  1.00  0.00    -0.203 F 
ATOM     49  F   UNL A   1      52.830  28.266  22.993  1.00  0.00    -0.200 F 
ATOM     50  C   UNL A   1      53.406  27.713  25.216  1.00  0.00     0.200 A 
ATOM     51  F   UNL A   1      53.934  27.154  27.448  1.00  0.00    -0.200 F 
ATOM     52  F   UNL A   1      54.700  27.629  24.874  1.00  0.00    -0.200 F 
ENDBRANCH  28  42
BRANCH  29  53
ATOM     53  C   UNL A   1      41.091  28.632  28.599  1.00  0.00     0.064 A 
ATOM     54  C   UNL A   1      40.104  29.020  27.683  1.00  0.00     0.173 A 
ATOM     55  C   UNL A   1      40.687  28.334  29.909  1.00  0.00     0.173 A 
ATOM     56  F   UNL A   1      40.445  29.332  26.424  1.00  0.00    -0.203 F 
ATOM     57  C   UNL A   1      38.769  29.121  28.067  1.00  0.00     0.198 A 
ATOM     58  C   UNL A   1      39.348  28.404  30.283  1.00  0.00     0.198 A 
ATOM     59  F   UNL A   1      41.593  27.950  30.821  1.00  0.00    -0.203 F 
ATOM     60  F   UNL A   1      37.850  29.536  27.184  1.00  0.00    -0.200 F 
ATOM     61  C   UNL A   1      38.391  28.806  29.363  1.00  0.00     0.200 A 
ATOM     62  F   UNL A   1      38.985  28.081  31.531  1.00  0.00    -0.200 F 
ATOM     63  F   UNL A   1      37.105  28.895  29.730  1.00  0.00    -0.200 F 
ENDBRANCH  29  53
BRANCH  41  64
ATOM     64  C   UNL A   1      46.447  33.070  28.620  1.00  0.00     0.064 A 
ATOM     65  C   UNL A   1      46.244  34.118  27.711  1.00  0.00     0.173 A 
ATOM     66  C   UNL A   1      46.763  33.398  29.946  1.00  0.00     0.173 A 
ATOM     67  F   UNL A   1      45.957  33.853  26.427  1.00  0.00    -0.203 F 
ATOM     68  C   UNL A   1      46.387  35.445  28.106  1.00  0.00     0.198 A 
ATOM     69  C   UNL A   1      46.879  34.726  30.345  1.00  0.00     0.198 A 
ATOM     70  F   UNL A   1      46.963  32.431  30.854  1.00  0.00    -0.203 F 
ATOM     71  F   UNL A   1      46.245  36.429  27.207  1.00  0.00    -0.200 F 
ATOM     72  C   UNL A   1      46.700  35.748  29.423  1.00  0.00     0.200 A 
ATOM     73  F   UNL A   1      47.174  35.019  31.618  1.00  0.00    -0.200 F 
ATOM     74  F   UNL A   1      46.844  37.025  29.801  1.00  0.00    -0.200 F 
ENDBRANCH  41  64
ENDBRANCH  15  16
ENDBRANCH   8  10
ENDBRANCH   5   6
ENDBRANCH   4   5
ENDBRANCH   3   4
ENDBRANCH   2   3
ENDBRANCH   1   2
BRANCH   1  75
ATOM     75  C   UNL A   1      38.816  22.845  26.096  1.00  0.00     0.116 C 
BRANCH  75  76
ATOM     76  N   UNL A   1      38.446  21.482  25.763  1.00  0.00    -0.351 N 
ATOM     77  C   UNL A   1      37.382  21.044  25.019  1.00  0.00     0.269 C 
ATOM     78  H   UNL A   1      39.037  20.779  26.119  1.00  0.00     0.163 HD
ATOM     79  O   UNL A   1      37.122  19.841  25.004  1.00  0.00    -0.268 OA
BRANCH  77  80
ATOM     80  C   UNL A   1      36.569  22.017  24.354  1.00  0.00     0.131 A 
ATOM     81  N   UNL A   1      36.964  22.602  23.183  1.00  0.00    -0.272 N 
ATOM     82  C   UNL A   1      35.344  22.598  24.669  1.00  0.00     0.057 A 
ATOM     83  N   UNL A   1      36.005  23.332  22.597  1.00  0.00    -0.183 NA
ATOM     84  H   UNL A   1      37.868  22.496  22.807  1.00  0.00     0.190 HD
ATOM     85  C   UNL A   1      35.027  23.337  23.501  1.00  0.00     0.145 A 
BRANCH  82  86
ATOM     86  C   UNL A   1      34.523  22.421  25.911  1.00  0.00     0.303 C 
BRANCH  86  87
ATOM     87  N   UNL A   1      33.095  22.739  25.763  1.00  0.00    -0.330 N 
ATOM     88  C   UNL A   1      32.230  21.930  26.631  1.00  0.00     0.262 C 
ATOM     89  C   UNL A   1      32.819  24.171  25.884  1.00  0.00     0.274 C 
ATOM     90  H   UNL A   1      32.855  22.477  24.806  1.00  0.00     0.348 HD
ATOM     91  C   UNL A   1      30.750  22.208  26.349  1.00  0.00     0.062 C 
ATOM     92  C   UNL A   1      31.355  24.519  25.595  1.00  0.00     0.116 C 
ATOM     93  C   UNL A   1      30.425  23.694  26.484  1.00  0.00     0.023 C 
BRANCH  92  94
ATOM     94  C   UNL A   1      31.197  26.006  25.867  1.00  0.00     0.171 C 
ATOM     95  O   UNL A   1      31.710  26.572  26.830  1.00  0.00    -0.294 OA
BRANCH  94  96
ATOM     96  C   UNL A   1      30.456  26.823  24.885  1.00  0.00     0.018 A 
ATOM     97  C   UNL A   1      29.198  26.382  24.463  1.00  0.00     0.015 A 
ATOM     98  C   UNL A   1      31.007  27.996  24.369  1.00  0.00     0.015 A 
ATOM     99  C   UNL A   1      28.489  27.120  23.516  1.00  0.00     0.048 A 
ATOM    100  C   UNL A   1      30.294  28.730  23.419  1.00  0.00     0.048 A 
ATOM    101  C   UNL A   1      29.042  28.284  22.976  1.00  0.00     0.127 A 
BRANCH 101 102
ATOM    102  O   UNL A   1      28.260  28.922  22.034  1.00  0.00    -0.457 OA
BRANCH 102 103
ATOM    103  C   UNL A   1      28.197  30.292  22.077  1.00  0.00     0.127 A 
ATOM    104  C   UNL A   1      28.189  30.983  20.868  1.00  0.00     0.047 A 
ATOM    105  C   UNL A   1      28.177  30.979  23.293  1.00  0.00     0.047 A 
ATOM    106  C   UNL A   1      28.102  32.374  20.871  1.00  0.00     0.004 A 
ATOM    107  C   UNL A   1      28.080  32.370  23.293  1.00  0.00     0.004 A 
ATOM    108  C   UNL A   1      28.037  33.065  22.083  1.00  0.00     0.000 A 
ENDBRANCH 102 103
ENDBRANCH 101 102
ENDBRANCH  94  96
ENDBRANCH  92  94
ENDBRANCH  86  87
ENDBRANCH  82  86
ENDBRANCH  77  80
ENDBRANCH  75  76
ENDBRANCH   1  75
TORSDOF 19
ENDMDL
MODEL 3
REMARK VINA RESULT:     -11.9      6.526     11.543
REMARK SMILES O=C(NCCCCCCNC(=O)c1[nH]ncc1C[N@H+]1CCC[C@@H](C(=O)c2ccc(Oc3ccccc3)cc2)C1)c1ccc(-c2c3nc(c(-c4c(F)c(F)c(F)c(F)c4F)c4ccc([nH]4)c(-c4c(F)c(F)c(F)c(F)c4F)c4nc(c(-c5c(F)c(F)c(F)c(F)c5F)c5ccc2[nH]5)C=C4)C=C3)cc1
REMARK SMILES IDX 8 1 7 2 6 3 5 4 4 5 3 6 1 7 2 8 40 10 41 11 102 12 42 13
REMARK SMILES IDX 101 14 43 15 44 16 45 17 95 18 46 19 100 20 94 21 96 22
REMARK SMILES IDX 47 23 99 24 93 25 92 26 48 28 80 29 60 30 79 31 61 32 64 33
REMARK SMILES IDX 78 34 97 35 62 36 63 37 77 39 98 40 65 41 49 42 50 43 58 44
REMARK SMILES IDX 51 45 52 46 56 47 59 48 53 49 54 50 57 51 55 52 81 53 82 54
REMARK SMILES IDX 90 55 83 56 84 57 88 58 91 59 85 60 86 61 89 62 87 63 66 64
REMARK SMILES IDX 67 65 75 66 68 67 69 68 73 69 76 70 70 71 71 72 74 73 72 74
REMARK SMILES IDX 9 75 10 76 11 77 12 79 13 80 14 81 17 82 15 83 16 85 18 86
REMARK SMILES IDX 19 87 20 88 39 89 21 91 23 92 22 93 24 94 25 95 26 96 27 97
REMARK SMILES IDX 38 98 28 99 37 100 29 101 30 102 31 103 32 104 36 105 33 106
REMARK SMILES IDX 35 107 34 108
REMARK H PARENT 3 9 96 27 64 38 10 78 14 84 19 90
REMARK Flexibility Score: inf
ROOT
ATOM      1  C   UNL A   1      39.448  34.353  31.720  1.00  0.00     0.021 C 
ENDROOT
BRANCH   1   2
ATOM      2  C   UNL A   1      39.293  34.514  33.235  1.00  0.00     0.002 C 
BRANCH   2   3
ATOM      3  C   UNL A   1      40.525  35.015  33.995  1.00  0.00     0.002 C 
BRANCH   3   4
ATOM      4  C   UNL A   1      40.305  35.401  35.457  1.00  0.00     0.021 C 
BRANCH   4   5
ATOM      5  C   UNL A   1      39.140  34.711  36.150  1.00  0.00     0.116 C 
BRANCH   5   6
ATOM      6  N   UNL A   1      39.503  34.101  37.417  1.00  0.00    -0.352 N 
ATOM      7  O   UNL A   1      40.477  32.585  38.780  1.00  0.00    -0.269 OA
ATOM      8  C   UNL A   1      40.359  33.051  37.652  1.00  0.00     0.251 C 
ATOM      9  H   UNL A   1      39.078  34.492  38.215  1.00  0.00     0.163 HD
BRANCH   8  10
ATOM     10  C   UNL A   1      41.119  32.460  36.527  1.00  0.00     0.039 A 
ATOM     11  C   UNL A   1      42.488  32.693  36.389  1.00  0.00     0.014 A 
ATOM     12  C   UNL A   1      40.446  31.666  35.591  1.00  0.00     0.014 A 
ATOM     13  C   UNL A   1      43.149  32.263  35.246  1.00  0.00     0.010 A 
ATOM     14  C   UNL A   1      41.136  31.152  34.487  1.00  0.00     0.010 A 
ATOM     15  C   UNL A   1      42.488  31.471  34.292  1.00  0.00    -0.014 A 
BRANCH  15  16
ATOM     16  C   UNL A   1      43.270  30.934  33.149  1.00  0.00     0.031 A 
ATOM     17  C   UNL A   1      43.615  31.783  31.959  1.00  0.00     0.074 A 
ATOM     18  C   UNL A   1      43.725  29.668  33.232  1.00  0.00     0.049 A 
ATOM     19  N   UNL A   1      44.357  31.484  30.922  1.00  0.00    -0.248 NA
ATOM     20  C   UNL A   1      43.052  33.142  31.918  1.00  0.00     0.031 C 
ATOM     21  C   UNL A   1      43.427  28.742  34.327  1.00  0.00     0.029 A 
ATOM     22  N   UNL A   1      44.556  28.953  32.410  1.00  0.00    -0.354 N 
ATOM     23  C   UNL A   1      44.344  32.605  30.104  1.00  0.00     0.074 A 
ATOM     24  C   UNL A   1      43.497  33.586  30.749  1.00  0.00     0.031 C 
ATOM     25  C   UNL A   1      44.114  27.606  34.142  1.00  0.00     0.029 A 
ATOM     26  C   UNL A   1      44.853  27.701  32.890  1.00  0.00     0.049 A 
ATOM     27  H   UNL A   1      44.906  29.303  31.559  1.00  0.00     0.167 HD
ATOM     28  C   UNL A   1      44.989  32.798  28.927  1.00  0.00     0.037 A 
ATOM     29  C   UNL A   1      45.631  26.731  32.376  1.00  0.00     0.037 A 
ATOM     30  C   UNL A   1      45.838  31.820  28.294  1.00  0.00     0.049 A 
ATOM     31  C   UNL A   1      46.343  26.982  31.080  1.00  0.00     0.074 A 
ATOM     32  C   UNL A   1      46.541  31.925  27.105  1.00  0.00     0.029 A 
ATOM     33  N   UNL A   1      46.102  30.556  28.800  1.00  0.00    -0.354 N 
ATOM     34  N   UNL A   1      46.338  28.056  30.329  1.00  0.00    -0.248 NA
ATOM     35  C   UNL A   1      47.171  25.886  30.558  1.00  0.00     0.031 C 
ATOM     36  C   UNL A   1      47.202  30.713  26.876  1.00  0.00     0.029 A 
ATOM     37  C   UNL A   1      46.947  29.868  27.942  1.00  0.00     0.049 A 
ATOM     38  H   UNL A   1      45.741  30.199  29.644  1.00  0.00     0.167 HD
ATOM     39  C   UNL A   1      47.155  27.767  29.247  1.00  0.00     0.074 A 
ATOM     40  C   UNL A   1      47.674  26.432  29.461  1.00  0.00     0.031 C 
ATOM     41  C   UNL A   1      47.440  28.534  28.166  1.00  0.00     0.037 A 
BRANCH  28  42
ATOM     42  C   UNL A   1      44.806  34.119  28.237  1.00  0.00     0.064 A 
ATOM     43  C   UNL A   1      43.802  34.311  27.278  1.00  0.00     0.173 A 
ATOM     44  C   UNL A   1      45.598  35.224  28.589  1.00  0.00     0.173 A 
ATOM     45  F   UNL A   1      43.026  33.285  26.898  1.00  0.00    -0.203 F 
ATOM     46  C   UNL A   1      43.604  35.557  26.687  1.00  0.00     0.198 A 
ATOM     47  C   UNL A   1      45.382  36.474  28.014  1.00  0.00     0.198 A 
ATOM     48  F   UNL A   1      46.569  35.095  29.506  1.00  0.00    -0.203 F 
ATOM     49  F   UNL A   1      42.656  35.710  25.751  1.00  0.00    -0.200 F 
ATOM     50  C   UNL A   1      44.388  36.639  27.061  1.00  0.00     0.200 A 
ATOM     51  F   UNL A   1      46.133  37.520  28.385  1.00  0.00    -0.200 F 
ATOM     52  F   UNL A   1      44.186  37.840  26.502  1.00  0.00    -0.200 F 
ENDBRANCH  28  42
BRANCH  29  53
ATOM     53  C   UNL A   1      45.766  25.438  33.094  1.00  0.00     0.064 A 
ATOM     54  C   UNL A   1      44.830  24.411  32.918  1.00  0.00     0.173 A 
ATOM     55  C   UNL A   1      46.842  25.202  33.962  1.00  0.00     0.173 A 
ATOM     56  F   UNL A   1      43.774  24.597  32.112  1.00  0.00    -0.203 F 
ATOM     57  C   UNL A   1      44.957  23.201  33.596  1.00  0.00     0.198 A 
ATOM     58  C   UNL A   1      46.987  23.980  34.613  1.00  0.00     0.198 A 
ATOM     59  F   UNL A   1      47.769  26.151  34.157  1.00  0.00    -0.203 F 
ATOM     60  F   UNL A   1      44.026  22.249  33.443  1.00  0.00    -0.200 F 
ATOM     61  C   UNL A   1      46.039  22.983  34.436  1.00  0.00     0.200 A 
ATOM     62  F   UNL A   1      48.043  23.768  35.409  1.00  0.00    -0.200 F 
ATOM     63  F   UNL A   1      46.166  21.815  35.081  1.00  0.00    -0.200 F 
ENDBRANCH  29  53
BRANCH  41  64
ATOM     64  C   UNL A   1      48.352  27.933  27.139  1.00  0.00     0.064 A 
ATOM     65  C   UNL A   1      49.739  28.136  27.188  1.00  0.00     0.173 A 
ATOM     66  C   UNL A   1      47.837  27.150  26.096  1.00  0.00     0.173 A 
ATOM     67  F   UNL A   1      50.277  28.893  28.157  1.00  0.00    -0.203 F 
ATOM     68  C   UNL A   1      50.574  27.605  26.210  1.00  0.00     0.198 A 
ATOM     69  C   UNL A   1      48.677  26.598  25.135  1.00  0.00     0.198 A 
ATOM     70  F   UNL A   1      46.518  26.924  26.008  1.00  0.00    -0.203 F 
ATOM     71  F   UNL A   1      51.890  27.859  26.244  1.00  0.00    -0.200 F 
ATOM     72  C   UNL A   1      50.044  26.833  25.187  1.00  0.00     0.200 A 
ATOM     73  F   UNL A   1      48.165  25.846  24.151  1.00  0.00    -0.200 F 
ATOM     74  F   UNL A   1      50.848  26.327  24.242  1.00  0.00    -0.200 F 
ENDBRANCH  41  64
ENDBRANCH  15  16
ENDBRANCH   8  10
ENDBRANCH   5   6
ENDBRANCH   4   5
ENDBRANCH   3   4
ENDBRANCH   2   3
ENDBRANCH   1   2
BRANCH   1  75
ATOM     75  C   UNL A   1      38.158  34.450  30.914  1.00  0.00     0.116 C 
BRANCH  75  76
ATOM     76  N   UNL A   1      38.074  33.455  29.861  1.00  0.00    -0.351 N 
ATOM     77  C   UNL A   1      36.982  33.091  29.117  1.00  0.00     0.269 C 
ATOM     78  H   UNL A   1      38.910  32.979  29.655  1.00  0.00     0.163 HD
ATOM     79  O   UNL A   1      37.058  32.093  28.400  1.00  0.00    -0.268 OA
BRANCH  77  80
ATOM     80  C   UNL A   1      35.774  33.844  29.266  1.00  0.00     0.131 A 
ATOM     81  N   UNL A   1      35.523  34.954  28.508  1.00  0.00    -0.272 N 
ATOM     82  C   UNL A   1      34.682  33.717  30.119  1.00  0.00     0.057 A 
ATOM     83  N   UNL A   1      34.271  35.418  28.633  1.00  0.00    -0.183 NA
ATOM     84  H   UNL A   1      36.198  35.373  27.926  1.00  0.00     0.190 HD
ATOM     85  C   UNL A   1      33.764  34.673  29.615  1.00  0.00     0.145 A 
BRANCH  82  86
ATOM     86  C   UNL A   1      34.492  32.748  31.248  1.00  0.00     0.303 C 
BRANCH  86  87
ATOM     87  N   UNL A   1      35.642  32.617  32.155  1.00  0.00    -0.330 N 
ATOM     88  C   UNL A   1      35.337  33.013  33.535  1.00  0.00     0.262 C 
ATOM     89  C   UNL A   1      36.271  31.297  32.083  1.00  0.00     0.274 C 
ATOM     90  H   UNL A   1      36.334  33.286  31.818  1.00  0.00     0.348 HD
ATOM     91  C   UNL A   1      36.595  32.980  34.410  1.00  0.00     0.062 C 
ATOM     92  C   UNL A   1      37.549  31.203  32.924  1.00  0.00     0.116 C 
ATOM     93  C   UNL A   1      37.267  31.609  34.370  1.00  0.00     0.023 C 
BRANCH  92  94
ATOM     94  C   UNL A   1      38.022  29.761  32.841  1.00  0.00     0.171 C 
ATOM     95  O   UNL A   1      37.400  28.821  33.331  1.00  0.00    -0.294 OA
BRANCH  94  96
ATOM     96  C   UNL A   1      39.246  29.469  32.070  1.00  0.00     0.018 A 
ATOM     97  C   UNL A   1      39.697  30.417  31.147  1.00  0.00     0.015 A 
ATOM     98  C   UNL A   1      39.927  28.263  32.239  1.00  0.00     0.015 A 
ATOM     99  C   UNL A   1      40.836  30.154  30.386  1.00  0.00     0.048 A 
ATOM    100  C   UNL A   1      41.065  28.004  31.473  1.00  0.00     0.048 A 
ATOM    101  C   UNL A   1      41.512  28.940  30.531  1.00  0.00     0.127 A 
BRANCH 101 102
ATOM    102  O   UNL A   1      42.613  28.781  29.715  1.00  0.00    -0.457 OA
BRANCH 102 103
ATOM    103  C   UNL A   1      42.402  28.725  28.360  1.00  0.00     0.127 A 
ATOM    104  C   UNL A   1      41.573  27.719  27.869  1.00  0.00     0.047 A 
ATOM    105  C   UNL A   1      43.025  29.625  27.492  1.00  0.00     0.047 A 
ATOM    106  C   UNL A   1      41.318  27.646  26.501  1.00  0.00     0.004 A 
ATOM    107  C   UNL A   1      42.759  29.555  26.125  1.00  0.00     0.004 A 
ATOM    108  C   UNL A   1      41.902  28.570  25.632  1.00  0.00     0.000 A 
ENDBRANCH 102 103
ENDBRANCH 101 102
ENDBRANCH  94  96
ENDBRANCH  92  94
ENDBRANCH  86  87
ENDBRANCH  82  86
ENDBRANCH  77  80
ENDBRANCH  75  76
ENDBRANCH   1  75
TORSDOF 19
ENDMDL
