MODEL 1
REMARK VINA RESULT:     -11.9      0.000      0.000
REMARK SMILES O=C(COc1ccc(Br)cc1/C=N/Nc1ncccc1[N+](=O)[O-])NCCCCCCNC(=O)c1ccc(-c2c3nc(c(-c4c(F)c(F)c(F)c(F)c4F)c4ccc([nH]4)c(-c4c(F)c(F)c(F)c(F)c4F)c4nc(c(-c5c(F)c(F)c(F)c(F)c5F)c5ccc2[nH]5)C=C4)C=C3)cc1
REMARK SMILES IDX 25 1 24 2 1 3 2 4 3 6 4 7 5 8 6 9 11 10 7 11 10 12 8 13 9 14
REMARK SMILES IDX 12 15 13 16 14 17 15 19 16 20 20 21 17 22 19 23 18 24 21 25
REMARK SMILES IDX 22 26 23 27 26 28 27 29 28 30 29 31 30 32 31 33 32 34 33 36
REMARK SMILES IDX 34 37 35 38 96 39 36 40 95 41 37 42 38 43 39 44 89 45 40 46
REMARK SMILES IDX 94 47 88 48 90 49 41 50 93 51 87 52 86 53 42 55 74 56 54 57
REMARK SMILES IDX 73 58 55 59 58 60 72 61 91 62 56 63 57 64 71 66 92 67 59 68
REMARK SMILES IDX 43 69 44 70 52 71 45 72 46 73 50 74 53 75 47 76 48 77 51 78
REMARK SMILES IDX 49 79 75 80 76 81 84 82 77 83 78 84 82 85 85 86 79 87 80 88
REMARK SMILES IDX 83 89 81 90 60 91 61 92 69 93 62 94 63 95 67 96 70 97 64 98
REMARK SMILES IDX 65 99 68 100 66 101
REMARK H PARENT 24 5 14 18 31 35 90 54 58 65
REMARK Flexibility Score: inf
ROOT
ATOM      1  C   UNL A   1      35.244  23.772  24.749  1.00  0.00     0.116 C 
ENDROOT
BRANCH   1   2
ATOM      2  N   UNL A   1      34.775  24.987  25.380  1.00  0.00    -0.353 N 
ATOM      3  O   UNL A   1      33.899  25.944  23.483  1.00  0.00    -0.271 OA
ATOM      4  C   UNL A   1      34.055  25.948  24.701  1.00  0.00     0.257 C 
ATOM      5  H   UNL A   1      34.979  25.134  26.332  1.00  0.00     0.163 HD
BRANCH   4   6
ATOM      6  C   UNL A   1      33.443  27.020  25.608  1.00  0.00     0.329 C 
BRANCH   6   7
ATOM      7  O   UNL A   1      32.043  26.856  25.876  1.00  0.00    -0.483 OA
BRANCH   7   8
ATOM      8  C   UNL A   1      31.235  27.594  25.046  1.00  0.00     0.129 A 
ATOM      9  C   UNL A   1      31.429  28.971  24.888  1.00  0.00     0.048 A 
ATOM     10  C   UNL A   1      30.262  26.953  24.269  1.00  0.00     0.038 A 
ATOM     11  C   UNL A   1      30.653  29.698  23.982  1.00  0.00     0.019 A 
ATOM     12  C   UNL A   1      29.474  27.683  23.368  1.00  0.00     0.029 A 
ATOM     13  C   UNL A   1      29.681  29.051  23.226  1.00  0.00     0.018 A 
ATOM     14  Br  UNL A   1      28.666  30.034  21.972  1.00  0.00    -0.051 Br
BRANCH  10  15
ATOM     15  C   UNL A   1      30.062  25.496  24.359  1.00  0.00     0.145 C 
ATOM     16  N   UNL A   1      30.877  24.672  23.772  1.00  0.00    -0.181 NA
BRANCH  16  17
ATOM     17  N   UNL A   1      30.656  23.346  23.942  1.00  0.00    -0.256 N 
ATOM     18  H   UNL A   1      29.815  22.988  23.577  1.00  0.00     0.192 HD
BRANCH  17  19
ATOM     19  C   UNL A   1      31.497  22.437  24.582  1.00  0.00     0.225 A 
ATOM     20  N   UNL A   1      32.086  21.550  23.739  1.00  0.00    -0.232 NA
ATOM     21  C   UNL A   1      31.825  22.434  25.932  1.00  0.00     0.313 A 
ATOM     22  C   UNL A   1      33.044  20.726  24.225  1.00  0.00     0.114 A 
ATOM     23  C   UNL A   1      32.831  21.592  26.424  1.00  0.00     0.091 A 
ATOM     24  C   UNL A   1      33.464  20.728  25.542  1.00  0.00     0.027 A 
BRANCH  21  25
ATOM     25  N   UNL A   1      31.111  23.254  26.876  1.00  0.00     0.066 N 
ATOM     26  O   UNL A   1      29.914  23.008  27.065  1.00  0.00    -0.258 OA
ATOM     27  O   UNL A   1      31.787  24.079  27.512  1.00  0.00    -0.258 OA
ENDBRANCH  21  25
ENDBRANCH  17  19
ENDBRANCH  16  17
ENDBRANCH  10  15
ENDBRANCH   7   8
ENDBRANCH   6   7
ENDBRANCH   4   6
ENDBRANCH   1   2
BRANCH   1  28
ATOM     28  C   UNL A   1      36.487  23.205  25.423  1.00  0.00     0.021 C 
BRANCH  28  29
ATOM     29  C   UNL A   1      37.208  22.119  24.616  1.00  0.00     0.002 C 
BRANCH  29  30
ATOM     30  C   UNL A   1      36.807  20.677  24.943  1.00  0.00     0.002 C 
BRANCH  30  31
ATOM     31  C   UNL A   1      37.960  19.672  25.003  1.00  0.00     0.021 C 
BRANCH  31  32
ATOM     32  C   UNL A   1      39.196  20.157  25.756  1.00  0.00     0.116 C 
BRANCH  32  33
ATOM     33  N   UNL A   1      40.202  19.118  25.905  1.00  0.00    -0.352 N 
ATOM     34  C   UNL A   1      41.554  19.236  26.119  1.00  0.00     0.251 C 
ATOM     35  H   UNL A   1      39.866  18.194  25.843  1.00  0.00     0.163 HD
ATOM     36  O   UNL A   1      42.278  18.245  26.056  1.00  0.00    -0.269 OA
BRANCH  34  37
ATOM     37  C   UNL A   1      42.147  20.560  26.399  1.00  0.00     0.039 A 
ATOM     38  C   UNL A   1      42.581  21.347  25.329  1.00  0.00     0.014 A 
ATOM     39  C   UNL A   1      42.278  21.028  27.710  1.00  0.00     0.014 A 
ATOM     40  C   UNL A   1      43.083  22.627  25.569  1.00  0.00     0.010 A 
ATOM     41  C   UNL A   1      42.705  22.333  27.941  1.00  0.00     0.010 A 
ATOM     42  C   UNL A   1      43.114  23.146  26.873  1.00  0.00    -0.014 A 
BRANCH  42  43
ATOM     43  C   UNL A   1      43.563  24.538  27.139  1.00  0.00     0.031 A 
ATOM     44  C   UNL A   1      42.594  25.562  27.663  1.00  0.00     0.074 A 
ATOM     45  C   UNL A   1      44.829  24.896  26.850  1.00  0.00     0.049 A 
ATOM     46  N   UNL A   1      42.780  26.836  27.899  1.00  0.00    -0.248 NA
ATOM     47  C   UNL A   1      41.224  25.097  27.933  1.00  0.00     0.031 C 
ATOM     48  C   UNL A   1      45.853  24.007  26.298  1.00  0.00     0.029 A 
ATOM     49  N   UNL A   1      45.469  26.105  26.971  1.00  0.00    -0.354 N 
ATOM     50  C   UNL A   1      41.554  27.324  28.333  1.00  0.00     0.074 A 
ATOM     51  C   UNL A   1      40.616  26.225  28.270  1.00  0.00     0.031 C 
ATOM     52  C   UNL A   1      46.998  24.693  26.154  1.00  0.00     0.029 A 
ATOM     53  C   UNL A   1      46.780  26.077  26.560  1.00  0.00     0.049 A 
ATOM     54  H   UNL A   1      45.030  26.915  27.320  1.00  0.00     0.167 HD
ATOM     55  C   UNL A   1      41.245  28.570  28.766  1.00  0.00     0.037 A 
ATOM     56  C   UNL A   1      47.699  27.061  26.509  1.00  0.00     0.037 A 
ATOM     57  C   UNL A   1      42.185  29.658  28.839  1.00  0.00     0.049 A 
ATOM     58  C   UNL A   1      47.320  28.444  26.968  1.00  0.00     0.074 A 
ATOM     59  C   UNL A   1      41.985  30.941  29.316  1.00  0.00     0.029 A 
ATOM     60  N   UNL A   1      43.505  29.592  28.416  1.00  0.00    -0.354 N 
ATOM     61  N   UNL A   1      46.179  28.875  27.446  1.00  0.00    -0.248 NA
ATOM     62  C   UNL A   1      48.363  29.476  26.885  1.00  0.00     0.031 C 
ATOM     63  C   UNL A   1      43.164  31.669  29.125  1.00  0.00     0.029 A 
ATOM     64  C   UNL A   1      44.121  30.821  28.591  1.00  0.00     0.049 A 
ATOM     65  H   UNL A   1      43.940  28.791  28.044  1.00  0.00     0.167 HD
ATOM     66  C   UNL A   1      46.375  30.216  27.752  1.00  0.00     0.074 A 
ATOM     67  C   UNL A   1      47.750  30.522  27.419  1.00  0.00     0.031 C 
ATOM     68  C   UNL A   1      45.495  31.112  28.263  1.00  0.00     0.037 A 
BRANCH  55  69
ATOM     69  C   UNL A   1      39.825  28.825  29.190  1.00  0.00     0.064 A 
ATOM     70  C   UNL A   1      39.407  28.642  30.517  1.00  0.00     0.173 A 
ATOM     71  C   UNL A   1      38.877  29.288  28.264  1.00  0.00     0.173 A 
ATOM     72  F   UNL A   1      40.270  28.193  31.442  1.00  0.00    -0.203 F 
ATOM     73  C   UNL A   1      38.087  28.877  30.893  1.00  0.00     0.198 A 
ATOM     74  C   UNL A   1      37.567  29.556  28.651  1.00  0.00     0.198 A 
ATOM     75  F   UNL A   1      39.223  29.489  26.983  1.00  0.00    -0.203 F 
ATOM     76  F   UNL A   1      37.698  28.638  32.153  1.00  0.00    -0.200 F 
ATOM     77  C   UNL A   1      37.170  29.340  29.962  1.00  0.00     0.200 A 
ATOM     78  F   UNL A   1      36.686  30.019  27.753  1.00  0.00    -0.200 F 
ATOM     79  F   UNL A   1      35.901  29.572  30.326  1.00  0.00    -0.200 F 
ENDBRANCH  55  69
BRANCH  56  80
ATOM     80  C   UNL A   1      49.074  26.771  26.023  1.00  0.00     0.064 A 
ATOM     81  C   UNL A   1      49.430  27.007  24.687  1.00  0.00     0.173 A 
ATOM     82  C   UNL A   1      50.057  26.244  26.874  1.00  0.00     0.173 A 
ATOM     83  F   UNL A   1      48.521  27.492  23.829  1.00  0.00    -0.203 F 
ATOM     84  C   UNL A   1      50.705  26.703  24.216  1.00  0.00     0.198 A 
ATOM     85  C   UNL A   1      51.342  25.970  26.410  1.00  0.00     0.198 A 
ATOM     86  F   UNL A   1      49.771  26.004  28.163  1.00  0.00    -0.203 F 
ATOM     87  F   UNL A   1      51.000  26.888  22.922  1.00  0.00    -0.200 F 
ATOM     88  C   UNL A   1      51.662  26.189  25.078  1.00  0.00     0.200 A 
ATOM     89  F   UNL A   1      52.268  25.490  27.251  1.00  0.00    -0.200 F 
ATOM     90  F   UNL A   1      52.888  25.899  24.625  1.00  0.00    -0.200 F 
ENDBRANCH  56  80
BRANCH  68  91
ATOM     91  C   UNL A   1      46.002  32.499  28.538  1.00  0.00     0.064 A 
ATOM     92  C   UNL A   1      46.599  32.841  29.760  1.00  0.00     0.173 A 
ATOM     93  C   UNL A   1      45.923  33.490  27.547  1.00  0.00     0.173 A 
ATOM     94  F   UNL A   1      46.685  31.936  30.746  1.00  0.00    -0.203 F 
ATOM     95  C   UNL A   1      47.069  34.132  29.991  1.00  0.00     0.198 A 
ATOM     96  C   UNL A   1      46.428  34.769  27.769  1.00  0.00     0.198 A 
ATOM     97  F   UNL A   1      45.370  33.215  26.356  1.00  0.00    -0.203 F 
ATOM     98  F   UNL A   1      47.585  34.450  31.187  1.00  0.00    -0.200 F 
ATOM     99  C   UNL A   1      46.992  35.091  28.993  1.00  0.00     0.200 A 
ATOM    100  F   UNL A   1      46.367  35.689  26.797  1.00  0.00    -0.200 F 
ATOM    101  F   UNL A   1      47.453  36.329  29.215  1.00  0.00    -0.200 F 
ENDBRANCH  68  91
ENDBRANCH  42  43
ENDBRANCH  34  37
ENDBRANCH  32  33
ENDBRANCH  31  32
ENDBRANCH  30  31
ENDBRANCH  29  30
ENDBRANCH  28  29
ENDBRANCH   1  28
TORSDOF 19
ENDMDL
MODEL 2
REMARK VINA RESULT:     -11.7      4.816      8.741
REMARK SMILES O=C(COc1ccc(Br)cc1/C=N/Nc1ncccc1[N+](=O)[O-])NCCCCCCNC(=O)c1ccc(-c2c3nc(c(-c4c(F)c(F)c(F)c(F)c4F)c4ccc([nH]4)c(-c4c(F)c(F)c(F)c(F)c4F)c4nc(c(-c5c(F)c(F)c(F)c(F)c5F)c5ccc2[nH]5)C=C4)C=C3)cc1
REMARK SMILES IDX 25 1 24 2 1 3 2 4 3 6 4 7 5 8 6 9 11 10 7 11 10 12 8 13 9 14
REMARK SMILES IDX 12 15 13 16 14 17 15 19 16 20 20 21 17 22 19 23 18 24 21 25
REMARK SMILES IDX 22 26 23 27 26 28 27 29 28 30 29 31 30 32 31 33 32 34 33 36
REMARK SMILES IDX 34 37 35 38 96 39 36 40 95 41 37 42 38 43 39 44 89 45 40 46
REMARK SMILES IDX 94 47 88 48 90 49 41 50 93 51 87 52 86 53 42 55 74 56 54 57
REMARK SMILES IDX 73 58 55 59 58 60 72 61 91 62 56 63 57 64 71 66 92 67 59 68
REMARK SMILES IDX 43 69 44 70 52 71 45 72 46 73 50 74 53 75 47 76 48 77 51 78
REMARK SMILES IDX 49 79 75 80 76 81 84 82 77 83 78 84 82 85 85 86 79 87 80 88
REMARK SMILES IDX 83 89 81 90 60 91 61 92 69 93 62 94 63 95 67 96 70 97 64 98
REMARK SMILES IDX 65 99 68 100 66 101
REMARK H PARENT 24 5 14 18 31 35 90 54 58 65
REMARK Flexibility Score: inf
ROOT
ATOM      1  C   UNL A   1      32.168  25.712  26.121  1.00  0.00     0.116 C 
ENDROOT
BRANCH   1   2
ATOM      2  N   UNL A   1      33.389  25.369  25.423  1.00  0.00    -0.353 N 
ATOM      3  O   UNL A   1      34.033  23.678  26.839  1.00  0.00    -0.271 OA
ATOM      4  C   UNL A   1      34.187  24.308  25.797  1.00  0.00     0.257 C 
ATOM      5  H   UNL A   1      33.661  25.916  24.651  1.00  0.00     0.163 HD
BRANCH   4   6
ATOM      6  C   UNL A   1      35.281  23.967  24.781  1.00  0.00     0.329 C 
BRANCH   6   7
ATOM      7  O   UNL A   1      34.831  23.238  23.630  1.00  0.00    -0.483 OA
BRANCH   7   8
ATOM      8  C   UNL A   1      34.408  21.964  23.919  1.00  0.00     0.129 A 
ATOM      9  C   UNL A   1      35.216  21.082  24.645  1.00  0.00     0.048 A 
ATOM     10  C   UNL A   1      33.112  21.563  23.569  1.00  0.00     0.038 A 
ATOM     11  C   UNL A   1      34.746  19.816  25.001  1.00  0.00     0.019 A 
ATOM     12  C   UNL A   1      32.643  20.287  23.914  1.00  0.00     0.029 A 
ATOM     13  C   UNL A   1      33.462  19.425  24.635  1.00  0.00     0.018 A 
ATOM     14  Br  UNL A   1      32.818  17.728  25.158  1.00  0.00    -0.051 Br
BRANCH  10  15
ATOM     15  C   UNL A   1      32.204  22.478  22.855  1.00  0.00     0.145 C 
ATOM     16  N   UNL A   1      31.584  23.430  23.486  1.00  0.00    -0.181 NA
BRANCH  16  17
ATOM     17  N   UNL A   1      30.806  24.261  22.752  1.00  0.00    -0.256 N 
ATOM     18  H   UNL A   1      30.191  23.839  22.109  1.00  0.00     0.192 HD
BRANCH  17  19
ATOM     19  C   UNL A   1      30.785  25.654  22.814  1.00  0.00     0.225 A 
ATOM     20  N   UNL A   1      29.690  26.157  23.442  1.00  0.00    -0.232 NA
ATOM     21  C   UNL A   1      31.791  26.508  22.383  1.00  0.00     0.313 A 
ATOM     22  C   UNL A   1      29.642  27.485  23.703  1.00  0.00     0.114 A 
ATOM     23  C   UNL A   1      31.743  27.879  22.672  1.00  0.00     0.091 A 
ATOM     24  C   UNL A   1      30.646  28.373  23.363  1.00  0.00     0.027 A 
BRANCH  21  25
ATOM     25  N   UNL A   1      32.887  26.027  21.582  1.00  0.00     0.066 N 
ATOM     26  O   UNL A   1      32.621  25.505  20.492  1.00  0.00    -0.258 OA
ATOM     27  O   UNL A   1      34.029  26.277  22.002  1.00  0.00    -0.258 OA
ENDBRANCH  21  25
ENDBRANCH  17  19
ENDBRANCH  16  17
ENDBRANCH  10  15
ENDBRANCH   7   8
ENDBRANCH   6   7
ENDBRANCH   4   6
ENDBRANCH   1   2
BRANCH   1  28
ATOM     28  C   UNL A   1      32.133  27.172  26.556  1.00  0.00     0.021 C 
BRANCH  28  29
ATOM     29  C   UNL A   1      33.504  27.858  26.587  1.00  0.00     0.002 C 
BRANCH  29  30
ATOM     30  C   UNL A   1      33.651  29.082  25.676  1.00  0.00     0.002 C 
BRANCH  30  31
ATOM     31  C   UNL A   1      32.536  30.123  25.790  1.00  0.00     0.021 C 
BRANCH  31  32
ATOM     32  C   UNL A   1      32.412  30.786  27.159  1.00  0.00     0.116 C 
BRANCH  32  33
ATOM     33  N   UNL A   1      32.628  32.223  27.106  1.00  0.00    -0.352 N 
ATOM     34  C   UNL A   1      33.655  32.971  27.627  1.00  0.00     0.251 C 
ATOM     35  H   UNL A   1      31.937  32.735  26.626  1.00  0.00     0.163 HD
ATOM     36  O   UNL A   1      33.587  34.198  27.625  1.00  0.00    -0.269 OA
BRANCH  34  37
ATOM     37  C   UNL A   1      34.833  32.303  28.217  1.00  0.00     0.039 A 
ATOM     38  C   UNL A   1      36.024  33.023  28.348  1.00  0.00     0.014 A 
ATOM     39  C   UNL A   1      34.771  30.972  28.638  1.00  0.00     0.014 A 
ATOM     40  C   UNL A   1      37.129  32.430  28.962  1.00  0.00     0.010 A 
ATOM     41  C   UNL A   1      35.846  30.408  29.321  1.00  0.00     0.010 A 
ATOM     42  C   UNL A   1      37.037  31.131  29.489  1.00  0.00    -0.014 A 
BRANCH  42  43
ATOM     43  C   UNL A   1      38.173  30.515  30.223  1.00  0.00     0.031 A 
ATOM     44  C   UNL A   1      38.446  30.892  31.653  1.00  0.00     0.074 A 
ATOM     45  C   UNL A   1      38.996  29.663  29.583  1.00  0.00     0.049 A 
ATOM     46  N   UNL A   1      39.421  30.511  32.440  1.00  0.00    -0.248 NA
ATOM     47  C   UNL A   1      37.514  31.846  32.274  1.00  0.00     0.031 C 
ATOM     48  C   UNL A   1      38.864  29.250  28.185  1.00  0.00     0.029 A 
ATOM     49  N   UNL A   1      40.115  28.996  30.021  1.00  0.00    -0.354 N 
ATOM     50  C   UNL A   1      39.226  31.184  33.639  1.00  0.00     0.074 A 
ATOM     51  C   UNL A   1      38.076  32.043  33.458  1.00  0.00     0.031 C 
ATOM     52  C   UNL A   1      39.844  28.381  27.889  1.00  0.00     0.029 A 
ATOM     53  C   UNL A   1      40.699  28.209  29.058  1.00  0.00     0.049 A 
ATOM     54  H   UNL A   1      40.464  29.075  30.938  1.00  0.00     0.167 HD
ATOM     55  C   UNL A   1      39.927  31.078  34.793  1.00  0.00     0.037 A 
ATOM     56  C   UNL A   1      41.806  27.443  29.112  1.00  0.00     0.037 A 
ATOM     57  C   UNL A   1      41.063  30.212  34.973  1.00  0.00     0.049 A 
ATOM     58  C   UNL A   1      42.584  27.366  30.398  1.00  0.00     0.074 A 
ATOM     59  C   UNL A   1      41.807  29.990  36.118  1.00  0.00     0.029 A 
ATOM     60  N   UNL A   1      41.625  29.428  33.975  1.00  0.00    -0.354 N 
ATOM     61  N   UNL A   1      42.346  27.949  31.547  1.00  0.00    -0.248 NA
ATOM     62  C   UNL A   1      43.784  26.517  30.394  1.00  0.00     0.031 C 
ATOM     63  C   UNL A   1      42.854  29.120  35.799  1.00  0.00     0.029 A 
ATOM     64  C   UNL A   1      42.725  28.746  34.471  1.00  0.00     0.049 A 
ATOM     65  H   UNL A   1      41.293  29.365  33.050  1.00  0.00     0.167 HD
ATOM     66  C   UNL A   1      43.343  27.513  32.410  1.00  0.00     0.074 A 
ATOM     67  C   UNL A   1      44.179  26.604  31.656  1.00  0.00     0.031 C 
ATOM     68  C   UNL A   1      43.546  27.836  33.711  1.00  0.00     0.037 A 
BRANCH  55  69
ATOM     69  C   UNL A   1      39.487  31.927  35.953  1.00  0.00     0.064 A 
ATOM     70  C   UNL A   1      38.445  31.530  36.805  1.00  0.00     0.173 A 
ATOM     71  C   UNL A   1      40.136  33.139  36.235  1.00  0.00     0.173 A 
ATOM     72  F   UNL A   1      37.785  30.384  36.577  1.00  0.00    -0.203 F 
ATOM     73  C   UNL A   1      38.046  32.330  37.873  1.00  0.00     0.198 A 
ATOM     74  C   UNL A   1      39.758  33.920  37.324  1.00  0.00     0.198 A 
ATOM     75  F   UNL A   1      41.144  33.565  35.459  1.00  0.00    -0.203 F 
ATOM     76  F   UNL A   1      37.010  31.957  38.637  1.00  0.00    -0.200 F 
ATOM     77  C   UNL A   1      38.706  33.521  38.135  1.00  0.00     0.200 A 
ATOM     78  F   UNL A   1      40.407  35.062  37.586  1.00  0.00    -0.200 F 
ATOM     79  F   UNL A   1      38.325  34.287  39.167  1.00  0.00    -0.200 F 
ENDBRANCH  55  69
BRANCH  56  80
ATOM     80  C   UNL A   1      42.234  26.668  27.916  1.00  0.00     0.064 A 
ATOM     81  C   UNL A   1      41.738  25.378  27.680  1.00  0.00     0.173 A 
ATOM     82  C   UNL A   1      43.152  27.191  26.994  1.00  0.00     0.173 A 
ATOM     83  F   UNL A   1      40.873  24.825  28.543  1.00  0.00    -0.203 F 
ATOM     84  C   UNL A   1      42.164  24.631  26.583  1.00  0.00     0.198 A 
ATOM     85  C   UNL A   1      43.553  26.456  25.880  1.00  0.00     0.198 A 
ATOM     86  F   UNL A   1      43.654  28.423  27.170  1.00  0.00    -0.203 F 
ATOM     87  F   UNL A   1      41.714  23.381  26.412  1.00  0.00    -0.200 F 
ATOM     88  C   UNL A   1      43.067  25.173  25.681  1.00  0.00     0.200 A 
ATOM     89  F   UNL A   1      44.413  26.990  25.001  1.00  0.00    -0.200 F 
ATOM     90  F   UNL A   1      43.474  24.456  24.625  1.00  0.00    -0.200 F 
ENDBRANCH  56  80
BRANCH  68  91
ATOM     91  C   UNL A   1      44.692  27.169  34.418  1.00  0.00     0.064 A 
ATOM     92  C   UNL A   1      44.553  25.920  35.039  1.00  0.00     0.173 A 
ATOM     93  C   UNL A   1      45.958  27.775  34.442  1.00  0.00     0.173 A 
ATOM     94  F   UNL A   1      43.361  25.304  35.059  1.00  0.00    -0.203 F 
ATOM     95  C   UNL A   1      45.631  25.316  35.682  1.00  0.00     0.198 A 
ATOM     96  C   UNL A   1      47.042  27.152  35.054  1.00  0.00     0.198 A 
ATOM     97  F   UNL A   1      46.149  28.968  33.857  1.00  0.00    -0.203 F 
ATOM     98  F   UNL A   1      45.460  24.147  36.315  1.00  0.00    -0.200 F 
ATOM     99  C   UNL A   1      46.875  25.927  35.681  1.00  0.00     0.200 A 
ATOM    100  F   UNL A   1      48.247  27.737  35.038  1.00  0.00    -0.200 F 
ATOM    101  F   UNL A   1      47.912  25.340  36.293  1.00  0.00    -0.200 F 
ENDBRANCH  68  91
ENDBRANCH  42  43
ENDBRANCH  34  37
ENDBRANCH  32  33
ENDBRANCH  31  32
ENDBRANCH  30  31
ENDBRANCH  29  30
ENDBRANCH  28  29
ENDBRANCH   1  28
TORSDOF 19
ENDMDL
MODEL 3
REMARK VINA RESULT:     -11.7      6.509     12.401
REMARK SMILES O=C(COc1ccc(Br)cc1/C=N/Nc1ncccc1[N+](=O)[O-])NCCCCCCNC(=O)c1ccc(-c2c3nc(c(-c4c(F)c(F)c(F)c(F)c4F)c4ccc([nH]4)c(-c4c(F)c(F)c(F)c(F)c4F)c4nc(c(-c5c(F)c(F)c(F)c(F)c5F)c5ccc2[nH]5)C=C4)C=C3)cc1
REMARK SMILES IDX 25 1 24 2 1 3 2 4 3 6 4 7 5 8 6 9 11 10 7 11 10 12 8 13 9 14
REMARK SMILES IDX 12 15 13 16 14 17 15 19 16 20 20 21 17 22 19 23 18 24 21 25
REMARK SMILES IDX 22 26 23 27 26 28 27 29 28 30 29 31 30 32 31 33 32 34 33 36
REMARK SMILES IDX 34 37 35 38 96 39 36 40 95 41 37 42 38 43 39 44 89 45 40 46
REMARK SMILES IDX 94 47 88 48 90 49 41 50 93 51 87 52 86 53 42 55 74 56 54 57
REMARK SMILES IDX 73 58 55 59 58 60 72 61 91 62 56 63 57 64 71 66 92 67 59 68
REMARK SMILES IDX 43 69 44 70 52 71 45 72 46 73 50 74 53 75 47 76 48 77 51 78
REMARK SMILES IDX 49 79 75 80 76 81 84 82 77 83 78 84 82 85 85 86 79 87 80 88
REMARK SMILES IDX 83 89 81 90 60 91 61 92 69 93 62 94 63 95 67 96 70 97 64 98
REMARK SMILES IDX 65 99 68 100 66 101
REMARK H PARENT 24 5 14 18 31 35 90 54 58 65
REMARK Flexibility Score: inf
ROOT
ATOM      1  C   UNL A   1      44.475  23.328  31.326  1.00  0.00     0.116 C 
ENDROOT
BRANCH   1   2
ATOM      2  N   UNL A   1      45.044  24.228  30.345  1.00  0.00    -0.353 N 
ATOM      3  O   UNL A   1      44.390  23.039  28.491  1.00  0.00    -0.271 OA
ATOM      4  C   UNL A   1      44.876  24.050  28.988  1.00  0.00     0.257 C 
ATOM      5  H   UNL A   1      45.571  24.997  30.660  1.00  0.00     0.163 HD
BRANCH   4   6
ATOM      6  C   UNL A   1      45.337  25.245  28.146  1.00  0.00     0.329 C 
BRANCH   6   7
ATOM      7  O   UNL A   1      45.131  25.102  26.733  1.00  0.00    -0.483 OA
BRANCH   7   8
ATOM      8  C   UNL A   1      46.153  25.619  25.975  1.00  0.00     0.129 A 
ATOM      9  C   UNL A   1      46.600  26.931  26.164  1.00  0.00     0.048 A 
ATOM     10  C   UNL A   1      46.829  24.798  25.063  1.00  0.00     0.038 A 
ATOM     11  C   UNL A   1      47.691  27.422  25.443  1.00  0.00     0.019 A 
ATOM     12  C   UNL A   1      47.917  25.292  24.329  1.00  0.00     0.029 A 
ATOM     13  C   UNL A   1      48.345  26.600  24.531  1.00  0.00     0.018 A 
ATOM     14  Br  UNL A   1      49.847  27.257  23.592  1.00  0.00    -0.051 Br
BRANCH  10  15
ATOM     15  C   UNL A   1      46.432  23.392  24.873  1.00  0.00     0.145 C 
ATOM     16  N   UNL A   1      45.467  23.074  24.062  1.00  0.00    -0.181 NA
BRANCH  16  17
ATOM     17  N   UNL A   1      45.194  21.757  23.903  1.00  0.00    -0.256 N 
ATOM     18  H   UNL A   1      45.608  21.310  23.130  1.00  0.00     0.192 HD
BRANCH  17  19
ATOM     19  C   UNL A   1      44.387  20.968  24.722  1.00  0.00     0.225 A 
ATOM     20  N   UNL A   1      43.319  21.630  25.238  1.00  0.00    -0.232 NA
ATOM     21  C   UNL A   1      44.541  19.608  24.959  1.00  0.00     0.313 A 
ATOM     22  C   UNL A   1      42.381  20.926  25.914  1.00  0.00     0.114 A 
ATOM     23  C   UNL A   1      43.558  18.883  25.644  1.00  0.00     0.091 A 
ATOM     24  C   UNL A   1      42.444  19.560  26.119  1.00  0.00     0.027 A 
BRANCH  21  25
ATOM     25  N   UNL A   1      45.735  18.911  24.557  1.00  0.00     0.066 N 
ATOM     26  O   UNL A   1      45.894  18.686  23.350  1.00  0.00    -0.258 OA
ATOM     27  O   UNL A   1      46.570  18.686  25.448  1.00  0.00    -0.258 OA
ENDBRANCH  21  25
ENDBRANCH  17  19
ENDBRANCH  16  17
ENDBRANCH  10  15
ENDBRANCH   7   8
ENDBRANCH   6   7
ENDBRANCH   4   6
ENDBRANCH   1   2
BRANCH   1  28
ATOM     28  C   UNL A   1      44.188  24.016  32.655  1.00  0.00     0.021 C 
BRANCH  28  29
ATOM     29  C   UNL A   1      44.242  23.089  33.875  1.00  0.00     0.002 C 
BRANCH  29  30
ATOM     30  C   UNL A   1      45.562  22.336  34.074  1.00  0.00     0.002 C 
BRANCH  30  31
ATOM     31  C   UNL A   1      46.395  22.778  35.279  1.00  0.00     0.021 C 
BRANCH  31  32
ATOM     32  C   UNL A   1      47.400  23.889  34.992  1.00  0.00     0.116 C 
BRANCH  32  33
ATOM     33  N   UNL A   1      47.631  24.745  36.145  1.00  0.00    -0.352 N 
ATOM     34  C   UNL A   1      47.078  25.964  36.451  1.00  0.00     0.251 C 
ATOM     35  H   UNL A   1      48.278  24.400  36.802  1.00  0.00     0.163 HD
ATOM     36  O   UNL A   1      47.517  26.622  37.393  1.00  0.00    -0.269 OA
BRANCH  34  37
ATOM     37  C   UNL A   1      45.972  26.504  35.633  1.00  0.00     0.039 A 
ATOM     38  C   UNL A   1      44.669  26.063  35.882  1.00  0.00     0.014 A 
ATOM     39  C   UNL A   1      46.213  27.438  34.622  1.00  0.00     0.014 A 
ATOM     40  C   UNL A   1      43.604  26.609  35.164  1.00  0.00     0.010 A 
ATOM     41  C   UNL A   1      45.144  28.038  33.961  1.00  0.00     0.010 A 
ATOM     42  C   UNL A   1      43.828  27.629  34.224  1.00  0.00    -0.014 A 
BRANCH  42  43
ATOM     43  C   UNL A   1      42.699  28.283  33.513  1.00  0.00     0.031 A 
ATOM     44  C   UNL A   1      42.447  27.992  32.059  1.00  0.00     0.074 A 
ATOM     45  C   UNL A   1      41.936  29.184  34.160  1.00  0.00     0.049 A 
ATOM     46  N   UNL A   1      41.553  28.507  31.252  1.00  0.00    -0.248 NA
ATOM     47  C   UNL A   1      43.337  27.011  31.418  1.00  0.00     0.031 C 
ATOM     48  C   UNL A   1      42.104  29.585  35.558  1.00  0.00     0.029 A 
ATOM     49  N   UNL A   1      40.872  29.937  33.726  1.00  0.00    -0.354 N 
ATOM     50  C   UNL A   1      41.780  27.922  30.013  1.00  0.00     0.074 A 
ATOM     51  C   UNL A   1      42.933  27.061  30.158  1.00  0.00     0.031 C 
ATOM     52  C   UNL A   1      41.161  30.487  35.874  1.00  0.00     0.029 A 
ATOM     53  C   UNL A   1      40.351  30.763  34.692  1.00  0.00     0.049 A 
ATOM     54  H   UNL A   1      40.517  29.888  32.809  1.00  0.00     0.167 HD
ATOM     55  C   UNL A   1      41.077  28.073  28.865  1.00  0.00     0.037 A 
ATOM     56  C   UNL A   1      39.338  31.649  34.628  1.00  0.00     0.037 A 
ATOM     57  C   UNL A   1      39.921  28.922  28.730  1.00  0.00     0.049 A 
ATOM     58  C   UNL A   1      38.592  31.819  33.332  1.00  0.00     0.074 A 
ATOM     59  C   UNL A   1      39.106  29.101  27.626  1.00  0.00     0.029 A 
ATOM     60  N   UNL A   1      39.421  29.743  29.731  1.00  0.00    -0.354 N 
ATOM     61  N   UNL A   1      38.768  31.206  32.187  1.00  0.00    -0.248 NA
ATOM     62  C   UNL A   1      37.500  32.803  33.322  1.00  0.00     0.031 C 
ATOM     63  C   UNL A   1      38.151  30.073  27.940  1.00  0.00     0.029 A 
ATOM     64  C   UNL A   1      38.328  30.453  29.260  1.00  0.00     0.049 A 
ATOM     65  H   UNL A   1      39.789  29.812  30.642  1.00  0.00     0.167 HD
ATOM     66  C   UNL A   1      37.792  31.702  31.334  1.00  0.00     0.074 A 
ATOM     67  C   UNL A   1      37.016  32.657  32.097  1.00  0.00     0.031 C 
ATOM     68  C   UNL A   1      37.559  31.395  30.034  1.00  0.00     0.037 A 
BRANCH  55  69
ATOM     69  C   UNL A   1      41.542  27.305  27.660  1.00  0.00     0.064 A 
ATOM     70  C   UNL A   1      42.423  27.866  26.722  1.00  0.00     0.173 A 
ATOM     71  C   UNL A   1      41.126  25.980  27.454  1.00  0.00     0.173 A 
ATOM     72  F   UNL A   1      42.846  29.132  26.865  1.00  0.00    -0.203 F 
ATOM     73  C   UNL A   1      42.840  27.144  25.606  1.00  0.00     0.198 A 
ATOM     74  C   UNL A   1      41.572  25.249  26.357  1.00  0.00     0.198 A 
ATOM     75  F   UNL A   1      40.290  25.391  28.322  1.00  0.00    -0.203 F 
ATOM     76  F   UNL A   1      43.634  27.722  24.695  1.00  0.00    -0.200 F 
ATOM     77  C   UNL A   1      42.420  25.835  25.429  1.00  0.00     0.200 A 
ATOM     78  F   UNL A   1      41.179  23.979  26.195  1.00  0.00    -0.200 F 
ATOM     79  F   UNL A   1      42.827  25.139  24.358  1.00  0.00    -0.200 F 
ENDBRANCH  55  69
BRANCH  56  80
ATOM     80  C   UNL A   1      38.955  32.430  35.835  1.00  0.00     0.064 A 
ATOM     81  C   UNL A   1      39.381  33.757  35.997  1.00  0.00     0.173 A 
ATOM     82  C   UNL A   1      38.169  31.870  36.852  1.00  0.00     0.173 A 
ATOM     83  F   UNL A   1      40.151  34.331  35.062  1.00  0.00    -0.203 F 
ATOM     84  C   UNL A   1      39.057  34.482  37.142  1.00  0.00     0.198 A 
ATOM     85  C   UNL A   1      37.819  32.607  37.982  1.00  0.00     0.198 A 
ATOM     86  F   UNL A   1      37.731  30.606  36.744  1.00  0.00    -0.203 F 
ATOM     87  F   UNL A   1      39.523  35.730  37.295  1.00  0.00    -0.200 F 
ATOM     88  C   UNL A   1      38.272  33.909  38.131  1.00  0.00     0.200 A 
ATOM     89  F   UNL A   1      37.045  32.055  38.927  1.00  0.00    -0.200 F 
ATOM     90  F   UNL A   1      37.959  34.608  39.230  1.00  0.00    -0.200 F 
ENDBRANCH  56  80
BRANCH  68  91
ATOM     91  C   UNL A   1      36.390  32.062  29.365  1.00  0.00     0.064 A 
ATOM     92  C   UNL A   1      35.244  31.348  28.989  1.00  0.00     0.173 A 
ATOM     93  C   UNL A   1      36.405  33.446  29.131  1.00  0.00     0.173 A 
ATOM     94  F   UNL A   1      35.184  30.020  29.177  1.00  0.00    -0.203 F 
ATOM     95  C   UNL A   1      34.169  31.987  28.377  1.00  0.00     0.198 A 
ATOM     96  C   UNL A   1      35.314  34.089  28.551  1.00  0.00     0.198 A 
ATOM     97  F   UNL A   1      37.474  34.181  29.477  1.00  0.00    -0.203 F 
ATOM     98  F   UNL A   1      33.107  31.274  27.977  1.00  0.00    -0.200 F 
ATOM     99  C   UNL A   1      34.201  33.358  28.167  1.00  0.00     0.200 A 
ATOM    100  F   UNL A   1      35.341  35.415  28.365  1.00  0.00    -0.200 F 
ATOM    101  F   UNL A   1      33.162  33.972  27.586  1.00  0.00    -0.200 F 
ENDBRANCH  68  91
ENDBRANCH  42  43
ENDBRANCH  34  37
ENDBRANCH  32  33
ENDBRANCH  31  32
ENDBRANCH  30  31
ENDBRANCH  29  30
ENDBRANCH  28  29
ENDBRANCH   1  28
TORSDOF 19
ENDMDL
