MODEL 1
REMARK VINA RESULT:     -12.1      0.000      0.000
REMARK SMILES O=C(NCCCCCCNC(=O)c1cc(F)ccc1NS(=O)(=O)c1ccc(Cl)s1)c1ccc(-c2c3nc(c(-c4c(F)c(F)c(F)c(F)c4F)c4ccc([nH]4)c(-c4c(F)c(F)c(F)c(F)c4F)c4nc(c(-c5c(F)c(F)c(F)c(F)c5F)c5ccc2[nH]5)C=C4)C=C3)cc1
REMARK SMILES IDX 7 1 6 2 5 3 4 4 3 5 1 6 2 7 30 9 31 10 92 11 32 12 91 13
REMARK SMILES IDX 33 14 34 15 35 16 85 17 36 18 90 19 84 20 86 21 37 22 89 23
REMARK SMILES IDX 83 24 82 25 38 27 70 28 50 29 69 30 51 31 54 32 68 33 87 34
REMARK SMILES IDX 52 35 53 36 67 38 88 39 55 40 39 41 40 42 48 43 41 44 42 45
REMARK SMILES IDX 46 46 49 47 43 48 44 49 47 50 45 51 71 52 72 53 80 54 73 55
REMARK SMILES IDX 74 56 78 57 81 58 75 59 76 60 79 61 77 62 56 63 57 64 65 65
REMARK SMILES IDX 58 66 59 67 63 68 66 69 60 70 61 71 64 72 62 73 8 74 9 75
REMARK SMILES IDX 10 76 11 77 12 79 13 80 14 81 19 82 15 83 18 84 16 85 17 86
REMARK SMILES IDX 20 87 21 89 22 90 23 91 24 92 25 93 29 94 26 95 27 96 28 97
REMARK H PARENT 3 8 86 26 54 37 10 78 20 88
REMARK Flexibility Score: inf
ROOT
ATOM      1  C   UNL A   1      32.413  29.942  26.672  1.00  0.00     0.002 C 
ENDROOT
BRANCH   1   2
ATOM      2  C   UNL A   1      31.435  30.860  25.935  1.00  0.00     0.002 C 
BRANCH   2   3
ATOM      3  C   UNL A   1      31.266  32.260  26.527  1.00  0.00     0.021 C 
BRANCH   3   4
ATOM      4  C   UNL A   1      32.532  32.887  27.100  1.00  0.00     0.116 C 
BRANCH   4   5
ATOM      5  N   UNL A   1      32.318  34.225  27.617  1.00  0.00    -0.352 N 
ATOM      6  O   UNL A   1      32.596  35.978  29.009  1.00  0.00    -0.269 OA
ATOM      7  C   UNL A   1      32.990  34.885  28.617  1.00  0.00     0.251 C 
ATOM      8  H   UNL A   1      31.588  34.732  27.193  1.00  0.00     0.163 HD
BRANCH   7   9
ATOM      9  C   UNL A   1      34.178  34.266  29.247  1.00  0.00     0.039 A 
ATOM     10  C   UNL A   1      35.473  34.641  28.878  1.00  0.00     0.014 A 
ATOM     11  C   UNL A   1      33.984  33.308  30.246  1.00  0.00     0.014 A 
ATOM     12  C   UNL A   1      36.570  33.983  29.430  1.00  0.00     0.010 A 
ATOM     13  C   UNL A   1      35.086  32.688  30.841  1.00  0.00     0.010 A 
ATOM     14  C   UNL A   1      36.385  33.004  30.422  1.00  0.00    -0.014 A 
BRANCH  14  15
ATOM     15  C   UNL A   1      37.567  32.361  31.046  1.00  0.00     0.031 A 
ATOM     16  C   UNL A   1      38.013  32.742  32.427  1.00  0.00     0.074 A 
ATOM     17  C   UNL A   1      38.228  31.410  30.360  1.00  0.00     0.049 A 
ATOM     18  N   UNL A   1      39.017  32.274  33.127  1.00  0.00    -0.248 NA
ATOM     19  C   UNL A   1      37.235  33.783  33.117  1.00  0.00     0.031 C 
ATOM     20  C   UNL A   1      37.889  30.962  29.009  1.00  0.00     0.029 A 
ATOM     21  N   UNL A   1      39.306  30.640  30.709  1.00  0.00    -0.354 N 
ATOM     22  C   UNL A   1      39.002  32.970  34.327  1.00  0.00     0.074 A 
ATOM     23  C   UNL A   1      37.899  33.906  34.259  1.00  0.00     0.031 C 
ATOM     24  C   UNL A   1      38.717  29.966  28.658  1.00  0.00     0.029 A 
ATOM     25  C   UNL A   1      39.670  29.738  29.739  1.00  0.00     0.049 A 
ATOM     26  H   UNL A   1      39.776  30.726  31.570  1.00  0.00     0.167 HD
ATOM     27  C   UNL A   1      39.830  32.834  35.389  1.00  0.00     0.037 A 
ATOM     28  C   UNL A   1      40.663  28.830  29.721  1.00  0.00     0.037 A 
ATOM     29  C   UNL A   1      40.917  31.892  35.463  1.00  0.00     0.049 A 
ATOM     30  C   UNL A   1      41.576  28.711  30.906  1.00  0.00     0.074 A 
ATOM     31  C   UNL A   1      41.792  31.664  36.512  1.00  0.00     0.029 A 
ATOM     32  N   UNL A   1      41.275  31.020  34.446  1.00  0.00    -0.354 N 
ATOM     33  N   UNL A   1      41.543  29.369  32.039  1.00  0.00    -0.248 NA
ATOM     34  C   UNL A   1      42.668  27.734  30.806  1.00  0.00     0.031 C 
ATOM     35  C   UNL A   1      42.699  30.673  36.118  1.00  0.00     0.029 A 
ATOM     36  C   UNL A   1      42.368  30.263  34.837  1.00  0.00     0.049 A 
ATOM     37  H   UNL A   1      40.822  30.949  33.576  1.00  0.00     0.167 HD
ATOM     38  C   UNL A   1      42.604  28.886  32.788  1.00  0.00     0.074 A 
ATOM     39  C   UNL A   1      43.253  27.866  31.989  1.00  0.00     0.031 C 
ATOM     40  C   UNL A   1      43.006  29.258  34.027  1.00  0.00     0.037 A 
BRANCH  27  41
ATOM     41  C   UNL A   1      39.604  33.729  36.568  1.00  0.00     0.064 A 
ATOM     42  C   UNL A   1      40.292  34.947  36.681  1.00  0.00     0.173 A 
ATOM     43  C   UNL A   1      38.759  33.351  37.621  1.00  0.00     0.173 A 
ATOM     44  F   UNL A   1      41.114  35.351  35.701  1.00  0.00    -0.203 F 
ATOM     45  C   UNL A   1      40.147  35.749  37.809  1.00  0.00     0.198 A 
ATOM     46  C   UNL A   1      38.603  34.163  38.741  1.00  0.00     0.198 A 
ATOM     47  F   UNL A   1      38.072  32.200  37.554  1.00  0.00    -0.203 F 
ATOM     48  F   UNL A   1      40.829  36.900  37.904  1.00  0.00    -0.200 F 
ATOM     49  C   UNL A   1      39.302  35.358  38.837  1.00  0.00     0.200 A 
ATOM     50  F   UNL A   1      37.774  33.793  39.726  1.00  0.00    -0.200 F 
ATOM     51  F   UNL A   1      39.160  36.134  39.920  1.00  0.00    -0.200 F 
ENDBRANCH  27  41
BRANCH  28  52
ATOM     52  C   UNL A   1      40.821  27.955  28.536  1.00  0.00     0.064 A 
ATOM     53  C   UNL A   1      41.597  28.350  27.437  1.00  0.00     0.173 A 
ATOM     54  C   UNL A   1      40.150  26.727  28.460  1.00  0.00     0.173 A 
ATOM     55  F   UNL A   1      42.252  29.520  27.466  1.00  0.00    -0.203 F 
ATOM     56  C   UNL A   1      41.678  27.558  26.295  1.00  0.00     0.198 A 
ATOM     57  C   UNL A   1      40.249  25.927  27.325  1.00  0.00     0.198 A 
ATOM     58  F   UNL A   1      39.411  26.304  29.495  1.00  0.00    -0.203 F 
ATOM     59  F   UNL A   1      42.399  27.972  25.245  1.00  0.00    -0.200 F 
ATOM     60  C   UNL A   1      41.005  26.347  26.240  1.00  0.00     0.200 A 
ATOM     61  F   UNL A   1      39.610  24.750  27.280  1.00  0.00    -0.200 F 
ATOM     62  F   UNL A   1      41.085  25.584  25.141  1.00  0.00    -0.200 F 
ENDBRANCH  28  52
BRANCH  40  63
ATOM     63  C   UNL A   1      44.202  28.563  34.599  1.00  0.00     0.064 A 
ATOM     64  C   UNL A   1      45.490  29.077  34.394  1.00  0.00     0.173 A 
ATOM     65  C   UNL A   1      44.074  27.355  35.299  1.00  0.00     0.173 A 
ATOM     66  F   UNL A   1      45.661  30.227  33.726  1.00  0.00    -0.203 F 
ATOM     67  C   UNL A   1      46.611  28.398  34.863  1.00  0.00     0.198 A 
ATOM     68  C   UNL A   1      45.195  26.689  35.783  1.00  0.00     0.198 A 
ATOM     69  F   UNL A   1      42.859  26.836  35.530  1.00  0.00    -0.203 F 
ATOM     70  F   UNL A   1      47.836  28.895  34.640  1.00  0.00    -0.200 F 
ATOM     71  C   UNL A   1      46.463  27.207  35.558  1.00  0.00     0.200 A 
ATOM     72  F   UNL A   1      45.051  25.548  36.470  1.00  0.00    -0.200 F 
ATOM     73  F   UNL A   1      47.544  26.560  36.016  1.00  0.00    -0.200 F 
ENDBRANCH  40  63
ENDBRANCH  14  15
ENDBRANCH   7   9
ENDBRANCH   4   5
ENDBRANCH   3   4
ENDBRANCH   2   3
ENDBRANCH   1   2
BRANCH   1  74
ATOM     74  C   UNL A   1      31.786  28.762  27.425  1.00  0.00     0.021 C 
BRANCH  74  75
ATOM     75  C   UNL A   1      32.124  27.377  26.873  1.00  0.00     0.116 C 
BRANCH  75  76
ATOM     76  N   UNL A   1      31.043  26.439  27.106  1.00  0.00    -0.352 N 
ATOM     77  C   UNL A   1      30.186  25.872  26.205  1.00  0.00     0.253 C 
ATOM     78  H   UNL A   1      30.909  26.172  28.044  1.00  0.00     0.163 HD
ATOM     79  O   UNL A   1      29.129  25.380  26.595  1.00  0.00    -0.269 OA
BRANCH  77  80
ATOM     80  C   UNL A   1      30.491  25.851  24.759  1.00  0.00     0.066 A 
ATOM     81  C   UNL A   1      30.565  27.065  24.061  1.00  0.00     0.055 A 
ATOM     82  C   UNL A   1      30.827  24.628  24.136  1.00  0.00     0.062 A 
ATOM     83  C   UNL A   1      30.927  27.058  22.723  1.00  0.00     0.124 A 
ATOM     84  C   UNL A   1      31.199  24.665  22.785  1.00  0.00     0.030 A 
ATOM     85  F   UNL A   1      30.968  28.209  22.044  1.00  0.00    -0.207 F 
ATOM     86  C   UNL A   1      31.252  25.873  22.083  1.00  0.00     0.041 A 
BRANCH  82  87
ATOM     87  N   UNL A   1      30.538  23.393  24.833  1.00  0.00    -0.278 N 
ATOM     88  H   UNL A   1      29.641  22.998  24.746  1.00  0.00     0.180 HD
BRANCH  87  89
ATOM     89  S   UNL A   1      31.683  22.606  25.790  1.00  0.00     0.271 S 
ATOM     90  O   UNL A   1      31.482  23.012  27.161  1.00  0.00    -0.200 OA
ATOM     91  O   UNL A   1      31.676  21.216  25.385  1.00  0.00    -0.200 OA
BRANCH  89  92
ATOM     92  C   UNL A   1      33.292  23.194  25.303  1.00  0.00     0.141 A 
ATOM     93  C   UNL A   1      34.079  24.238  25.765  1.00  0.00     0.036 A 
ATOM     94  S   UNL A   1      34.090  22.303  24.075  1.00  0.00    -0.110 S 
ATOM     95  C   UNL A   1      35.383  24.226  25.183  1.00  0.00     0.034 A 
ATOM     96  C   UNL A   1      35.503  23.210  24.270  1.00  0.00     0.094 A 
ATOM     97  Cl  UNL A   1      36.907  22.802  23.370  1.00  0.00    -0.072 Cl
ENDBRANCH  89  92
ENDBRANCH  87  89
ENDBRANCH  82  87
ENDBRANCH  77  80
ENDBRANCH  75  76
ENDBRANCH  74  75
ENDBRANCH   1  74
TORSDOF 16
ENDMDL
MODEL 2
REMARK VINA RESULT:     -11.9      5.124     10.447
REMARK SMILES O=C(NCCCCCCNC(=O)c1cc(F)ccc1NS(=O)(=O)c1ccc(Cl)s1)c1ccc(-c2c3nc(c(-c4c(F)c(F)c(F)c(F)c4F)c4ccc([nH]4)c(-c4c(F)c(F)c(F)c(F)c4F)c4nc(c(-c5c(F)c(F)c(F)c(F)c5F)c5ccc2[nH]5)C=C4)C=C3)cc1
REMARK SMILES IDX 7 1 6 2 5 3 4 4 3 5 1 6 2 7 30 9 31 10 92 11 32 12 91 13
REMARK SMILES IDX 33 14 34 15 35 16 85 17 36 18 90 19 84 20 86 21 37 22 89 23
REMARK SMILES IDX 83 24 82 25 38 27 70 28 50 29 69 30 51 31 54 32 68 33 87 34
REMARK SMILES IDX 52 35 53 36 67 38 88 39 55 40 39 41 40 42 48 43 41 44 42 45
REMARK SMILES IDX 46 46 49 47 43 48 44 49 47 50 45 51 71 52 72 53 80 54 73 55
REMARK SMILES IDX 74 56 78 57 81 58 75 59 76 60 79 61 77 62 56 63 57 64 65 65
REMARK SMILES IDX 58 66 59 67 63 68 66 69 60 70 61 71 64 72 62 73 8 74 9 75
REMARK SMILES IDX 10 76 11 77 12 79 13 80 14 81 19 82 15 83 18 84 16 85 17 86
REMARK SMILES IDX 20 87 21 89 22 90 23 91 24 92 25 93 29 94 26 95 27 96 28 97
REMARK H PARENT 3 8 86 26 54 37 10 78 20 88
REMARK Flexibility Score: inf
ROOT
ATOM      1  C   UNL A   1      37.541  22.416  25.461  1.00  0.00     0.002 C 
ENDROOT
BRANCH   1   2
ATOM      2  C   UNL A   1      37.295  21.216  24.542  1.00  0.00     0.002 C 
BRANCH   2   3
ATOM      3  C   UNL A   1      38.118  19.965  24.852  1.00  0.00     0.021 C 
BRANCH   3   4
ATOM      4  C   UNL A   1      39.073  20.084  26.034  1.00  0.00     0.116 C 
BRANCH   4   5
ATOM      5  N   UNL A   1      40.202  19.177  25.945  1.00  0.00    -0.352 N 
ATOM      6  O   UNL A   1      42.371  18.573  25.833  1.00  0.00    -0.269 OA
ATOM      7  C   UNL A   1      41.543  19.450  26.053  1.00  0.00     0.251 C 
ATOM      8  H   UNL A   1      39.974  18.232  25.784  1.00  0.00     0.163 HD
BRANCH   7   9
ATOM      9  C   UNL A   1      41.996  20.813  26.409  1.00  0.00     0.039 A 
ATOM     10  C   UNL A   1      42.302  21.154  27.729  1.00  0.00     0.014 A 
ATOM     11  C   UNL A   1      42.142  21.759  25.389  1.00  0.00     0.014 A 
ATOM     12  C   UNL A   1      42.648  22.466  28.045  1.00  0.00     0.010 A 
ATOM     13  C   UNL A   1      42.545  23.060  25.698  1.00  0.00     0.010 A 
ATOM     14  C   UNL A   1      42.778  23.430  27.030  1.00  0.00    -0.014 A 
BRANCH  14  15
ATOM     15  C   UNL A   1      43.212  24.805  27.376  1.00  0.00     0.031 A 
ATOM     16  C   UNL A   1      44.613  25.266  27.096  1.00  0.00     0.074 A 
ATOM     17  C   UNL A   1      42.321  25.648  27.930  1.00  0.00     0.049 A 
ATOM     18  N   UNL A   1      45.156  26.436  27.326  1.00  0.00    -0.248 NA
ATOM     19  C   UNL A   1      45.526  24.291  26.481  1.00  0.00     0.031 C 
ATOM     20  C   UNL A   1      40.934  25.310  28.252  1.00  0.00     0.029 A 
ATOM     21  N   UNL A   1      42.441  26.961  28.303  1.00  0.00    -0.354 N 
ATOM     22  C   UNL A   1      46.472  26.334  26.899  1.00  0.00     0.074 A 
ATOM     23  C   UNL A   1      46.656  24.984  26.411  1.00  0.00     0.031 C 
ATOM     24  C   UNL A   1      40.319  26.399  28.737  1.00  0.00     0.029 A 
ATOM     25  C   UNL A   1      41.279  27.496  28.800  1.00  0.00     0.049 A 
ATOM     26  H   UNL A   1      43.280  27.471  28.224  1.00  0.00     0.167 HD
ATOM     27  C   UNL A   1      47.436  27.285  26.910  1.00  0.00     0.037 A 
ATOM     28  C   UNL A   1      41.015  28.733  29.261  1.00  0.00     0.037 A 
ATOM     29  C   UNL A   1      47.249  28.633  27.380  1.00  0.00     0.049 A 
ATOM     30  C   UNL A   1      42.106  29.763  29.275  1.00  0.00     0.074 A 
ATOM     31  C   UNL A   1      48.162  29.674  27.402  1.00  0.00     0.029 A 
ATOM     32  N   UNL A   1      46.067  29.127  27.909  1.00  0.00    -0.354 N 
ATOM     33  N   UNL A   1      43.344  29.656  28.859  1.00  0.00    -0.248 NA
ATOM     34  C   UNL A   1      41.768  31.080  29.832  1.00  0.00     0.031 C 
ATOM     35  C   UNL A   1      47.540  30.791  27.972  1.00  0.00     0.029 A 
ATOM     36  C   UNL A   1      46.231  30.453  28.275  1.00  0.00     0.049 A 
ATOM     37  H   UNL A   1      45.234  28.612  28.011  1.00  0.00     0.167 HD
ATOM     38  C   UNL A   1      43.933  30.888  29.099  1.00  0.00     0.074 A 
ATOM     39  C   UNL A   1      42.912  31.735  29.682  1.00  0.00     0.031 C 
ATOM     40  C   UNL A   1      45.208  31.279  28.860  1.00  0.00     0.037 A 
BRANCH  27  41
ATOM     41  C   UNL A   1      48.793  26.907  26.401  1.00  0.00     0.064 A 
ATOM     42  C   UNL A   1      49.116  27.068  25.045  1.00  0.00     0.173 A 
ATOM     43  C   UNL A   1      49.751  26.320  27.240  1.00  0.00     0.173 A 
ATOM     44  F   UNL A   1      48.230  27.621  24.202  1.00  0.00    -0.203 F 
ATOM     45  C   UNL A   1      50.345  26.648  24.546  1.00  0.00     0.198 A 
ATOM     46  C   UNL A   1      50.987  25.917  26.743  1.00  0.00     0.198 A 
ATOM     47  F   UNL A   1      49.492  26.155  28.546  1.00  0.00    -0.203 F 
ATOM     48  F   UNL A   1      50.625  26.793  23.243  1.00  0.00    -0.200 F 
ATOM     49  C   UNL A   1      51.280  26.074  25.396  1.00  0.00     0.200 A 
ATOM     50  F   UNL A   1      51.896  25.378  27.566  1.00  0.00    -0.200 F 
ATOM     51  F   UNL A   1      52.466  25.675  24.916  1.00  0.00    -0.200 F 
ENDBRANCH  27  41
BRANCH  28  52
ATOM     52  C   UNL A   1      39.646  29.055  29.727  1.00  0.00     0.064 A 
ATOM     53  C   UNL A   1      39.250  28.809  31.049  1.00  0.00     0.173 A 
ATOM     54  C   UNL A   1      38.691  29.565  28.839  1.00  0.00     0.173 A 
ATOM     55  F   UNL A   1      40.132  28.317  31.932  1.00  0.00    -0.203 F 
ATOM     56  C   UNL A   1      37.941  29.040  31.461  1.00  0.00     0.198 A 
ATOM     57  C   UNL A   1      37.386  29.815  29.257  1.00  0.00     0.198 A 
ATOM     58  F   UNL A   1      39.031  29.830  27.569  1.00  0.00    -0.203 F 
ATOM     59  F   UNL A   1      37.578  28.766  32.721  1.00  0.00    -0.200 F 
ATOM     60  C   UNL A   1      37.010  29.544  30.564  1.00  0.00     0.200 A 
ATOM     61  F   UNL A   1      36.492  30.316  28.393  1.00  0.00    -0.200 F 
ATOM     62  F   UNL A   1      35.750  29.768  30.962  1.00  0.00    -0.200 F 
ENDBRANCH  28  52
BRANCH  40  63
ATOM     63  C   UNL A   1      45.575  32.683  29.229  1.00  0.00     0.064 A 
ATOM     64  C   UNL A   1      45.449  33.721  28.294  1.00  0.00     0.173 A 
ATOM     65  C   UNL A   1      46.106  32.987  30.490  1.00  0.00     0.173 A 
ATOM     66  F   UNL A   1      44.950  33.475  27.074  1.00  0.00    -0.203 F 
ATOM     67  C   UNL A   1      45.854  35.014  28.608  1.00  0.00     0.198 A 
ATOM     68  C   UNL A   1      46.493  34.286  30.806  1.00  0.00     0.198 A 
ATOM     69  F   UNL A   1      46.230  32.027  31.419  1.00  0.00    -0.203 F 
ATOM     70  F   UNL A   1      45.745  35.990  27.694  1.00  0.00    -0.200 F 
ATOM     71  C   UNL A   1      46.373  35.296  29.863  1.00  0.00     0.200 A 
ATOM     72  F   UNL A   1      46.977  34.562  32.024  1.00  0.00    -0.200 F 
ATOM     73  F   UNL A   1      46.755  36.545  30.165  1.00  0.00    -0.200 F 
ENDBRANCH  40  63
ENDBRANCH  14  15
ENDBRANCH   7   9
ENDBRANCH   4   5
ENDBRANCH   3   4
ENDBRANCH   2   3
ENDBRANCH   1   2
BRANCH   1  74
ATOM     74  C   UNL A   1      36.876  23.731  25.037  1.00  0.00     0.021 C 
BRANCH  74  75
ATOM     75  C   UNL A   1      35.376  23.829  25.319  1.00  0.00     0.116 C 
BRANCH  75  76
ATOM     76  N   UNL A   1      34.645  24.254  24.142  1.00  0.00    -0.352 N 
ATOM     77  C   UNL A   1      33.546  25.061  24.055  1.00  0.00     0.253 C 
ATOM     78  H   UNL A   1      34.989  23.913  23.284  1.00  0.00     0.163 HD
ATOM     79  O   UNL A   1      32.853  25.043  23.041  1.00  0.00    -0.269 OA
BRANCH  77  80
ATOM     80  C   UNL A   1      33.155  25.952  25.169  1.00  0.00     0.066 A 
ATOM     81  C   UNL A   1      34.011  26.999  25.537  1.00  0.00     0.055 A 
ATOM     82  C   UNL A   1      31.875  25.813  25.754  1.00  0.00     0.062 A 
ATOM     83  C   UNL A   1      33.615  27.883  26.528  1.00  0.00     0.124 A 
ATOM     84  C   UNL A   1      31.508  26.735  26.744  1.00  0.00     0.030 A 
ATOM     85  F   UNL A   1      34.441  28.865  26.906  1.00  0.00    -0.207 F 
ATOM     86  C   UNL A   1      32.371  27.766  27.127  1.00  0.00     0.041 A 
BRANCH  82  87
ATOM     87  N   UNL A   1      31.120  24.607  25.491  1.00  0.00    -0.278 N 
ATOM     88  H   UNL A   1      30.481  24.602  24.742  1.00  0.00     0.180 HD
BRANCH  87  89
ATOM     89  S   UNL A   1      31.294  23.210  26.421  1.00  0.00     0.271 S 
ATOM     90  O   UNL A   1      32.264  23.476  27.458  1.00  0.00    -0.200 OA
ATOM     91  O   UNL A   1      29.957  22.739  26.714  1.00  0.00    -0.200 OA
BRANCH  89  92
ATOM     92  C   UNL A   1      31.984  21.946  25.374  1.00  0.00     0.141 A 
ATOM     93  C   UNL A   1      31.891  21.714  24.010  1.00  0.00     0.036 A 
ATOM     94  S   UNL A   1      33.014  20.805  26.134  1.00  0.00    -0.110 S 
ATOM     95  C   UNL A   1      32.762  20.668  23.582  1.00  0.00     0.034 A 
ATOM     96  C   UNL A   1      33.431  20.120  24.647  1.00  0.00     0.094 A 
ATOM     97  Cl  UNL A   1      34.605  18.869  24.586  1.00  0.00    -0.072 Cl
ENDBRANCH  89  92
ENDBRANCH  87  89
ENDBRANCH  82  87
ENDBRANCH  77  80
ENDBRANCH  75  76
ENDBRANCH  74  75
ENDBRANCH   1  74
TORSDOF 16
ENDMDL
MODEL 3
REMARK VINA RESULT:     -11.9      5.318     10.472
REMARK SMILES O=C(NCCCCCCNC(=O)c1cc(F)ccc1NS(=O)(=O)c1ccc(Cl)s1)c1ccc(-c2c3nc(c(-c4c(F)c(F)c(F)c(F)c4F)c4ccc([nH]4)c(-c4c(F)c(F)c(F)c(F)c4F)c4nc(c(-c5c(F)c(F)c(F)c(F)c5F)c5ccc2[nH]5)C=C4)C=C3)cc1
REMARK SMILES IDX 7 1 6 2 5 3 4 4 3 5 1 6 2 7 30 9 31 10 92 11 32 12 91 13
REMARK SMILES IDX 33 14 34 15 35 16 85 17 36 18 90 19 84 20 86 21 37 22 89 23
REMARK SMILES IDX 83 24 82 25 38 27 70 28 50 29 69 30 51 31 54 32 68 33 87 34
REMARK SMILES IDX 52 35 53 36 67 38 88 39 55 40 39 41 40 42 48 43 41 44 42 45
REMARK SMILES IDX 46 46 49 47 43 48 44 49 47 50 45 51 71 52 72 53 80 54 73 55
REMARK SMILES IDX 74 56 78 57 81 58 75 59 76 60 79 61 77 62 56 63 57 64 65 65
REMARK SMILES IDX 58 66 59 67 63 68 66 69 60 70 61 71 64 72 62 73 8 74 9 75
REMARK SMILES IDX 10 76 11 77 12 79 13 80 14 81 19 82 15 83 18 84 16 85 17 86
REMARK SMILES IDX 20 87 21 89 22 90 23 91 24 92 25 93 29 94 26 95 27 96 28 97
REMARK H PARENT 3 8 86 26 54 37 10 78 20 88
REMARK Flexibility Score: inf
ROOT
ATOM      1  C   UNL A   1      37.840  22.048  25.744  1.00  0.00     0.002 C 
ENDROOT
BRANCH   1   2
ATOM      2  C   UNL A   1      37.608  20.925  24.730  1.00  0.00     0.002 C 
BRANCH   2   3
ATOM      3  C   UNL A   1      38.465  19.673  24.920  1.00  0.00     0.021 C 
BRANCH   3   4
ATOM      4  C   UNL A   1      39.412  19.701  26.114  1.00  0.00     0.116 C 
BRANCH   4   5
ATOM      5  N   UNL A   1      40.600  18.892  25.915  1.00  0.00    -0.352 N 
ATOM      6  O   UNL A   1      42.799  18.470  25.649  1.00  0.00    -0.269 OA
ATOM      7  C   UNL A   1      41.920  19.267  25.960  1.00  0.00     0.251 C 
ATOM      8  H   UNL A   1      40.437  17.941  25.720  1.00  0.00     0.163 HD
BRANCH   7   9
ATOM      9  C   UNL A   1      42.287  20.645  26.358  1.00  0.00     0.039 A 
ATOM     10  C   UNL A   1      42.582  21.621  25.402  1.00  0.00     0.014 A 
ATOM     11  C   UNL A   1      42.310  20.967  27.718  1.00  0.00     0.014 A 
ATOM     12  C   UNL A   1      43.003  22.885  25.808  1.00  0.00     0.010 A 
ATOM     13  C   UNL A   1      42.678  22.252  28.124  1.00  0.00     0.010 A 
ATOM     14  C   UNL A   1      43.049  23.214  27.174  1.00  0.00    -0.014 A 
BRANCH  14  15
ATOM     15  C   UNL A   1      43.435  24.585  27.586  1.00  0.00     0.031 A 
ATOM     16  C   UNL A   1      44.875  25.008  27.607  1.00  0.00     0.074 A 
ATOM     17  C   UNL A   1      42.469  25.458  27.925  1.00  0.00     0.049 A 
ATOM     18  N   UNL A   1      45.388  26.169  27.932  1.00  0.00    -0.248 NA
ATOM     19  C   UNL A   1      45.872  24.000  27.215  1.00  0.00     0.031 C 
ATOM     20  C   UNL A   1      41.037  25.158  27.947  1.00  0.00     0.029 A 
ATOM     21  N   UNL A   1      42.542  26.775  28.298  1.00  0.00    -0.354 N 
ATOM     22  C   UNL A   1      46.761  26.029  27.799  1.00  0.00     0.074 A 
ATOM     23  C   UNL A   1      47.009  24.665  27.379  1.00  0.00     0.031 C 
ATOM     24  C   UNL A   1      40.362  26.271  28.274  1.00  0.00     0.029 A 
ATOM     25  C   UNL A   1      41.314  27.347  28.527  1.00  0.00     0.049 A 
ATOM     26  H   UNL A   1      43.391  27.264  28.394  1.00  0.00     0.167 HD
ATOM     27  C   UNL A   1      47.726  26.957  28.002  1.00  0.00     0.037 A 
ATOM     28  C   UNL A   1      40.992  28.598  28.904  1.00  0.00     0.037 A 
ATOM     29  C   UNL A   1      47.478  28.318  28.404  1.00  0.00     0.049 A 
ATOM     30  C   UNL A   1      42.081  29.602  29.138  1.00  0.00     0.074 A 
ATOM     31  C   UNL A   1      48.393  29.337  28.607  1.00  0.00     0.029 A 
ATOM     32  N   UNL A   1      46.224  28.848  28.661  1.00  0.00    -0.354 N 
ATOM     33  N   UNL A   1      43.376  29.458  28.998  1.00  0.00    -0.248 NA
ATOM     34  C   UNL A   1      41.668  30.936  29.592  1.00  0.00     0.031 C 
ATOM     35  C   UNL A   1      47.694  30.479  29.015  1.00  0.00     0.029 A 
ATOM     36  C   UNL A   1      46.342  30.177  29.036  1.00  0.00     0.049 A 
ATOM     37  H   UNL A   1      45.375  28.355  28.589  1.00  0.00     0.167 HD
ATOM     38  C   UNL A   1      43.933  30.681  29.342  1.00  0.00     0.074 A 
ATOM     39  C   UNL A   1      42.834  31.562  29.682  1.00  0.00     0.031 C 
ATOM     40  C   UNL A   1      45.239  31.038  29.377  1.00  0.00     0.037 A 
BRANCH  27  41
ATOM     41  C   UNL A   1      49.150  26.538  27.801  1.00  0.00     0.064 A 
ATOM     42  C   UNL A   1      49.980  26.283  28.903  1.00  0.00     0.173 A 
ATOM     43  C   UNL A   1      49.713  26.456  26.519  1.00  0.00     0.173 A 
ATOM     44  F   UNL A   1      49.488  26.354  30.150  1.00  0.00    -0.203 F 
ATOM     45  C   UNL A   1      51.325  25.970  28.729  1.00  0.00     0.198 A 
ATOM     46  C   UNL A   1      51.054  26.124  26.348  1.00  0.00     0.198 A 
ATOM     47  F   UNL A   1      48.955  26.680  25.435  1.00  0.00    -0.203 F 
ATOM     48  F   UNL A   1      52.105  25.750  29.797  1.00  0.00    -0.200 F 
ATOM     49  C   UNL A   1      51.860  25.889  27.452  1.00  0.00     0.200 A 
ATOM     50  F   UNL A   1      51.567  26.030  25.113  1.00  0.00    -0.200 F 
ATOM     51  F   UNL A   1      53.153  25.581  27.285  1.00  0.00    -0.200 F 
ENDBRANCH  27  41
BRANCH  28  52
ATOM     52  C   UNL A   1      39.563  28.960  29.062  1.00  0.00     0.064 A 
ATOM     53  C   UNL A   1      38.914  28.839  30.299  1.00  0.00     0.173 A 
ATOM     54  C   UNL A   1      38.808  29.382  27.961  1.00  0.00     0.173 A 
ATOM     55  F   UNL A   1      39.599  28.433  31.378  1.00  0.00    -0.203 F 
ATOM     56  C   UNL A   1      37.554  29.106  30.423  1.00  0.00     0.198 A 
ATOM     57  C   UNL A   1      37.451  29.668  28.091  1.00  0.00     0.198 A 
ATOM     58  F   UNL A   1      39.393  29.527  26.763  1.00  0.00    -0.203 F 
ATOM     59  F   UNL A   1      36.948  28.951  31.608  1.00  0.00    -0.200 F 
ATOM     60  C   UNL A   1      36.824  29.521  29.319  1.00  0.00     0.200 A 
ATOM     61  F   UNL A   1      36.751  30.084  27.027  1.00  0.00    -0.200 F 
ATOM     62  F   UNL A   1      35.514  29.780  29.440  1.00  0.00    -0.200 F 
ENDBRANCH  28  52
BRANCH  40  63
ATOM     63  C   UNL A   1      45.556  32.439  29.796  1.00  0.00     0.064 A 
ATOM     64  C   UNL A   1      45.771  32.747  31.147  1.00  0.00     0.173 A 
ATOM     65  C   UNL A   1      45.589  33.486  28.864  1.00  0.00     0.173 A 
ATOM     66  F   UNL A   1      45.745  31.779  32.074  1.00  0.00    -0.203 F 
ATOM     67  C   UNL A   1      45.997  34.060  31.551  1.00  0.00     0.198 A 
ATOM     68  C   UNL A   1      45.834  34.794  29.269  1.00  0.00     0.198 A 
ATOM     69  F   UNL A   1      45.404  33.233  27.559  1.00  0.00    -0.203 F 
ATOM     70  F   UNL A   1      46.181  34.338  32.849  1.00  0.00    -0.200 F 
ATOM     71  C   UNL A   1      46.031  35.081  30.612  1.00  0.00     0.200 A 
ATOM     72  F   UNL A   1      45.884  35.777  28.361  1.00  0.00    -0.200 F 
ATOM     73  F   UNL A   1      46.257  36.343  31.003  1.00  0.00    -0.200 F 
ENDBRANCH  40  63
ENDBRANCH  14  15
ENDBRANCH   7   9
ENDBRANCH   4   5
ENDBRANCH   3   4
ENDBRANCH   2   3
ENDBRANCH   1   2
BRANCH   1  74
ATOM     74  C   UNL A   1      37.498  23.465  25.265  1.00  0.00     0.021 C 
BRANCH  74  75
ATOM     75  C   UNL A   1      36.006  23.790  25.193  1.00  0.00     0.116 C 
BRANCH  75  76
ATOM     76  N   UNL A   1      35.323  23.401  26.412  1.00  0.00    -0.352 N 
ATOM     77  C   UNL A   1      34.193  22.646  26.561  1.00  0.00     0.253 C 
ATOM     78  H   UNL A   1      35.730  23.726  27.247  1.00  0.00     0.163 HD
ATOM     79  O   UNL A   1      33.560  22.698  27.614  1.00  0.00    -0.269 OA
BRANCH  77  80
ATOM     80  C   UNL A   1      33.699  21.775  25.474  1.00  0.00     0.066 A 
ATOM     81  C   UNL A   1      34.153  20.451  25.403  1.00  0.00     0.055 A 
ATOM     82  C   UNL A   1      32.687  22.249  24.608  1.00  0.00     0.062 A 
ATOM     83  C   UNL A   1      33.635  19.606  24.434  1.00  0.00     0.124 A 
ATOM     84  C   UNL A   1      32.181  21.360  23.650  1.00  0.00     0.030 A 
ATOM     85  F   UNL A   1      34.087  18.351  24.340  1.00  0.00    -0.207 F 
ATOM     86  C   UNL A   1      32.649  20.046  23.564  1.00  0.00     0.041 A 
BRANCH  82  87
ATOM     87  N   UNL A   1      32.402  23.667  24.586  1.00  0.00    -0.278 N 
ATOM     88  H   UNL A   1      31.976  24.078  25.372  1.00  0.00     0.180 HD
BRANCH  87  89
ATOM     89  S   UNL A   1      32.775  24.644  23.261  1.00  0.00     0.271 S 
ATOM     90  O   UNL A   1      33.910  24.065  22.579  1.00  0.00    -0.200 OA
ATOM     91  O   UNL A   1      31.525  24.921  22.587  1.00  0.00    -0.200 OA
BRANCH  89  92
ATOM     92  C   UNL A   1      33.296  26.228  23.886  1.00  0.00     0.141 A 
ATOM     93  C   UNL A   1      33.666  27.403  23.250  1.00  0.00     0.036 A 
ATOM     94  S   UNL A   1      33.306  26.409  25.591  1.00  0.00    -0.110 S 
ATOM     95  C   UNL A   1      33.842  28.480  24.170  1.00  0.00     0.034 A 
ATOM     96  C   UNL A   1      33.653  28.057  25.460  1.00  0.00     0.094 A 
ATOM     97  Cl  UNL A   1      33.725  29.026  26.876  1.00  0.00    -0.072 Cl
ENDBRANCH  89  92
ENDBRANCH  87  89
ENDBRANCH  82  87
ENDBRANCH  77  80
ENDBRANCH  75  76
ENDBRANCH  74  75
ENDBRANCH   1  74
TORSDOF 16
ENDMDL
