MODEL 1
REMARK VINA RESULT:     -11.6      0.000      0.000
REMARK SMILES COc1ccc(C(=O)N[C@@H](CC(=O)NCCCCCCNC(=O)c2ccc(-c3c4nc(c(-c5c(F)c(F)c(F)c(F)c5F)c5ccc([nH]5)c(-c5c(F)c(F)c(F)c(F)c5F)c5nc(c(-c6c(F)c(F)c(F)c(F)c6F)c6ccc3[nH]6)C=C5)C=C4)cc2)c2cccs2)cc1
REMARK SMILES IDX 16 1 15 2 14 3 12 4 13 5 11 7 10 8 9 9 7 10 8 11 6 13 3 14
REMARK SMILES IDX 4 15 93 16 5 17 92 18 2 19 1 20 87 21 88 22 91 23 89 24
REMARK SMILES IDX 90 25 17 26 18 27 19 28 20 29 21 30 22 31 23 33 24 34 25 35
REMARK SMILES IDX 86 36 26 37 85 38 27 39 28 40 29 41 79 42 30 43 84 44 78 45
REMARK SMILES IDX 80 46 31 47 83 48 77 49 76 50 32 52 64 53 44 54 63 55 45 56
REMARK SMILES IDX 48 57 62 58 81 59 46 60 47 61 61 63 82 64 49 65 33 66 34 67
REMARK SMILES IDX 42 68 35 69 36 70 40 71 43 72 37 73 38 74 41 75 39 76 65 77
REMARK SMILES IDX 66 78 74 79 67 80 68 81 72 82 75 83 69 84 70 85 73 86 71 87
REMARK SMILES IDX 50 88 51 89 59 90 52 91 53 92 57 93 60 94 54 95 55 96 58 97
REMARK SMILES IDX 56 98
REMARK H PARENT 14 6 9 12 21 32 80 51 48 62
REMARK Flexibility Score: inf
ROOT
ATOM      1  C   UNL A   1      33.510  23.831  22.039  1.00  0.00     0.021 C 
ENDROOT
BRANCH   1   2
ATOM      2  C   UNL A   1      32.066  24.199  22.387  1.00  0.00     0.116 C 
BRANCH   2   3
ATOM      3  N   UNL A   1      31.864  25.628  22.249  1.00  0.00    -0.356 N 
ATOM      4  C   UNL A   1      31.200  26.510  23.044  1.00  0.00     0.222 C 
ATOM      5  O   UNL A   1      31.119  27.678  22.658  1.00  0.00    -0.275 OA
ATOM      6  H   UNL A   1      32.276  26.026  21.448  1.00  0.00     0.163 HD
BRANCH   4   7
ATOM      7  C   UNL A   1      30.634  26.097  24.388  1.00  0.00     0.130 C 
BRANCH   7   8
ATOM      8  C   UNL A   1      31.640  25.689  25.473  1.00  0.00     0.132 C 
BRANCH   8   9
ATOM      9  N   UNL A   1      30.997  24.935  26.541  1.00  0.00    -0.344 N 
ATOM     10  C   UNL A   1      30.881  23.602  26.826  1.00  0.00     0.251 C 
ATOM     11  O   UNL A   1      30.004  23.278  27.630  1.00  0.00    -0.269 OA
ATOM     12  H   UNL A   1      30.549  25.511  27.203  1.00  0.00     0.164 HD
BRANCH  10  13
ATOM     13  C   UNL A   1      31.828  22.568  26.332  1.00  0.00     0.040 A 
ATOM     14  C   UNL A   1      33.255  20.336  25.435  1.00  0.00     0.118 A 
ATOM     15  C   UNL A   1      32.152  20.776  24.714  1.00  0.00     0.047 A 
ATOM     16  C   UNL A   1      33.727  21.075  26.516  1.00  0.00     0.047 A 
ATOM     17  C   UNL A   1      31.434  21.881  25.170  1.00  0.00     0.017 A 
ATOM     18  C   UNL A   1      33.028  22.209  26.948  1.00  0.00     0.017 A 
BRANCH  14  19
ATOM     19  O   UNL A   1      33.877  19.192  25.020  1.00  0.00    -0.497 OA
ATOM     20  C   UNL A   1      33.014  18.064  25.185  1.00  0.00     0.278 C 
ENDBRANCH  14  19
ENDBRANCH  10  13
ENDBRANCH   8   9
BRANCH   8  21
ATOM     21  C   UNL A   1      32.442  26.828  26.054  1.00  0.00     0.027 A 
ATOM     22  C   UNL A   1      33.742  27.234  25.810  1.00  0.00     0.017 A 
ATOM     23  S   UNL A   1      31.684  27.864  27.204  1.00  0.00    -0.147 S 
ATOM     24  C   UNL A   1      34.094  28.412  26.531  1.00  0.00     0.012 A 
ATOM     25  C   UNL A   1      33.063  28.861  27.322  1.00  0.00     0.065 A 
ENDBRANCH   8  21
ENDBRANCH   7   8
ENDBRANCH   4   7
ENDBRANCH   2   3
ENDBRANCH   1   2
BRANCH   1  26
ATOM     26  C   UNL A   1      34.268  23.114  23.158  1.00  0.00     0.002 C 
BRANCH  26  27
ATOM     27  C   UNL A   1      34.767  24.023  24.283  1.00  0.00     0.002 C 
BRANCH  27  28
ATOM     28  C   UNL A   1      36.244  23.857  24.645  1.00  0.00     0.021 C 
BRANCH  28  29
ATOM     29  C   UNL A   1      36.507  23.464  26.097  1.00  0.00     0.116 C 
BRANCH  29  30
ATOM     30  N   UNL A   1      37.605  22.518  26.215  1.00  0.00    -0.352 N 
ATOM     31  C   UNL A   1      38.930  22.752  26.485  1.00  0.00     0.251 C 
ATOM     32  H   UNL A   1      37.363  21.573  26.082  1.00  0.00     0.163 HD
ATOM     33  O   UNL A   1      39.760  21.862  26.339  1.00  0.00    -0.269 OA
BRANCH  31  34
ATOM     34  C   UNL A   1      39.357  24.090  26.943  1.00  0.00     0.039 A 
ATOM     35  C   UNL A   1      39.238  24.412  28.296  1.00  0.00     0.014 A 
ATOM     36  C   UNL A   1      39.859  25.026  26.035  1.00  0.00     0.014 A 
ATOM     37  C   UNL A   1      39.673  25.658  28.751  1.00  0.00     0.010 A 
ATOM     38  C   UNL A   1      40.360  26.239  26.499  1.00  0.00     0.010 A 
ATOM     39  C   UNL A   1      40.263  26.570  27.859  1.00  0.00    -0.014 A 
BRANCH  39  40
ATOM     40  C   UNL A   1      40.775  27.880  28.328  1.00  0.00     0.031 A 
ATOM     41  C   UNL A   1      42.252  28.153  28.337  1.00  0.00     0.074 A 
ATOM     42  C   UNL A   1      39.914  28.800  28.803  1.00  0.00     0.049 A 
ATOM     43  N   UNL A   1      42.897  29.214  28.753  1.00  0.00    -0.248 NA
ATOM     44  C   UNL A   1      43.122  27.078  27.837  1.00  0.00     0.031 C 
ATOM     45  C   UNL A   1      38.463  28.633  28.884  1.00  0.00     0.029 A 
ATOM     46  N   UNL A   1      40.138  30.052  29.314  1.00  0.00    -0.354 N 
ATOM     47  C   UNL A   1      44.244  28.927  28.580  1.00  0.00     0.074 A 
ATOM     48  C   UNL A   1      44.326  27.573  28.077  1.00  0.00     0.031 C 
ATOM     49  C   UNL A   1      37.921  29.756  29.381  1.00  0.00     0.029 A 
ATOM     50  C   UNL A   1      38.989  30.704  29.690  1.00  0.00     0.049 A 
ATOM     51  H   UNL A   1      41.035  30.447  29.403  1.00  0.00     0.167 HD
ATOM     52  C   UNL A   1      45.314  29.728  28.799  1.00  0.00     0.037 A 
ATOM     53  C   UNL A   1      38.818  31.929  30.220  1.00  0.00     0.037 A 
ATOM     54  C   UNL A   1      45.225  31.081  29.285  1.00  0.00     0.049 A 
ATOM     55  C   UNL A   1      40.023  32.792  30.478  1.00  0.00     0.074 A 
ATOM     56  C   UNL A   1      46.241  31.999  29.479  1.00  0.00     0.029 A 
ATOM     57  N   UNL A   1      44.044  31.705  29.663  1.00  0.00    -0.354 N 
ATOM     58  N   UNL A   1      41.287  32.542  30.242  1.00  0.00    -0.248 NA
ATOM     59  C   UNL A   1      39.772  34.112  31.074  1.00  0.00     0.031 C 
ATOM     60  C   UNL A   1      45.682  33.161  30.024  1.00  0.00     0.029 A 
ATOM     61  C   UNL A   1      44.310  32.988  30.119  1.00  0.00     0.049 A 
ATOM     62  H   UNL A   1      43.149  31.297  29.615  1.00  0.00     0.167 HD
ATOM     63  C   UNL A   1      41.981  33.679  30.632  1.00  0.00     0.074 A 
ATOM     64  C   UNL A   1      40.994  34.625  31.110  1.00  0.00     0.031 C 
ATOM     65  C   UNL A   1      43.316  33.918  30.591  1.00  0.00     0.037 A 
BRANCH  52  66
ATOM     66  C   UNL A   1      46.673  29.150  28.520  1.00  0.00     0.064 A 
ATOM     67  C   UNL A   1      47.243  29.186  27.237  1.00  0.00     0.173 A 
ATOM     68  C   UNL A   1      47.413  28.544  29.546  1.00  0.00     0.173 A 
ATOM     69  F   UNL A   1      46.574  29.744  26.216  1.00  0.00    -0.203 F 
ATOM     70  C   UNL A   1      48.477  28.593  26.983  1.00  0.00     0.198 A 
ATOM     71  C   UNL A   1      48.663  27.983  29.296  1.00  0.00     0.198 A 
ATOM     72  F   UNL A   1      46.921  28.487  30.794  1.00  0.00    -0.203 F 
ATOM     73  F   UNL A   1      48.967  28.578  25.735  1.00  0.00    -0.200 F 
ATOM     74  C   UNL A   1      49.188  27.996  28.013  1.00  0.00     0.200 A 
ATOM     75  F   UNL A   1      49.355  27.418  30.295  1.00  0.00    -0.200 F 
ATOM     76  F   UNL A   1      50.373  27.422  27.765  1.00  0.00    -0.200 F 
ENDBRANCH  52  66
BRANCH  53  77
ATOM     77  C   UNL A   1      37.446  32.427  30.494  1.00  0.00     0.064 A 
ATOM     78  C   UNL A   1      36.828  32.169  31.725  1.00  0.00     0.173 A 
ATOM     79  C   UNL A   1      36.738  33.190  29.555  1.00  0.00     0.173 A 
ATOM     80  F   UNL A   1      37.459  31.427  32.647  1.00  0.00    -0.203 F 
ATOM     81  C   UNL A   1      35.550  32.646  32.004  1.00  0.00     0.198 A 
ATOM     82  C   UNL A   1      35.470  33.688  29.843  1.00  0.00     0.198 A 
ATOM     83  F   UNL A   1      37.289  33.468  28.363  1.00  0.00    -0.203 F 
ATOM     84  F   UNL A   1      34.970  32.359  33.177  1.00  0.00    -0.200 F 
ATOM     85  C   UNL A   1      34.875  33.412  31.065  1.00  0.00     0.200 A 
ATOM     86  F   UNL A   1      34.825  34.439  28.939  1.00  0.00    -0.200 F 
ATOM     87  F   UNL A   1      33.650  33.882  31.338  1.00  0.00    -0.200 F 
ENDBRANCH  53  77
BRANCH  65  88
ATOM     88  C   UNL A   1      43.784  35.270  31.048  1.00  0.00     0.064 A 
ATOM     89  C   UNL A   1      43.814  36.371  30.180  1.00  0.00     0.173 A 
ATOM     90  C   UNL A   1      44.171  35.473  32.381  1.00  0.00     0.173 A 
ATOM     91  F   UNL A   1      43.469  36.226  28.891  1.00  0.00    -0.203 F 
ATOM     92  C   UNL A   1      44.239  37.621  30.624  1.00  0.00     0.198 A 
ATOM     93  C   UNL A   1      44.567  36.730  32.829  1.00  0.00     0.198 A 
ATOM     94  F   UNL A   1      44.156  34.453  33.252  1.00  0.00    -0.203 F 
ATOM     95  F   UNL A   1      44.307  38.648  29.765  1.00  0.00    -0.200 F 
ATOM     96  C   UNL A   1      44.607  37.801  31.949  1.00  0.00     0.200 A 
ATOM     97  F   UNL A   1      44.910  36.905  34.113  1.00  0.00    -0.200 F 
ATOM     98  F   UNL A   1      45.009  39.006  32.376  1.00  0.00    -0.200 F 
ENDBRANCH  65  88
ENDBRANCH  39  40
ENDBRANCH  31  34
ENDBRANCH  29  30
ENDBRANCH  28  29
ENDBRANCH  27  28
ENDBRANCH  26  27
ENDBRANCH   1  26
TORSDOF 18
ENDMDL
MODEL 2
REMARK VINA RESULT:     -11.6      3.980      8.980
REMARK SMILES COc1ccc(C(=O)N[C@@H](CC(=O)NCCCCCCNC(=O)c2ccc(-c3c4nc(c(-c5c(F)c(F)c(F)c(F)c5F)c5ccc([nH]5)c(-c5c(F)c(F)c(F)c(F)c5F)c5nc(c(-c6c(F)c(F)c(F)c(F)c6F)c6ccc3[nH]6)C=C5)C=C4)cc2)c2cccs2)cc1
REMARK SMILES IDX 16 1 15 2 14 3 12 4 13 5 11 7 10 8 9 9 7 10 8 11 6 13 3 14
REMARK SMILES IDX 4 15 93 16 5 17 92 18 2 19 1 20 87 21 88 22 91 23 89 24
REMARK SMILES IDX 90 25 17 26 18 27 19 28 20 29 21 30 22 31 23 33 24 34 25 35
REMARK SMILES IDX 86 36 26 37 85 38 27 39 28 40 29 41 79 42 30 43 84 44 78 45
REMARK SMILES IDX 80 46 31 47 83 48 77 49 76 50 32 52 64 53 44 54 63 55 45 56
REMARK SMILES IDX 48 57 62 58 81 59 46 60 47 61 61 63 82 64 49 65 33 66 34 67
REMARK SMILES IDX 42 68 35 69 36 70 40 71 43 72 37 73 38 74 41 75 39 76 65 77
REMARK SMILES IDX 66 78 74 79 67 80 68 81 72 82 75 83 69 84 70 85 73 86 71 87
REMARK SMILES IDX 50 88 51 89 59 90 52 91 53 92 57 93 60 94 54 95 55 96 58 97
REMARK SMILES IDX 56 98
REMARK H PARENT 14 6 9 12 21 32 80 51 48 62
REMARK Flexibility Score: inf
ROOT
ATOM      1  C   UNL A   1      30.299  26.495  25.012  1.00  0.00     0.021 C 
ENDROOT
BRANCH   1   2
ATOM      2  C   UNL A   1      31.458  25.945  25.846  1.00  0.00     0.116 C 
BRANCH   2   3
ATOM      3  N   UNL A   1      30.974  24.953  26.787  1.00  0.00    -0.356 N 
ATOM      4  C   UNL A   1      30.647  23.645  26.605  1.00  0.00     0.222 C 
ATOM      5  O   UNL A   1      30.189  23.031  27.570  1.00  0.00    -0.275 OA
ATOM      6  H   UNL A   1      30.863  25.280  27.708  1.00  0.00     0.163 HD
BRANCH   4   7
ATOM      7  C   UNL A   1      30.895  22.941  25.285  1.00  0.00     0.130 C 
BRANCH   7   8
ATOM      8  C   UNL A   1      32.344  22.553  24.964  1.00  0.00     0.132 C 
BRANCH   8   9
ATOM      9  N   UNL A   1      32.843  23.269  23.798  1.00  0.00    -0.344 N 
ATOM     10  C   UNL A   1      34.022  23.898  23.501  1.00  0.00     0.251 C 
ATOM     11  O   UNL A   1      34.012  24.682  22.549  1.00  0.00    -0.269 OA
ATOM     12  H   UNL A   1      32.189  23.310  23.063  1.00  0.00     0.164 HD
BRANCH  10  13
ATOM     13  C   UNL A   1      35.314  23.582  24.165  1.00  0.00     0.040 A 
ATOM     14  C   UNL A   1      37.587  22.556  25.431  1.00  0.00     0.118 A 
ATOM     15  C   UNL A   1      37.228  22.075  24.178  1.00  0.00     0.047 A 
ATOM     16  C   UNL A   1      36.903  23.631  25.993  1.00  0.00     0.047 A 
ATOM     17  C   UNL A   1      36.087  22.578  23.554  1.00  0.00     0.017 A 
ATOM     18  C   UNL A   1      35.781  24.162  25.346  1.00  0.00     0.017 A 
BRANCH  14  19
ATOM     19  O   UNL A   1      38.651  21.973  26.061  1.00  0.00    -0.497 OA
ATOM     20  C   UNL A   1      39.454  22.963  26.709  1.00  0.00     0.278 C 
ENDBRANCH  14  19
ENDBRANCH  10  13
ENDBRANCH   8   9
BRANCH   8  21
ATOM     21  C   UNL A   1      32.584  21.071  24.801  1.00  0.00     0.027 A 
ATOM     22  C   UNL A   1      32.983  20.115  25.718  1.00  0.00     0.017 A 
ATOM     23  S   UNL A   1      32.315  20.360  23.254  1.00  0.00    -0.147 S 
ATOM     24  C   UNL A   1      33.024  18.804  25.161  1.00  0.00     0.012 A 
ATOM     25  C   UNL A   1      32.678  18.796  23.831  1.00  0.00     0.065 A 
ENDBRANCH   8  21
ENDBRANCH   7   8
ENDBRANCH   4   7
ENDBRANCH   2   3
ENDBRANCH   1   2
BRANCH   1  26
ATOM     26  C   UNL A   1      30.696  27.592  24.022  1.00  0.00     0.002 C 
BRANCH  26  27
ATOM     27  C   UNL A   1      31.286  28.851  24.660  1.00  0.00     0.002 C 
BRANCH  27  28
ATOM     28  C   UNL A   1      32.802  29.003  24.517  1.00  0.00     0.021 C 
BRANCH  28  29
ATOM     29  C   UNL A   1      33.529  29.399  25.799  1.00  0.00     0.116 C 
BRANCH  29  30
ATOM     30  N   UNL A   1      33.182  30.745  26.228  1.00  0.00    -0.352 N 
ATOM     31  C   UNL A   1      33.719  31.502  27.238  1.00  0.00     0.251 C 
ATOM     32  H   UNL A   1      32.458  31.175  25.719  1.00  0.00     0.163 HD
ATOM     33  O   UNL A   1      33.167  32.535  27.602  1.00  0.00    -0.269 OA
BRANCH  31  34
ATOM     34  C   UNL A   1      34.964  31.061  27.900  1.00  0.00     0.039 A 
ATOM     35  C   UNL A   1      36.029  31.958  28.005  1.00  0.00     0.014 A 
ATOM     36  C   UNL A   1      35.082  29.762  28.401  1.00  0.00     0.014 A 
ATOM     37  C   UNL A   1      37.198  31.568  28.661  1.00  0.00     0.010 A 
ATOM     38  C   UNL A   1      36.218  29.398  29.118  1.00  0.00     0.010 A 
ATOM     39  C   UNL A   1      37.290  30.294  29.247  1.00  0.00    -0.014 A 
BRANCH  39  40
ATOM     40  C   UNL A   1      38.504  29.877  29.990  1.00  0.00     0.031 A 
ATOM     41  C   UNL A   1      38.749  30.387  31.380  1.00  0.00     0.074 A 
ATOM     42  C   UNL A   1      39.414  29.089  29.387  1.00  0.00     0.049 A 
ATOM     43  N   UNL A   1      39.771  30.176  32.173  1.00  0.00    -0.248 NA
ATOM     44  C   UNL A   1      37.722  31.274  31.946  1.00  0.00     0.031 C 
ATOM     45  C   UNL A   1      39.306  28.565  28.025  1.00  0.00     0.029 A 
ATOM     46  N   UNL A   1      40.610  28.598  29.842  1.00  0.00    -0.354 N 
ATOM     47  C   UNL A   1      39.516  30.917  33.319  1.00  0.00     0.074 A 
ATOM     48  C   UNL A   1      38.274  31.626  33.096  1.00  0.00     0.031 C 
ATOM     49  C   UNL A   1      40.376  27.797  27.766  1.00  0.00     0.029 A 
ATOM     50  C   UNL A   1      41.262  27.806  28.928  1.00  0.00     0.049 A 
ATOM     51  H   UNL A   1      40.969  28.793  30.737  1.00  0.00     0.167 HD
ATOM     52  C   UNL A   1      40.239  30.981  34.462  1.00  0.00     0.037 A 
ATOM     53  C   UNL A   1      42.439  27.160  29.019  1.00  0.00     0.037 A 
ATOM     54  C   UNL A   1      41.466  30.260  34.684  1.00  0.00     0.049 A 
ATOM     55  C   UNL A   1      43.237  27.265  30.289  1.00  0.00     0.074 A 
ATOM     56  C   UNL A   1      42.242  30.203  35.828  1.00  0.00     0.029 A 
ATOM     57  N   UNL A   1      42.100  29.474  33.731  1.00  0.00    -0.354 N 
ATOM     58  N   UNL A   1      42.953  27.907  31.395  1.00  0.00    -0.248 NA
ATOM     59  C   UNL A   1      44.521  26.551  30.321  1.00  0.00     0.031 C 
ATOM     60  C   UNL A   1      43.373  29.426  35.551  1.00  0.00     0.029 A 
ATOM     61  C   UNL A   1      43.275  28.953  34.252  1.00  0.00     0.049 A 
ATOM     62  H   UNL A   1      41.765  29.312  32.820  1.00  0.00     0.167 HD
ATOM     63  C   UNL A   1      44.004  27.653  32.266  1.00  0.00     0.074 A 
ATOM     64  C   UNL A   1      44.928  26.788  31.561  1.00  0.00     0.031 C 
ATOM     65  C   UNL A   1      44.184  28.092  33.537  1.00  0.00     0.037 A 
BRANCH  52  66
ATOM     66  C   UNL A   1      39.719  31.872  35.555  1.00  0.00     0.064 A 
ATOM     67  C   UNL A   1      38.745  31.433  36.466  1.00  0.00     0.173 A 
ATOM     68  C   UNL A   1      40.193  33.186  35.688  1.00  0.00     0.173 A 
ATOM     69  F   UNL A   1      38.248  30.190  36.377  1.00  0.00    -0.203 F 
ATOM     70  C   UNL A   1      38.231  32.290  37.436  1.00  0.00     0.198 A 
ATOM     71  C   UNL A   1      39.702  34.030  36.681  1.00  0.00     0.198 A 
ATOM     72  F   UNL A   1      41.130  33.657  34.850  1.00  0.00    -0.203 F 
ATOM     73  F   UNL A   1      37.250  31.870  38.248  1.00  0.00    -0.200 F 
ATOM     74  C   UNL A   1      38.712  33.586  37.546  1.00  0.00     0.200 A 
ATOM     75  F   UNL A   1      40.178  35.277  36.795  1.00  0.00    -0.200 F 
ATOM     76  F   UNL A   1      38.213  34.411  38.476  1.00  0.00    -0.200 F 
ENDBRANCH  52  66
BRANCH  53  77
ATOM     77  C   UNL A   1      42.904  26.316  27.889  1.00  0.00     0.064 A 
ATOM     78  C   UNL A   1      43.690  26.866  26.867  1.00  0.00     0.173 A 
ATOM     79  C   UNL A   1      42.602  24.948  27.819  1.00  0.00     0.173 A 
ATOM     80  F   UNL A   1      43.987  28.173  26.883  1.00  0.00    -0.203 F 
ATOM     81  C   UNL A   1      44.150  26.082  25.812  1.00  0.00     0.198 A 
ATOM     82  C   UNL A   1      43.083  24.160  26.776  1.00  0.00     0.198 A 
ATOM     83  F   UNL A   1      41.857  24.375  28.776  1.00  0.00    -0.203 F 
ATOM     84  F   UNL A   1      44.874  26.638  24.833  1.00  0.00    -0.200 F 
ATOM     85  C   UNL A   1      43.853  24.728  25.772  1.00  0.00     0.200 A 
ATOM     86  F   UNL A   1      42.806  22.849  26.747  1.00  0.00    -0.200 F 
ATOM     87  F   UNL A   1      44.305  23.971  24.763  1.00  0.00    -0.200 F 
ENDBRANCH  53  77
BRANCH  65  88
ATOM     88  C   UNL A   1      45.412  27.618  34.259  1.00  0.00     0.064 A 
ATOM     89  C   UNL A   1      46.608  28.350  34.238  1.00  0.00     0.173 A 
ATOM     90  C   UNL A   1      45.379  26.435  35.012  1.00  0.00     0.173 A 
ATOM     91  F   UNL A   1      46.697  29.480  33.519  1.00  0.00    -0.203 F 
ATOM     92  C   UNL A   1      47.734  27.901  34.924  1.00  0.00     0.198 A 
ATOM     93  C   UNL A   1      46.497  26.005  35.722  1.00  0.00     0.198 A 
ATOM     94  F   UNL A   1      44.258  25.701  35.069  1.00  0.00    -0.203 F 
ATOM     95  F   UNL A   1      48.881  28.592  34.851  1.00  0.00    -0.200 F 
ATOM     96  C   UNL A   1      47.675  26.734  35.671  1.00  0.00     0.200 A 
ATOM     97  F   UNL A   1      46.434  24.884  36.454  1.00  0.00    -0.200 F 
ATOM     98  F   UNL A   1      48.757  26.308  36.337  1.00  0.00    -0.200 F 
ENDBRANCH  65  88
ENDBRANCH  39  40
ENDBRANCH  31  34
ENDBRANCH  29  30
ENDBRANCH  28  29
ENDBRANCH  27  28
ENDBRANCH  26  27
ENDBRANCH   1  26
TORSDOF 18
ENDMDL
MODEL 3
REMARK VINA RESULT:     -11.6      2.960      8.675
REMARK SMILES COc1ccc(C(=O)N[C@@H](CC(=O)NCCCCCCNC(=O)c2ccc(-c3c4nc(c(-c5c(F)c(F)c(F)c(F)c5F)c5ccc([nH]5)c(-c5c(F)c(F)c(F)c(F)c5F)c5nc(c(-c6c(F)c(F)c(F)c(F)c6F)c6ccc3[nH]6)C=C5)C=C4)cc2)c2cccs2)cc1
REMARK SMILES IDX 16 1 15 2 14 3 12 4 13 5 11 7 10 8 9 9 7 10 8 11 6 13 3 14
REMARK SMILES IDX 4 15 93 16 5 17 92 18 2 19 1 20 87 21 88 22 91 23 89 24
REMARK SMILES IDX 90 25 17 26 18 27 19 28 20 29 21 30 22 31 23 33 24 34 25 35
REMARK SMILES IDX 86 36 26 37 85 38 27 39 28 40 29 41 79 42 30 43 84 44 78 45
REMARK SMILES IDX 80 46 31 47 83 48 77 49 76 50 32 52 64 53 44 54 63 55 45 56
REMARK SMILES IDX 48 57 62 58 81 59 46 60 47 61 61 63 82 64 49 65 33 66 34 67
REMARK SMILES IDX 42 68 35 69 36 70 40 71 43 72 37 73 38 74 41 75 39 76 65 77
REMARK SMILES IDX 66 78 74 79 67 80 68 81 72 82 75 83 69 84 70 85 73 86 71 87
REMARK SMILES IDX 50 88 51 89 59 90 52 91 53 92 57 93 60 94 54 95 55 96 58 97
REMARK SMILES IDX 56 98
REMARK H PARENT 14 6 9 12 21 32 80 51 48 62
REMARK Flexibility Score: inf
ROOT
ATOM      1  C   UNL A   1      37.091  22.911  24.720  1.00  0.00     0.021 C 
ENDROOT
BRANCH   1   2
ATOM      2  C   UNL A   1      35.862  23.014  23.816  1.00  0.00     0.116 C 
BRANCH   2   3
ATOM      3  N   UNL A   1      35.284  24.341  23.902  1.00  0.00    -0.356 N 
ATOM      4  C   UNL A   1      34.204  24.793  24.594  1.00  0.00     0.222 C 
ATOM      5  O   UNL A   1      33.879  25.973  24.440  1.00  0.00    -0.275 OA
ATOM      6  H   UNL A   1      35.750  25.028  23.374  1.00  0.00     0.163 HD
BRANCH   4   7
ATOM      7  C   UNL A   1      33.459  23.906  25.573  1.00  0.00     0.130 C 
BRANCH   7   8
ATOM      8  C   UNL A   1      32.308  23.062  25.011  1.00  0.00     0.132 C 
BRANCH   8   9
ATOM      9  N   UNL A   1      31.100  23.204  25.814  1.00  0.00    -0.344 N 
ATOM     10  C   UNL A   1      30.412  24.276  26.314  1.00  0.00     0.251 C 
ATOM     11  O   UNL A   1      29.607  24.049  27.220  1.00  0.00    -0.269 OA
ATOM     12  H   UNL A   1      30.689  22.340  26.047  1.00  0.00     0.164 HD
BRANCH  10  13
ATOM     13  C   UNL A   1      30.483  25.643  25.735  1.00  0.00     0.040 A 
ATOM     14  C   UNL A   1      30.831  28.014  24.293  1.00  0.00     0.118 A 
ATOM     15  C   UNL A   1      30.081  26.983  23.740  1.00  0.00     0.047 A 
ATOM     16  C   UNL A   1      31.292  27.923  25.604  1.00  0.00     0.047 A 
ATOM     17  C   UNL A   1      29.920  25.797  24.456  1.00  0.00     0.017 A 
ATOM     18  C   UNL A   1      31.094  26.746  26.335  1.00  0.00     0.017 A 
BRANCH  14  19
ATOM     19  O   UNL A   1      31.056  29.124  23.527  1.00  0.00    -0.497 OA
ATOM     20  C   UNL A   1      30.221  29.110  22.366  1.00  0.00     0.278 C 
ENDBRANCH  14  19
ENDBRANCH  10  13
ENDBRANCH   8   9
BRANCH   8  21
ATOM     21  C   UNL A   1      32.629  21.600  24.816  1.00  0.00     0.027 A 
ATOM     22  C   UNL A   1      33.221  20.684  25.667  1.00  0.00     0.017 A 
ATOM     23  S   UNL A   1      32.199  20.857  23.321  1.00  0.00    -0.147 S 
ATOM     24  C   UNL A   1      33.280  19.374  25.109  1.00  0.00     0.012 A 
ATOM     25  C   UNL A   1      32.753  19.329  23.840  1.00  0.00     0.065 A 
ENDBRANCH   8  21
ENDBRANCH   7   8
ENDBRANCH   4   7
ENDBRANCH   2   3
ENDBRANCH   1   2
BRANCH   1  26
ATOM     26  C   UNL A   1      37.108  21.680  25.629  1.00  0.00     0.002 C 
BRANCH  26  27
ATOM     27  C   UNL A   1      36.926  20.344  24.907  1.00  0.00     0.002 C 
BRANCH  27  28
ATOM     28  C   UNL A   1      38.111  19.381  25.015  1.00  0.00     0.021 C 
BRANCH  28  29
ATOM     29  C   UNL A   1      39.325  19.941  25.751  1.00  0.00     0.116 C 
BRANCH  29  30
ATOM     30  N   UNL A   1      40.369  18.943  25.919  1.00  0.00    -0.352 N 
ATOM     31  C   UNL A   1      41.717  19.115  26.108  1.00  0.00     0.251 C 
ATOM     32  H   UNL A   1      40.064  18.007  25.893  1.00  0.00     0.163 HD
ATOM     33  O   UNL A   1      42.484  18.163  26.019  1.00  0.00    -0.269 OA
BRANCH  31  34
ATOM     34  C   UNL A   1      42.246  20.461  26.409  1.00  0.00     0.039 A 
ATOM     35  C   UNL A   1      42.725  21.249  25.360  1.00  0.00     0.014 A 
ATOM     36  C   UNL A   1      42.281  20.935  27.723  1.00  0.00     0.014 A 
ATOM     37  C   UNL A   1      43.194  22.538  25.623  1.00  0.00     0.010 A 
ATOM     38  C   UNL A   1      42.679  22.245  27.974  1.00  0.00     0.010 A 
ATOM     39  C   UNL A   1      43.147  23.055  26.929  1.00  0.00    -0.014 A 
BRANCH  39  40
ATOM     40  C   UNL A   1      43.595  24.438  27.223  1.00  0.00     0.031 A 
ATOM     41  C   UNL A   1      42.602  25.473  27.666  1.00  0.00     0.074 A 
ATOM     42  C   UNL A   1      44.884  24.775  27.030  1.00  0.00     0.049 A 
ATOM     43  N   UNL A   1      42.788  26.744  27.925  1.00  0.00    -0.248 NA
ATOM     44  C   UNL A   1      41.208  25.027  27.812  1.00  0.00     0.031 C 
ATOM     45  C   UNL A   1      45.932  23.868  26.563  1.00  0.00     0.029 A 
ATOM     46  N   UNL A   1      45.528  25.974  27.198  1.00  0.00    -0.354 N 
ATOM     47  C   UNL A   1      41.535  27.249  28.247  1.00  0.00     0.074 A 
ATOM     48  C   UNL A   1      40.590  26.164  28.094  1.00  0.00     0.031 C 
ATOM     49  C   UNL A   1      47.096  24.534  26.514  1.00  0.00     0.029 A 
ATOM     50  C   UNL A   1      46.869  25.921  26.908  1.00  0.00     0.049 A 
ATOM     51  H   UNL A   1      45.073  26.794  27.498  1.00  0.00     0.167 HD
ATOM     52  C   UNL A   1      41.206  28.498  28.654  1.00  0.00     0.037 A 
ATOM     53  C   UNL A   1      47.808  26.884  26.959  1.00  0.00     0.037 A 
ATOM     54  C   UNL A   1      42.154  29.570  28.819  1.00  0.00     0.049 A 
ATOM     55  C   UNL A   1      47.416  28.270  27.390  1.00  0.00     0.074 A 
ATOM     56  C   UNL A   1      41.937  30.853  29.288  1.00  0.00     0.029 A 
ATOM     57  N   UNL A   1      43.504  29.482  28.507  1.00  0.00    -0.354 N 
ATOM     58  N   UNL A   1      46.244  28.721  27.764  1.00  0.00    -0.248 NA
ATOM     59  C   UNL A   1      48.482  29.281  27.409  1.00  0.00     0.031 C 
ATOM     60  C   UNL A   1      43.144  31.557  29.210  1.00  0.00     0.029 A 
ATOM     61  C   UNL A   1      44.126  30.698  28.745  1.00  0.00     0.049 A 
ATOM     62  H   UNL A   1      43.953  28.675  28.166  1.00  0.00     0.167 HD
ATOM     63  C   UNL A   1      46.434  30.057  28.091  1.00  0.00     0.074 A 
ATOM     64  C   UNL A   1      47.839  30.340  27.879  1.00  0.00     0.031 C 
ATOM     65  C   UNL A   1      45.527  30.964  28.530  1.00  0.00     0.037 A 
BRANCH  52  66
ATOM     66  C   UNL A   1      39.756  28.768  28.940  1.00  0.00     0.064 A 
ATOM     67  C   UNL A   1      38.882  29.240  27.947  1.00  0.00     0.173 A 
ATOM     68  C   UNL A   1      39.233  28.560  30.225  1.00  0.00     0.173 A 
ATOM     69  F   UNL A   1      39.332  29.467  26.703  1.00  0.00    -0.203 F 
ATOM     70  C   UNL A   1      37.555  29.540  28.242  1.00  0.00     0.198 A 
ATOM     71  C   UNL A   1      37.896  28.828  30.509  1.00  0.00     0.198 A 
ATOM     72  F   UNL A   1      40.019  28.102  31.211  1.00  0.00    -0.203 F 
ATOM     73  F   UNL A   1      36.759  30.057  27.295  1.00  0.00    -0.200 F 
ATOM     74  C   UNL A   1      37.061  29.330  29.521  1.00  0.00     0.200 A 
ATOM     75  F   UNL A   1      37.417  28.611  31.741  1.00  0.00    -0.200 F 
ATOM     76  F   UNL A   1      35.785  29.624  29.805  1.00  0.00    -0.200 F 
ENDBRANCH  52  66
BRANCH  53  77
ATOM     77  C   UNL A   1      49.220  26.552  26.638  1.00  0.00     0.064 A 
ATOM     78  C   UNL A   1      49.684  26.618  25.317  1.00  0.00     0.173 A 
ATOM     79  C   UNL A   1      50.137  26.193  27.636  1.00  0.00     0.173 A 
ATOM     80  F   UNL A   1      48.838  26.939  24.327  1.00  0.00    -0.203 F 
ATOM     81  C   UNL A   1      51.010  26.329  25.004  1.00  0.00     0.198 A 
ATOM     82  C   UNL A   1      51.468  25.928  27.326  1.00  0.00     0.198 A 
ATOM     83  F   UNL A   1      49.742  26.120  28.916  1.00  0.00    -0.203 F 
ATOM     84  F   UNL A   1      51.420  26.371  23.730  1.00  0.00    -0.200 F 
ATOM     85  C   UNL A   1      51.903  25.992  26.010  1.00  0.00     0.200 A 
ATOM     86  F   UNL A   1      52.332  25.615  28.301  1.00  0.00    -0.200 F 
ATOM     87  F   UNL A   1      53.181  25.725  25.711  1.00  0.00    -0.200 F 
ENDBRANCH  53  77
BRANCH  65  88
ATOM     88  C   UNL A   1      46.033  32.343  28.844  1.00  0.00     0.064 A 
ATOM     89  C   UNL A   1      46.023  33.367  27.887  1.00  0.00     0.173 A 
ATOM     90  C   UNL A   1      46.498  32.651  30.131  1.00  0.00     0.173 A 
ATOM     91  F   UNL A   1      45.603  33.120  26.636  1.00  0.00    -0.203 F 
ATOM     92  C   UNL A   1      46.484  34.644  28.199  1.00  0.00     0.198 A 
ATOM     93  C   UNL A   1      46.930  33.936  30.449  1.00  0.00     0.198 A 
ATOM     94  F   UNL A   1      46.524  31.708  31.085  1.00  0.00    -0.203 F 
ATOM     95  F   UNL A   1      46.511  35.595  27.255  1.00  0.00    -0.200 F 
ATOM     96  C   UNL A   1      46.929  34.928  29.482  1.00  0.00     0.200 A 
ATOM     97  F   UNL A   1      47.348  34.212  31.693  1.00  0.00    -0.200 F 
ATOM     98  F   UNL A   1      47.366  36.159  29.783  1.00  0.00    -0.200 F 
ENDBRANCH  65  88
ENDBRANCH  39  40
ENDBRANCH  31  34
ENDBRANCH  29  30
ENDBRANCH  28  29
ENDBRANCH  27  28
ENDBRANCH  26  27
ENDBRANCH   1  26
TORSDOF 18
ENDMDL
