MODEL 1
REMARK VINA RESULT:     -11.7      0.000      0.000
REMARK SMILES O=C(NCCCCCCNC(=O)[C@H](CO)NC(=O)[C@H](Cc1c[nH]c2ccccc12)NC(=O)c1ccc(F)cc1)c1ccc(-c2c3nc(c(-c4c(F)c(F)c(F)c(F)c4F)c4ccc([nH]4)c(-c4c(F)c(F)c(F)c(F)c4F)c4nc(c(-c5c(F)c(F)c(F)c(F)c5F)c5ccc2[nH]5)C=C4)C=C3)cc1
REMARK SMILES IDX 7 1 6 2 5 3 4 4 3 5 1 6 2 7 40 9 41 10 102 11 42 12 101 13
REMARK SMILES IDX 43 14 44 15 45 16 95 17 46 18 100 19 94 20 96 21 47 22 99 23
REMARK SMILES IDX 93 24 92 25 48 27 80 28 60 29 79 30 61 31 64 32 78 33 97 34
REMARK SMILES IDX 62 35 63 36 77 38 98 39 65 40 49 41 50 42 58 43 51 44 52 45
REMARK SMILES IDX 56 46 59 47 53 48 54 49 57 50 55 51 81 52 82 53 90 54 83 55
REMARK SMILES IDX 84 56 88 57 91 58 85 59 86 60 89 61 87 62 66 63 67 64 75 65
REMARK SMILES IDX 68 66 69 67 73 68 76 69 70 70 71 71 74 72 72 73 8 74 9 75
REMARK SMILES IDX 10 76 11 77 12 79 13 80 16 81 17 82 18 84 19 85 30 86 31 87
REMARK SMILES IDX 32 89 33 90 34 91 39 92 35 93 38 94 36 95 37 96 20 97 21 98
REMARK SMILES IDX 22 99 29 100 23 101 24 102 28 103 25 105 27 106 26 107
REMARK SMILES IDX 14 108 15 109
REMARK H PARENT 3 8 96 26 64 37 10 78 16 83 30 88 23 104 15 110
REMARK Flexibility Score: inf
ROOT
ATOM      1  C   UNL A   1      34.394  33.356  29.697  1.00  0.00     0.002 C 
ENDROOT
BRANCH   1   2
ATOM      2  C   UNL A   1      34.377  34.576  28.770  1.00  0.00     0.002 C 
BRANCH   2   3
ATOM      3  C   UNL A   1      33.202  35.541  28.917  1.00  0.00     0.021 C 
BRANCH   3   4
ATOM      4  C   UNL A   1      33.310  36.582  30.026  1.00  0.00     0.116 C 
BRANCH   4   5
ATOM      5  N   UNL A   1      32.347  36.381  31.093  1.00  0.00    -0.352 N 
ATOM      6  O   UNL A   1      31.466  35.453  32.950  1.00  0.00    -0.269 OA
ATOM      7  C   UNL A   1      32.453  35.618  32.230  1.00  0.00     0.251 C 
ATOM      8  H   UNL A   1      31.495  36.863  30.988  1.00  0.00     0.163 HD
BRANCH   7   9
ATOM      9  C   UNL A   1      33.731  34.962  32.595  1.00  0.00     0.039 A 
ATOM     10  C   UNL A   1      34.952  35.634  32.496  1.00  0.00     0.014 A 
ATOM     11  C   UNL A   1      33.705  33.654  33.094  1.00  0.00     0.014 A 
ATOM     12  C   UNL A   1      36.143  34.960  32.770  1.00  0.00     0.010 A 
ATOM     13  C   UNL A   1      34.897  33.004  33.438  1.00  0.00     0.010 A 
ATOM     14  C   UNL A   1      36.134  33.638  33.249  1.00  0.00    -0.014 A 
BRANCH  14  15
ATOM     15  C   UNL A   1      37.419  32.963  33.585  1.00  0.00     0.031 A 
ATOM     16  C   UNL A   1      38.138  33.241  34.879  1.00  0.00     0.074 A 
ATOM     17  C   UNL A   1      37.938  32.066  32.722  1.00  0.00     0.049 A 
ATOM     18  N   UNL A   1      39.252  32.721  35.333  1.00  0.00    -0.248 NA
ATOM     19  C   UNL A   1      37.534  34.235  35.778  1.00  0.00     0.031 C 
ATOM     20  C   UNL A   1      37.355  31.716  31.426  1.00  0.00     0.029 A 
ATOM     21  N   UNL A   1      39.058  31.276  32.806  1.00  0.00    -0.354 N 
ATOM     22  C   UNL A   1      39.488  33.327  36.560  1.00  0.00     0.074 A 
ATOM     23  C   UNL A   1      38.421  34.284  36.764  1.00  0.00     0.031 C 
ATOM     24  C   UNL A   1      38.093  30.751  30.858  1.00  0.00     0.029 A 
ATOM     25  C   UNL A   1      39.233  30.453  31.721  1.00  0.00     0.049 A 
ATOM     26  H   UNL A   1      39.676  31.297  33.572  1.00  0.00     0.167 HD
ATOM     27  C   UNL A   1      40.491  33.098  37.443  1.00  0.00     0.037 A 
ATOM     28  C   UNL A   1      40.204  29.563  31.437  1.00  0.00     0.037 A 
ATOM     29  C   UNL A   1      41.550  32.139  37.247  1.00  0.00     0.049 A 
ATOM     30  C   UNL A   1      41.320  29.347  32.418  1.00  0.00     0.074 A 
ATOM     31  C   UNL A   1      42.594  31.823  38.100  1.00  0.00     0.029 A 
ATOM     32  N   UNL A   1      41.706  31.345  36.120  1.00  0.00    -0.354 N 
ATOM     33  N   UNL A   1      41.511  29.906  33.587  1.00  0.00    -0.248 NA
ATOM     34  C   UNL A   1      42.355  28.373  32.043  1.00  0.00     0.031 C 
ATOM     35  C   UNL A   1      43.408  30.878  37.469  1.00  0.00     0.029 A 
ATOM     36  C   UNL A   1      42.839  30.555  36.249  1.00  0.00     0.049 A 
ATOM     37  H   UNL A   1      41.101  31.344  35.342  1.00  0.00     0.167 HD
ATOM     38  C   UNL A   1      42.673  29.341  34.097  1.00  0.00     0.074 A 
ATOM     39  C   UNL A   1      43.135  28.381  33.116  1.00  0.00     0.031 C 
ATOM     40  C   UNL A   1      43.293  29.597  35.274  1.00  0.00     0.037 A 
BRANCH  27  41
ATOM     41  C   UNL A   1      40.503  33.897  38.716  1.00  0.00     0.064 A 
ATOM     42  C   UNL A   1      39.726  33.501  39.816  1.00  0.00     0.173 A 
ATOM     43  C   UNL A   1      41.224  35.097  38.823  1.00  0.00     0.173 A 
ATOM     44  F   UNL A   1      39.009  32.369  39.764  1.00  0.00    -0.203 F 
ATOM     45  C   UNL A   1      39.662  34.279  40.969  1.00  0.00     0.198 A 
ATOM     46  C   UNL A   1      41.181  35.857  39.990  1.00  0.00     0.198 A 
ATOM     47  F   UNL A   1      41.989  35.518  37.805  1.00  0.00    -0.203 F 
ATOM     48  F   UNL A   1      38.885  33.898  41.992  1.00  0.00    -0.200 F 
ATOM     49  C   UNL A   1      40.393  35.454  41.058  1.00  0.00     0.200 A 
ATOM     50  F   UNL A   1      41.909  36.979  40.082  1.00  0.00    -0.200 F 
ATOM     51  F   UNL A   1      40.341  36.196  42.171  1.00  0.00    -0.200 F 
ENDBRANCH  27  41
BRANCH  28  52
ATOM     52  C   UNL A   1      40.136  28.796  30.168  1.00  0.00     0.064 A 
ATOM     53  C   UNL A   1      39.499  27.549  30.102  1.00  0.00     0.173 A 
ATOM     54  C   UNL A   1      40.754  29.275  29.004  1.00  0.00     0.173 A 
ATOM     55  F   UNL A   1      38.898  27.045  31.191  1.00  0.00    -0.203 F 
ATOM     56  C   UNL A   1      39.506  26.796  28.930  1.00  0.00     0.198 A 
ATOM     57  C   UNL A   1      40.735  28.535  27.823  1.00  0.00     0.198 A 
ATOM     58  F   UNL A   1      41.362  30.471  29.012  1.00  0.00    -0.203 F 
ATOM     59  F   UNL A   1      38.930  25.587  28.909  1.00  0.00    -0.200 F 
ATOM     60  C   UNL A   1      40.121  27.292  27.791  1.00  0.00     0.200 A 
ATOM     61  F   UNL A   1      41.313  29.026  26.719  1.00  0.00    -0.200 F 
ATOM     62  F   UNL A   1      40.124  26.571  26.662  1.00  0.00    -0.200 F 
ENDBRANCH  28  52
BRANCH  40  63
ATOM     63  C   UNL A   1      44.532  28.808  35.596  1.00  0.00     0.064 A 
ATOM     64  C   UNL A   1      44.439  27.610  36.321  1.00  0.00     0.173 A 
ATOM     65  C   UNL A   1      45.811  29.267  35.247  1.00  0.00     0.173 A 
ATOM     66  F   UNL A   1      43.240  27.131  36.685  1.00  0.00    -0.203 F 
ATOM     67  C   UNL A   1      45.582  26.908  36.697  1.00  0.00     0.198 A 
ATOM     68  C   UNL A   1      46.950  28.545  35.598  1.00  0.00     0.198 A 
ATOM     69  F   UNL A   1      45.953  30.399  34.543  1.00  0.00    -0.203 F 
ATOM     70  F   UNL A   1      45.469  25.784  37.418  1.00  0.00    -0.200 F 
ATOM     71  C   UNL A   1      46.835  27.373  36.331  1.00  0.00     0.200 A 
ATOM     72  F   UNL A   1      48.159  28.982  35.220  1.00  0.00    -0.200 F 
ATOM     73  F   UNL A   1      47.933  26.689  36.680  1.00  0.00    -0.200 F 
ENDBRANCH  40  63
ENDBRANCH  14  15
ENDBRANCH   7   9
ENDBRANCH   4   5
ENDBRANCH   3   4
ENDBRANCH   2   3
ENDBRANCH   1   2
BRANCH   1  74
ATOM     74  C   UNL A   1      34.863  32.025  29.102  1.00  0.00     0.021 C 
BRANCH  74  75
ATOM     75  C   UNL A   1      34.774  31.886  27.587  1.00  0.00     0.116 C 
BRANCH  75  76
ATOM     76  N   UNL A   1      35.048  30.550  27.112  1.00  0.00    -0.354 N 
ATOM     77  C   UNL A   1      34.218  29.485  26.936  1.00  0.00     0.244 C 
ATOM     78  H   UNL A   1      35.989  30.382  26.875  1.00  0.00     0.163 HD
ATOM     79  O   UNL A   1      34.741  28.452  26.505  1.00  0.00    -0.273 OA
BRANCH  77  80
ATOM     80  C   UNL A   1      32.749  29.485  27.434  1.00  0.00     0.197 C 
BRANCH  80  81
ATOM     81  N   UNL A   1      31.744  30.152  26.589  1.00  0.00    -0.340 N 
ATOM     82  C   UNL A   1      31.295  29.857  25.332  1.00  0.00     0.243 C 
ATOM     83  H   UNL A   1      31.325  30.943  26.999  1.00  0.00     0.164 HD
ATOM     84  O   UNL A   1      30.909  30.837  24.683  1.00  0.00    -0.273 OA
BRANCH  82  85
ATOM     85  C   UNL A   1      31.375  28.448  24.676  1.00  0.00     0.176 C 
BRANCH  85  86
ATOM     86  N   UNL A   1      30.119  27.889  24.173  1.00  0.00    -0.340 N 
ATOM     87  C   UNL A   1      29.650  26.605  24.038  1.00  0.00     0.251 C 
ATOM     88  H   UNL A   1      29.479  28.573  23.869  1.00  0.00     0.164 HD
ATOM     89  O   UNL A   1      28.598  26.460  23.414  1.00  0.00    -0.269 OA
BRANCH  87  90
ATOM     90  C   UNL A   1      30.304  25.393  24.623  1.00  0.00     0.040 A 
ATOM     91  C   UNL A   1      30.600  25.230  25.980  1.00  0.00     0.017 A 
ATOM     92  C   UNL A   1      30.512  24.294  23.771  1.00  0.00     0.017 A 
ATOM     93  C   UNL A   1      31.096  24.023  26.483  1.00  0.00     0.040 A 
ATOM     94  C   UNL A   1      31.011  23.083  24.267  1.00  0.00     0.040 A 
ATOM     95  C   UNL A   1      31.296  22.958  25.621  1.00  0.00     0.123 A 
ATOM     96  F   UNL A   1      31.753  21.796  26.103  1.00  0.00    -0.207 F 
ENDBRANCH  87  90
ENDBRANCH  85  86
BRANCH  85  97
ATOM     97  C   UNL A   1      32.497  28.372  23.609  1.00  0.00     0.072 C 
BRANCH  97  98
ATOM     98  C   UNL A   1      33.027  27.034  23.140  1.00  0.00    -0.020 A 
ATOM     99  C   UNL A   1      32.814  26.557  21.854  1.00  0.00     0.087 A 
ATOM    100  C   UNL A   1      33.687  25.966  23.848  1.00  0.00     0.003 A 
ATOM    101  N   UNL A   1      33.324  25.294  21.751  1.00  0.00    -0.361 N 
ATOM    102  C   UNL A   1      33.873  24.911  22.947  1.00  0.00     0.046 A 
ATOM    103  C   UNL A   1      34.116  25.750  25.173  1.00  0.00     0.010 A 
ATOM    104  H   UNL A   1      33.300  24.741  20.937  1.00  0.00     0.166 HD
ATOM    105  C   UNL A   1      34.476  23.695  23.297  1.00  0.00     0.026 A 
ATOM    106  C   UNL A   1      34.723  24.546  25.544  1.00  0.00     0.001 A 
ATOM    107  C   UNL A   1      34.901  23.531  24.616  1.00  0.00     0.002 A 
ENDBRANCH  97  98
ENDBRANCH  85  97
ENDBRANCH  82  85
ENDBRANCH  80  81
BRANCH  80 108
ATOM    108  C   UNL A   1      32.324  28.009  27.635  1.00  0.00     0.191 C 
BRANCH 108 109
ATOM    109  O   UNL A   1      31.061  27.901  28.303  1.00  0.00    -0.394 OA
ATOM    110  H   UNL A   1      31.167  27.373  29.110  1.00  0.00     0.210 HD
ENDBRANCH 108 109
ENDBRANCH  80 108
ENDBRANCH  77  80
ENDBRANCH  75  76
ENDBRANCH  74  75
ENDBRANCH   1  74
TORSDOF 21
ENDMDL
MODEL 2
REMARK VINA RESULT:     -11.6      5.921     10.939
REMARK SMILES O=C(NCCCCCCNC(=O)[C@H](CO)NC(=O)[C@H](Cc1c[nH]c2ccccc12)NC(=O)c1ccc(F)cc1)c1ccc(-c2c3nc(c(-c4c(F)c(F)c(F)c(F)c4F)c4ccc([nH]4)c(-c4c(F)c(F)c(F)c(F)c4F)c4nc(c(-c5c(F)c(F)c(F)c(F)c5F)c5ccc2[nH]5)C=C4)C=C3)cc1
REMARK SMILES IDX 7 1 6 2 5 3 4 4 3 5 1 6 2 7 40 9 41 10 102 11 42 12 101 13
REMARK SMILES IDX 43 14 44 15 45 16 95 17 46 18 100 19 94 20 96 21 47 22 99 23
REMARK SMILES IDX 93 24 92 25 48 27 80 28 60 29 79 30 61 31 64 32 78 33 97 34
REMARK SMILES IDX 62 35 63 36 77 38 98 39 65 40 49 41 50 42 58 43 51 44 52 45
REMARK SMILES IDX 56 46 59 47 53 48 54 49 57 50 55 51 81 52 82 53 90 54 83 55
REMARK SMILES IDX 84 56 88 57 91 58 85 59 86 60 89 61 87 62 66 63 67 64 75 65
REMARK SMILES IDX 68 66 69 67 73 68 76 69 70 70 71 71 74 72 72 73 8 74 9 75
REMARK SMILES IDX 10 76 11 77 12 79 13 80 16 81 17 82 18 84 19 85 30 86 31 87
REMARK SMILES IDX 32 89 33 90 34 91 39 92 35 93 38 94 36 95 37 96 20 97 21 98
REMARK SMILES IDX 22 99 29 100 23 101 24 102 28 103 25 105 27 106 26 107
REMARK SMILES IDX 14 108 15 109
REMARK H PARENT 3 8 96 26 64 37 10 78 16 83 30 88 23 104 15 110
REMARK Flexibility Score: inf
ROOT
ATOM      1  C   UNL A   1      37.448  22.422  25.380  1.00  0.00     0.002 C 
ENDROOT
BRANCH   1   2
ATOM      2  C   UNL A   1      38.794  21.964  25.951  1.00  0.00     0.002 C 
BRANCH   2   3
ATOM      3  C   UNL A   1      39.401  20.692  25.359  1.00  0.00     0.021 C 
BRANCH   3   4
ATOM      4  C   UNL A   1      39.745  19.580  26.345  1.00  0.00     0.116 C 
BRANCH   4   5
ATOM      5  N   UNL A   1      40.944  18.847  25.982  1.00  0.00    -0.352 N 
ATOM      6  O   UNL A   1      43.112  18.547  25.437  1.00  0.00    -0.269 OA
ATOM      7  C   UNL A   1      42.245  19.284  25.911  1.00  0.00     0.251 C 
ATOM      8  H   UNL A   1      40.806  17.899  25.755  1.00  0.00     0.163 HD
BRANCH   7   9
ATOM      9  C   UNL A   1      42.622  20.642  26.371  1.00  0.00     0.039 A 
ATOM     10  C   UNL A   1      42.596  20.989  27.724  1.00  0.00     0.014 A 
ATOM     11  C   UNL A   1      43.057  21.581  25.428  1.00  0.00     0.014 A 
ATOM     12  C   UNL A   1      42.879  22.299  28.113  1.00  0.00     0.010 A 
ATOM     13  C   UNL A   1      43.410  22.876  25.831  1.00  0.00     0.010 A 
ATOM     14  C   UNL A   1      43.294  23.260  27.175  1.00  0.00    -0.014 A 
BRANCH  14  15
ATOM     15  C   UNL A   1      43.641  24.637  27.628  1.00  0.00     0.031 A 
ATOM     16  C   UNL A   1      45.073  25.095  27.724  1.00  0.00     0.074 A 
ATOM     17  C   UNL A   1      42.651  25.498  27.938  1.00  0.00     0.049 A 
ATOM     18  N   UNL A   1      45.544  26.266  28.077  1.00  0.00    -0.248 NA
ATOM     19  C   UNL A   1      46.112  24.112  27.385  1.00  0.00     0.031 C 
ATOM     20  C   UNL A   1      41.224  25.180  27.906  1.00  0.00     0.029 A 
ATOM     21  N   UNL A   1      42.689  26.816  28.323  1.00  0.00    -0.354 N 
ATOM     22  C   UNL A   1      46.927  26.159  28.014  1.00  0.00     0.074 A 
ATOM     23  C   UNL A   1      47.223  24.797  27.624  1.00  0.00     0.031 C 
ATOM     24  C   UNL A   1      40.521  26.280  28.211  1.00  0.00     0.029 A 
ATOM     25  C   UNL A   1      41.447  27.368  28.516  1.00  0.00     0.049 A 
ATOM     26  H   UNL A   1      43.527  27.316  28.448  1.00  0.00     0.167 HD
ATOM     27  C   UNL A   1      47.864  27.111  28.243  1.00  0.00     0.037 A 
ATOM     28  C   UNL A   1      41.084  28.606  28.904  1.00  0.00     0.037 A 
ATOM     29  C   UNL A   1      47.572  28.472  28.622  1.00  0.00     0.049 A 
ATOM     30  C   UNL A   1      42.141  29.636  29.179  1.00  0.00     0.074 A 
ATOM     31  C   UNL A   1      48.459  29.511  28.850  1.00  0.00     0.029 A 
ATOM     32  N   UNL A   1      46.300  28.983  28.834  1.00  0.00    -0.354 N 
ATOM     33  N   UNL A   1      43.443  29.528  29.085  1.00  0.00    -0.248 NA
ATOM     34  C   UNL A   1      41.679  30.963  29.613  1.00  0.00     0.031 C 
ATOM     35  C   UNL A   1      47.728  30.635  29.249  1.00  0.00     0.029 A 
ATOM     36  C   UNL A   1      46.381  30.316  29.208  1.00  0.00     0.049 A 
ATOM     37  H   UNL A   1      45.463  28.474  28.734  1.00  0.00     0.167 HD
ATOM     38  C   UNL A   1      43.956  30.773  29.425  1.00  0.00     0.074 A 
ATOM     39  C   UNL A   1      42.823  31.627  29.713  1.00  0.00     0.031 C 
ATOM     40  C   UNL A   1      45.251  31.166  29.489  1.00  0.00     0.037 A 
BRANCH  27  41
ATOM     41  C   UNL A   1      49.310  26.727  28.093  1.00  0.00     0.064 A 
ATOM     42  C   UNL A   1      50.078  26.386  29.217  1.00  0.00     0.173 A 
ATOM     43  C   UNL A   1      49.956  26.770  26.848  1.00  0.00     0.173 A 
ATOM     44  F   UNL A   1      49.515  26.340  30.433  1.00  0.00    -0.203 F 
ATOM     45  C   UNL A   1      51.439  26.113  29.101  1.00  0.00     0.198 A 
ATOM     46  C   UNL A   1      51.310  26.466  26.732  1.00  0.00     0.198 A 
ATOM     47  F   UNL A   1      49.266  27.082  25.740  1.00  0.00    -0.203 F 
ATOM     48  F   UNL A   1      52.160  25.824  30.194  1.00  0.00    -0.200 F 
ATOM     49  C   UNL A   1      52.054  26.148  27.858  1.00  0.00     0.200 A 
ATOM     50  F   UNL A   1      51.896  26.477  25.526  1.00  0.00    -0.200 F 
ATOM     51  F   UNL A   1      53.359  25.873  27.746  1.00  0.00    -0.200 F 
ENDBRANCH  27  41
BRANCH  28  52
ATOM     52  C   UNL A   1      39.640  28.933  29.029  1.00  0.00     0.064 A 
ATOM     53  C   UNL A   1      38.968  28.810  30.253  1.00  0.00     0.173 A 
ATOM     54  C   UNL A   1      38.893  29.326  27.910  1.00  0.00     0.173 A 
ATOM     55  F   UNL A   1      39.638  28.431  31.352  1.00  0.00    -0.203 F 
ATOM     56  C   UNL A   1      37.598  29.041  30.349  1.00  0.00     0.198 A 
ATOM     57  C   UNL A   1      37.528  29.586  28.013  1.00  0.00     0.198 A 
ATOM     58  F   UNL A   1      39.495  29.474  26.721  1.00  0.00    -0.203 F 
ATOM     59  F   UNL A   1      36.972  28.871  31.522  1.00  0.00    -0.200 F 
ATOM     60  C   UNL A   1      36.880  29.432  29.229  1.00  0.00     0.200 A 
ATOM     61  F   UNL A   1      36.841  29.983  26.933  1.00  0.00    -0.200 F 
ATOM     62  F   UNL A   1      35.562  29.659  29.322  1.00  0.00    -0.200 F 
ENDBRANCH  28  52
BRANCH  40  63
ATOM     63  C   UNL A   1      45.529  32.597  29.857  1.00  0.00     0.064 A 
ATOM     64  C   UNL A   1      45.670  33.570  28.855  1.00  0.00     0.173 A 
ATOM     65  C   UNL A   1      45.720  32.993  31.188  1.00  0.00     0.173 A 
ATOM     66  F   UNL A   1      45.504  33.242  27.565  1.00  0.00    -0.203 F 
ATOM     67  C   UNL A   1      46.006  34.883  29.173  1.00  0.00     0.198 A 
ATOM     68  C   UNL A   1      46.025  34.316  31.505  1.00  0.00     0.198 A 
ATOM     69  F   UNL A   1      45.583  32.105  32.184  1.00  0.00    -0.203 F 
ATOM     70  F   UNL A   1      46.168  35.787  28.196  1.00  0.00    -0.200 F 
ATOM     71  C   UNL A   1      46.178  35.257  30.496  1.00  0.00     0.200 A 
ATOM     72  F   UNL A   1      46.165  34.681  32.786  1.00  0.00    -0.200 F 
ATOM     73  F   UNL A   1      46.487  36.524  30.802  1.00  0.00    -0.200 F 
ENDBRANCH  40  63
ENDBRANCH  14  15
ENDBRANCH   7   9
ENDBRANCH   4   5
ENDBRANCH   3   4
ENDBRANCH   2   3
ENDBRANCH   1   2
BRANCH   1  74
ATOM     74  C   UNL A   1      36.741  21.480  24.402  1.00  0.00     0.021 C 
BRANCH  74  75
ATOM     75  C   UNL A   1      35.813  20.434  25.010  1.00  0.00     0.116 C 
BRANCH  75  76
ATOM     76  N   UNL A   1      34.993  20.942  26.084  1.00  0.00    -0.354 N 
ATOM     77  C   UNL A   1      33.661  20.796  26.326  1.00  0.00     0.244 C 
ATOM     78  H   UNL A   1      35.476  21.483  26.751  1.00  0.00     0.163 HD
ATOM     79  O   UNL A   1      33.228  21.351  27.341  1.00  0.00    -0.273 OA
BRANCH  77  80
ATOM     80  C   UNL A   1      32.694  20.153  25.298  1.00  0.00     0.197 C 
BRANCH  80  81
ATOM     81  N   UNL A   1      32.790  20.604  23.899  1.00  0.00    -0.340 N 
ATOM     82  C   UNL A   1      32.446  21.792  23.316  1.00  0.00     0.243 C 
ATOM     83  H   UNL A   1      33.165  19.937  23.278  1.00  0.00     0.164 HD
ATOM     84  O   UNL A   1      32.113  21.702  22.128  1.00  0.00    -0.273 OA
BRANCH  82  85
ATOM     85  C   UNL A   1      32.331  23.145  24.077  1.00  0.00     0.176 C 
BRANCH  85  86
ATOM     86  N   UNL A   1      31.407  23.179  25.213  1.00  0.00    -0.340 N 
ATOM     87  C   UNL A   1      30.657  24.177  25.783  1.00  0.00     0.251 C 
ATOM     88  H   UNL A   1      31.302  22.307  25.659  1.00  0.00     0.164 HD
ATOM     89  O   UNL A   1      30.101  23.916  26.851  1.00  0.00    -0.269 OA
BRANCH  87  90
ATOM     90  C   UNL A   1      30.444  25.532  25.183  1.00  0.00     0.040 A 
ATOM     91  C   UNL A   1      30.691  26.739  25.844  1.00  0.00     0.017 A 
ATOM     92  C   UNL A   1      30.100  25.590  23.821  1.00  0.00     0.017 A 
ATOM     93  C   UNL A   1      30.592  27.969  25.187  1.00  0.00     0.040 A 
ATOM     94  C   UNL A   1      29.997  26.819  23.157  1.00  0.00     0.040 A 
ATOM     95  C   UNL A   1      30.247  27.999  23.847  1.00  0.00     0.123 A 
ATOM     96  F   UNL A   1      30.170  29.174  23.211  1.00  0.00    -0.207 F 
ENDBRANCH  87  90
ENDBRANCH  85  86
BRANCH  85  97
ATOM     97  C   UNL A   1      33.722  23.710  24.461  1.00  0.00     0.072 C 
BRANCH  97  98
ATOM     98  C   UNL A   1      33.912  25.192  24.709  1.00  0.00    -0.020 A 
ATOM     99  C   UNL A   1      34.108  25.716  25.978  1.00  0.00     0.087 A 
ATOM    100  C   UNL A   1      33.811  26.329  23.828  1.00  0.00     0.003 A 
ATOM    101  N   UNL A   1      34.152  27.079  25.902  1.00  0.00    -0.361 N 
ATOM    102  C   UNL A   1      33.986  27.481  24.602  1.00  0.00     0.046 A 
ATOM    103  C   UNL A   1      33.548  26.521  22.457  1.00  0.00     0.010 A 
ATOM    104  H   UNL A   1      34.285  27.683  26.668  1.00  0.00     0.166 HD
ATOM    105  C   UNL A   1      33.937  28.780  24.075  1.00  0.00     0.026 A 
ATOM    106  C   UNL A   1      33.497  27.807  21.909  1.00  0.00     0.001 A 
ATOM    107  C   UNL A   1      33.690  28.922  22.709  1.00  0.00     0.002 A 
ENDBRANCH  97  98
ENDBRANCH  85  97
ENDBRANCH  82  85
ENDBRANCH  80  81
BRANCH  80 108
ATOM    108  C   UNL A   1      32.919  18.621  25.339  1.00  0.00     0.191 C 
BRANCH 108 109
ATOM    109  O   UNL A   1      32.560  18.061  26.607  1.00  0.00    -0.394 OA
ATOM    110  H   UNL A   1      32.781  18.689  27.312  1.00  0.00     0.210 HD
ENDBRANCH 108 109
ENDBRANCH  80 108
ENDBRANCH  77  80
ENDBRANCH  75  76
ENDBRANCH  74  75
ENDBRANCH   1  74
TORSDOF 21
ENDMDL
MODEL 3
REMARK VINA RESULT:     -11.6      0.981      6.967
REMARK SMILES O=C(NCCCCCCNC(=O)[C@H](CO)NC(=O)[C@H](Cc1c[nH]c2ccccc12)NC(=O)c1ccc(F)cc1)c1ccc(-c2c3nc(c(-c4c(F)c(F)c(F)c(F)c4F)c4ccc([nH]4)c(-c4c(F)c(F)c(F)c(F)c4F)c4nc(c(-c5c(F)c(F)c(F)c(F)c5F)c5ccc2[nH]5)C=C4)C=C3)cc1
REMARK SMILES IDX 7 1 6 2 5 3 4 4 3 5 1 6 2 7 40 9 41 10 102 11 42 12 101 13
REMARK SMILES IDX 43 14 44 15 45 16 95 17 46 18 100 19 94 20 96 21 47 22 99 23
REMARK SMILES IDX 93 24 92 25 48 27 80 28 60 29 79 30 61 31 64 32 78 33 97 34
REMARK SMILES IDX 62 35 63 36 77 38 98 39 65 40 49 41 50 42 58 43 51 44 52 45
REMARK SMILES IDX 56 46 59 47 53 48 54 49 57 50 55 51 81 52 82 53 90 54 83 55
REMARK SMILES IDX 84 56 88 57 91 58 85 59 86 60 89 61 87 62 66 63 67 64 75 65
REMARK SMILES IDX 68 66 69 67 73 68 76 69 70 70 71 71 74 72 72 73 8 74 9 75
REMARK SMILES IDX 10 76 11 77 12 79 13 80 16 81 17 82 18 84 19 85 30 86 31 87
REMARK SMILES IDX 32 89 33 90 34 91 39 92 35 93 38 94 36 95 37 96 20 97 21 98
REMARK SMILES IDX 22 99 29 100 23 101 24 102 28 103 25 105 27 106 26 107
REMARK SMILES IDX 14 108 15 109
REMARK H PARENT 3 8 96 26 64 37 10 78 16 83 30 88 23 104 15 110
REMARK Flexibility Score: inf
ROOT
ATOM      1  C   UNL A   1      35.055  32.909  29.004  1.00  0.00     0.002 C 
ENDROOT
BRANCH   1   2
ATOM      2  C   UNL A   1      34.355  33.965  28.143  1.00  0.00     0.002 C 
BRANCH   2   3
ATOM      3  C   UNL A   1      33.122  34.642  28.742  1.00  0.00     0.021 C 
BRANCH   3   4
ATOM      4  C   UNL A   1      33.351  35.980  29.437  1.00  0.00     0.116 C 
BRANCH   4   5
ATOM      5  N   UNL A   1      32.485  36.182  30.584  1.00  0.00    -0.352 N 
ATOM      6  O   UNL A   1      31.696  35.873  32.674  1.00  0.00    -0.269 OA
ATOM      7  C   UNL A   1      32.617  35.718  31.870  1.00  0.00     0.251 C 
ATOM      8  H   UNL A   1      31.686  36.734  30.416  1.00  0.00     0.163 HD
BRANCH   7   9
ATOM      9  C   UNL A   1      33.844  35.007  32.303  1.00  0.00     0.039 A 
ATOM     10  C   UNL A   1      35.098  35.621  32.265  1.00  0.00     0.014 A 
ATOM     11  C   UNL A   1      33.732  33.704  32.804  1.00  0.00     0.014 A 
ATOM     12  C   UNL A   1      36.241  34.895  32.603  1.00  0.00     0.010 A 
ATOM     13  C   UNL A   1      34.873  33.002  33.211  1.00  0.00     0.010 A 
ATOM     14  C   UNL A   1      36.146  33.578  33.085  1.00  0.00    -0.014 A 
BRANCH  14  15
ATOM     15  C   UNL A   1      37.380  32.847  33.490  1.00  0.00     0.031 A 
ATOM     16  C   UNL A   1      38.012  31.815  32.592  1.00  0.00     0.074 A 
ATOM     17  C   UNL A   1      37.955  33.131  34.675  1.00  0.00     0.049 A 
ATOM     18  N   UNL A   1      39.098  31.107  32.784  1.00  0.00    -0.248 NA
ATOM     19  C   UNL A   1      37.337  31.537  31.316  1.00  0.00     0.031 C 
ATOM     20  C   UNL A   1      37.439  34.093  35.648  1.00  0.00     0.029 A 
ATOM     21  N   UNL A   1      39.104  32.653  35.258  1.00  0.00    -0.354 N 
ATOM     22  C   UNL A   1      39.232  30.296  31.665  1.00  0.00     0.074 A 
ATOM     23  C   UNL A   1      38.095  30.571  30.812  1.00  0.00     0.031 C 
ATOM     24  C   UNL A   1      38.287  34.170  36.684  1.00  0.00     0.029 A 
ATOM     25  C   UNL A   1      39.379  33.223  36.477  1.00  0.00     0.049 A 
ATOM     26  H   UNL A   1      39.675  31.969  34.842  1.00  0.00     0.167 HD
ATOM     27  C   UNL A   1      40.218  29.415  31.366  1.00  0.00     0.037 A 
ATOM     28  C   UNL A   1      40.388  33.006  37.343  1.00  0.00     0.037 A 
ATOM     29  C   UNL A   1      41.357  29.145  32.209  1.00  0.00     0.049 A 
ATOM     30  C   UNL A   1      41.454  32.004  37.003  1.00  0.00     0.074 A 
ATOM     31  C   UNL A   1      42.418  28.287  31.974  1.00  0.00     0.029 A 
ATOM     32  N   UNL A   1      41.583  29.724  33.450  1.00  0.00    -0.354 N 
ATOM     33  N   UNL A   1      41.582  31.269  35.927  1.00  0.00    -0.248 NA
ATOM     34  C   UNL A   1      42.519  31.804  37.996  1.00  0.00     0.031 C 
ATOM     35  C   UNL A   1      43.258  28.308  33.092  1.00  0.00     0.029 A 
ATOM     36  C   UNL A   1      42.756  29.226  33.998  1.00  0.00     0.049 A 
ATOM     37  H   UNL A   1      40.997  30.391  33.877  1.00  0.00     0.167 HD
ATOM     38  C   UNL A   1      42.748  30.535  36.101  1.00  0.00     0.074 A 
ATOM     39  C   UNL A   1      43.301  30.926  37.381  1.00  0.00     0.031 C 
ATOM     40  C   UNL A   1      43.306  29.622  35.270  1.00  0.00     0.037 A 
BRANCH  27  41
ATOM     41  C   UNL A   1      40.122  28.665  30.067  1.00  0.00     0.064 A 
ATOM     42  C   UNL A   1      39.500  27.407  30.014  1.00  0.00     0.173 A 
ATOM     43  C   UNL A   1      40.712  29.153  28.891  1.00  0.00     0.173 A 
ATOM     44  F   UNL A   1      38.929  26.887  31.110  1.00  0.00    -0.203 F 
ATOM     45  C   UNL A   1      39.481  26.664  28.835  1.00  0.00     0.198 A 
ATOM     46  C   UNL A   1      40.664  28.421  27.707  1.00  0.00     0.198 A 
ATOM     47  F   UNL A   1      41.312  30.353  28.885  1.00  0.00    -0.203 F 
ATOM     48  F   UNL A   1      38.913  25.451  28.818  1.00  0.00    -0.200 F 
ATOM     49  C   UNL A   1      40.059  27.173  27.682  1.00  0.00     0.200 A 
ATOM     50  F   UNL A   1      41.202  28.926  26.588  1.00  0.00    -0.200 F 
ATOM     51  F   UNL A   1      40.030  26.464  26.546  1.00  0.00    -0.200 F 
ENDBRANCH  27  41
BRANCH  28  52
ATOM     52  C   UNL A   1      40.437  33.782  38.609  1.00  0.00     0.064 A 
ATOM     53  C   UNL A   1      41.251  34.916  38.737  1.00  0.00     0.173 A 
ATOM     54  C   UNL A   1      39.706  33.372  39.732  1.00  0.00     0.173 A 
ATOM     55  F   UNL A   1      41.975  35.345  37.692  1.00  0.00    -0.203 F 
ATOM     56  C   UNL A   1      41.355  35.595  39.949  1.00  0.00     0.198 A 
ATOM     57  C   UNL A   1      39.787  34.069  40.936  1.00  0.00     0.198 A 
ATOM     58  F   UNL A   1      38.900  32.303  39.653  1.00  0.00    -0.203 F 
ATOM     59  F   UNL A   1      42.177  36.648  40.057  1.00  0.00    -0.200 F 
ATOM     60  C   UNL A   1      40.620  35.172  41.047  1.00  0.00     0.200 A 
ATOM     61  F   UNL A   1      39.060  33.670  41.988  1.00  0.00    -0.200 F 
ATOM     62  F   UNL A   1      40.716  35.827  42.212  1.00  0.00    -0.200 F 
ENDBRANCH  28  52
BRANCH  40  63
ATOM     63  C   UNL A   1      44.604  28.994  35.694  1.00  0.00     0.064 A 
ATOM     64  C   UNL A   1      44.604  27.840  36.494  1.00  0.00     0.173 A 
ATOM     65  C   UNL A   1      45.843  29.565  35.368  1.00  0.00     0.173 A 
ATOM     66  F   UNL A   1      43.446  27.257  36.840  1.00  0.00    -0.203 F 
ATOM     67  C   UNL A   1      45.795  27.290  36.962  1.00  0.00     0.198 A 
ATOM     68  C   UNL A   1      47.034  28.994  35.811  1.00  0.00     0.198 A 
ATOM     69  F   UNL A   1      45.899  30.660  34.595  1.00  0.00    -0.203 F 
ATOM     70  F   UNL A   1      45.766  26.208  37.751  1.00  0.00    -0.200 F 
ATOM     71  C   UNL A   1      47.008  27.864  36.616  1.00  0.00     0.200 A 
ATOM     72  F   UNL A   1      48.207  29.534  35.454  1.00  0.00    -0.200 F 
ATOM     73  F   UNL A   1      48.154  27.326  37.055  1.00  0.00    -0.200 F 
ENDBRANCH  40  63
ENDBRANCH  14  15
ENDBRANCH   7   9
ENDBRANCH   4   5
ENDBRANCH   3   4
ENDBRANCH   2   3
ENDBRANCH   1   2
BRANCH   1  74
ATOM     74  C   UNL A   1      34.732  31.440  28.719  1.00  0.00     0.021 C 
BRANCH  74  75
ATOM     75  C   UNL A   1      34.331  31.094  27.289  1.00  0.00     0.116 C 
BRANCH  75  76
ATOM     76  N   UNL A   1      34.348  29.677  27.010  1.00  0.00    -0.354 N 
ATOM     77  C   UNL A   1      33.865  28.979  25.945  1.00  0.00     0.244 C 
ATOM     78  H   UNL A   1      34.779  29.126  27.703  1.00  0.00     0.163 HD
ATOM     79  O   UNL A   1      34.028  27.755  25.978  1.00  0.00    -0.273 OA
BRANCH  77  80
ATOM     80  C   UNL A   1      32.984  29.635  24.851  1.00  0.00     0.197 C 
BRANCH  80  81
ATOM     81  N   UNL A   1      33.371  29.421  23.446  1.00  0.00    -0.340 N 
ATOM     82  C   UNL A   1      33.530  28.268  22.728  1.00  0.00     0.243 C 
ATOM     83  H   UNL A   1      33.545  30.247  22.939  1.00  0.00     0.164 HD
ATOM     84  O   UNL A   1      34.359  28.345  21.814  1.00  0.00    -0.273 OA
BRANCH  82  85
ATOM     85  C   UNL A   1      32.855  26.911  23.080  1.00  0.00     0.176 C 
BRANCH  85  86
ATOM     86  N   UNL A   1      31.393  26.912  23.168  1.00  0.00    -0.340 N 
ATOM     87  C   UNL A   1      30.493  26.124  23.842  1.00  0.00     0.251 C 
ATOM     88  H   UNL A   1      30.969  27.622  22.634  1.00  0.00     0.164 HD
ATOM     89  O   UNL A   1      29.302  26.282  23.570  1.00  0.00    -0.269 OA
BRANCH  87  90
ATOM     90  C   UNL A   1      30.856  25.126  24.897  1.00  0.00     0.040 A 
ATOM     91  C   UNL A   1      30.611  23.752  24.805  1.00  0.00     0.017 A 
ATOM     92  C   UNL A   1      31.613  25.584  25.990  1.00  0.00     0.017 A 
ATOM     93  C   UNL A   1      31.087  22.856  25.767  1.00  0.00     0.040 A 
ATOM     94  C   UNL A   1      32.090  24.693  26.958  1.00  0.00     0.040 A 
ATOM     95  C   UNL A   1      31.825  23.335  26.836  1.00  0.00     0.123 A 
ATOM     96  F   UNL A   1      32.298  22.477  27.748  1.00  0.00    -0.207 F 
ENDBRANCH  87  90
ENDBRANCH  85  86
BRANCH  85  97
ATOM     97  C   UNL A   1      33.368  25.761  22.176  1.00  0.00     0.072 C 
BRANCH  97  98
ATOM     98  C   UNL A   1      33.607  24.379  22.747  1.00  0.00    -0.020 A 
ATOM     99  C   UNL A   1      33.006  23.242  22.225  1.00  0.00     0.087 A 
ATOM    100  C   UNL A   1      34.317  23.940  23.922  1.00  0.00     0.003 A 
ATOM    101  N   UNL A   1      33.332  22.164  22.997  1.00  0.00    -0.361 N 
ATOM    102  C   UNL A   1      34.140  22.556  24.032  1.00  0.00     0.046 A 
ATOM    103  C   UNL A   1      35.063  24.565  24.941  1.00  0.00     0.010 A 
ATOM    104  H   UNL A   1      33.030  21.241  22.832  1.00  0.00     0.166 HD
ATOM    105  C   UNL A   1      34.683  21.789  25.072  1.00  0.00     0.026 A 
ATOM    106  C   UNL A   1      35.617  23.820  25.987  1.00  0.00     0.001 A 
ATOM    107  C   UNL A   1      35.429  22.448  26.050  1.00  0.00     0.002 A 
ENDBRANCH  97  98
ENDBRANCH  85  97
ENDBRANCH  82  85
ENDBRANCH  80  81
BRANCH  80 108
ATOM    108  C   UNL A   1      31.535  29.121  25.047  1.00  0.00     0.191 C 
BRANCH 108 109
ATOM    109  O   UNL A   1      30.614  29.762  24.158  1.00  0.00    -0.394 OA
ATOM    110  H   UNL A   1      31.099  30.351  23.558  1.00  0.00     0.210 HD
ENDBRANCH 108 109
ENDBRANCH  80 108
ENDBRANCH  77  80
ENDBRANCH  75  76
ENDBRANCH  74  75
ENDBRANCH   1  74
TORSDOF 21
ENDMDL
