MODEL 1
REMARK VINA RESULT:     -11.8      0.000      0.000
REMARK SMILES O=C(Cn1ncc2ccccc2c1=O)N[C@@H]1C[NH2+][C@H](C(=O)NCCCCCCNC(=O)c2ccc(-c3c4nc(c(-c5c(F)c(F)c(F)c(F)c5F)c5ccc([nH]5)c(-c5c(F)c(F)c(F)c(F)c5F)c5nc(c(-c6c(F)c(F)c(F)c(F)c6F)c6ccc3[nH]6)C=C5)C=C4)cc2)C1
REMARK SMILES IDX 25 1 24 2 23 3 22 4 20 5 21 6 19 8 16 9 17 10 95 11 18 12
REMARK SMILES IDX 15 15 1 16 2 17 3 19 4 20 5 21 13 22 6 23 12 24 14 25 7 26
REMARK SMILES IDX 11 27 8 28 10 29 9 30 26 31 27 32 28 33 29 34 30 35 31 37
REMARK SMILES IDX 32 38 33 39 94 40 34 41 93 42 35 43 36 44 37 45 87 46 38 47
REMARK SMILES IDX 92 48 86 49 88 50 39 51 91 52 85 53 84 54 40 56 72 57 52 58
REMARK SMILES IDX 71 59 53 60 56 61 70 62 89 63 54 64 55 65 69 67 90 68 57 69
REMARK SMILES IDX 41 70 42 71 50 72 43 73 44 74 48 75 51 76 45 77 46 78 49 79
REMARK SMILES IDX 47 80 73 81 74 82 82 83 75 84 76 85 80 86 83 87 77 88 78 89
REMARK SMILES IDX 81 90 79 91 58 92 59 93 67 94 60 95 61 96 65 97 68 98 62 99
REMARK SMILES IDX 63 100 66 101 64 102
REMARK H PARENT 22 7 18 13 18 14 15 18 29 36 88 55 56 66
REMARK Flexibility Score: inf
ROOT
ATOM      1  C   UNL A   1      31.223  29.768  24.937  1.00  0.00     0.002 C 
ENDROOT
BRANCH   1   2
ATOM      2  C   UNL A   1      30.184  29.523  23.836  1.00  0.00     0.021 C 
BRANCH   2   3
ATOM      3  C   UNL A   1      30.755  29.508  22.415  1.00  0.00     0.116 C 
BRANCH   3   4
ATOM      4  N   UNL A   1      32.128  29.049  22.397  1.00  0.00    -0.351 N 
ATOM      5  C   UNL A   1      32.634  27.784  22.262  1.00  0.00     0.278 C 
ATOM      6  O   UNL A   1      33.860  27.668  22.316  1.00  0.00    -0.268 OA
ATOM      7  H   UNL A   1      32.805  29.757  22.497  1.00  0.00     0.163 HD
BRANCH   5   8
ATOM      8  C   UNL A   1      31.670  26.601  21.972  1.00  0.00     0.274 C 
ATOM      9  C   UNL A   1      31.907  24.244  22.511  1.00  0.00     0.143 C 
ATOM     10  C   UNL A   1      32.808  24.636  21.345  1.00  0.00     0.286 C 
ATOM     11  C   UNL A   1      31.579  25.596  23.125  1.00  0.00     0.106 C 
ATOM     12  N   UNL A   1      32.134  25.821  20.789  1.00  0.00    -0.334 N 
ATOM     13  H   UNL A   1      31.342  25.545  20.211  1.00  0.00     0.347 HD
ATOM     14  H   UNL A   1      32.757  26.369  20.195  1.00  0.00     0.347 HD
BRANCH   9  15
ATOM     15  N   UNL A   1      32.415  23.198  23.383  1.00  0.00    -0.346 N 
ATOM     16  O   UNL A   1      30.728  23.009  24.951  1.00  0.00    -0.273 OA
ATOM     17  C   UNL A   1      31.820  22.665  24.510  1.00  0.00     0.242 C 
ATOM     18  H   UNL A   1      33.292  22.822  23.141  1.00  0.00     0.164 HD
BRANCH  17  19
ATOM     19  C   UNL A   1      32.707  21.673  25.261  1.00  0.00     0.248 C 
BRANCH  19  20
ATOM     20  N   UNL A   1      34.054  22.202  25.452  1.00  0.00    -0.220 N 
ATOM     21  N   UNL A   1      34.158  23.541  25.784  1.00  0.00    -0.177 NA
ATOM     22  C   UNL A   1      35.143  21.345  25.283  1.00  0.00     0.275 A 
ATOM     23  C   UNL A   1      35.344  24.021  26.001  1.00  0.00     0.142 A 
ATOM     24  C   UNL A   1      36.476  21.911  25.556  1.00  0.00     0.050 A 
ATOM     25  O   UNL A   1      35.054  20.167  24.947  1.00  0.00    -0.267 OA
ATOM     26  C   UNL A   1      36.576  23.244  25.920  1.00  0.00     0.007 A 
ATOM     27  C   UNL A   1      37.631  21.125  25.475  1.00  0.00     0.014 A 
ATOM     28  C   UNL A   1      37.814  23.822  26.206  1.00  0.00     0.010 A 
ATOM     29  C   UNL A   1      38.875  21.691  25.763  1.00  0.00     0.001 A 
ATOM     30  C   UNL A   1      38.967  23.037  26.128  1.00  0.00     0.001 A 
ENDBRANCH  19  20
ENDBRANCH  17  19
ENDBRANCH   9  15
ENDBRANCH   5   8
ENDBRANCH   3   4
ENDBRANCH   2   3
ENDBRANCH   1   2
BRANCH   1  31
ATOM     31  C   UNL A   1      31.631  28.532  25.746  1.00  0.00     0.002 C 
BRANCH  31  32
ATOM     32  C   UNL A   1      33.137  28.343  25.932  1.00  0.00     0.021 C 
BRANCH  32  33
ATOM     33  C   UNL A   1      33.640  28.565  27.352  1.00  0.00     0.116 C 
BRANCH  33  34
ATOM     34  N   UNL A   1      33.626  29.968  27.741  1.00  0.00    -0.352 N 
ATOM     35  C   UNL A   1      34.622  30.720  28.319  1.00  0.00     0.251 C 
ATOM     36  H   UNL A   1      32.784  30.446  27.565  1.00  0.00     0.163 HD
ATOM     37  O   UNL A   1      34.392  31.856  28.722  1.00  0.00    -0.269 OA
BRANCH  35  38
ATOM     38  C   UNL A   1      35.969  30.137  28.491  1.00  0.00     0.039 A 
ATOM     39  C   UNL A   1      36.336  29.535  29.697  1.00  0.00     0.014 A 
ATOM     40  C   UNL A   1      36.889  30.224  27.441  1.00  0.00     0.014 A 
ATOM     41  C   UNL A   1      37.662  29.181  29.913  1.00  0.00     0.010 A 
ATOM     42  C   UNL A   1      38.204  29.791  27.634  1.00  0.00     0.010 A 
ATOM     43  C   UNL A   1      38.616  29.317  28.890  1.00  0.00    -0.014 A 
BRANCH  43  44
ATOM     44  C   UNL A   1      40.037  28.981  29.165  1.00  0.00     0.031 A 
ATOM     45  C   UNL A   1      40.882  29.871  30.035  1.00  0.00     0.074 A 
ATOM     46  C   UNL A   1      40.549  27.834  28.679  1.00  0.00     0.049 A 
ATOM     47  N   UNL A   1      42.132  29.724  30.402  1.00  0.00    -0.248 NA
ATOM     48  C   UNL A   1      40.246  31.088  30.567  1.00  0.00     0.031 C 
ATOM     49  C   UNL A   1      39.826  26.882  27.834  1.00  0.00     0.029 A 
ATOM     50  N   UNL A   1      41.785  27.261  28.845  1.00  0.00    -0.354 N 
ATOM     51  C   UNL A   1      42.433  30.831  31.186  1.00  0.00     0.074 A 
ATOM     52  C   UNL A   1      41.246  31.657  31.224  1.00  0.00     0.031 C 
ATOM     53  C   UNL A   1      40.611  25.820  27.599  1.00  0.00     0.029 A 
ATOM     54  C   UNL A   1      41.912  26.042  28.225  1.00  0.00     0.049 A 
ATOM     55  H   UNL A   1      42.511  27.683  29.359  1.00  0.00     0.167 HD
ATOM     56  C   UNL A   1      43.590  31.120  31.828  1.00  0.00     0.037 A 
ATOM     57  C   UNL A   1      42.960  25.200  28.159  1.00  0.00     0.037 A 
ATOM     58  C   UNL A   1      44.760  30.283  31.816  1.00  0.00     0.049 A 
ATOM     59  C   UNL A   1      44.243  25.567  28.849  1.00  0.00     0.074 A 
ATOM     60  C   UNL A   1      45.970  30.482  32.458  1.00  0.00     0.029 A 
ATOM     61  N   UNL A   1      44.866  29.083  31.127  1.00  0.00    -0.354 N 
ATOM     62  N   UNL A   1      44.510  26.611  29.592  1.00  0.00    -0.248 NA
ATOM     63  C   UNL A   1      45.372  24.642  28.682  1.00  0.00     0.031 C 
ATOM     64  C   UNL A   1      46.821  29.423  32.129  1.00  0.00     0.029 A 
ATOM     65  C   UNL A   1      46.128  28.542  31.316  1.00  0.00     0.049 A 
ATOM     66  H   UNL A   1      44.152  28.676  30.586  1.00  0.00     0.167 HD
ATOM     67  C   UNL A   1      45.833  26.469  29.987  1.00  0.00     0.074 A 
ATOM     68  C   UNL A   1      46.306  25.223  29.421  1.00  0.00     0.031 C 
ATOM     69  C   UNL A   1      46.587  27.302  30.745  1.00  0.00     0.037 A 
BRANCH  56  70
ATOM     70  C   UNL A   1      43.660  32.401  32.608  1.00  0.00     0.064 A 
ATOM     71  C   UNL A   1      44.053  33.605  32.005  1.00  0.00     0.173 A 
ATOM     72  C   UNL A   1      43.250  32.440  33.950  1.00  0.00     0.173 A 
ATOM     73  F   UNL A   1      44.462  33.618  30.728  1.00  0.00    -0.203 F 
ATOM     74  C   UNL A   1      44.042  34.799  32.721  1.00  0.00     0.198 A 
ATOM     75  C   UNL A   1      43.218  33.640  34.655  1.00  0.00     0.198 A 
ATOM     76  F   UNL A   1      42.857  31.317  34.569  1.00  0.00    -0.203 F 
ATOM     77  F   UNL A   1      44.444  35.935  32.132  1.00  0.00    -0.200 F 
ATOM     78  C   UNL A   1      43.615  34.818  34.041  1.00  0.00     0.200 A 
ATOM     79  F   UNL A   1      42.792  33.658  35.925  1.00  0.00    -0.200 F 
ATOM     80  F   UNL A   1      43.587  35.972  34.721  1.00  0.00    -0.200 F 
ENDBRANCH  56  70
BRANCH  57  81
ATOM     81  C   UNL A   1      42.828  23.925  27.408  1.00  0.00     0.064 A 
ATOM     82  C   UNL A   1      43.144  23.859  26.045  1.00  0.00     0.173 A 
ATOM     83  C   UNL A   1      42.411  22.746  28.042  1.00  0.00     0.173 A 
ATOM     84  F   UNL A   1      43.527  24.965  25.391  1.00  0.00    -0.203 F 
ATOM     85  C   UNL A   1      43.044  22.659  25.343  1.00  0.00     0.198 A 
ATOM     86  C   UNL A   1      42.337  21.542  27.346  1.00  0.00     0.198 A 
ATOM     87  F   UNL A   1      42.098  22.760  29.346  1.00  0.00    -0.203 F 
ATOM     88  F   UNL A   1      43.323  22.627  24.032  1.00  0.00    -0.200 F 
ATOM     89  C   UNL A   1      42.650  21.501  25.995  1.00  0.00     0.200 A 
ATOM     90  F   UNL A   1      41.971  20.423  27.984  1.00  0.00    -0.200 F 
ATOM     91  F   UNL A   1      42.568  20.345  25.323  1.00  0.00    -0.200 F 
ENDBRANCH  57  81
BRANCH  69  92
ATOM     92  C   UNL A   1      48.004  26.895  31.016  1.00  0.00     0.064 A 
ATOM     93  C   UNL A   1      48.323  26.018  32.062  1.00  0.00     0.173 A 
ATOM     94  C   UNL A   1      49.044  27.334  30.182  1.00  0.00     0.173 A 
ATOM     95  F   UNL A   1      47.364  25.584  32.895  1.00  0.00    -0.203 F 
ATOM     96  C   UNL A   1      49.635  25.604  32.272  1.00  0.00     0.198 A 
ATOM     97  C   UNL A   1      50.351  26.896  30.380  1.00  0.00     0.198 A 
ATOM     98  F   UNL A   1      48.788  28.168  29.164  1.00  0.00    -0.203 F 
ATOM     99  F   UNL A   1      49.923  24.791  33.298  1.00  0.00    -0.200 F 
ATOM    100  C   UNL A   1      50.645  26.036  31.426  1.00  0.00     0.200 A 
ATOM    101  F   UNL A   1      51.324  27.305  29.553  1.00  0.00    -0.200 F 
ATOM    102  F   UNL A   1      51.906  25.625  31.621  1.00  0.00    -0.200 F 
ENDBRANCH  69  92
ENDBRANCH  43  44
ENDBRANCH  35  38
ENDBRANCH  33  34
ENDBRANCH  32  33
ENDBRANCH  31  32
ENDBRANCH   1  31
TORSDOF 16
ENDMDL
MODEL 2
REMARK VINA RESULT:     -11.8      4.068      9.059
REMARK SMILES O=C(Cn1ncc2ccccc2c1=O)N[C@@H]1C[NH2+][C@H](C(=O)NCCCCCCNC(=O)c2ccc(-c3c4nc(c(-c5c(F)c(F)c(F)c(F)c5F)c5ccc([nH]5)c(-c5c(F)c(F)c(F)c(F)c5F)c5nc(c(-c6c(F)c(F)c(F)c(F)c6F)c6ccc3[nH]6)C=C5)C=C4)cc2)C1
REMARK SMILES IDX 25 1 24 2 23 3 22 4 20 5 21 6 19 8 16 9 17 10 95 11 18 12
REMARK SMILES IDX 15 15 1 16 2 17 3 19 4 20 5 21 13 22 6 23 12 24 14 25 7 26
REMARK SMILES IDX 11 27 8 28 10 29 9 30 26 31 27 32 28 33 29 34 30 35 31 37
REMARK SMILES IDX 32 38 33 39 94 40 34 41 93 42 35 43 36 44 37 45 87 46 38 47
REMARK SMILES IDX 92 48 86 49 88 50 39 51 91 52 85 53 84 54 40 56 72 57 52 58
REMARK SMILES IDX 71 59 53 60 56 61 70 62 89 63 54 64 55 65 69 67 90 68 57 69
REMARK SMILES IDX 41 70 42 71 50 72 43 73 44 74 48 75 51 76 45 77 46 78 49 79
REMARK SMILES IDX 47 80 73 81 74 82 82 83 75 84 76 85 80 86 83 87 77 88 78 89
REMARK SMILES IDX 81 90 79 91 58 92 59 93 67 94 60 95 61 96 65 97 68 98 62 99
REMARK SMILES IDX 63 100 66 101 64 102
REMARK H PARENT 22 7 18 13 18 14 15 18 29 36 88 55 56 66
REMARK Flexibility Score: inf
ROOT
ATOM      1  C   UNL A   1      35.154  33.809  28.973  1.00  0.00     0.002 C 
ENDROOT
BRANCH   1   2
ATOM      2  C   UNL A   1      34.465  32.441  29.054  1.00  0.00     0.021 C 
BRANCH   2   3
ATOM      3  C   UNL A   1      33.853  31.959  27.736  1.00  0.00     0.116 C 
BRANCH   3   4
ATOM      4  N   UNL A   1      34.530  30.781  27.233  1.00  0.00    -0.351 N 
ATOM      5  C   UNL A   1      34.017  29.599  26.769  1.00  0.00     0.278 C 
ATOM      6  O   UNL A   1      34.829  28.737  26.429  1.00  0.00    -0.268 OA
ATOM      7  H   UNL A   1      35.513  30.838  27.224  1.00  0.00     0.163 HD
BRANCH   5   8
ATOM      8  C   UNL A   1      32.479  29.439  26.619  1.00  0.00     0.274 C 
ATOM      9  C   UNL A   1      31.211  27.852  25.287  1.00  0.00     0.143 C 
ATOM     10  C   UNL A   1      31.830  28.935  24.411  1.00  0.00     0.286 C 
ATOM     11  C   UNL A   1      32.024  27.977  26.566  1.00  0.00     0.106 C 
ATOM     12  N   UNL A   1      32.007  30.058  25.347  1.00  0.00    -0.334 N 
ATOM     13  H   UNL A   1      31.124  30.544  25.493  1.00  0.00     0.347 HD
ATOM     14  H   UNL A   1      32.669  30.748  24.992  1.00  0.00     0.347 HD
BRANCH   9  15
ATOM     15  N   UNL A   1      31.086  26.537  24.679  1.00  0.00    -0.346 N 
ATOM     16  O   UNL A   1      30.202  25.283  26.408  1.00  0.00    -0.273 OA
ATOM     17  C   UNL A   1      30.609  25.374  25.254  1.00  0.00     0.242 C 
ATOM     18  H   UNL A   1      31.376  26.466  23.741  1.00  0.00     0.164 HD
BRANCH  17  19
ATOM     19  C   UNL A   1      30.750  24.145  24.358  1.00  0.00     0.248 C 
BRANCH  19  20
ATOM     20  N   UNL A   1      32.153  23.817  24.122  1.00  0.00    -0.220 N 
ATOM     21  N   UNL A   1      32.867  24.674  23.305  1.00  0.00    -0.177 NA
ATOM     22  C   UNL A   1      32.684  22.669  24.716  1.00  0.00     0.275 A 
ATOM     23  C   UNL A   1      34.127  24.423  23.117  1.00  0.00     0.142 A 
ATOM     24  C   UNL A   1      34.120  22.421  24.503  1.00  0.00     0.050 A 
ATOM     25  O   UNL A   1      32.040  21.884  25.407  1.00  0.00    -0.267 OA
ATOM     26  C   UNL A   1      34.842  23.300  23.710  1.00  0.00     0.007 A 
ATOM     27  C   UNL A   1      34.768  21.334  25.100  1.00  0.00     0.014 A 
ATOM     28  C   UNL A   1      36.208  23.117  23.493  1.00  0.00     0.010 A 
ATOM     29  C   UNL A   1      36.136  21.143  24.894  1.00  0.00     0.001 A 
ATOM     30  C   UNL A   1      36.855  22.033  24.092  1.00  0.00     0.001 A 
ENDBRANCH  19  20
ENDBRANCH  17  19
ENDBRANCH   9  15
ENDBRANCH   5   8
ENDBRANCH   3   4
ENDBRANCH   2   3
ENDBRANCH   1   2
BRANCH   1  31
ATOM     31  C   UNL A   1      34.396  34.884  28.186  1.00  0.00     0.002 C 
BRANCH  31  32
ATOM     32  C   UNL A   1      33.105  35.380  28.837  1.00  0.00     0.021 C 
BRANCH  32  33
ATOM     33  C   UNL A   1      33.269  36.595  29.741  1.00  0.00     0.116 C 
BRANCH  33  34
ATOM     34  N   UNL A   1      32.430  36.531  30.929  1.00  0.00    -0.352 N 
ATOM     35  C   UNL A   1      32.586  35.769  32.063  1.00  0.00     0.251 C 
ATOM     36  H   UNL A   1      31.638  37.116  30.918  1.00  0.00     0.163 HD
ATOM     37  O   UNL A   1      31.700  35.723  32.911  1.00  0.00    -0.269 OA
BRANCH  35  38
ATOM     38  C   UNL A   1      33.815  34.967  32.240  1.00  0.00     0.039 A 
ATOM     39  C   UNL A   1      33.740  33.601  32.519  1.00  0.00     0.014 A 
ATOM     40  C   UNL A   1      35.059  35.600  32.157  1.00  0.00     0.014 A 
ATOM     41  C   UNL A   1      34.889  32.911  32.887  1.00  0.00     0.010 A 
ATOM     42  C   UNL A   1      36.223  34.882  32.448  1.00  0.00     0.010 A 
ATOM     43  C   UNL A   1      36.142  33.545  32.868  1.00  0.00    -0.014 A 
BRANCH  43  44
ATOM     44  C   UNL A   1      37.347  32.798  33.316  1.00  0.00     0.031 A 
ATOM     45  C   UNL A   1      37.985  31.766  32.427  1.00  0.00     0.074 A 
ATOM     46  C   UNL A   1      37.903  33.097  34.505  1.00  0.00     0.049 A 
ATOM     47  N   UNL A   1      39.051  31.034  32.643  1.00  0.00    -0.248 NA
ATOM     48  C   UNL A   1      37.347  31.518  31.123  1.00  0.00     0.031 C 
ATOM     49  C   UNL A   1      37.386  34.088  35.451  1.00  0.00     0.029 A 
ATOM     50  N   UNL A   1      39.038  32.620  35.111  1.00  0.00    -0.354 N 
ATOM     51  C   UNL A   1      39.199  30.233  31.517  1.00  0.00     0.074 A 
ATOM     52  C   UNL A   1      38.100  30.546  30.629  1.00  0.00     0.031 C 
ATOM     53  C   UNL A   1      38.226  34.183  36.491  1.00  0.00     0.029 A 
ATOM     54  C   UNL A   1      39.310  33.220  36.317  1.00  0.00     0.049 A 
ATOM     55  H   UNL A   1      39.604  31.915  34.720  1.00  0.00     0.167 HD
ATOM     56  C   UNL A   1      40.172  29.331  31.245  1.00  0.00     0.037 A 
ATOM     57  C   UNL A   1      40.313  33.011  37.190  1.00  0.00     0.037 A 
ATOM     58  C   UNL A   1      41.281  29.042  32.116  1.00  0.00     0.049 A 
ATOM     59  C   UNL A   1      41.356  31.977  36.879  1.00  0.00     0.074 A 
ATOM     60  C   UNL A   1      42.330  28.162  31.912  1.00  0.00     0.029 A 
ATOM     61  N   UNL A   1      41.487  29.630  33.354  1.00  0.00    -0.354 N 
ATOM     62  N   UNL A   1      41.487  31.233  35.809  1.00  0.00    -0.248 NA
ATOM     63  C   UNL A   1      42.385  31.745  37.902  1.00  0.00     0.031 C 
ATOM     64  C   UNL A   1      43.151  28.189  33.043  1.00  0.00     0.029 A 
ATOM     65  C   UNL A   1      42.637  29.117  33.934  1.00  0.00     0.049 A 
ATOM     66  H   UNL A   1      40.905  30.311  33.762  1.00  0.00     0.167 HD
ATOM     67  C   UNL A   1      42.613  30.451  36.024  1.00  0.00     0.074 A 
ATOM     68  C   UNL A   1      43.144  30.829  37.317  1.00  0.00     0.031 C 
ATOM     69  C   UNL A   1      43.153  29.501  35.223  1.00  0.00     0.037 A 
BRANCH  56  70
ATOM     70  C   UNL A   1      40.091  28.580  29.948  1.00  0.00     0.064 A 
ATOM     71  C   UNL A   1      40.688  29.072  28.778  1.00  0.00     0.173 A 
ATOM     72  C   UNL A   1      39.483  27.316  29.895  1.00  0.00     0.173 A 
ATOM     73  F   UNL A   1      41.273  30.278  28.775  1.00  0.00    -0.203 F 
ATOM     74  C   UNL A   1      40.669  28.329  27.600  1.00  0.00     0.198 A 
ATOM     75  C   UNL A   1      39.487  26.567  28.722  1.00  0.00     0.198 A 
ATOM     76  F   UNL A   1      38.905  26.797  30.990  1.00  0.00    -0.203 F 
ATOM     77  F   UNL A   1      41.224  28.829  26.487  1.00  0.00    -0.200 F 
ATOM     78  C   UNL A   1      40.078  27.074  27.576  1.00  0.00     0.200 A 
ATOM     79  F   UNL A   1      38.928  25.349  28.703  1.00  0.00    -0.200 F 
ATOM     80  F   UNL A   1      40.080  26.355  26.445  1.00  0.00    -0.200 F 
ENDBRANCH  56  70
BRANCH  57  81
ATOM     81  C   UNL A   1      40.370  33.809  38.442  1.00  0.00     0.064 A 
ATOM     82  C   UNL A   1      39.669  33.402  39.585  1.00  0.00     0.173 A 
ATOM     83  C   UNL A   1      41.146  34.974  38.528  1.00  0.00     0.173 A 
ATOM     84  F   UNL A   1      38.898  32.306  39.544  1.00  0.00    -0.203 F 
ATOM     85  C   UNL A   1      39.740  34.135  40.768  1.00  0.00     0.198 A 
ATOM     86  C   UNL A   1      41.236  35.691  39.719  1.00  0.00     0.198 A 
ATOM     87  F   UNL A   1      41.834  35.403  37.461  1.00  0.00    -0.203 F 
ATOM     88  F   UNL A   1      39.037  33.743  41.839  1.00  0.00    -0.200 F 
ATOM     89  C   UNL A   1      40.530  35.273  40.837  1.00  0.00     0.200 A 
ATOM     90  F   UNL A   1      42.013  36.780  39.786  1.00  0.00    -0.200 F 
ATOM     91  F   UNL A   1      40.609  35.969  41.979  1.00  0.00    -0.200 F 
ENDBRANCH  57  81
BRANCH  69  92
ATOM     92  C   UNL A   1      44.386  28.803  35.713  1.00  0.00     0.064 A 
ATOM     93  C   UNL A   1      45.664  29.310  35.448  1.00  0.00     0.173 A 
ATOM     94  C   UNL A   1      44.284  27.652  36.510  1.00  0.00     0.173 A 
ATOM     95  F   UNL A   1      45.812  30.400  34.678  1.00  0.00    -0.203 F 
ATOM     96  C   UNL A   1      46.800  28.685  35.954  1.00  0.00     0.198 A 
ATOM     97  C   UNL A   1      45.421  27.045  37.036  1.00  0.00     0.198 A 
ATOM     98  F   UNL A   1      43.081  27.132  36.797  1.00  0.00    -0.203 F 
ATOM     99  F   UNL A   1      48.016  29.169  35.662  1.00  0.00    -0.200 F 
ATOM    100  C   UNL A   1      46.677  27.559  36.754  1.00  0.00     0.200 A 
ATOM    101  F   UNL A   1      45.299  25.964  37.819  1.00  0.00    -0.200 F 
ATOM    102  F   UNL A   1      47.771  26.965  37.251  1.00  0.00    -0.200 F 
ENDBRANCH  69  92
ENDBRANCH  43  44
ENDBRANCH  35  38
ENDBRANCH  33  34
ENDBRANCH  32  33
ENDBRANCH  31  32
ENDBRANCH   1  31
TORSDOF 16
ENDMDL
MODEL 3
REMARK VINA RESULT:     -11.7      3.355      4.827
REMARK SMILES O=C(Cn1ncc2ccccc2c1=O)N[C@@H]1C[NH2+][C@H](C(=O)NCCCCCCNC(=O)c2ccc(-c3c4nc(c(-c5c(F)c(F)c(F)c(F)c5F)c5ccc([nH]5)c(-c5c(F)c(F)c(F)c(F)c5F)c5nc(c(-c6c(F)c(F)c(F)c(F)c6F)c6ccc3[nH]6)C=C5)C=C4)cc2)C1
REMARK SMILES IDX 25 1 24 2 23 3 22 4 20 5 21 6 19 8 16 9 17 10 95 11 18 12
REMARK SMILES IDX 15 15 1 16 2 17 3 19 4 20 5 21 13 22 6 23 12 24 14 25 7 26
REMARK SMILES IDX 11 27 8 28 10 29 9 30 26 31 27 32 28 33 29 34 30 35 31 37
REMARK SMILES IDX 32 38 33 39 94 40 34 41 93 42 35 43 36 44 37 45 87 46 38 47
REMARK SMILES IDX 92 48 86 49 88 50 39 51 91 52 85 53 84 54 40 56 72 57 52 58
REMARK SMILES IDX 71 59 53 60 56 61 70 62 89 63 54 64 55 65 69 67 90 68 57 69
REMARK SMILES IDX 41 70 42 71 50 72 43 73 44 74 48 75 51 76 45 77 46 78 49 79
REMARK SMILES IDX 47 80 73 81 74 82 82 83 75 84 76 85 80 86 83 87 77 88 78 89
REMARK SMILES IDX 81 90 79 91 58 92 59 93 67 94 60 95 61 96 65 97 68 98 62 99
REMARK SMILES IDX 63 100 66 101 64 102
REMARK H PARENT 22 7 18 13 18 14 15 18 29 36 88 55 56 66
REMARK Flexibility Score: inf
ROOT
ATOM      1  C   UNL A   1      33.100  30.038  27.324  1.00  0.00     0.002 C 
ENDROOT
BRANCH   1   2
ATOM      2  C   UNL A   1      34.117  29.503  26.308  1.00  0.00     0.021 C 
BRANCH   2   3
ATOM      3  C   UNL A   1      33.626  28.308  25.487  1.00  0.00     0.116 C 
BRANCH   3   4
ATOM      4  N   UNL A   1      33.093  28.724  24.205  1.00  0.00    -0.351 N 
ATOM      5  C   UNL A   1      31.856  28.517  23.656  1.00  0.00     0.278 C 
ATOM      6  O   UNL A   1      31.674  28.954  22.517  1.00  0.00    -0.268 OA
ATOM      7  H   UNL A   1      33.717  29.233  23.640  1.00  0.00     0.163 HD
BRANCH   5   8
ATOM      8  C   UNL A   1      30.746  27.835  24.502  1.00  0.00     0.274 C 
ATOM      9  C   UNL A   1      30.326  25.474  24.888  1.00  0.00     0.143 C 
ATOM     10  C   UNL A   1      29.898  25.887  23.485  1.00  0.00     0.286 C 
ATOM     11  C   UNL A   1      31.245  26.618  25.288  1.00  0.00     0.106 C 
ATOM     12  N   UNL A   1      29.650  27.332  23.626  1.00  0.00    -0.334 N 
ATOM     13  H   UNL A   1      28.742  27.499  24.058  1.00  0.00     0.347 HD
ATOM     14  H   UNL A   1      29.639  27.805  22.722  1.00  0.00     0.347 HD
BRANCH   9  15
ATOM     15  N   UNL A   1      30.823  24.114  25.026  1.00  0.00    -0.346 N 
ATOM     16  O   UNL A   1      30.387  23.660  27.250  1.00  0.00    -0.273 OA
ATOM     17  C   UNL A   1      30.826  23.319  26.156  1.00  0.00     0.242 C 
ATOM     18  H   UNL A   1      31.203  23.709  24.213  1.00  0.00     0.164 HD
BRANCH  17  19
ATOM     19  C   UNL A   1      31.554  21.989  25.968  1.00  0.00     0.248 C 
BRANCH  19  20
ATOM     20  N   UNL A   1      32.997  22.184  25.850  1.00  0.00    -0.220 N 
ATOM     21  N   UNL A   1      33.488  23.433  26.183  1.00  0.00    -0.177 NA
ATOM     22  C   UNL A   1      33.784  21.119  25.406  1.00  0.00     0.275 A 
ATOM     23  C   UNL A   1      34.772  23.614  26.126  1.00  0.00     0.142 A 
ATOM     24  C   UNL A   1      35.239  21.346  25.372  1.00  0.00     0.050 A 
ATOM     25  O   UNL A   1      33.344  20.023  25.069  1.00  0.00    -0.267 OA
ATOM     26  C   UNL A   1      35.733  22.589  25.737  1.00  0.00     0.007 A 
ATOM     27  C   UNL A   1      36.126  20.329  25.000  1.00  0.00     0.014 A 
ATOM     28  C   UNL A   1      37.104  22.847  25.738  1.00  0.00     0.010 A 
ATOM     29  C   UNL A   1      37.501  20.574  25.001  1.00  0.00     0.001 A 
ATOM     30  C   UNL A   1      37.990  21.831  25.369  1.00  0.00     0.001 A 
ENDBRANCH  19  20
ENDBRANCH  17  19
ENDBRANCH   9  15
ENDBRANCH   5   8
ENDBRANCH   3   4
ENDBRANCH   2   3
ENDBRANCH   1   2
BRANCH   1  31
ATOM     31  C   UNL A   1      31.781  30.546  26.732  1.00  0.00     0.002 C 
BRANCH  31  32
ATOM     32  C   UNL A   1      31.588  32.062  26.776  1.00  0.00     0.021 C 
BRANCH  32  33
ATOM     33  C   UNL A   1      32.802  32.849  27.251  1.00  0.00     0.116 C 
BRANCH  33  34
ATOM     34  N   UNL A   1      32.472  34.213  27.641  1.00  0.00    -0.352 N 
ATOM     35  C   UNL A   1      33.024  34.993  28.630  1.00  0.00     0.251 C 
ATOM     36  H   UNL A   1      31.750  34.636  27.123  1.00  0.00     0.163 HD
ATOM     37  O   UNL A   1      32.522  36.072  28.927  1.00  0.00    -0.269 OA
BRANCH  35  38
ATOM     38  C   UNL A   1      34.209  34.504  29.368  1.00  0.00     0.039 A 
ATOM     39  C   UNL A   1      35.491  34.663  28.839  1.00  0.00     0.014 A 
ATOM     40  C   UNL A   1      34.028  33.850  30.590  1.00  0.00     0.014 A 
ATOM     41  C   UNL A   1      36.567  34.019  29.440  1.00  0.00     0.010 A 
ATOM     42  C   UNL A   1      35.125  33.272  31.236  1.00  0.00     0.010 A 
ATOM     43  C   UNL A   1      36.395  33.305  30.638  1.00  0.00    -0.014 A 
BRANCH  43  44
ATOM     44  C   UNL A   1      37.551  32.582  31.230  1.00  0.00     0.031 A 
ATOM     45  C   UNL A   1      38.030  32.907  32.619  1.00  0.00     0.074 A 
ATOM     46  C   UNL A   1      38.131  31.585  30.535  1.00  0.00     0.049 A 
ATOM     47  N   UNL A   1      39.007  32.364  33.304  1.00  0.00    -0.248 NA
ATOM     48  C   UNL A   1      37.324  33.980  33.338  1.00  0.00     0.031 C 
ATOM     49  C   UNL A   1      37.748  31.168  29.185  1.00  0.00     0.029 A 
ATOM     50  N   UNL A   1      39.145  30.726  30.874  1.00  0.00    -0.354 N 
ATOM     51  C   UNL A   1      39.043  33.039  34.518  1.00  0.00     0.074 A 
ATOM     52  C   UNL A   1      38.008  34.049  34.471  1.00  0.00     0.031 C 
ATOM     53  C   UNL A   1      38.480  30.101  28.831  1.00  0.00     0.029 A 
ATOM     54  C   UNL A   1      39.424  29.796  29.903  1.00  0.00     0.049 A 
ATOM     55  H   UNL A   1      39.628  30.772  31.732  1.00  0.00     0.167 HD
ATOM     56  C   UNL A   1      39.854  32.822  35.581  1.00  0.00     0.037 A 
ATOM     57  C   UNL A   1      40.342  28.813  29.872  1.00  0.00     0.037 A 
ATOM     58  C   UNL A   1      40.863  31.797  35.640  1.00  0.00     0.049 A 
ATOM     59  C   UNL A   1      41.256  28.621  31.049  1.00  0.00     0.074 A 
ATOM     60  C   UNL A   1      41.716  31.486  36.684  1.00  0.00     0.029 A 
ATOM     61  N   UNL A   1      41.152  30.913  34.611  1.00  0.00    -0.354 N 
ATOM     62  N   UNL A   1      41.273  29.261  32.192  1.00  0.00    -0.248 NA
ATOM     63  C   UNL A   1      42.283  27.578  30.928  1.00  0.00     0.031 C 
ATOM     64  C   UNL A   1      42.547  30.440  36.275  1.00  0.00     0.029 A 
ATOM     65  C   UNL A   1      42.183  30.069  34.991  1.00  0.00     0.049 A 
ATOM     66  H   UNL A   1      40.693  30.888  33.741  1.00  0.00     0.167 HD
ATOM     67  C   UNL A   1      42.304  28.697  32.929  1.00  0.00     0.074 A 
ATOM     68  C   UNL A   1      42.874  27.645  32.113  1.00  0.00     0.031 C 
ATOM     69  C   UNL A   1      42.742  29.028  34.168  1.00  0.00     0.037 A 
BRANCH  56  70
ATOM     70  C   UNL A   1      39.694  33.710  36.780  1.00  0.00     0.064 A 
ATOM     71  C   UNL A   1      40.317  34.965  36.852  1.00  0.00     0.173 A 
ATOM     72  C   UNL A   1      38.843  33.337  37.832  1.00  0.00     0.173 A 
ATOM     73  F   UNL A   1      41.147  35.363  35.877  1.00  0.00    -0.203 F 
ATOM     74  C   UNL A   1      40.100  35.809  37.938  1.00  0.00     0.198 A 
ATOM     75  C   UNL A   1      38.610  34.194  38.904  1.00  0.00     0.198 A 
ATOM     76  F   UNL A   1      38.217  32.150  37.807  1.00  0.00    -0.203 F 
ATOM     77  F   UNL A   1      40.724  36.994  37.997  1.00  0.00    -0.200 F 
ATOM     78  C   UNL A   1      39.239  35.428  38.957  1.00  0.00     0.200 A 
ATOM     79  F   UNL A   1      37.768  33.830  39.881  1.00  0.00    -0.200 F 
ATOM     80  F   UNL A   1      39.018  36.251  39.991  1.00  0.00    -0.200 F 
ENDBRANCH  56  70
BRANCH  57  81
ATOM     81  C   UNL A   1      40.436  27.935  28.677  1.00  0.00     0.064 A 
ATOM     82  C   UNL A   1      41.213  28.305  27.572  1.00  0.00     0.173 A 
ATOM     83  C   UNL A   1      39.773  26.700  28.628  1.00  0.00     0.173 A 
ATOM     84  F   UNL A   1      41.848  29.486  27.565  1.00  0.00    -0.203 F 
ATOM     85  C   UNL A   1      41.321  27.473  26.460  1.00  0.00     0.198 A 
ATOM     86  C   UNL A   1      39.903  25.857  27.526  1.00  0.00     0.198 A 
ATOM     87  F   UNL A   1      39.017  26.302  29.661  1.00  0.00    -0.203 F 
ATOM     88  F   UNL A   1      42.047  27.863  25.403  1.00  0.00    -0.200 F 
ATOM     89  C   UNL A   1      40.674  26.247  26.441  1.00  0.00     0.200 A 
ATOM     90  F   UNL A   1      39.289  24.667  27.519  1.00  0.00    -0.200 F 
ATOM     91  F   UNL A   1      40.790  25.441  25.377  1.00  0.00    -0.200 F 
ENDBRANCH  57  81
BRANCH  69  92
ATOM     92  C   UNL A   1      43.891  28.243  34.726  1.00  0.00     0.064 A 
ATOM     93  C   UNL A   1      43.686  27.038  35.412  1.00  0.00     0.173 A 
ATOM     94  C   UNL A   1      45.212  28.666  34.517  1.00  0.00     0.173 A 
ATOM     95  F   UNL A   1      42.439  26.601  35.650  1.00  0.00    -0.203 F 
ATOM     96  C   UNL A   1      44.762  26.290  35.880  1.00  0.00     0.198 A 
ATOM     97  C   UNL A   1      46.287  27.901  34.963  1.00  0.00     0.198 A 
ATOM     98  F   UNL A   1      45.461  29.809  33.860  1.00  0.00    -0.203 F 
ATOM     99  F   UNL A   1      44.542  25.156  36.561  1.00  0.00    -0.200 F 
ATOM    100  C   UNL A   1      46.061  26.717  35.647  1.00  0.00     0.200 A 
ATOM    101  F   UNL A   1      47.541  28.310  34.726  1.00  0.00    -0.200 F 
ATOM    102  F   UNL A   1      47.096  25.987  36.086  1.00  0.00    -0.200 F 
ENDBRANCH  69  92
ENDBRANCH  43  44
ENDBRANCH  35  38
ENDBRANCH  33  34
ENDBRANCH  32  33
ENDBRANCH  31  32
ENDBRANCH   1  31
TORSDOF 16
ENDMDL
