MODEL 1
REMARK VINA RESULT:     -11.8      0.000      0.000
REMARK SMILES CC(=O)N[C@@H](Cc1cc(Br)c(O)c(Br)c1)C(=O)NCCCCCCNC(=O)c1ccc(-c2c3nc(c(-c4c(F)c(F)c(F)c(F)c4F)c4ccc([nH]4)c(-c4c(F)c(F)c(F)c(F)c4F)c4nc(c(-c5c(F)c(F)c(F)c(F)c5F)c5ccc2[nH]5)C=C4)C=C3)cc1
REMARK SMILES IDX 21 1 20 2 19 3 18 4 16 5 17 6 5 8 4 9 1 10 2 11 3 12 6 14
REMARK SMILES IDX 7 15 8 16 15 17 9 18 13 19 10 20 11 21 14 22 12 23 22 25
REMARK SMILES IDX 23 26 24 27 25 28 26 29 27 31 28 32 29 33 90 34 30 35 89 36
REMARK SMILES IDX 31 37 32 38 33 39 83 40 34 41 88 42 82 43 84 44 35 45 87 46
REMARK SMILES IDX 81 47 80 48 36 50 68 51 48 52 67 53 49 54 52 55 66 56 85 57
REMARK SMILES IDX 50 58 51 59 65 61 86 62 53 63 37 64 38 65 46 66 39 67 40 68
REMARK SMILES IDX 44 69 47 70 41 71 42 72 45 73 43 74 69 75 70 76 78 77 71 78
REMARK SMILES IDX 72 79 76 80 79 81 73 82 74 83 77 84 75 85 54 86 55 87 63 88
REMARK SMILES IDX 56 89 57 90 61 91 64 92 58 93 59 94 62 95 60 96
REMARK H PARENT 18 7 4 13 12 24 25 30 84 49 52 60
REMARK Flexibility Score: inf
ROOT
ATOM      1  C   UNL A   1      36.119  21.665  24.983  1.00  0.00     0.002 C 
ENDROOT
BRANCH   1   2
ATOM      2  C   UNL A   1      34.884  22.056  25.800  1.00  0.00     0.021 C 
BRANCH   2   3
ATOM      3  C   UNL A   1      34.625  23.553  25.888  1.00  0.00     0.116 C 
BRANCH   3   4
ATOM      4  N   UNL A   1      33.462  23.908  26.671  1.00  0.00    -0.354 N 
ATOM      5  C   UNL A   1      32.153  24.027  26.306  1.00  0.00     0.242 C 
ATOM      6  O   UNL A   1      31.316  23.951  27.213  1.00  0.00    -0.273 OA
ATOM      7  H   UNL A   1      33.644  24.092  27.621  1.00  0.00     0.163 HD
BRANCH   5   8
ATOM      8  C   UNL A   1      31.676  24.121  24.835  1.00  0.00     0.175 C 
BRANCH   8   9
ATOM      9  N   UNL A   1      31.569  22.831  24.150  1.00  0.00    -0.344 N 
ATOM     10  C   UNL A   1      33.168  23.337  22.336  1.00  0.00     0.114 C 
ATOM     11  C   UNL A   1      32.312  22.370  23.105  1.00  0.00     0.217 C 
ATOM     12  O   UNL A   1      32.234  21.180  22.801  1.00  0.00    -0.275 OA
ATOM     13  H   UNL A   1      30.874  22.221  24.488  1.00  0.00     0.164 HD
ENDBRANCH   8   9
BRANCH   8  14
ATOM     14  C   UNL A   1      30.447  25.035  24.635  1.00  0.00     0.070 C 
BRANCH  14  15
ATOM     15  C   UNL A   1      30.667  26.366  23.954  1.00  0.00    -0.043 A 
ATOM     16  C   UNL A   1      31.953  26.786  23.586  1.00  0.00     0.023 A 
ATOM     17  C   UNL A   1      29.573  27.197  23.660  1.00  0.00     0.023 A 
ATOM     18  C   UNL A   1      32.130  27.983  22.884  1.00  0.00     0.061 A 
ATOM     19  C   UNL A   1      29.754  28.395  22.961  1.00  0.00     0.061 A 
ATOM     20  Br  UNL A   1      33.880  28.475  22.346  1.00  0.00    -0.047 Br
ATOM     21  C   UNL A   1      31.033  28.783  22.555  1.00  0.00     0.143 A 
ATOM     22  Br  UNL A   1      28.220  29.423  22.525  1.00  0.00    -0.047 Br
BRANCH  21  23
ATOM     23  O   UNL A   1      31.190  29.922  21.809  1.00  0.00    -0.506 OA
ATOM     24  H   UNL A   1      31.909  30.498  21.979  1.00  0.00     0.293 HD
ENDBRANCH  21  23
ENDBRANCH  14  15
ENDBRANCH   8  14
ENDBRANCH   5   8
ENDBRANCH   3   4
ENDBRANCH   2   3
ENDBRANCH   1   2
BRANCH   1  25
ATOM     25  C   UNL A   1      36.500  20.178  25.006  1.00  0.00     0.002 C 
BRANCH  25  26
ATOM     26  C   UNL A   1      37.955  19.854  24.662  1.00  0.00     0.021 C 
BRANCH  26  27
ATOM     27  C   UNL A   1      38.967  20.177  25.752  1.00  0.00     0.116 C 
BRANCH  27  28
ATOM     28  N   UNL A   1      39.994  19.159  25.878  1.00  0.00    -0.352 N 
ATOM     29  C   UNL A   1      41.341  19.299  26.099  1.00  0.00     0.251 C 
ATOM     30  H   UNL A   1      39.678  18.231  25.792  1.00  0.00     0.163 HD
ATOM     31  O   UNL A   1      42.084  18.327  26.010  1.00  0.00    -0.269 OA
BRANCH  29  32
ATOM     32  C   UNL A   1      41.907  20.627  26.425  1.00  0.00     0.039 A 
ATOM     33  C   UNL A   1      42.160  21.522  25.382  1.00  0.00     0.014 A 
ATOM     34  C   UNL A   1      42.206  20.985  27.742  1.00  0.00     0.014 A 
ATOM     35  C   UNL A   1      42.661  22.793  25.666  1.00  0.00     0.010 A 
ATOM     36  C   UNL A   1      42.627  22.280  28.032  1.00  0.00     0.010 A 
ATOM     37  C   UNL A   1      42.867  23.195  26.996  1.00  0.00    -0.014 A 
BRANCH  37  38
ATOM     38  C   UNL A   1      43.338  24.567  27.319  1.00  0.00     0.031 A 
ATOM     39  C   UNL A   1      42.384  25.579  27.891  1.00  0.00     0.074 A 
ATOM     40  C   UNL A   1      44.609  24.917  27.042  1.00  0.00     0.049 A 
ATOM     41  N   UNL A   1      42.590  26.840  28.182  1.00  0.00    -0.248 NA
ATOM     42  C   UNL A   1      41.009  25.123  28.145  1.00  0.00     0.031 C 
ATOM     43  C   UNL A   1      45.616  24.037  26.447  1.00  0.00     0.029 A 
ATOM     44  N   UNL A   1      45.270  26.106  27.219  1.00  0.00    -0.354 N 
ATOM     45  C   UNL A   1      41.372  27.326  28.639  1.00  0.00     0.074 A 
ATOM     46  C   UNL A   1      40.418  26.243  28.532  1.00  0.00     0.031 C 
ATOM     47  C   UNL A   1      46.773  24.708  26.331  1.00  0.00     0.029 A 
ATOM     48  C   UNL A   1      46.578  26.076  26.801  1.00  0.00     0.049 A 
ATOM     49  H   UNL A   1      44.847  26.906  27.608  1.00  0.00     0.167 HD
ATOM     50  C   UNL A   1      41.082  28.556  29.127  1.00  0.00     0.037 A 
ATOM     51  C   UNL A   1      47.514  27.046  26.791  1.00  0.00     0.037 A 
ATOM     52  C   UNL A   1      42.041  29.623  29.249  1.00  0.00     0.049 A 
ATOM     53  C   UNL A   1      47.160  28.410  27.323  1.00  0.00     0.074 A 
ATOM     54  C   UNL A   1      41.862  30.887  29.782  1.00  0.00     0.029 A 
ATOM     55  N   UNL A   1      43.360  29.552  28.824  1.00  0.00    -0.354 N 
ATOM     56  N   UNL A   1      46.024  28.837  27.817  1.00  0.00    -0.248 NA
ATOM     57  C   UNL A   1      48.224  29.424  27.301  1.00  0.00     0.031 C 
ATOM     58  C   UNL A   1      43.054  31.600  29.627  1.00  0.00     0.029 A 
ATOM     59  C   UNL A   1      43.998  30.760  29.058  1.00  0.00     0.049 A 
ATOM     60  H   UNL A   1      43.781  28.760  28.418  1.00  0.00     0.167 HD
ATOM     61  C   UNL A   1      46.244  30.155  28.196  1.00  0.00     0.074 A 
ATOM     62  C   UNL A   1      47.627  30.452  27.885  1.00  0.00     0.031 C 
ATOM     63  C   UNL A   1      45.378  31.039  28.751  1.00  0.00     0.037 A 
BRANCH  50  64
ATOM     64  C   UNL A   1      39.668  28.817  29.565  1.00  0.00     0.064 A 
ATOM     65  C   UNL A   1      39.241  28.560  30.878  1.00  0.00     0.173 A 
ATOM     66  C   UNL A   1      38.736  29.366  28.671  1.00  0.00     0.173 A 
ATOM     67  F   UNL A   1      40.088  28.025  31.770  1.00  0.00    -0.203 F 
ATOM     68  C   UNL A   1      37.929  28.812  31.268  1.00  0.00     0.198 A 
ATOM     69  C   UNL A   1      37.434  29.650  29.075  1.00  0.00     0.198 A 
ATOM     70  F   UNL A   1      39.090  29.638  27.406  1.00  0.00    -0.203 F 
ATOM     71  F   UNL A   1      37.531  28.508  32.512  1.00  0.00    -0.200 F 
ATOM     72  C   UNL A   1      37.030  29.365  30.370  1.00  0.00     0.200 A 
ATOM     73  F   UNL A   1      36.571  30.199  28.210  1.00  0.00    -0.200 F 
ATOM     74  F   UNL A   1      35.769  29.616  30.750  1.00  0.00    -0.200 F 
ENDBRANCH  50  64
BRANCH  51  75
ATOM     75  C   UNL A   1      48.878  26.757  26.277  1.00  0.00     0.064 A 
ATOM     76  C   UNL A   1      49.211  26.995  24.937  1.00  0.00     0.173 A 
ATOM     77  C   UNL A   1      49.876  26.230  27.112  1.00  0.00     0.173 A 
ATOM     78  F   UNL A   1      48.288  27.481  24.094  1.00  0.00    -0.203 F 
ATOM     79  C   UNL A   1      50.479  26.695  24.444  1.00  0.00     0.198 A 
ATOM     80  C   UNL A   1      51.154  25.960  26.626  1.00  0.00     0.198 A 
ATOM     81  F   UNL A   1      49.613  25.989  28.405  1.00  0.00    -0.203 F 
ATOM     82  F   UNL A   1      50.754  26.884  23.146  1.00  0.00    -0.200 F 
ATOM     83  C   UNL A   1      51.452  26.183  25.290  1.00  0.00     0.200 A 
ATOM     84  F   UNL A   1      52.094  25.483  27.452  1.00  0.00    -0.200 F 
ATOM     85  F   UNL A   1      52.673  25.897  24.817  1.00  0.00    -0.200 F 
ENDBRANCH  51  75
BRANCH  63  86
ATOM     86  C   UNL A   1      45.911  32.399  29.102  1.00  0.00     0.064 A 
ATOM     87  C   UNL A   1      46.516  32.661  30.341  1.00  0.00     0.173 A 
ATOM     88  C   UNL A   1      45.854  33.443  28.166  1.00  0.00     0.173 A 
ATOM     89  F   UNL A   1      46.583  31.701  31.275  1.00  0.00    -0.203 F 
ATOM     90  C   UNL A   1      47.016  33.925  30.640  1.00  0.00     0.198 A 
ATOM     91  C   UNL A   1      46.386  34.696  28.455  1.00  0.00     0.198 A 
ATOM     92  F   UNL A   1      45.293  33.245  26.964  1.00  0.00    -0.203 F 
ATOM     93  F   UNL A   1      47.542  34.167  31.849  1.00  0.00    -0.200 F 
ATOM     94  C   UNL A   1      46.960  34.939  29.694  1.00  0.00     0.200 A 
ATOM     95  F   UNL A   1      46.346  35.669  27.534  1.00  0.00    -0.200 F 
ATOM     96  F   UNL A   1      47.451  36.152  29.981  1.00  0.00    -0.200 F 
ENDBRANCH  63  86
ENDBRANCH  37  38
ENDBRANCH  29  32
ENDBRANCH  27  28
ENDBRANCH  26  27
ENDBRANCH  25  26
ENDBRANCH   1  25
TORSDOF 17
ENDMDL
MODEL 2
REMARK VINA RESULT:     -11.8      5.515     11.037
REMARK SMILES CC(=O)N[C@@H](Cc1cc(Br)c(O)c(Br)c1)C(=O)NCCCCCCNC(=O)c1ccc(-c2c3nc(c(-c4c(F)c(F)c(F)c(F)c4F)c4ccc([nH]4)c(-c4c(F)c(F)c(F)c(F)c4F)c4nc(c(-c5c(F)c(F)c(F)c(F)c5F)c5ccc2[nH]5)C=C4)C=C3)cc1
REMARK SMILES IDX 21 1 20 2 19 3 18 4 16 5 17 6 5 8 4 9 1 10 2 11 3 12 6 14
REMARK SMILES IDX 7 15 8 16 15 17 9 18 13 19 10 20 11 21 14 22 12 23 22 25
REMARK SMILES IDX 23 26 24 27 25 28 26 29 27 31 28 32 29 33 90 34 30 35 89 36
REMARK SMILES IDX 31 37 32 38 33 39 83 40 34 41 88 42 82 43 84 44 35 45 87 46
REMARK SMILES IDX 81 47 80 48 36 50 68 51 48 52 67 53 49 54 52 55 66 56 85 57
REMARK SMILES IDX 50 58 51 59 65 61 86 62 53 63 37 64 38 65 46 66 39 67 40 68
REMARK SMILES IDX 44 69 47 70 41 71 42 72 45 73 43 74 69 75 70 76 78 77 71 78
REMARK SMILES IDX 72 79 76 80 79 81 73 82 74 83 77 84 75 85 54 86 55 87 63 88
REMARK SMILES IDX 56 89 57 90 61 91 64 92 58 93 59 94 62 95 60 96
REMARK H PARENT 18 7 4 13 12 24 25 30 84 49 52 60
REMARK Flexibility Score: inf
ROOT
ATOM      1  C   UNL A   1      32.405  29.952  27.001  1.00  0.00     0.002 C 
ENDROOT
BRANCH   1   2
ATOM      2  C   UNL A   1      32.313  28.437  26.793  1.00  0.00     0.021 C 
BRANCH   2   3
ATOM      3  C   UNL A   1      33.560  27.798  26.201  1.00  0.00     0.116 C 
BRANCH   3   4
ATOM      4  N   UNL A   1      34.081  28.481  25.037  1.00  0.00    -0.354 N 
ATOM      5  C   UNL A   1      33.671  28.449  23.737  1.00  0.00     0.242 C 
ATOM      6  O   UNL A   1      34.013  29.400  23.024  1.00  0.00    -0.273 OA
ATOM      7  H   UNL A   1      34.855  29.064  25.211  1.00  0.00     0.163 HD
BRANCH   5   8
ATOM      8  C   UNL A   1      32.716  27.372  23.162  1.00  0.00     0.175 C 
BRANCH   8   9
ATOM      9  N   UNL A   1      31.703  27.891  22.241  1.00  0.00    -0.344 N 
ATOM     10  C   UNL A   1      29.821  27.866  23.841  1.00  0.00     0.114 C 
ATOM     11  C   UNL A   1      30.422  28.262  22.521  1.00  0.00     0.217 C 
ATOM     12  O   UNL A   1      29.785  28.882  21.671  1.00  0.00    -0.275 OA
ATOM     13  H   UNL A   1      31.984  27.984  21.302  1.00  0.00     0.164 HD
ENDBRANCH   8   9
BRANCH   8  14
ATOM     14  C   UNL A   1      33.440  26.109  22.645  1.00  0.00     0.070 C 
BRANCH  14  15
ATOM     15  C   UNL A   1      33.571  24.939  23.593  1.00  0.00    -0.043 A 
ATOM     16  C   UNL A   1      32.521  24.581  24.450  1.00  0.00     0.023 A 
ATOM     17  C   UNL A   1      34.752  24.177  23.612  1.00  0.00     0.023 A 
ATOM     18  C   UNL A   1      32.630  23.447  25.262  1.00  0.00     0.061 A 
ATOM     19  C   UNL A   1      34.857  23.045  24.428  1.00  0.00     0.061 A 
ATOM     20  Br  UNL A   1      31.156  22.962  26.352  1.00  0.00    -0.047 Br
ATOM     21  C   UNL A   1      33.789  22.667  25.243  1.00  0.00     0.143 A 
ATOM     22  Br  UNL A   1      36.448  22.016  24.337  1.00  0.00    -0.047 Br
BRANCH  21  23
ATOM     23  O   UNL A   1      33.876  21.518  25.985  1.00  0.00    -0.506 OA
ATOM     24  H   UNL A   1      34.106  20.709  25.571  1.00  0.00     0.293 HD
ENDBRANCH  21  23
ENDBRANCH  14  15
ENDBRANCH   8  14
ENDBRANCH   5   8
ENDBRANCH   3   4
ENDBRANCH   2   3
ENDBRANCH   1   2
BRANCH   1  25
ATOM     25  C   UNL A   1      31.479  30.810  26.127  1.00  0.00     0.002 C 
BRANCH  25  26
ATOM     26  C   UNL A   1      31.347  32.279  26.533  1.00  0.00     0.021 C 
BRANCH  26  27
ATOM     27  C   UNL A   1      32.547  32.859  27.269  1.00  0.00     0.116 C 
BRANCH  27  28
ATOM     28  N   UNL A   1      32.350  34.247  27.647  1.00  0.00    -0.352 N 
ATOM     29  C   UNL A   1      32.982  34.987  28.614  1.00  0.00     0.251 C 
ATOM     30  H   UNL A   1      31.662  34.728  27.134  1.00  0.00     0.163 HD
ATOM     31  O   UNL A   1      32.566  36.103  28.905  1.00  0.00    -0.269 OA
BRANCH  29  32
ATOM     32  C   UNL A   1      34.155  34.433  29.326  1.00  0.00     0.039 A 
ATOM     33  C   UNL A   1      33.954  33.786  30.548  1.00  0.00     0.014 A 
ATOM     34  C   UNL A   1      35.447  34.564  28.809  1.00  0.00     0.014 A 
ATOM     35  C   UNL A   1      35.039  33.225  31.223  1.00  0.00     0.010 A 
ATOM     36  C   UNL A   1      36.515  33.933  29.440  1.00  0.00     0.010 A 
ATOM     37  C   UNL A   1      36.325  33.264  30.658  1.00  0.00    -0.014 A 
BRANCH  37  38
ATOM     38  C   UNL A   1      37.479  32.615  31.332  1.00  0.00     0.031 A 
ATOM     39  C   UNL A   1      38.201  31.476  30.665  1.00  0.00     0.074 A 
ATOM     40  C   UNL A   1      37.838  33.012  32.567  1.00  0.00     0.049 A 
ATOM     41  N   UNL A   1      39.190  30.745  31.115  1.00  0.00    -0.248 NA
ATOM     42  C   UNL A   1      37.734  31.090  29.324  1.00  0.00     0.031 C 
ATOM     43  C   UNL A   1      37.188  34.075  33.334  1.00  0.00     0.029 A 
ATOM     44  N   UNL A   1      38.834  32.565  33.398  1.00  0.00    -0.354 N 
ATOM     45  C   UNL A   1      39.451  29.809  30.123  1.00  0.00     0.074 A 
ATOM     46  C   UNL A   1      38.481  30.026  29.071  1.00  0.00     0.031 C 
ATOM     47  C   UNL A   1      37.816  34.215  34.512  1.00  0.00     0.029 A 
ATOM     48  C   UNL A   1      38.884  33.225  34.602  1.00  0.00     0.049 A 
ATOM     49  H   UNL A   1      39.454  31.840  33.155  1.00  0.00     0.167 HD
ATOM     50  C   UNL A   1      40.428  28.872  30.081  1.00  0.00     0.037 A 
ATOM     51  C   UNL A   1      39.695  33.044  35.663  1.00  0.00     0.037 A 
ATOM     52  C   UNL A   1      41.403  28.674  31.122  1.00  0.00     0.049 A 
ATOM     53  C   UNL A   1      40.761  31.983  35.598  1.00  0.00     0.074 A 
ATOM     54  C   UNL A   1      42.466  27.790  31.152  1.00  0.00     0.029 A 
ATOM     55  N   UNL A   1      41.427  29.368  32.324  1.00  0.00    -0.354 N 
ATOM     56  N   UNL A   1      41.043  31.151  34.625  1.00  0.00    -0.248 NA
ATOM     57  C   UNL A   1      41.626  31.841  36.778  1.00  0.00     0.031 C 
ATOM     58  C   UNL A   1      43.099  27.907  32.394  1.00  0.00     0.029 A 
ATOM     59  C   UNL A   1      42.471  28.911  33.113  1.00  0.00     0.049 A 
ATOM     60  H   UNL A   1      40.797  30.080  32.578  1.00  0.00     0.167 HD
ATOM     61  C   UNL A   1      42.136  30.412  35.059  1.00  0.00     0.074 A 
ATOM     62  C   UNL A   1      42.473  30.903  36.379  1.00  0.00     0.031 C 
ATOM     63  C   UNL A   1      42.800  29.416  34.421  1.00  0.00     0.037 A 
BRANCH  50  64
ATOM     64  C   UNL A   1      40.491  27.984  28.870  1.00  0.00     0.064 A 
ATOM     65  C   UNL A   1      39.782  26.774  28.803  1.00  0.00     0.173 A 
ATOM     66  C   UNL A   1      41.241  28.364  27.747  1.00  0.00     0.173 A 
ATOM     67  F   UNL A   1      39.057  26.357  29.852  1.00  0.00    -0.203 F 
ATOM     68  C   UNL A   1      39.847  25.965  27.671  1.00  0.00     0.198 A 
ATOM     69  C   UNL A   1      41.276  27.570  26.603  1.00  0.00     0.198 A 
ATOM     70  F   UNL A   1      41.934  29.513  27.752  1.00  0.00    -0.203 F 
ATOM     71  F   UNL A   1      39.204  24.789  27.653  1.00  0.00    -0.200 F 
ATOM     72  C   UNL A   1      40.586  26.368  26.570  1.00  0.00     0.200 A 
ATOM     73  F   UNL A   1      41.978  27.969  25.534  1.00  0.00    -0.200 F 
ATOM     74  F   UNL A   1      40.641  25.593  25.478  1.00  0.00    -0.200 F 
ENDBRANCH  50  64
BRANCH  51  75
ATOM     75  C   UNL A   1      39.543  33.900  36.869  1.00  0.00     0.064 A 
ATOM     76  C   UNL A   1      38.782  33.475  37.966  1.00  0.00     0.173 A 
ATOM     77  C   UNL A   1      40.148  35.165  36.947  1.00  0.00     0.173 A 
ATOM     78  F   UNL A   1      38.168  32.283  37.932  1.00  0.00    -0.203 F 
ATOM     79  C   UNL A   1      38.610  34.288  39.084  1.00  0.00     0.198 A 
ATOM     80  C   UNL A   1      40.002  35.964  38.079  1.00  0.00     0.198 A 
ATOM     81  F   UNL A   1      40.893  35.618  35.928  1.00  0.00    -0.203 F 
ATOM     82  F   UNL A   1      37.834  33.878  40.097  1.00  0.00    -0.200 F 
ATOM     83  C   UNL A   1      39.225  35.530  39.142  1.00  0.00     0.200 A 
ATOM     84  F   UNL A   1      40.613  37.155  38.137  1.00  0.00    -0.200 F 
ATOM     85  F   UNL A   1      39.063  36.311  40.219  1.00  0.00    -0.200 F 
ENDBRANCH  51  75
BRANCH  63  86
ATOM     86  C   UNL A   1      43.988  28.821  35.122  1.00  0.00     0.064 A 
ATOM     87  C   UNL A   1      45.283  29.335  34.953  1.00  0.00     0.173 A 
ATOM     88  C   UNL A   1      43.821  27.747  36.010  1.00  0.00     0.173 A 
ATOM     89  F   UNL A   1      45.499  30.352  34.106  1.00  0.00    -0.203 F 
ATOM     90  C   UNL A   1      46.368  28.777  35.623  1.00  0.00     0.198 A 
ATOM     91  C   UNL A   1      44.902  27.214  36.705  1.00  0.00     0.198 A 
ATOM     92  F   UNL A   1      42.603  27.221  36.214  1.00  0.00    -0.203 F 
ATOM     93  F   UNL A   1      47.603  29.250  35.406  1.00  0.00    -0.200 F 
ATOM     94  C   UNL A   1      46.175  27.723  36.505  1.00  0.00     0.200 A 
ATOM     95  F   UNL A   1      44.711  26.207  37.569  1.00  0.00    -0.200 F 
ATOM     96  F   UNL A   1      47.221  27.194  37.157  1.00  0.00    -0.200 F 
ENDBRANCH  63  86
ENDBRANCH  37  38
ENDBRANCH  29  32
ENDBRANCH  27  28
ENDBRANCH  26  27
ENDBRANCH  25  26
ENDBRANCH   1  25
TORSDOF 17
ENDMDL
MODEL 3
REMARK VINA RESULT:     -11.8      5.529     11.046
REMARK SMILES CC(=O)N[C@@H](Cc1cc(Br)c(O)c(Br)c1)C(=O)NCCCCCCNC(=O)c1ccc(-c2c3nc(c(-c4c(F)c(F)c(F)c(F)c4F)c4ccc([nH]4)c(-c4c(F)c(F)c(F)c(F)c4F)c4nc(c(-c5c(F)c(F)c(F)c(F)c5F)c5ccc2[nH]5)C=C4)C=C3)cc1
REMARK SMILES IDX 21 1 20 2 19 3 18 4 16 5 17 6 5 8 4 9 1 10 2 11 3 12 6 14
REMARK SMILES IDX 7 15 8 16 15 17 9 18 13 19 10 20 11 21 14 22 12 23 22 25
REMARK SMILES IDX 23 26 24 27 25 28 26 29 27 31 28 32 29 33 90 34 30 35 89 36
REMARK SMILES IDX 31 37 32 38 33 39 83 40 34 41 88 42 82 43 84 44 35 45 87 46
REMARK SMILES IDX 81 47 80 48 36 50 68 51 48 52 67 53 49 54 52 55 66 56 85 57
REMARK SMILES IDX 50 58 51 59 65 61 86 62 53 63 37 64 38 65 46 66 39 67 40 68
REMARK SMILES IDX 44 69 47 70 41 71 42 72 45 73 43 74 69 75 70 76 78 77 71 78
REMARK SMILES IDX 72 79 76 80 79 81 73 82 74 83 77 84 75 85 54 86 55 87 63 88
REMARK SMILES IDX 56 89 57 90 61 91 64 92 58 93 59 94 62 95 60 96
REMARK H PARENT 18 7 4 13 12 24 25 30 84 49 52 60
REMARK Flexibility Score: inf
ROOT
ATOM      1  C   UNL A   1      32.407  30.025  25.605  1.00  0.00     0.002 C 
ENDROOT
BRANCH   1   2
ATOM      2  C   UNL A   1      31.802  29.333  24.380  1.00  0.00     0.021 C 
BRANCH   2   3
ATOM      3  C   UNL A   1      32.816  28.844  23.357  1.00  0.00     0.116 C 
BRANCH   3   4
ATOM      4  N   UNL A   1      32.239  28.096  22.261  1.00  0.00    -0.354 N 
ATOM      5  C   UNL A   1      31.949  26.767  22.155  1.00  0.00     0.242 C 
ATOM      6  O   UNL A   1      31.116  26.449  21.298  1.00  0.00    -0.273 OA
ATOM      7  H   UNL A   1      32.019  28.631  21.465  1.00  0.00     0.163 HD
BRANCH   5   8
ATOM      8  C   UNL A   1      32.503  25.686  23.117  1.00  0.00     0.175 C 
BRANCH   8   9
ATOM      9  N   UNL A   1      31.690  25.470  24.316  1.00  0.00    -0.344 N 
ATOM     10  C   UNL A   1      33.390  26.204  25.951  1.00  0.00     0.114 C 
ATOM     11  C   UNL A   1      31.982  25.810  25.603  1.00  0.00     0.217 C 
ATOM     12  O   UNL A   1      31.090  25.752  26.448  1.00  0.00    -0.275 OA
ATOM     13  H   UNL A   1      30.824  25.023  24.173  1.00  0.00     0.164 HD
ENDBRANCH   8   9
BRANCH   8  14
ATOM     14  C   UNL A   1      32.928  24.381  22.410  1.00  0.00     0.070 C 
BRANCH  14  15
ATOM     15  C   UNL A   1      33.655  23.343  23.233  1.00  0.00    -0.043 A 
ATOM     16  C   UNL A   1      34.927  23.600  23.762  1.00  0.00     0.023 A 
ATOM     17  C   UNL A   1      33.049  22.102  23.498  1.00  0.00     0.023 A 
ATOM     18  C   UNL A   1      35.550  22.660  24.589  1.00  0.00     0.061 A 
ATOM     19  C   UNL A   1      33.678  21.163  24.322  1.00  0.00     0.061 A 
ATOM     20  Br  UNL A   1      37.240  23.082  25.338  1.00  0.00    -0.047 Br
ATOM     21  C   UNL A   1      34.924  21.447  24.885  1.00  0.00     0.143 A 
ATOM     22  Br  UNL A   1      32.762  19.546  24.704  1.00  0.00    -0.047 Br
BRANCH  21  23
ATOM     23  O   UNL A   1      35.497  20.550  25.748  1.00  0.00    -0.506 OA
ATOM     24  H   UNL A   1      35.179  19.670  25.790  1.00  0.00     0.293 HD
ENDBRANCH  21  23
ENDBRANCH  14  15
ENDBRANCH   8  14
ENDBRANCH   5   8
ENDBRANCH   3   4
ENDBRANCH   2   3
ENDBRANCH   1   2
BRANCH   1  25
ATOM     25  C   UNL A   1      31.410  30.673  26.575  1.00  0.00     0.002 C 
BRANCH  25  26
ATOM     26  C   UNL A   1      31.401  32.203  26.603  1.00  0.00     0.021 C 
BRANCH  26  27
ATOM     27  C   UNL A   1      32.642  32.848  27.205  1.00  0.00     0.116 C 
BRANCH  27  28
ATOM     28  N   UNL A   1      32.410  34.220  27.620  1.00  0.00    -0.352 N 
ATOM     29  C   UNL A   1      33.005  34.943  28.623  1.00  0.00     0.251 C 
ATOM     30  H   UNL A   1      31.724  34.704  27.104  1.00  0.00     0.163 HD
ATOM     31  O   UNL A   1      32.562  36.042  28.936  1.00  0.00    -0.269 OA
BRANCH  29  32
ATOM     32  C   UNL A   1      34.172  34.389  29.346  1.00  0.00     0.039 A 
ATOM     33  C   UNL A   1      33.950  33.662  30.518  1.00  0.00     0.014 A 
ATOM     34  C   UNL A   1      35.475  34.598  28.888  1.00  0.00     0.014 A 
ATOM     35  C   UNL A   1      35.031  33.100  31.200  1.00  0.00     0.010 A 
ATOM     36  C   UNL A   1      36.543  33.969  29.521  1.00  0.00     0.010 A 
ATOM     37  C   UNL A   1      36.334  33.220  30.689  1.00  0.00    -0.014 A 
BRANCH  37  38
ATOM     38  C   UNL A   1      37.486  32.573  31.368  1.00  0.00     0.031 A 
ATOM     39  C   UNL A   1      38.202  31.424  30.713  1.00  0.00     0.074 A 
ATOM     40  C   UNL A   1      37.851  32.984  32.597  1.00  0.00     0.049 A 
ATOM     41  N   UNL A   1      39.188  30.692  31.169  1.00  0.00    -0.248 NA
ATOM     42  C   UNL A   1      37.729  31.024  29.378  1.00  0.00     0.031 C 
ATOM     43  C   UNL A   1      37.208  34.059  33.353  1.00  0.00     0.029 A 
ATOM     44  N   UNL A   1      38.847  32.542  33.431  1.00  0.00    -0.354 N 
ATOM     45  C   UNL A   1      39.442  29.744  30.187  1.00  0.00     0.074 A 
ATOM     46  C   UNL A   1      38.470  29.953  29.136  1.00  0.00     0.031 C 
ATOM     47  C   UNL A   1      37.840  34.210  34.527  1.00  0.00     0.029 A 
ATOM     48  C   UNL A   1      38.904  33.216  34.627  1.00  0.00     0.049 A 
ATOM     49  H   UNL A   1      39.463  31.811  33.195  1.00  0.00     0.167 HD
ATOM     50  C   UNL A   1      40.414  28.801  30.154  1.00  0.00     0.037 A 
ATOM     51  C   UNL A   1      39.717  33.044  35.688  1.00  0.00     0.037 A 
ATOM     52  C   UNL A   1      41.390  28.610  31.195  1.00  0.00     0.049 A 
ATOM     53  C   UNL A   1      40.777  31.976  35.632  1.00  0.00     0.074 A 
ATOM     54  C   UNL A   1      42.449  27.721  31.233  1.00  0.00     0.029 A 
ATOM     55  N   UNL A   1      41.421  29.319  32.388  1.00  0.00    -0.354 N 
ATOM     56  N   UNL A   1      41.053  31.132  34.669  1.00  0.00    -0.248 NA
ATOM     57  C   UNL A   1      41.644  31.844  36.812  1.00  0.00     0.031 C 
ATOM     58  C   UNL A   1      43.086  27.850  32.471  1.00  0.00     0.029 A 
ATOM     59  C   UNL A   1      42.465  28.866  33.180  1.00  0.00     0.049 A 
ATOM     60  H   UNL A   1      40.795  30.037  32.636  1.00  0.00     0.167 HD
ATOM     61  C   UNL A   1      42.143  30.393  35.109  1.00  0.00     0.074 A 
ATOM     62  C   UNL A   1      42.486  30.898  36.422  1.00  0.00     0.031 C 
ATOM     63  C   UNL A   1      42.800  29.386  34.482  1.00  0.00     0.037 A 
BRANCH  50  64
ATOM     64  C   UNL A   1      40.469  27.898  28.954  1.00  0.00     0.064 A 
ATOM     65  C   UNL A   1      41.266  28.200  27.838  1.00  0.00     0.173 A 
ATOM     66  C   UNL A   1      39.745  26.696  28.934  1.00  0.00     0.173 A 
ATOM     67  F   UNL A   1      41.970  29.341  27.801  1.00  0.00    -0.203 F 
ATOM     68  C   UNL A   1      41.309  27.350  26.736  1.00  0.00     0.198 A 
ATOM     69  C   UNL A   1      39.819  25.831  27.845  1.00  0.00     0.198 A 
ATOM     70  F   UNL A   1      38.972  26.353  29.975  1.00  0.00    -0.203 F 
ATOM     71  F   UNL A   1      42.034  27.687  25.661  1.00  0.00    -0.200 F 
ATOM     72  C   UNL A   1      40.593  26.163  26.744  1.00  0.00     0.200 A 
ATOM     73  F   UNL A   1      39.139  24.677  27.861  1.00  0.00    -0.200 F 
ATOM     74  F   UNL A   1      40.643  25.341  25.686  1.00  0.00    -0.200 F 
ENDBRANCH  50  64
BRANCH  51  75
ATOM     75  C   UNL A   1      39.572  33.915  36.883  1.00  0.00     0.064 A 
ATOM     76  C   UNL A   1      38.820  33.503  37.991  1.00  0.00     0.173 A 
ATOM     77  C   UNL A   1      40.176  35.181  36.941  1.00  0.00     0.173 A 
ATOM     78  F   UNL A   1      38.207  32.310  37.978  1.00  0.00    -0.203 F 
ATOM     79  C   UNL A   1      38.655  34.330  39.100  1.00  0.00     0.198 A 
ATOM     80  C   UNL A   1      40.037  35.995  38.064  1.00  0.00     0.198 A 
ATOM     81  F   UNL A   1      40.913  35.622  35.910  1.00  0.00    -0.203 F 
ATOM     82  F   UNL A   1      37.887  33.932  40.124  1.00  0.00    -0.200 F 
ATOM     83  C   UNL A   1      39.269  35.573  39.138  1.00  0.00     0.200 A 
ATOM     84  F   UNL A   1      40.647  37.187  38.102  1.00  0.00    -0.200 F 
ATOM     85  F   UNL A   1      39.113  36.369  40.206  1.00  0.00    -0.200 F 
ENDBRANCH  51  75
BRANCH  63  86
ATOM     86  C   UNL A   1      43.987  28.793  35.186  1.00  0.00     0.064 A 
ATOM     87  C   UNL A   1      43.861  27.706  36.065  1.00  0.00     0.173 A 
ATOM     88  C   UNL A   1      45.276  29.291  34.942  1.00  0.00     0.173 A 
ATOM     89  F   UNL A   1      42.649  27.200  36.342  1.00  0.00    -0.203 F 
ATOM     90  C   UNL A   1      44.976  27.162  36.696  1.00  0.00     0.198 A 
ATOM     91  C   UNL A   1      46.393  28.723  35.548  1.00  0.00     0.198 A 
ATOM     92  F   UNL A   1      45.455  30.324  34.105  1.00  0.00    -0.203 F 
ATOM     93  F   UNL A   1      44.825  26.159  37.572  1.00  0.00    -0.200 F 
ATOM     94  C   UNL A   1      46.241  27.664  36.430  1.00  0.00     0.200 A 
ATOM     95  F   UNL A   1      47.616  29.198  35.276  1.00  0.00    -0.200 F 
ATOM     96  F   UNL A   1      47.315  27.132  37.031  1.00  0.00    -0.200 F 
ENDBRANCH  63  86
ENDBRANCH  37  38
ENDBRANCH  29  32
ENDBRANCH  27  28
ENDBRANCH  26  27
ENDBRANCH  25  26
ENDBRANCH   1  25
TORSDOF 17
ENDMDL
