MODEL 1
REMARK VINA RESULT:     -11.7      0.000      0.000
REMARK SMILES C[C@H](/C=C/C(=O)NCCCCCCNC(=O)c1ccc(-c2c3nc(c(-c4c(F)c(F)c(F)c(F)c4F)c4ccc([nH]4)c(-c4c(F)c(F)c(F)c(F)c4F)c4nc(c(-c5c(F)c(F)c(F)c(F)c5F)c5ccc2[nH]5)C=C4)C=C3)cc1)n1cncn1
REMARK SMILES IDX 10 1 9 2 8 3 7 4 5 5 6 6 4 8 3 9 2 10 1 11 80 12 81 13 84 14
REMARK SMILES IDX 82 15 83 16 11 17 12 18 13 19 14 20 15 21 16 23 17 24 18 25
REMARK SMILES IDX 79 26 19 27 78 28 20 29 21 30 22 31 72 32 23 33 77 34 71 35
REMARK SMILES IDX 73 36 24 37 76 38 70 39 69 40 25 42 57 43 37 44 56 45 38 46
REMARK SMILES IDX 41 47 55 48 74 49 39 50 40 51 54 53 75 54 42 55 26 56 27 57
REMARK SMILES IDX 35 58 28 59 29 60 33 61 36 62 30 63 31 64 34 65 32 66 58 67
REMARK SMILES IDX 59 68 67 69 60 70 61 71 65 72 68 73 62 74 63 75 66 76 64 77
REMARK SMILES IDX 43 78 44 79 52 80 45 81 46 82 50 83 53 84 47 85 48 86 51 87
REMARK SMILES IDX 49 88
REMARK H PARENT 7 7 14 22 73 41 41 52
REMARK Flexibility Score: inf
ROOT
ATOM      1  C   UNL A   1      31.836  29.430  27.231  1.00  0.00     0.002 C 
ENDROOT
BRANCH   1   2
ATOM      2  C   UNL A   1      32.240  28.021  26.772  1.00  0.00     0.021 C 
BRANCH   2   3
ATOM      3  C   UNL A   1      31.334  27.461  25.674  1.00  0.00     0.116 C 
BRANCH   3   4
ATOM      4  N   UNL A   1      32.075  27.318  24.436  1.00  0.00    -0.353 N 
ATOM      5  C   UNL A   1      31.726  27.469  23.135  1.00  0.00     0.243 C 
ATOM      6  O   UNL A   1      32.583  27.315  22.267  1.00  0.00    -0.270 OA
ATOM      7  H   UNL A   1      33.017  27.063  24.567  1.00  0.00     0.163 HD
BRANCH   5   8
ATOM      8  C   UNL A   1      30.372  27.913  22.723  1.00  0.00     0.069 C 
ATOM      9  C   UNL A   1      29.878  29.159  22.766  1.00  0.00     0.005 C 
BRANCH   9  10
ATOM     10  C   UNL A   1      28.487  29.605  22.351  1.00  0.00     0.129 C 
ATOM     11  C   UNL A   1      27.316  28.922  23.065  1.00  0.00     0.038 C 
BRANCH  10  12
ATOM     12  N   UNL A   1      28.399  31.064  22.428  1.00  0.00    -0.246 N 
ATOM     13  C   UNL A   1      27.989  31.908  21.440  1.00  0.00     0.220 A 
ATOM     14  N   UNL A   1      28.894  31.754  23.474  1.00  0.00    -0.159 NA
ATOM     15  N   UNL A   1      28.199  33.151  21.808  1.00  0.00    -0.223 NA
ATOM     16  C   UNL A   1      28.749  33.011  23.051  1.00  0.00     0.246 A 
ENDBRANCH  10  12
ENDBRANCH   9  10
ENDBRANCH   5   8
ENDBRANCH   3   4
ENDBRANCH   2   3
ENDBRANCH   1   2
BRANCH   1  17
ATOM     17  C   UNL A   1      31.799  30.484  26.116  1.00  0.00     0.002 C 
BRANCH  17  18
ATOM     18  C   UNL A   1      31.539  31.916  26.590  1.00  0.00     0.021 C 
BRANCH  18  19
ATOM     19  C   UNL A   1      32.705  32.547  27.345  1.00  0.00     0.116 C 
BRANCH  19  20
ATOM     20  N   UNL A   1      32.478  33.962  27.598  1.00  0.00    -0.352 N 
ATOM     21  C   UNL A   1      33.039  34.783  28.543  1.00  0.00     0.251 C 
ATOM     22  H   UNL A   1      31.826  34.394  27.001  1.00  0.00     0.163 HD
ATOM     23  O   UNL A   1      32.554  35.884  28.773  1.00  0.00    -0.269 OA
BRANCH  21  24
ATOM     24  C   UNL A   1      34.225  34.329  29.299  1.00  0.00     0.039 A 
ATOM     25  C   UNL A   1      34.041  33.729  30.548  1.00  0.00     0.014 A 
ATOM     26  C   UNL A   1      35.513  34.500  28.783  1.00  0.00     0.014 A 
ATOM     27  C   UNL A   1      35.145  33.231  31.243  1.00  0.00     0.010 A 
ATOM     28  C   UNL A   1      36.604  33.946  29.447  1.00  0.00     0.010 A 
ATOM     29  C   UNL A   1      36.429  33.295  30.677  1.00  0.00    -0.014 A 
BRANCH  29  30
ATOM     30  C   UNL A   1      37.588  32.639  31.335  1.00  0.00     0.031 A 
ATOM     31  C   UNL A   1      38.271  31.466  30.690  1.00  0.00     0.074 A 
ATOM     32  C   UNL A   1      37.972  33.062  32.556  1.00  0.00     0.049 A 
ATOM     33  N   UNL A   1      39.247  30.726  31.152  1.00  0.00    -0.248 NA
ATOM     34  C   UNL A   1      37.782  31.056  29.365  1.00  0.00     0.031 C 
ATOM     35  C   UNL A   1      37.351  34.157  33.306  1.00  0.00     0.029 A 
ATOM     36  N   UNL A   1      38.963  32.611  33.393  1.00  0.00    -0.354 N 
ATOM     37  C   UNL A   1      39.480  29.758  30.183  1.00  0.00     0.074 A 
ATOM     38  C   UNL A   1      38.518  29.979  29.125  1.00  0.00     0.031 C 
ATOM     39  C   UNL A   1      37.982  34.301  34.481  1.00  0.00     0.029 A 
ATOM     40  C   UNL A   1      39.021  33.282  34.591  1.00  0.00     0.049 A 
ATOM     41  H   UNL A   1      39.575  31.877  33.157  1.00  0.00     0.167 HD
ATOM     42  C   UNL A   1      40.421  28.785  30.175  1.00  0.00     0.037 A 
ATOM     43  C   UNL A   1      39.808  33.085  35.666  1.00  0.00     0.037 A 
ATOM     44  C   UNL A   1      41.395  28.590  31.218  1.00  0.00     0.049 A 
ATOM     45  C   UNL A   1      40.836  31.985  35.627  1.00  0.00     0.074 A 
ATOM     46  C   UNL A   1      42.446  27.690  31.254  1.00  0.00     0.029 A 
ATOM     47  N   UNL A   1      41.430  29.295  32.410  1.00  0.00    -0.354 N 
ATOM     48  N   UNL A   1      41.109  31.141  34.663  1.00  0.00    -0.248 NA
ATOM     49  C   UNL A   1      41.666  31.812  36.828  1.00  0.00     0.031 C 
ATOM     50  C   UNL A   1      43.080  27.809  32.495  1.00  0.00     0.029 A 
ATOM     51  C   UNL A   1      42.461  28.823  33.207  1.00  0.00     0.049 A 
ATOM     52  H   UNL A   1      40.815  30.025  32.654  1.00  0.00     0.167 HD
ATOM     53  C   UNL A   1      42.152  30.354  35.130  1.00  0.00     0.074 A 
ATOM     54  C   UNL A   1      42.483  30.839  36.452  1.00  0.00     0.031 C 
ATOM     55  C   UNL A   1      42.778  29.317  34.522  1.00  0.00     0.037 A 
BRANCH  42  56
ATOM     56  C   UNL A   1      40.462  27.848  29.003  1.00  0.00     0.064 A 
ATOM     57  C   UNL A   1      39.691  26.677  28.971  1.00  0.00     0.173 A 
ATOM     58  C   UNL A   1      41.204  28.178  27.859  1.00  0.00     0.173 A 
ATOM     59  F   UNL A   1      38.970  26.314  30.041  1.00  0.00    -0.203 F 
ATOM     60  C   UNL A   1      39.668  25.867  27.838  1.00  0.00     0.198 A 
ATOM     61  C   UNL A   1      41.158  27.380  26.720  1.00  0.00     0.198 A 
ATOM     62  F   UNL A   1      41.953  29.292  27.836  1.00  0.00    -0.203 F 
ATOM     63  F   UNL A   1      38.943  24.740  27.837  1.00  0.00    -0.200 F 
ATOM     64  C   UNL A   1      40.392  26.225  26.711  1.00  0.00     0.200 A 
ATOM     65  F   UNL A   1      41.846  27.737  25.625  1.00  0.00    -0.200 F 
ATOM     66  F   UNL A   1      40.349  25.456  25.613  1.00  0.00    -0.200 F 
ENDBRANCH  42  56
BRANCH  43  67
ATOM     67  C   UNL A   1      39.651  33.932  36.879  1.00  0.00     0.064 A 
ATOM     68  C   UNL A   1      38.852  33.516  37.953  1.00  0.00     0.173 A 
ATOM     69  C   UNL A   1      40.260  35.192  36.972  1.00  0.00     0.173 A 
ATOM     70  F   UNL A   1      38.231  32.327  37.905  1.00  0.00    -0.203 F 
ATOM     71  C   UNL A   1      38.638  34.342  39.055  1.00  0.00     0.198 A 
ATOM     72  C   UNL A   1      40.074  36.003  38.090  1.00  0.00     0.198 A 
ATOM     73  F   UNL A   1      41.040  35.638  35.976  1.00  0.00    -0.203 F 
ATOM     74  F   UNL A   1      37.815  33.946  40.036  1.00  0.00    -0.200 F 
ATOM     75  C   UNL A   1      39.252  35.583  39.123  1.00  0.00     0.200 A 
ATOM     76  F   UNL A   1      40.682  37.194  38.158  1.00  0.00    -0.200 F 
ATOM     77  F   UNL A   1      39.040  36.380  40.180  1.00  0.00    -0.200 F 
ENDBRANCH  43  67
BRANCH  55  78
ATOM     78  C   UNL A   1      43.893  28.650  35.273  1.00  0.00     0.064 A 
ATOM     79  C   UNL A   1      45.221  29.081  35.149  1.00  0.00     0.173 A 
ATOM     80  C   UNL A   1      43.625  27.589  36.151  1.00  0.00     0.173 A 
ATOM     81  F   UNL A   1      45.532  30.079  34.309  1.00  0.00    -0.203 F 
ATOM     82  C   UNL A   1      46.245  28.459  35.859  1.00  0.00     0.198 A 
ATOM     83  C   UNL A   1      44.646  26.992  36.885  1.00  0.00     0.198 A 
ATOM     84  F   UNL A   1      42.371  27.142  36.311  1.00  0.00    -0.203 F 
ATOM     85  F   UNL A   1      47.514  28.854  35.685  1.00  0.00    -0.200 F 
ATOM     86  C   UNL A   1      45.955  27.420  36.732  1.00  0.00     0.200 A 
ATOM     87  F   UNL A   1      44.363  25.999  37.739  1.00  0.00    -0.200 F 
ATOM     88  F   UNL A   1      46.941  26.828  37.420  1.00  0.00    -0.200 F 
ENDBRANCH  55  78
ENDBRANCH  29  30
ENDBRANCH  21  24
ENDBRANCH  19  20
ENDBRANCH  18  19
ENDBRANCH  17  18
ENDBRANCH   1  17
TORSDOF 15
ENDMDL
MODEL 2
REMARK VINA RESULT:     -11.4      6.766     12.212
REMARK SMILES C[C@H](/C=C/C(=O)NCCCCCCNC(=O)c1ccc(-c2c3nc(c(-c4c(F)c(F)c(F)c(F)c4F)c4ccc([nH]4)c(-c4c(F)c(F)c(F)c(F)c4F)c4nc(c(-c5c(F)c(F)c(F)c(F)c5F)c5ccc2[nH]5)C=C4)C=C3)cc1)n1cncn1
REMARK SMILES IDX 10 1 9 2 8 3 7 4 5 5 6 6 4 8 3 9 2 10 1 11 80 12 81 13 84 14
REMARK SMILES IDX 82 15 83 16 11 17 12 18 13 19 14 20 15 21 16 23 17 24 18 25
REMARK SMILES IDX 79 26 19 27 78 28 20 29 21 30 22 31 72 32 23 33 77 34 71 35
REMARK SMILES IDX 73 36 24 37 76 38 70 39 69 40 25 42 57 43 37 44 56 45 38 46
REMARK SMILES IDX 41 47 55 48 74 49 39 50 40 51 54 53 75 54 42 55 26 56 27 57
REMARK SMILES IDX 35 58 28 59 29 60 33 61 36 62 30 63 31 64 34 65 32 66 58 67
REMARK SMILES IDX 59 68 67 69 60 70 61 71 65 72 68 73 62 74 63 75 66 76 64 77
REMARK SMILES IDX 43 78 44 79 52 80 45 81 46 82 50 83 53 84 47 85 48 86 51 87
REMARK SMILES IDX 49 88
REMARK H PARENT 7 7 14 22 73 41 41 52
REMARK Flexibility Score: inf
ROOT
ATOM      1  C   UNL A   1      45.498  21.174  25.674  1.00  0.00     0.002 C 
ENDROOT
BRANCH   1   2
ATOM      2  C   UNL A   1      46.342  22.440  25.472  1.00  0.00     0.021 C 
BRANCH   2   3
ATOM      3  C   UNL A   1      45.940  23.241  24.232  1.00  0.00     0.116 C 
BRANCH   3   4
ATOM      4  N   UNL A   1      47.065  24.021  23.752  1.00  0.00    -0.353 N 
ATOM      5  C   UNL A   1      47.522  25.259  24.062  1.00  0.00     0.243 C 
ATOM      6  O   UNL A   1      48.542  25.671  23.514  1.00  0.00    -0.270 OA
ATOM      7  H   UNL A   1      47.602  23.560  23.069  1.00  0.00     0.163 HD
BRANCH   5   8
ATOM      8  C   UNL A   1      46.895  26.095  25.115  1.00  0.00     0.069 C 
ATOM      9  C   UNL A   1      45.948  27.031  24.952  1.00  0.00     0.005 C 
BRANCH   9  10
ATOM     10  C   UNL A   1      45.317  27.890  26.033  1.00  0.00     0.129 C 
ATOM     11  C   UNL A   1      45.907  29.294  26.211  1.00  0.00     0.038 C 
BRANCH  10  12
ATOM     12  N   UNL A   1      43.867  27.926  25.845  1.00  0.00    -0.246 N 
ATOM     13  C   UNL A   1      43.100  26.975  25.239  1.00  0.00     0.220 A 
ATOM     14  N   UNL A   1      43.140  29.026  26.117  1.00  0.00    -0.159 NA
ATOM     15  N   UNL A   1      41.873  27.420  25.104  1.00  0.00    -0.223 NA
ATOM     16  C   UNL A   1      41.940  28.670  25.652  1.00  0.00     0.246 A 
ENDBRANCH  10  12
ENDBRANCH   9  10
ENDBRANCH   5   8
ENDBRANCH   3   4
ENDBRANCH   2   3
ENDBRANCH   1   2
BRANCH   1  17
ATOM     17  C   UNL A   1      45.654  20.114  24.575  1.00  0.00     0.002 C 
BRANCH  17  18
ATOM     18  C   UNL A   1      44.446  19.194  24.388  1.00  0.00     0.021 C 
BRANCH  18  19
ATOM     19  C   UNL A   1      43.756  18.795  25.689  1.00  0.00     0.116 C 
BRANCH  19  20
ATOM     20  N   UNL A   1      42.307  18.885  25.578  1.00  0.00    -0.352 N 
ATOM     21  C   UNL A   1      41.447  19.821  26.092  1.00  0.00     0.251 C 
ATOM     22  H   UNL A   1      41.883  18.167  25.056  1.00  0.00     0.163 HD
ATOM     23  O   UNL A   1      40.241  19.610  26.110  1.00  0.00    -0.269 OA
BRANCH  21  24
ATOM     24  C   UNL A   1      41.980  21.085  26.642  1.00  0.00     0.039 A 
ATOM     25  C   UNL A   1      42.207  22.157  25.775  1.00  0.00     0.014 A 
ATOM     26  C   UNL A   1      42.262  21.211  28.006  1.00  0.00     0.014 A 
ATOM     27  C   UNL A   1      42.642  23.380  26.290  1.00  0.00     0.010 A 
ATOM     28  C   UNL A   1      42.634  22.448  28.525  1.00  0.00     0.010 A 
ATOM     29  C   UNL A   1      42.815  23.548  27.673  1.00  0.00    -0.014 A 
BRANCH  29  30
ATOM     30  C   UNL A   1      43.134  24.880  28.249  1.00  0.00     0.031 A 
ATOM     31  C   UNL A   1      42.046  25.886  28.500  1.00  0.00     0.074 A 
ATOM     32  C   UNL A   1      44.423  25.204  28.471  1.00  0.00     0.049 A 
ATOM     33  N   UNL A   1      42.147  27.119  28.926  1.00  0.00    -0.248 NA
ATOM     34  C   UNL A   1      40.666  25.460  28.216  1.00  0.00     0.031 C 
ATOM     35  C   UNL A   1      45.571  24.330  28.216  1.00  0.00     0.029 A 
ATOM     36  N   UNL A   1      44.990  26.362  28.945  1.00  0.00    -0.354 N 
ATOM     37  C   UNL A   1      40.852  27.620  28.949  1.00  0.00     0.074 A 
ATOM     38  C   UNL A   1      39.984  26.571  28.457  1.00  0.00     0.031 C 
ATOM     39  C   UNL A   1      46.700  24.976  28.547  1.00  0.00     0.029 A 
ATOM     40  C   UNL A   1      46.363  26.324  28.994  1.00  0.00     0.049 A 
ATOM     41  H   UNL A   1      44.463  27.146  29.223  1.00  0.00     0.167 HD
ATOM     42  C   UNL A   1      40.428  28.838  29.358  1.00  0.00     0.037 A 
ATOM     43  C   UNL A   1      47.252  27.274  29.339  1.00  0.00     0.037 A 
ATOM     44  C   UNL A   1      41.294  29.867  29.875  1.00  0.00     0.049 A 
ATOM     45  C   UNL A   1      46.746  28.624  29.778  1.00  0.00     0.074 A 
ATOM     46  C   UNL A   1      40.945  31.099  30.401  1.00  0.00     0.029 A 
ATOM     47  N   UNL A   1      42.676  29.788  29.921  1.00  0.00    -0.354 N 
ATOM     48  N   UNL A   1      45.511  29.049  29.887  1.00  0.00    -0.248 NA
ATOM     49  C   UNL A   1      47.759  29.625  30.142  1.00  0.00     0.031 C 
ATOM     50  C   UNL A   1      42.121  31.791  30.708  1.00  0.00     0.029 A 
ATOM     51  C   UNL A   1      43.199  30.967  30.429  1.00  0.00     0.049 A 
ATOM     52  H   UNL A   1      43.208  29.010  29.637  1.00  0.00     0.167 HD
ATOM     53  C   UNL A   1      45.598  30.354  30.351  1.00  0.00     0.074 A 
ATOM     54  C   UNL A   1      47.004  30.642  30.530  1.00  0.00     0.031 C 
ATOM     55  C   UNL A   1      44.602  31.239  30.602  1.00  0.00     0.037 A 
BRANCH  42  56
ATOM     56  C   UNL A   1      38.960  29.144  29.275  1.00  0.00     0.064 A 
ATOM     57  C   UNL A   1      38.147  29.162  30.417  1.00  0.00     0.173 A 
ATOM     58  C   UNL A   1      38.386  29.523  28.052  1.00  0.00     0.173 A 
ATOM     59  F   UNL A   1      38.647  28.802  31.608  1.00  0.00    -0.203 F 
ATOM     60  C   UNL A   1      36.809  29.539  30.336  1.00  0.00     0.198 A 
ATOM     61  C   UNL A   1      37.055  29.925  27.980  1.00  0.00     0.198 A 
ATOM     62  F   UNL A   1      39.123  29.529  26.931  1.00  0.00    -0.203 F 
ATOM     63  F   UNL A   1      36.043  29.527  31.436  1.00  0.00    -0.200 F 
ATOM     64  C   UNL A   1      36.267  29.932  29.121  1.00  0.00     0.200 A 
ATOM     65  F   UNL A   1      36.538  30.319  26.807  1.00  0.00    -0.200 F 
ATOM     66  F   UNL A   1      34.986  30.318  29.050  1.00  0.00    -0.200 F 
ENDBRANCH  42  56
BRANCH  43  67
ATOM     67  C   UNL A   1      48.713  27.000  29.272  1.00  0.00     0.064 A 
ATOM     68  C   UNL A   1      49.463  27.345  28.139  1.00  0.00     0.173 A 
ATOM     69  C   UNL A   1      49.380  26.348  30.320  1.00  0.00     0.173 A 
ATOM     70  F   UNL A   1      48.867  27.951  27.101  1.00  0.00    -0.203 F 
ATOM     71  C   UNL A   1      50.813  27.015  28.041  1.00  0.00     0.198 A 
ATOM     72  C   UNL A   1      50.739  26.051  30.236  1.00  0.00     0.198 A 
ATOM     73  F   UNL A   1      48.713  26.001  31.430  1.00  0.00    -0.203 F 
ATOM     74  F   UNL A   1      51.488  27.296  26.918  1.00  0.00    -0.200 F 
ATOM     75  C   UNL A   1      51.450  26.371  29.090  1.00  0.00     0.200 A 
ATOM     76  F   UNL A   1      51.353  25.443  31.259  1.00  0.00    -0.200 F 
ATOM     77  F   UNL A   1      52.747  26.049  28.992  1.00  0.00    -0.200 F 
ENDBRANCH  43  67
BRANCH  55  78
ATOM     78  C   UNL A   1      44.998  32.594  31.110  1.00  0.00     0.064 A 
ATOM     79  C   UNL A   1      45.271  33.655  30.234  1.00  0.00     0.173 A 
ATOM     80  C   UNL A   1      45.070  32.845  32.488  1.00  0.00     0.173 A 
ATOM     81  F   UNL A   1      45.232  33.462  28.908  1.00  0.00    -0.203 F 
ATOM     82  C   UNL A   1      45.627  34.910  30.719  1.00  0.00     0.198 A 
ATOM     83  C   UNL A   1      45.394  34.110  32.970  1.00  0.00     0.198 A 
ATOM     84  F   UNL A   1      44.813  31.867  33.369  1.00  0.00    -0.203 F 
ATOM     85  F   UNL A   1      45.935  35.894  29.863  1.00  0.00    -0.200 F 
ATOM     86  C   UNL A   1      45.680  35.139  32.087  1.00  0.00     0.200 A 
ATOM     87  F   UNL A   1      45.430  34.333  34.292  1.00  0.00    -0.200 F 
ATOM     88  F   UNL A   1      46.015  36.350  32.551  1.00  0.00    -0.200 F 
ENDBRANCH  55  78
ENDBRANCH  29  30
ENDBRANCH  21  24
ENDBRANCH  19  20
ENDBRANCH  18  19
ENDBRANCH  17  18
ENDBRANCH   1  17
TORSDOF 15
ENDMDL
MODEL 3
REMARK VINA RESULT:     -11.4      0.849      7.533
REMARK SMILES C[C@H](/C=C/C(=O)NCCCCCCNC(=O)c1ccc(-c2c3nc(c(-c4c(F)c(F)c(F)c(F)c4F)c4ccc([nH]4)c(-c4c(F)c(F)c(F)c(F)c4F)c4nc(c(-c5c(F)c(F)c(F)c(F)c5F)c5ccc2[nH]5)C=C4)C=C3)cc1)n1cncn1
REMARK SMILES IDX 10 1 9 2 8 3 7 4 5 5 6 6 4 8 3 9 2 10 1 11 80 12 81 13 84 14
REMARK SMILES IDX 82 15 83 16 11 17 12 18 13 19 14 20 15 21 16 23 17 24 18 25
REMARK SMILES IDX 79 26 19 27 78 28 20 29 21 30 22 31 72 32 23 33 77 34 71 35
REMARK SMILES IDX 73 36 24 37 76 38 70 39 69 40 25 42 57 43 37 44 56 45 38 46
REMARK SMILES IDX 41 47 55 48 74 49 39 50 40 51 54 53 75 54 42 55 26 56 27 57
REMARK SMILES IDX 35 58 28 59 29 60 33 61 36 62 30 63 31 64 34 65 32 66 58 67
REMARK SMILES IDX 59 68 67 69 60 70 61 71 65 72 68 73 62 74 63 75 66 76 64 77
REMARK SMILES IDX 43 78 44 79 52 80 45 81 46 82 50 83 53 84 47 85 48 86 51 87
REMARK SMILES IDX 49 88
REMARK H PARENT 7 7 14 22 73 41 41 52
REMARK Flexibility Score: inf
ROOT
ATOM      1  C   UNL A   1      31.881  29.664  27.169  1.00  0.00     0.002 C 
ENDROOT
BRANCH   1   2
ATOM      2  C   UNL A   1      32.383  28.303  26.666  1.00  0.00     0.021 C 
BRANCH   2   3
ATOM      3  C   UNL A   1      31.445  27.654  25.645  1.00  0.00     0.116 C 
BRANCH   3   4
ATOM      4  N   UNL A   1      32.142  27.433  24.393  1.00  0.00    -0.353 N 
ATOM      5  C   UNL A   1      31.749  27.513  23.098  1.00  0.00     0.243 C 
ATOM      6  O   UNL A   1      32.575  27.300  22.212  1.00  0.00    -0.270 OA
ATOM      7  H   UNL A   1      33.085  27.176  24.506  1.00  0.00     0.163 HD
BRANCH   5   8
ATOM      8  C   UNL A   1      30.386  27.947  22.707  1.00  0.00     0.069 C 
ATOM      9  C   UNL A   1      29.906  29.199  22.690  1.00  0.00     0.005 C 
BRANCH   9  10
ATOM     10  C   UNL A   1      28.506  29.636  22.298  1.00  0.00     0.129 C 
ATOM     11  C   UNL A   1      27.351  28.936  23.023  1.00  0.00     0.038 C 
BRANCH  10  12
ATOM     12  N   UNL A   1      28.406  31.093  22.387  1.00  0.00    -0.246 N 
ATOM     13  C   UNL A   1      28.027  31.946  21.394  1.00  0.00     0.220 A 
ATOM     14  N   UNL A   1      28.857  31.774  23.458  1.00  0.00    -0.159 NA
ATOM     15  N   UNL A   1      28.215  33.185  21.783  1.00  0.00    -0.223 NA
ATOM     16  C   UNL A   1      28.719  33.036  23.044  1.00  0.00     0.246 A 
ENDBRANCH  10  12
ENDBRANCH   9  10
ENDBRANCH   5   8
ENDBRANCH   3   4
ENDBRANCH   2   3
ENDBRANCH   1   2
BRANCH   1  17
ATOM     17  C   UNL A   1      31.605  30.696  26.067  1.00  0.00     0.002 C 
BRANCH  17  18
ATOM     18  C   UNL A   1      31.409  32.132  26.561  1.00  0.00     0.021 C 
BRANCH  18  19
ATOM     19  C   UNL A   1      32.614  32.710  27.297  1.00  0.00     0.116 C 
BRANCH  19  20
ATOM     20  N   UNL A   1      32.420  34.114  27.625  1.00  0.00    -0.352 N 
ATOM     21  C   UNL A   1      33.019  34.877  28.595  1.00  0.00     0.251 C 
ATOM     22  H   UNL A   1      31.761  34.586  27.067  1.00  0.00     0.163 HD
ATOM     23  O   UNL A   1      32.560  35.973  28.892  1.00  0.00    -0.269 OA
BRANCH  21  24
ATOM     24  C   UNL A   1      34.214  34.365  29.298  1.00  0.00     0.039 A 
ATOM     25  C   UNL A   1      34.052  33.730  30.532  1.00  0.00     0.014 A 
ATOM     26  C   UNL A   1      35.490  34.517  28.746  1.00  0.00     0.014 A 
ATOM     27  C   UNL A   1      35.162  33.179  31.175  1.00  0.00     0.010 A 
ATOM     28  C   UNL A   1      36.585  33.911  29.356  1.00  0.00     0.010 A 
ATOM     29  C   UNL A   1      36.429  33.225  30.570  1.00  0.00    -0.014 A 
BRANCH  29  30
ATOM     30  C   UNL A   1      37.589  32.516  31.169  1.00  0.00     0.031 A 
ATOM     31  C   UNL A   1      38.287  33.074  32.377  1.00  0.00     0.074 A 
ATOM     32  C   UNL A   1      38.058  31.405  30.566  1.00  0.00     0.049 A 
ATOM     33  N   UNL A   1      39.357  32.632  32.988  1.00  0.00    -0.248 NA
ATOM     34  C   UNL A   1      37.725  34.300  32.965  1.00  0.00     0.031 C 
ATOM     35  C   UNL A   1      37.496  30.798  29.357  1.00  0.00     0.029 A 
ATOM     36  N   UNL A   1      39.123  30.596  30.877  1.00  0.00    -0.354 N 
ATOM     37  C   UNL A   1      39.603  33.528  34.019  1.00  0.00     0.074 A 
ATOM     38  C   UNL A   1      38.594  34.562  33.931  1.00  0.00     0.031 C 
ATOM     39  C   UNL A   1      38.212  29.709  29.036  1.00  0.00     0.029 A 
ATOM     40  C   UNL A   1      39.310  29.564  29.987  1.00  0.00     0.049 A 
ATOM     41  H   UNL A   1      39.700  30.741  31.661  1.00  0.00     0.167 HD
ATOM     42  C   UNL A   1      40.573  33.481  34.962  1.00  0.00     0.037 A 
ATOM     43  C   UNL A   1      40.269  28.621  29.931  1.00  0.00     0.037 A 
ATOM     44  C   UNL A   1      41.556  32.433  35.062  1.00  0.00     0.049 A 
ATOM     45  C   UNL A   1      41.341  28.606  30.989  1.00  0.00     0.074 A 
ATOM     46  C   UNL A   1      42.521  32.250  36.038  1.00  0.00     0.029 A 
ATOM     47  N   UNL A   1      41.707  31.399  34.151  1.00  0.00    -0.354 N 
ATOM     48  N   UNL A   1      41.502  29.404  32.016  1.00  0.00    -0.248 NA
ATOM     49  C   UNL A   1      42.365  27.557  30.879  1.00  0.00     0.031 C 
ATOM     50  C   UNL A   1      43.295  31.140  35.684  1.00  0.00     0.029 A 
ATOM     51  C   UNL A   1      42.775  30.598  34.520  1.00  0.00     0.049 A 
ATOM     52  H   UNL A   1      41.138  31.254  33.361  1.00  0.00     0.167 HD
ATOM     53  C   UNL A   1      42.627  28.942  32.684  1.00  0.00     0.074 A 
ATOM     54  C   UNL A   1      43.093  27.777  31.963  1.00  0.00     0.031 C 
ATOM     55  C   UNL A   1      43.227  29.440  33.792  1.00  0.00     0.037 A 
BRANCH  42  56
ATOM     56  C   UNL A   1      40.634  34.587  35.975  1.00  0.00     0.064 A 
ATOM     57  C   UNL A   1      39.809  34.592  37.108  1.00  0.00     0.173 A 
ATOM     58  C   UNL A   1      41.599  35.599  35.859  1.00  0.00     0.173 A 
ATOM     59  F   UNL A   1      38.866  33.651  37.262  1.00  0.00    -0.203 F 
ATOM     60  C   UNL A   1      39.942  35.575  38.086  1.00  0.00     0.198 A 
ATOM     61  C   UNL A   1      41.748  36.564  36.851  1.00  0.00     0.198 A 
ATOM     62  F   UNL A   1      42.418  35.635  34.797  1.00  0.00    -0.203 F 
ATOM     63  F   UNL A   1      39.128  35.574  39.151  1.00  0.00    -0.200 F 
ATOM     64  C   UNL A   1      40.918  36.552  37.963  1.00  0.00     0.200 A 
ATOM     65  F   UNL A   1      42.703  37.498  36.738  1.00  0.00    -0.200 F 
ATOM     66  F   UNL A   1      41.061  37.483  38.917  1.00  0.00    -0.200 F 
ENDBRANCH  42  56
BRANCH  43  67
ATOM     67  C   UNL A   1      40.278  27.620  28.830  1.00  0.00     0.064 A 
ATOM     68  C   UNL A   1      40.976  27.861  27.639  1.00  0.00     0.173 A 
ATOM     69  C   UNL A   1      39.553  26.423  28.929  1.00  0.00     0.173 A 
ATOM     70  F   UNL A   1      41.668  29.001  27.487  1.00  0.00    -0.203 F 
ATOM     71  C   UNL A   1      40.919  26.962  26.575  1.00  0.00     0.198 A 
ATOM     72  C   UNL A   1      39.525  25.508  27.878  1.00  0.00     0.198 A 
ATOM     73  F   UNL A   1      38.871  26.139  30.048  1.00  0.00    -0.203 F 
ATOM     74  F   UNL A   1      41.540  27.251  25.424  1.00  0.00    -0.200 F 
ATOM     75  C   UNL A   1      40.196  25.785  26.698  1.00  0.00     0.200 A 
ATOM     76  F   UNL A   1      38.839  24.365  28.007  1.00  0.00    -0.200 F 
ATOM     77  F   UNL A   1      40.136  24.924  25.672  1.00  0.00    -0.200 F 
ENDBRANCH  43  67
BRANCH  55  78
ATOM     78  C   UNL A   1      44.440  28.720  34.302  1.00  0.00     0.064 A 
ATOM     79  C   UNL A   1      45.734  29.099  33.915  1.00  0.00     0.173 A 
ATOM     80  C   UNL A   1      44.311  27.661  35.213  1.00  0.00     0.173 A 
ATOM     81  F   UNL A   1      45.911  30.094  33.033  1.00  0.00    -0.203 F 
ATOM     82  C   UNL A   1      46.853  28.429  34.403  1.00  0.00     0.198 A 
ATOM     83  C   UNL A   1      45.433  27.015  35.724  1.00  0.00     0.198 A 
ATOM     84  F   UNL A   1      43.097  27.262  35.619  1.00  0.00    -0.203 F 
ATOM     85  F   UNL A   1      48.076  28.775  33.979  1.00  0.00    -0.200 F 
ATOM     86  C   UNL A   1      46.701  27.393  35.313  1.00  0.00     0.200 A 
ATOM     87  F   UNL A   1      45.285  26.024  36.615  1.00  0.00    -0.200 F 
ATOM     88  F   UNL A   1      47.779  26.754  35.787  1.00  0.00    -0.200 F 
ENDBRANCH  55  78
ENDBRANCH  29  30
ENDBRANCH  21  24
ENDBRANCH  19  20
ENDBRANCH  18  19
ENDBRANCH  17  18
ENDBRANCH   1  17
TORSDOF 15
ENDMDL
