MODEL 1
REMARK VINA RESULT:     -11.3      0.000      0.000
REMARK SMILES O=C(COc1ccccc1/C=N/N1[C@@H](S)N=N[C@H]1[C@@H]1C=C(c2ccccc2)N=N1)NCCCCCCNC(=O)c1ccc(-c2c3nc(c(-c4c(F)c(F)c(F)c(F)c4F)c4ccc([nH]4)c(-c4c(F)c(F)c(F)c(F)c4F)c4nc(c(-c5c(F)c(F)c(F)c(F)c5F)c5ccc2[nH]5)C=C4)C=C3)cc1
REMARK SMILES IDX 31 1 30 2 1 3 2 4 3 6 4 7 5 8 6 9 10 10 7 11 9 12 8 13 11 14
REMARK SMILES IDX 12 15 13 16 14 17 18 18 16 19 17 20 15 21 19 23 20 24 29 25
REMARK SMILES IDX 21 26 28 27 22 28 23 29 27 30 24 31 26 32 25 33 32 34 33 35
REMARK SMILES IDX 34 36 35 37 36 38 37 39 38 40 39 42 40 43 41 44 102 45 42 46
REMARK SMILES IDX 101 47 43 48 44 49 45 50 95 51 46 52 100 53 94 54 96 55
REMARK SMILES IDX 47 56 99 57 93 58 92 59 48 61 80 62 60 63 79 64 61 65 64 66
REMARK SMILES IDX 78 67 97 68 62 69 63 70 77 72 98 73 65 74 49 75 50 76 58 77
REMARK SMILES IDX 51 78 52 79 56 80 59 81 53 82 54 83 57 84 55 85 81 86 82 87
REMARK SMILES IDX 90 88 83 89 84 90 88 91 91 92 85 93 86 94 89 95 87 96 66 97
REMARK SMILES IDX 67 98 75 99 68 100 69 101 73 102 76 103 70 104 71 105 74 106
REMARK SMILES IDX 72 107
REMARK H PARENT 30 5 15 22 37 41 96 60 64 71
REMARK Flexibility Score: inf
ROOT
ATOM      1  C   UNL A   1      41.635  24.600  35.784  1.00  0.00     0.116 C 
ENDROOT
BRANCH   1   2
ATOM      2  N   UNL A   1      41.148  25.953  35.268  1.00  0.00    -0.353 N 
ATOM      3  O   UNL A   1      41.291  27.462  37.002  1.00  0.00    -0.271 OA
ATOM      4  C   UNL A   1      41.218  27.223  35.813  1.00  0.00     0.257 C 
ATOM      5  H   UNL A   1      40.705  25.915  34.390  1.00  0.00     0.163 HD
BRANCH   4   6
ATOM      6  C   UNL A   1      41.260  28.570  35.112  1.00  0.00     0.329 C 
BRANCH   6   7
ATOM      7  O   UNL A   1      40.496  28.893  34.020  1.00  0.00    -0.483 OA
BRANCH   7   8
ATOM      8  C   UNL A   1      41.144  29.439  32.957  1.00  0.00     0.128 A 
ATOM      9  C   UNL A   1      42.360  28.739  32.878  1.00  0.00     0.047 A 
ATOM     10  C   UNL A   1      40.820  30.533  32.097  1.00  0.00     0.037 A 
ATOM     11  C   UNL A   1      43.327  29.119  31.982  1.00  0.00     0.004 A 
ATOM     12  C   UNL A   1      41.831  30.911  31.207  1.00  0.00     0.013 A 
ATOM     13  C   UNL A   1      43.065  30.208  31.156  1.00  0.00     0.001 A 
BRANCH  10  14
ATOM     14  C   UNL A   1      39.450  31.263  32.107  1.00  0.00     0.145 C 
ATOM     15  N   UNL A   1      39.250  32.569  32.018  1.00  0.00    -0.180 NA
BRANCH  15  16
ATOM     16  N   UNL A   1      37.967  33.023  32.561  1.00  0.00    -0.233 NA
ATOM     17  C   UNL A   1      37.610  32.507  33.894  1.00  0.00     0.298 C 
ATOM     18  C   UNL A   1      36.527  32.736  31.861  1.00  0.00     0.274 C 
ATOM     19  N   UNL A   1      36.156  32.715  34.100  1.00  0.00    -0.153 NA
ATOM     20  N   UNL A   1      35.559  32.871  33.003  1.00  0.00    -0.161 NA
BRANCH  17  21
ATOM     21  S   UNL A   1      38.705  33.208  35.170  1.00  0.00    -0.128 SA
ATOM     22  H   UNL A   1      38.397  34.519  35.361  1.00  0.00     0.106 HD
ENDBRANCH  17  21
BRANCH  18  23
ATOM     23  C   UNL A   1      35.555  33.344  30.421  1.00  0.00     0.202 C 
ATOM     24  C   UNL A   1      34.400  32.618  29.705  1.00  0.00     0.037 C 
ATOM     25  N   UNL A   1      36.360  33.694  29.171  1.00  0.00    -0.177 NA
ATOM     26  C   UNL A   1      34.714  32.402  28.417  1.00  0.00     0.091 C 
ATOM     27  N   UNL A   1      35.871  33.106  28.122  1.00  0.00    -0.155 NA
BRANCH  26  28
ATOM     28  C   UNL A   1      34.149  31.205  27.621  1.00  0.00     0.002 A 
ATOM     29  C   UNL A   1      34.849  29.986  27.494  1.00  0.00     0.010 A 
ATOM     30  C   UNL A   1      32.799  31.136  27.208  1.00  0.00     0.010 A 
ATOM     31  C   UNL A   1      34.202  28.754  27.222  1.00  0.00     0.001 A 
ATOM     32  C   UNL A   1      32.154  29.919  26.880  1.00  0.00     0.001 A 
ATOM     33  C   UNL A   1      32.844  28.716  26.939  1.00  0.00     0.000 A 
ENDBRANCH  26  28
ENDBRANCH  18  23
ENDBRANCH  15  16
ENDBRANCH  10  14
ENDBRANCH   7   8
ENDBRANCH   6   7
ENDBRANCH   4   6
ENDBRANCH   1   2
BRANCH   1  34
ATOM     34  C   UNL A   1      43.072  23.958  35.736  1.00  0.00     0.021 C 
BRANCH  34  35
ATOM     35  C   UNL A   1      43.465  23.078  34.540  1.00  0.00     0.002 C 
BRANCH  35  36
ATOM     36  C   UNL A   1      44.707  22.222  34.752  1.00  0.00     0.002 C 
BRANCH  36  37
ATOM     37  C   UNL A   1      45.293  22.235  36.170  1.00  0.00     0.021 C 
BRANCH  37  38
ATOM     38  C   UNL A   1      46.718  22.767  36.254  1.00  0.00     0.116 C 
BRANCH  38  39
ATOM     39  N   UNL A   1      46.770  24.099  36.856  1.00  0.00    -0.352 N 
ATOM     40  C   UNL A   1      46.932  25.318  36.228  1.00  0.00     0.251 C 
ATOM     41  H   UNL A   1      46.677  24.129  37.835  1.00  0.00     0.163 HD
ATOM     42  O   UNL A   1      47.334  26.295  36.828  1.00  0.00    -0.269 OA
BRANCH  40  43
ATOM     43  C   UNL A   1      46.559  25.415  34.808  1.00  0.00     0.039 A 
ATOM     44  C   UNL A   1      45.457  26.167  34.392  1.00  0.00     0.014 A 
ATOM     45  C   UNL A   1      47.341  24.710  33.897  1.00  0.00     0.014 A 
ATOM     46  C   UNL A   1      45.171  26.223  33.033  1.00  0.00     0.010 A 
ATOM     47  C   UNL A   1      47.168  24.908  32.559  1.00  0.00     0.010 A 
ATOM     48  C   UNL A   1      46.034  25.583  32.130  1.00  0.00    -0.014 A 
BRANCH  48  49
ATOM     49  C   UNL A   1      45.828  25.669  30.698  1.00  0.00     0.031 A 
ATOM     50  C   UNL A   1      46.828  26.509  29.998  1.00  0.00     0.074 A 
ATOM     51  C   UNL A   1      44.954  24.867  30.054  1.00  0.00     0.049 A 
ATOM     52  N   UNL A   1      46.627  27.645  29.418  1.00  0.00    -0.248 NA
ATOM     53  C   UNL A   1      48.248  26.130  30.091  1.00  0.00     0.031 C 
ATOM     54  C   UNL A   1      44.140  23.770  30.590  1.00  0.00     0.029 A 
ATOM     55  N   UNL A   1      44.691  24.808  28.724  1.00  0.00    -0.354 N 
ATOM     56  C   UNL A   1      47.855  28.024  28.888  1.00  0.00     0.074 A 
ATOM     57  C   UNL A   1      48.838  27.172  29.502  1.00  0.00     0.031 C 
ATOM     58  C   UNL A   1      43.668  23.016  29.572  1.00  0.00     0.029 A 
ATOM     59  C   UNL A   1      44.006  23.666  28.322  1.00  0.00     0.049 A 
ATOM     60  H   UNL A   1      44.962  25.516  28.096  1.00  0.00     0.167 HD
ATOM     61  C   UNL A   1      47.914  28.829  27.791  1.00  0.00     0.037 A 
ATOM     62  C   UNL A   1      43.809  23.281  27.036  1.00  0.00     0.037 A 
ATOM     63  C   UNL A   1      46.649  29.492  27.571  1.00  0.00     0.049 A 
ATOM     64  C   UNL A   1      43.977  24.499  26.192  1.00  0.00     0.074 A 
ATOM     65  C   UNL A   1      45.861  30.333  28.334  1.00  0.00     0.029 A 
ATOM     66  N   UNL A   1      45.816  28.989  26.600  1.00  0.00    -0.354 N 
ATOM     67  N   UNL A   1      43.167  25.525  26.248  1.00  0.00    -0.248 NA
ATOM     68  C   UNL A   1      45.319  24.789  25.702  1.00  0.00     0.031 C 
ATOM     69  C   UNL A   1      44.525  29.879  28.116  1.00  0.00     0.029 A 
ATOM     70  C   UNL A   1      44.570  28.860  27.164  1.00  0.00     0.049 A 
ATOM     71  H   UNL A   1      46.063  28.766  25.674  1.00  0.00     0.167 HD
ATOM     72  C   UNL A   1      43.998  26.637  26.215  1.00  0.00     0.074 A 
ATOM     73  C   UNL A   1      45.311  26.120  25.830  1.00  0.00     0.031 C 
ATOM     74  C   UNL A   1      43.636  27.818  26.799  1.00  0.00     0.037 A 
BRANCH  61  75
ATOM     75  C   UNL A   1      48.957  28.714  26.705  1.00  0.00     0.064 A 
ATOM     76  C   UNL A   1      49.094  27.487  26.024  1.00  0.00     0.173 A 
ATOM     77  C   UNL A   1      50.015  29.631  26.519  1.00  0.00     0.173 A 
ATOM     78  F   UNL A   1      48.153  26.537  26.132  1.00  0.00    -0.203 F 
ATOM     79  C   UNL A   1      50.246  27.167  25.302  1.00  0.00     0.198 A 
ATOM     80  C   UNL A   1      51.138  29.329  25.751  1.00  0.00     0.198 A 
ATOM     81  F   UNL A   1      50.069  30.806  27.153  1.00  0.00    -0.203 F 
ATOM     82  F   UNL A   1      50.389  25.938  24.790  1.00  0.00    -0.200 F 
ATOM     83  C   UNL A   1      51.272  28.086  25.174  1.00  0.00     0.200 A 
ATOM     84  F   UNL A   1      52.127  30.229  25.652  1.00  0.00    -0.200 F 
ATOM     85  F   UNL A   1      52.405  27.758  24.541  1.00  0.00    -0.200 F 
ENDBRANCH  61  75
BRANCH  62  86
ATOM     86  C   UNL A   1      43.888  21.898  26.498  1.00  0.00     0.064 A 
ATOM     87  C   UNL A   1      42.765  21.055  26.478  1.00  0.00     0.173 A 
ATOM     88  C   UNL A   1      45.003  21.463  25.751  1.00  0.00     0.173 A 
ATOM     89  F   UNL A   1      41.643  21.415  27.117  1.00  0.00    -0.203 F 
ATOM     90  C   UNL A   1      42.755  19.859  25.748  1.00  0.00     0.198 A 
ATOM     91  C   UNL A   1      44.994  20.268  25.027  1.00  0.00     0.198 A 
ATOM     92  F   UNL A   1      46.094  22.232  25.630  1.00  0.00    -0.203 F 
ATOM     93  F   UNL A   1      41.646  19.107  25.710  1.00  0.00    -0.200 F 
ATOM     94  C   UNL A   1      43.866  19.471  25.017  1.00  0.00     0.200 A 
ATOM     95  F   UNL A   1      46.064  19.928  24.296  1.00  0.00    -0.200 F 
ATOM     96  F   UNL A   1      43.838  18.356  24.275  1.00  0.00    -0.200 F 
ENDBRANCH  62  86
BRANCH  74  97
ATOM     97  C   UNL A   1      42.228  27.970  27.309  1.00  0.00     0.064 A 
ATOM     98  C   UNL A   1      41.826  27.664  28.623  1.00  0.00     0.173 A 
ATOM     99  C   UNL A   1      41.294  28.622  26.492  1.00  0.00     0.173 A 
ATOM    100  F   UNL A   1      42.685  27.137  29.502  1.00  0.00    -0.203 F 
ATOM    101  C   UNL A   1      40.542  27.965  29.079  1.00  0.00     0.198 A 
ATOM    102  C   UNL A   1      40.026  28.953  26.961  1.00  0.00     0.198 A 
ATOM    103  F   UNL A   1      41.636  28.993  25.249  1.00  0.00    -0.203 F 
ATOM    104  F   UNL A   1      40.187  27.660  30.336  1.00  0.00    -0.200 F 
ATOM    105  C   UNL A   1      39.646  28.618  28.250  1.00  0.00     0.200 A 
ATOM    106  F   UNL A   1      39.182  29.631  26.172  1.00  0.00    -0.200 F 
ATOM    107  F   UNL A   1      38.428  28.949  28.702  1.00  0.00    -0.200 F 
ENDBRANCH  74  97
ENDBRANCH  48  49
ENDBRANCH  40  43
ENDBRANCH  38  39
ENDBRANCH  37  38
ENDBRANCH  36  37
ENDBRANCH  35  36
ENDBRANCH  34  35
ENDBRANCH   1  34
TORSDOF 20
ENDMDL
MODEL 2
REMARK VINA RESULT:     -11.3      1.295      2.059
REMARK SMILES O=C(COc1ccccc1/C=N/N1[C@@H](S)N=N[C@H]1[C@@H]1C=C(c2ccccc2)N=N1)NCCCCCCNC(=O)c1ccc(-c2c3nc(c(-c4c(F)c(F)c(F)c(F)c4F)c4ccc([nH]4)c(-c4c(F)c(F)c(F)c(F)c4F)c4nc(c(-c5c(F)c(F)c(F)c(F)c5F)c5ccc2[nH]5)C=C4)C=C3)cc1
REMARK SMILES IDX 31 1 30 2 1 3 2 4 3 6 4 7 5 8 6 9 10 10 7 11 9 12 8 13 11 14
REMARK SMILES IDX 12 15 13 16 14 17 18 18 16 19 17 20 15 21 19 23 20 24 29 25
REMARK SMILES IDX 21 26 28 27 22 28 23 29 27 30 24 31 26 32 25 33 32 34 33 35
REMARK SMILES IDX 34 36 35 37 36 38 37 39 38 40 39 42 40 43 41 44 102 45 42 46
REMARK SMILES IDX 101 47 43 48 44 49 45 50 95 51 46 52 100 53 94 54 96 55
REMARK SMILES IDX 47 56 99 57 93 58 92 59 48 61 80 62 60 63 79 64 61 65 64 66
REMARK SMILES IDX 78 67 97 68 62 69 63 70 77 72 98 73 65 74 49 75 50 76 58 77
REMARK SMILES IDX 51 78 52 79 56 80 59 81 53 82 54 83 57 84 55 85 81 86 82 87
REMARK SMILES IDX 90 88 83 89 84 90 88 91 91 92 85 93 86 94 89 95 87 96 66 97
REMARK SMILES IDX 67 98 75 99 68 100 69 101 73 102 76 103 70 104 71 105 74 106
REMARK SMILES IDX 72 107
REMARK H PARENT 30 5 15 22 37 41 96 60 64 71
REMARK Flexibility Score: inf
ROOT
ATOM      1  C   UNL A   1      41.528  24.410  35.599  1.00  0.00     0.116 C 
ENDROOT
BRANCH   1   2
ATOM      2  N   UNL A   1      41.153  25.882  35.763  1.00  0.00    -0.353 N 
ATOM      3  O   UNL A   1      42.846  26.914  36.934  1.00  0.00    -0.271 OA
ATOM      4  C   UNL A   1      41.887  26.974  36.190  1.00  0.00     0.257 C 
ATOM      5  H   UNL A   1      40.223  26.091  35.520  1.00  0.00     0.163 HD
BRANCH   4   6
ATOM      6  C   UNL A   1      41.723  28.442  35.835  1.00  0.00     0.329 C 
BRANCH   6   7
ATOM      7  O   UNL A   1      40.648  28.953  35.155  1.00  0.00    -0.483 OA
BRANCH   7   8
ATOM      8  C   UNL A   1      40.906  29.565  33.969  1.00  0.00     0.128 A 
ATOM      9  C   UNL A   1      41.882  28.762  33.355  1.00  0.00     0.047 A 
ATOM     10  C   UNL A   1      40.436  30.788  33.400  1.00  0.00     0.037 A 
ATOM     11  C   UNL A   1      42.471  29.155  32.180  1.00  0.00     0.004 A 
ATOM     12  C   UNL A   1      41.067  31.175  32.214  1.00  0.00     0.013 A 
ATOM     13  C   UNL A   1      42.070  30.363  31.617  1.00  0.00     0.001 A 
BRANCH  10  14
ATOM     14  C   UNL A   1      39.297  31.645  34.016  1.00  0.00     0.145 C 
ATOM     15  N   UNL A   1      39.252  32.967  34.085  1.00  0.00    -0.180 NA
BRANCH  15  16
ATOM     16  N   UNL A   1      38.372  33.488  35.133  1.00  0.00    -0.233 NA
ATOM     17  C   UNL A   1      38.645  33.015  36.501  1.00  0.00     0.298 C 
ATOM     18  C   UNL A   1      36.763  33.253  35.175  1.00  0.00     0.274 C 
ATOM     19  N   UNL A   1      37.453  33.291  37.338  1.00  0.00    -0.153 NA
ATOM     20  N   UNL A   1      36.426  33.453  36.627  1.00  0.00    -0.161 NA
BRANCH  17  21
ATOM     21  S   UNL A   1      40.223  33.691  37.113  1.00  0.00    -0.128 SA
ATOM     22  H   UNL A   1      40.158  35.048  37.129  1.00  0.00     0.106 HD
ENDBRANCH  17  21
BRANCH  18  23
ATOM     23  C   UNL A   1      35.261  33.876  34.312  1.00  0.00     0.202 C 
ATOM     24  C   UNL A   1      34.605  33.291  33.047  1.00  0.00     0.037 C 
ATOM     25  N   UNL A   1      35.314  35.328  33.842  1.00  0.00    -0.177 NA
ATOM     26  C   UNL A   1      34.606  34.202  32.060  1.00  0.00     0.091 C 
ATOM     27  N   UNL A   1      34.990  35.424  32.590  1.00  0.00    -0.155 NA
BRANCH  26  28
ATOM     28  C   UNL A   1      34.652  33.801  30.569  1.00  0.00     0.002 A 
ATOM     29  C   UNL A   1      35.153  32.554  30.139  1.00  0.00     0.010 A 
ATOM     30  C   UNL A   1      33.954  34.514  29.568  1.00  0.00     0.010 A 
ATOM     31  C   UNL A   1      34.778  31.959  28.908  1.00  0.00     0.001 A 
ATOM     32  C   UNL A   1      33.620  33.952  28.312  1.00  0.00     0.001 A 
ATOM     33  C   UNL A   1      33.987  32.651  28.001  1.00  0.00     0.000 A 
ENDBRANCH  26  28
ENDBRANCH  18  23
ENDBRANCH  15  16
ENDBRANCH  10  14
ENDBRANCH   7   8
ENDBRANCH   6   7
ENDBRANCH   4   6
ENDBRANCH   1   2
BRANCH   1  34
ATOM     34  C   UNL A   1      42.946  23.736  35.467  1.00  0.00     0.021 C 
BRANCH  34  35
ATOM     35  C   UNL A   1      43.328  23.033  34.157  1.00  0.00     0.002 C 
BRANCH  35  36
ATOM     36  C   UNL A   1      44.546  22.122  34.246  1.00  0.00     0.002 C 
BRANCH  36  37
ATOM     37  C   UNL A   1      45.036  21.800  35.664  1.00  0.00     0.021 C 
BRANCH  37  38
ATOM     38  C   UNL A   1      46.358  22.457  36.035  1.00  0.00     0.116 C 
BRANCH  38  39
ATOM     39  N   UNL A   1      46.161  23.732  36.723  1.00  0.00    -0.352 N 
ATOM     40  C   UNL A   1      46.354  25.010  36.235  1.00  0.00     0.251 C 
ATOM     41  H   UNL A   1      45.849  23.672  37.655  1.00  0.00     0.163 HD
ATOM     42  O   UNL A   1      46.528  25.955  36.978  1.00  0.00    -0.269 OA
BRANCH  40  43
ATOM     43  C   UNL A   1      46.301  25.205  34.779  1.00  0.00     0.039 A 
ATOM     44  C   UNL A   1      47.235  24.609  33.926  1.00  0.00     0.014 A 
ATOM     45  C   UNL A   1      45.290  26.025  34.285  1.00  0.00     0.014 A 
ATOM     46  C   UNL A   1      47.115  24.828  32.560  1.00  0.00     0.010 A 
ATOM     47  C   UNL A   1      45.068  26.095  32.941  1.00  0.00     0.010 A 
ATOM     48  C   UNL A   1      46.030  25.578  32.084  1.00  0.00    -0.014 A 
BRANCH  48  49
ATOM     49  C   UNL A   1      45.813  25.778  30.664  1.00  0.00     0.031 A 
ATOM     50  C   UNL A   1      46.760  26.732  30.041  1.00  0.00     0.074 A 
ATOM     51  C   UNL A   1      44.983  24.987  29.951  1.00  0.00     0.049 A 
ATOM     52  N   UNL A   1      46.493  27.902  29.564  1.00  0.00    -0.248 NA
ATOM     53  C   UNL A   1      48.200  26.429  30.102  1.00  0.00     0.031 C 
ATOM     54  C   UNL A   1      44.236  23.802  30.388  1.00  0.00     0.029 A 
ATOM     55  N   UNL A   1      44.718  25.030  28.622  1.00  0.00    -0.354 N 
ATOM     56  C   UNL A   1      47.694  28.395  29.070  1.00  0.00     0.074 A 
ATOM     57  C   UNL A   1      48.727  27.551  29.607  1.00  0.00     0.031 C 
ATOM     58  C   UNL A   1      43.804  23.115  29.307  1.00  0.00     0.029 A 
ATOM     59  C   UNL A   1      44.099  23.891  28.120  1.00  0.00     0.049 A 
ATOM     60  H   UNL A   1      44.946  25.805  28.058  1.00  0.00     0.167 HD
ATOM     61  C   UNL A   1      47.702  29.296  28.048  1.00  0.00     0.037 A 
ATOM     62  C   UNL A   1      43.918  23.609  26.804  1.00  0.00     0.037 A 
ATOM     63  C   UNL A   1      46.401  29.902  27.887  1.00  0.00     0.049 A 
ATOM     64  C   UNL A   1      44.013  24.905  26.072  1.00  0.00     0.074 A 
ATOM     65  C   UNL A   1      45.568  30.626  28.721  1.00  0.00     0.029 A 
ATOM     66  N   UNL A   1      45.593  29.439  26.875  1.00  0.00    -0.354 N 
ATOM     67  N   UNL A   1      43.146  25.873  26.217  1.00  0.00    -0.248 NA
ATOM     68  C   UNL A   1      45.334  25.313  25.609  1.00  0.00     0.031 C 
ATOM     69  C   UNL A   1      44.260  30.117  28.462  1.00  0.00     0.029 A 
ATOM     70  C   UNL A   1      44.359  29.190  27.424  1.00  0.00     0.049 A 
ATOM     71  H   UNL A   1      45.849  29.313  25.933  1.00  0.00     0.167 HD
ATOM     72  C   UNL A   1      43.911  27.030  26.283  1.00  0.00     0.074 A 
ATOM     73  C   UNL A   1      45.250  26.625  25.854  1.00  0.00     0.031 C 
ATOM     74  C   UNL A   1      43.485  28.132  26.968  1.00  0.00     0.037 A 
BRANCH  61  75
ATOM     75  C   UNL A   1      48.745  29.337  26.957  1.00  0.00     0.064 A 
ATOM     76  C   UNL A   1      48.920  28.200  26.143  1.00  0.00     0.173 A 
ATOM     77  C   UNL A   1      49.773  30.303  26.876  1.00  0.00     0.173 A 
ATOM     78  F   UNL A   1      48.010  27.214  26.143  1.00  0.00    -0.203 F 
ATOM     79  C   UNL A   1      50.079  28.000  25.391  1.00  0.00     0.198 A 
ATOM     80  C   UNL A   1      50.903  30.125  26.080  1.00  0.00     0.198 A 
ATOM     81  F   UNL A   1      49.791  31.401  27.638  1.00  0.00    -0.203 F 
ATOM     82  F   UNL A   1      50.260  26.841  24.744  1.00  0.00    -0.200 F 
ATOM     83  C   UNL A   1      51.075  28.959  25.368  1.00  0.00     0.200 A 
ATOM     84  F   UNL A   1      51.862  31.061  26.084  1.00  0.00    -0.200 F 
ATOM     85  F   UNL A   1      52.216  28.742  24.702  1.00  0.00    -0.200 F 
ENDBRANCH  61  75
BRANCH  62  86
ATOM     86  C   UNL A   1      44.074  22.286  26.147  1.00  0.00     0.064 A 
ATOM     87  C   UNL A   1      45.335  21.807  25.754  1.00  0.00     0.173 A 
ATOM     88  C   UNL A   1      43.021  21.347  26.125  1.00  0.00     0.173 A 
ATOM     89  F   UNL A   1      46.403  22.617  25.794  1.00  0.00    -0.203 F 
ATOM     90  C   UNL A   1      45.531  20.473  25.376  1.00  0.00     0.198 A 
ATOM     91  C   UNL A   1      43.216  20.018  25.744  1.00  0.00     0.198 A 
ATOM     92  F   UNL A   1      41.797  21.675  26.564  1.00  0.00    -0.203 F 
ATOM     93  F   UNL A   1      46.759  20.041  25.059  1.00  0.00    -0.200 F 
ATOM     94  C   UNL A   1      44.473  19.578  25.379  1.00  0.00     0.200 A 
ATOM     95  F   UNL A   1      42.190  19.158  25.788  1.00  0.00    -0.200 F 
ATOM     96  F   UNL A   1      44.671  18.289  25.070  1.00  0.00    -0.200 F 
ENDBRANCH  62  86
BRANCH  74  97
ATOM     97  C   UNL A   1      42.073  28.158  27.489  1.00  0.00     0.064 A 
ATOM     98  C   UNL A   1      41.697  27.732  28.776  1.00  0.00     0.173 A 
ATOM     99  C   UNL A   1      41.096  28.808  26.722  1.00  0.00     0.173 A 
ATOM    100  F   UNL A   1      42.592  27.197  29.614  1.00  0.00    -0.203 F 
ATOM    101  C   UNL A   1      40.399  27.917  29.254  1.00  0.00     0.198 A 
ATOM    102  C   UNL A   1      39.811  29.023  27.215  1.00  0.00     0.198 A 
ATOM    103  F   UNL A   1      41.407  29.290  25.509  1.00  0.00    -0.203 F 
ATOM    104  F   UNL A   1      40.071  27.499  30.486  1.00  0.00    -0.200 F 
ATOM    105  C   UNL A   1      39.460  28.571  28.476  1.00  0.00     0.200 A 
ATOM    106  F   UNL A   1      38.923  29.703  26.478  1.00  0.00    -0.200 F 
ATOM    107  F   UNL A   1      38.226  28.792  28.951  1.00  0.00    -0.200 F 
ENDBRANCH  74  97
ENDBRANCH  48  49
ENDBRANCH  40  43
ENDBRANCH  38  39
ENDBRANCH  37  38
ENDBRANCH  36  37
ENDBRANCH  35  36
ENDBRANCH  34  35
ENDBRANCH   1  34
TORSDOF 20
ENDMDL
MODEL 3
REMARK VINA RESULT:     -11.1      4.578     10.252
REMARK SMILES O=C(COc1ccccc1/C=N/N1[C@@H](S)N=N[C@H]1[C@@H]1C=C(c2ccccc2)N=N1)NCCCCCCNC(=O)c1ccc(-c2c3nc(c(-c4c(F)c(F)c(F)c(F)c4F)c4ccc([nH]4)c(-c4c(F)c(F)c(F)c(F)c4F)c4nc(c(-c5c(F)c(F)c(F)c(F)c5F)c5ccc2[nH]5)C=C4)C=C3)cc1
REMARK SMILES IDX 31 1 30 2 1 3 2 4 3 6 4 7 5 8 6 9 10 10 7 11 9 12 8 13 11 14
REMARK SMILES IDX 12 15 13 16 14 17 18 18 16 19 17 20 15 21 19 23 20 24 29 25
REMARK SMILES IDX 21 26 28 27 22 28 23 29 27 30 24 31 26 32 25 33 32 34 33 35
REMARK SMILES IDX 34 36 35 37 36 38 37 39 38 40 39 42 40 43 41 44 102 45 42 46
REMARK SMILES IDX 101 47 43 48 44 49 45 50 95 51 46 52 100 53 94 54 96 55
REMARK SMILES IDX 47 56 99 57 93 58 92 59 48 61 80 62 60 63 79 64 61 65 64 66
REMARK SMILES IDX 78 67 97 68 62 69 63 70 77 72 98 73 65 74 49 75 50 76 58 77
REMARK SMILES IDX 51 78 52 79 56 80 59 81 53 82 54 83 57 84 55 85 81 86 82 87
REMARK SMILES IDX 90 88 83 89 84 90 88 91 91 92 85 93 86 94 89 95 87 96 66 97
REMARK SMILES IDX 67 98 75 99 68 100 69 101 73 102 76 103 70 104 71 105 74 106
REMARK SMILES IDX 72 107
REMARK H PARENT 30 5 15 22 37 41 96 60 64 71
REMARK Flexibility Score: inf
ROOT
ATOM      1  C   UNL A   1      44.206  25.972  28.941  1.00  0.00     0.116 C 
ENDROOT
BRANCH   1   2
ATOM      2  N   UNL A   1      43.738  25.012  27.849  1.00  0.00    -0.353 N 
ATOM      3  O   UNL A   1      44.451  22.897  28.417  1.00  0.00    -0.271 OA
ATOM      4  C   UNL A   1      43.710  23.631  27.792  1.00  0.00     0.257 C 
ATOM      5  H   UNL A   1      43.394  25.456  27.041  1.00  0.00     0.163 HD
BRANCH   4   6
ATOM      6  C   UNL A   1      42.779  22.718  27.012  1.00  0.00     0.329 C 
BRANCH   6   7
ATOM      7  O   UNL A   1      42.878  22.490  25.663  1.00  0.00    -0.483 OA
BRANCH   7   8
ATOM      8  C   UNL A   1      43.920  21.723  25.246  1.00  0.00     0.128 A 
ATOM      9  C   UNL A   1      43.498  20.399  25.452  1.00  0.00     0.047 A 
ATOM     10  C   UNL A   1      45.226  22.057  24.774  1.00  0.00     0.037 A 
ATOM     11  C   UNL A   1      44.361  19.352  25.251  1.00  0.00     0.004 A 
ATOM     12  C   UNL A   1      46.091  20.973  24.597  1.00  0.00     0.013 A 
ATOM     13  C   UNL A   1      45.657  19.641  24.833  1.00  0.00     0.001 A 
BRANCH  10  14
ATOM     14  C   UNL A   1      45.685  23.506  24.456  1.00  0.00     0.145 C 
ATOM     15  N   UNL A   1      46.020  24.441  25.333  1.00  0.00    -0.180 NA
BRANCH  15  16
ATOM     16  N   UNL A   1      45.906  25.811  24.830  1.00  0.00    -0.233 NA
ATOM     17  C   UNL A   1      47.065  26.688  25.072  1.00  0.00     0.298 C 
ATOM     18  C   UNL A   1      44.771  26.870  25.316  1.00  0.00     0.274 C 
ATOM     19  N   UNL A   1      46.633  28.094  24.886  1.00  0.00    -0.153 NA
ATOM     20  N   UNL A   1      45.383  28.203  24.987  1.00  0.00    -0.161 NA
BRANCH  17  21
ATOM     21  S   UNL A   1      48.494  26.154  24.076  1.00  0.00    -0.128 SA
ATOM     22  H   UNL A   1      48.424  26.722  22.842  1.00  0.00     0.106 HD
ENDBRANCH  17  21
BRANCH  18  23
ATOM     23  C   UNL A   1      42.972  27.168  25.063  1.00  0.00     0.202 C 
ATOM     24  C   UNL A   1      42.060  28.105  25.878  1.00  0.00     0.037 C 
ATOM     25  N   UNL A   1      42.075  25.933  25.124  1.00  0.00    -0.177 NA
ATOM     26  C   UNL A   1      41.073  27.403  26.459  1.00  0.00     0.091 C 
ATOM     27  N   UNL A   1      41.085  26.117  25.942  1.00  0.00    -0.155 NA
BRANCH  26  28
ATOM     28  C   UNL A   1      40.421  27.845  27.788  1.00  0.00     0.002 A 
ATOM     29  C   UNL A   1      39.313  27.171  28.344  1.00  0.00     0.010 A 
ATOM     30  C   UNL A   1      41.039  28.758  28.672  1.00  0.00     0.010 A 
ATOM     31  C   UNL A   1      39.006  27.213  29.728  1.00  0.00     0.001 A 
ATOM     32  C   UNL A   1      40.705  28.850  30.044  1.00  0.00     0.001 A 
ATOM     33  C   UNL A   1      39.721  28.036  30.587  1.00  0.00     0.000 A 
ENDBRANCH  26  28
ENDBRANCH  18  23
ENDBRANCH  15  16
ENDBRANCH  10  14
ENDBRANCH   7   8
ENDBRANCH   6   7
ENDBRANCH   4   6
ENDBRANCH   1   2
BRANCH   1  34
ATOM     34  C   UNL A   1      43.570  26.294  30.346  1.00  0.00     0.021 C 
BRANCH  34  35
ATOM     35  C   UNL A   1      44.255  25.777  31.620  1.00  0.00     0.002 C 
BRANCH  35  36
ATOM     36  C   UNL A   1      44.641  24.304  31.591  1.00  0.00     0.002 C 
BRANCH  36  37
ATOM     37  C   UNL A   1      44.542  23.561  32.929  1.00  0.00     0.021 C 
BRANCH  37  38
ATOM     38  C   UNL A   1      44.883  24.411  34.145  1.00  0.00     0.116 C 
BRANCH  38  39
ATOM     39  N   UNL A   1      43.973  24.161  35.262  1.00  0.00    -0.352 N 
ATOM     40  C   UNL A   1      43.182  25.064  35.944  1.00  0.00     0.251 C 
ATOM     41  H   UNL A   1      43.917  23.226  35.565  1.00  0.00     0.163 HD
ATOM     42  O   UNL A   1      42.770  24.831  37.063  1.00  0.00    -0.269 OA
BRANCH  40  43
ATOM     43  C   UNL A   1      42.812  26.310  35.256  1.00  0.00     0.039 A 
ATOM     44  C   UNL A   1      41.962  26.308  34.146  1.00  0.00     0.014 A 
ATOM     45  C   UNL A   1      43.359  27.493  35.747  1.00  0.00     0.014 A 
ATOM     46  C   UNL A   1      41.646  27.524  33.554  1.00  0.00     0.010 A 
ATOM     47  C   UNL A   1      42.911  28.693  35.279  1.00  0.00     0.010 A 
ATOM     48  C   UNL A   1      42.133  28.707  34.129  1.00  0.00    -0.014 A 
BRANCH  48  49
ATOM     49  C   UNL A   1      41.777  30.009  33.599  1.00  0.00     0.031 A 
ATOM     50  C   UNL A   1      42.909  30.731  32.971  1.00  0.00     0.074 A 
ATOM     51  C   UNL A   1      40.492  30.404  33.484  1.00  0.00     0.049 A 
ATOM     52  N   UNL A   1      43.484  31.806  33.397  1.00  0.00    -0.248 NA
ATOM     53  C   UNL A   1      43.594  30.101  31.830  1.00  0.00     0.031 C 
ATOM     54  C   UNL A   1      39.265  29.650  33.768  1.00  0.00     0.029 A 
ATOM     55  N   UNL A   1      40.013  31.566  32.972  1.00  0.00    -0.354 N 
ATOM     56  C   UNL A   1      44.466  32.108  32.461  1.00  0.00     0.074 A 
ATOM     57  C   UNL A   1      44.622  30.932  31.647  1.00  0.00     0.031 C 
ATOM     58  C   UNL A   1      38.207  30.278  33.207  1.00  0.00     0.029 A 
ATOM     59  C   UNL A   1      38.656  31.548  32.672  1.00  0.00     0.049 A 
ATOM     60  H   UNL A   1      40.581  32.357  32.825  1.00  0.00     0.167 HD
ATOM     61  C   UNL A   1      44.871  33.395  32.277  1.00  0.00     0.037 A 
ATOM     62  C   UNL A   1      37.993  32.502  31.971  1.00  0.00     0.037 A 
ATOM     63  C   UNL A   1      44.470  34.224  33.390  1.00  0.00     0.049 A 
ATOM     64  C   UNL A   1      38.819  33.742  32.047  1.00  0.00     0.074 A 
ATOM     65  C   UNL A   1      44.707  34.184  34.752  1.00  0.00     0.029 A 
ATOM     66  N   UNL A   1      43.363  35.025  33.234  1.00  0.00    -0.354 N 
ATOM     67  N   UNL A   1      39.036  34.390  33.162  1.00  0.00    -0.248 NA
ATOM     68  C   UNL A   1      39.821  33.938  31.006  1.00  0.00     0.031 C 
ATOM     69  C   UNL A   1      43.451  34.506  35.349  1.00  0.00     0.029 A 
ATOM     70  C   UNL A   1      42.556  34.817  34.325  1.00  0.00     0.049 A 
ATOM     71  H   UNL A   1      43.183  35.635  32.483  1.00  0.00     0.167 HD
ATOM     72  C   UNL A   1      40.383  34.722  33.126  1.00  0.00     0.074 A 
ATOM     73  C   UNL A   1      40.803  34.458  31.749  1.00  0.00     0.031 C 
ATOM     74  C   UNL A   1      41.113  34.880  34.270  1.00  0.00     0.037 A 
BRANCH  61  75
ATOM     75  C   UNL A   1      45.265  33.982  30.942  1.00  0.00     0.064 A 
ATOM     76  C   UNL A   1      44.374  33.856  29.858  1.00  0.00     0.173 A 
ATOM     77  C   UNL A   1      46.578  34.377  30.605  1.00  0.00     0.173 A 
ATOM     78  F   UNL A   1      43.102  33.480  30.058  1.00  0.00    -0.203 F 
ATOM     79  C   UNL A   1      44.793  34.012  28.535  1.00  0.00     0.198 A 
ATOM     80  C   UNL A   1      46.979  34.587  29.286  1.00  0.00     0.198 A 
ATOM     81  F   UNL A   1      47.558  34.470  31.510  1.00  0.00    -0.203 F 
ATOM     82  F   UNL A   1      43.945  33.746  27.533  1.00  0.00    -0.200 F 
ATOM     83  C   UNL A   1      46.099  34.368  28.250  1.00  0.00     0.200 A 
ATOM     84  F   UNL A   1      48.253  34.917  29.032  1.00  0.00    -0.200 F 
ATOM     85  F   UNL A   1      46.521  34.452  26.982  1.00  0.00    -0.200 F 
ENDBRANCH  61  75
BRANCH  62  86
ATOM     86  C   UNL A   1      36.940  32.285  30.946  1.00  0.00     0.064 A 
ATOM     87  C   UNL A   1      35.744  33.021  30.957  1.00  0.00     0.173 A 
ATOM     88  C   UNL A   1      37.194  31.534  29.778  1.00  0.00     0.173 A 
ATOM     89  F   UNL A   1      35.446  33.803  32.005  1.00  0.00    -0.203 F 
ATOM     90  C   UNL A   1      34.865  33.015  29.866  1.00  0.00     0.198 A 
ATOM     91  C   UNL A   1      36.315  31.525  28.693  1.00  0.00     0.198 A 
ATOM     92  F   UNL A   1      38.346  30.866  29.626  1.00  0.00    -0.203 F 
ATOM     93  F   UNL A   1      33.759  33.772  29.894  1.00  0.00    -0.200 F 
ATOM     94  C   UNL A   1      35.155  32.274  28.732  1.00  0.00     0.200 A 
ATOM     95  F   UNL A   1      36.631  30.833  27.590  1.00  0.00    -0.200 F 
ATOM     96  F   UNL A   1      34.343  32.312  27.667  1.00  0.00    -0.200 F 
ENDBRANCH  62  86
BRANCH  74  97
ATOM     97  C   UNL A   1      40.391  34.892  35.591  1.00  0.00     0.064 A 
ATOM     98  C   UNL A   1      39.980  33.734  36.278  1.00  0.00     0.173 A 
ATOM     99  C   UNL A   1      40.275  36.112  36.271  1.00  0.00     0.173 A 
ATOM    100  F   UNL A   1      40.151  32.519  35.746  1.00  0.00    -0.203 F 
ATOM    101  C   UNL A   1      39.449  33.803  37.566  1.00  0.00     0.198 A 
ATOM    102  C   UNL A   1      39.777  36.174  37.570  1.00  0.00     0.198 A 
ATOM    103  F   UNL A   1      40.703  37.245  35.694  1.00  0.00    -0.203 F 
ATOM    104  F   UNL A   1      39.065  32.682  38.195  1.00  0.00    -0.200 F 
ATOM    105  C   UNL A   1      39.356  35.022  38.215  1.00  0.00     0.200 A 
ATOM    106  F   UNL A   1      39.739  37.349  38.212  1.00  0.00    -0.200 F 
ATOM    107  F   UNL A   1      38.889  35.084  39.470  1.00  0.00    -0.200 F 
ENDBRANCH  74  97
ENDBRANCH  48  49
ENDBRANCH  40  43
ENDBRANCH  38  39
ENDBRANCH  37  38
ENDBRANCH  36  37
ENDBRANCH  35  36
ENDBRANCH  34  35
ENDBRANCH   1  34
TORSDOF 20
ENDMDL
