MODEL 1
REMARK VINA RESULT:     -12.9      0.000      0.000
REMARK SMILES Cc1ccc(C#N)cc1NC(=O)N1CC[C@@H](C(=O)NCCCCCCNC(=O)c2ccc(-c3c4nc(c(-c5c(F)c(F)c(F)c(F)c5F)c5ccc([nH]5)c(-c5c(F)c(F)c(F)c(F)c5F)c5nc(c(-c6c(F)c(F)c(F)c(F)c6F)c6ccc3[nH]6)C=C5)C=C4)cc2)[C@@H]1C
REMARK SMILES IDX 22 1 21 2 20 3 19 4 17 5 18 6 16 8 13 9 14 10 92 11 15 12
REMARK SMILES IDX 93 13 11 14 10 15 12 17 9 18 1 19 2 20 3 21 4 22 8 23 5 24
REMARK SMILES IDX 6 25 7 26 23 27 24 28 25 29 26 30 27 31 28 33 29 34 30 35
REMARK SMILES IDX 91 36 31 37 90 38 32 39 33 40 34 41 84 42 35 43 89 44 83 45
REMARK SMILES IDX 85 46 36 47 88 48 82 49 81 50 37 52 69 53 49 54 68 55 50 56
REMARK SMILES IDX 53 57 67 58 86 59 51 60 52 61 66 63 87 64 54 65 38 66 39 67
REMARK SMILES IDX 47 68 40 69 41 70 45 71 48 72 42 73 43 74 46 75 44 76 70 77
REMARK SMILES IDX 71 78 79 79 72 80 73 81 77 82 80 83 74 84 75 85 78 86 76 87
REMARK SMILES IDX 55 88 56 89 64 90 57 91 58 92 62 93 65 94 59 95 60 96 63 97
REMARK SMILES IDX 61 98
REMARK H PARENT 19 7 10 16 26 32 85 51 53 62
REMARK Flexibility Score: inf
ROOT
ATOM      1  C   UNL A   1      33.295  29.976  26.653  1.00  0.00     0.002 C 
ENDROOT
BRANCH   1   2
ATOM      2  C   UNL A   1      33.050  28.616  27.315  1.00  0.00     0.021 C 
BRANCH   2   3
ATOM      3  C   UNL A   1      31.606  28.269  27.673  1.00  0.00     0.116 C 
BRANCH   3   4
ATOM      4  N   UNL A   1      31.089  27.048  27.068  1.00  0.00    -0.356 N 
ATOM      5  C   UNL A   1      31.014  26.578  25.794  1.00  0.00     0.225 C 
ATOM      6  O   UNL A   1      30.654  25.401  25.678  1.00  0.00    -0.275 OA
ATOM      7  H   UNL A   1      30.710  26.425  27.730  1.00  0.00     0.163 HD
BRANCH   5   8
ATOM      8  C   UNL A   1      31.249  27.383  24.514  1.00  0.00     0.102 C 
ATOM      9  N   UNL A   1      32.383  26.189  22.869  1.00  0.00    -0.321 N 
ATOM     10  C   UNL A   1      31.107  26.532  22.249  1.00  0.00     0.122 C 
ATOM     11  C   UNL A   1      32.648  27.172  23.911  1.00  0.00     0.096 C 
ATOM     12  C   UNL A   1      30.260  27.118  23.376  1.00  0.00     0.037 C 
ATOM     13  C   UNL A   1      33.239  28.462  23.320  1.00  0.00     0.032 C 
BRANCH   9  14
ATOM     14  C   UNL A   1      33.177  25.279  22.262  1.00  0.00     0.322 C 
ATOM     15  N   UNL A   1      33.676  24.153  22.812  1.00  0.00    -0.308 N 
ATOM     16  H   UNL A   1      34.401  23.804  22.245  1.00  0.00     0.171 HD
ATOM     17  O   UNL A   1      33.431  25.404  21.055  1.00  0.00    -0.248 OA
BRANCH  15  18
ATOM     18  C   UNL A   1      33.502  23.308  23.932  1.00  0.00     0.047 A 
ATOM     19  C   UNL A   1      34.794  24.972  25.439  1.00  0.00     0.046 C 
ATOM     20  C   UNL A   1      33.975  23.725  25.199  1.00  0.00    -0.027 A 
ATOM     21  C   UNL A   1      33.866  22.859  26.316  1.00  0.00     0.007 A 
ATOM     22  C   UNL A   1      33.322  21.583  26.202  1.00  0.00     0.020 A 
ATOM     23  C   UNL A   1      33.024  22.002  23.856  1.00  0.00     0.046 A 
ATOM     24  C   UNL A   1      32.917  21.141  24.956  1.00  0.00     0.054 A 
BRANCH  24  25
ATOM     25  C   UNL A   1      32.530  19.777  24.755  1.00  0.00     0.099 C 
ATOM     26  N   UNL A   1      32.175  18.675  24.639  1.00  0.00    -0.192 NA
ENDBRANCH  24  25
ENDBRANCH  15  18
ENDBRANCH   9  14
ENDBRANCH   5   8
ENDBRANCH   3   4
ENDBRANCH   2   3
ENDBRANCH   1   2
BRANCH   1  27
ATOM     27  C   UNL A   1      32.022  30.660  26.149  1.00  0.00     0.002 C 
BRANCH  27  28
ATOM     28  C   UNL A   1      31.636  31.943  26.890  1.00  0.00     0.021 C 
BRANCH  28  29
ATOM     29  C   UNL A   1      32.822  32.709  27.467  1.00  0.00     0.116 C 
BRANCH  29  30
ATOM     30  N   UNL A   1      32.517  34.123  27.636  1.00  0.00    -0.352 N 
ATOM     31  C   UNL A   1      33.014  34.988  28.586  1.00  0.00     0.251 C 
ATOM     32  H   UNL A   1      31.876  34.507  26.995  1.00  0.00     0.163 HD
ATOM     33  O   UNL A   1      32.502  36.081  28.788  1.00  0.00    -0.269 OA
BRANCH  31  34
ATOM     34  C   UNL A   1      34.173  34.543  29.383  1.00  0.00     0.039 A 
ATOM     35  C   UNL A   1      35.453  34.649  28.836  1.00  0.00     0.014 A 
ATOM     36  C   UNL A   1      33.970  33.914  30.612  1.00  0.00     0.014 A 
ATOM     37  C   UNL A   1      36.498  33.946  29.416  1.00  0.00     0.010 A 
ATOM     38  C   UNL A   1      35.052  33.302  31.251  1.00  0.00     0.010 A 
ATOM     39  C   UNL A   1      36.313  33.265  30.632  1.00  0.00    -0.014 A 
BRANCH  39  40
ATOM     40  C   UNL A   1      37.455  32.537  31.243  1.00  0.00     0.031 A 
ATOM     41  C   UNL A   1      37.953  32.885  32.620  1.00  0.00     0.074 A 
ATOM     42  C   UNL A   1      38.019  31.524  30.557  1.00  0.00     0.049 A 
ATOM     43  N   UNL A   1      38.961  32.375  33.285  1.00  0.00    -0.248 NA
ATOM     44  C   UNL A   1      37.232  33.940  33.348  1.00  0.00     0.031 C 
ATOM     45  C   UNL A   1      37.602  31.076  29.227  1.00  0.00     0.029 A 
ATOM     46  N   UNL A   1      39.049  30.680  30.884  1.00  0.00    -0.354 N 
ATOM     47  C   UNL A   1      39.004  33.054  34.496  1.00  0.00     0.074 A 
ATOM     48  C   UNL A   1      37.942  34.036  34.465  1.00  0.00     0.031 C 
ATOM     49  C   UNL A   1      38.334  30.013  28.872  1.00  0.00     0.029 A 
ATOM     50  C   UNL A   1      39.331  29.759  29.905  1.00  0.00     0.049 A 
ATOM     51  H   UNL A   1      39.538  30.729  31.737  1.00  0.00     0.167 HD
ATOM     52  C   UNL A   1      39.847  32.863  35.540  1.00  0.00     0.037 A 
ATOM     53  C   UNL A   1      40.302  28.833  29.829  1.00  0.00     0.037 A 
ATOM     54  C   UNL A   1      40.897  31.874  35.564  1.00  0.00     0.049 A 
ATOM     55  C   UNL A   1      41.272  28.698  30.968  1.00  0.00     0.074 A 
ATOM     56  C   UNL A   1      41.801  31.602  36.577  1.00  0.00     0.029 A 
ATOM     57  N   UNL A   1      41.186  30.997  34.528  1.00  0.00    -0.354 N 
ATOM     58  N   UNL A   1      41.306  29.350  32.104  1.00  0.00    -0.248 NA
ATOM     59  C   UNL A   1      42.336  27.700  30.813  1.00  0.00     0.031 C 
ATOM     60  C   UNL A   1      42.675  30.608  36.131  1.00  0.00     0.029 A 
ATOM     61  C   UNL A   1      42.269  30.200  34.870  1.00  0.00     0.049 A 
ATOM     62  H   UNL A   1      40.695  30.947  33.676  1.00  0.00     0.167 HD
ATOM     63  C   UNL A   1      42.373  28.818  32.815  1.00  0.00     0.074 A 
ATOM     64  C   UNL A   1      42.949  27.780  31.985  1.00  0.00     0.031 C 
ATOM     65  C   UNL A   1      42.829  29.160  34.045  1.00  0.00     0.037 A 
BRANCH  52  66
ATOM     66  C   UNL A   1      39.690  33.740  36.752  1.00  0.00     0.064 A 
ATOM     67  C   UNL A   1      40.279  35.011  36.825  1.00  0.00     0.173 A 
ATOM     68  C   UNL A   1      38.861  33.344  37.815  1.00  0.00     0.173 A 
ATOM     69  F   UNL A   1      41.089  35.437  35.844  1.00  0.00    -0.203 F 
ATOM     70  C   UNL A   1      40.053  35.846  37.918  1.00  0.00     0.198 A 
ATOM     71  C   UNL A   1      38.609  34.194  38.889  1.00  0.00     0.198 A 
ATOM     72  F   UNL A   1      38.265  32.142  37.795  1.00  0.00    -0.203 F 
ATOM     73  F   UNL A   1      40.653  37.043  37.978  1.00  0.00    -0.200 F 
ATOM     74  C   UNL A   1      39.209  35.444  38.941  1.00  0.00     0.200 A 
ATOM     75  F   UNL A   1      37.777  33.810  39.866  1.00  0.00    -0.200 F 
ATOM     76  F   UNL A   1      38.972  36.259  39.978  1.00  0.00    -0.200 F 
ENDBRANCH  52  66
BRANCH  53  77
ATOM     77  C   UNL A   1      40.393  27.964  28.626  1.00  0.00     0.064 A 
ATOM     78  C   UNL A   1      41.134  28.361  27.507  1.00  0.00     0.173 A 
ATOM     79  C   UNL A   1      39.773  26.705  28.587  1.00  0.00     0.173 A 
ATOM     80  F   UNL A   1      41.731  29.562  27.490  1.00  0.00    -0.203 F 
ATOM     81  C   UNL A   1      41.242  27.539  26.388  1.00  0.00     0.198 A 
ATOM     82  C   UNL A   1      39.913  25.868  27.483  1.00  0.00     0.198 A 
ATOM     83  F   UNL A   1      39.058  26.273  29.636  1.00  0.00    -0.203 F 
ATOM     84  F   UNL A   1      41.925  27.961  25.314  1.00  0.00    -0.200 F 
ATOM     85  C   UNL A   1      40.641  26.289  26.380  1.00  0.00     0.200 A 
ATOM     86  F   UNL A   1      39.353  24.652  27.491  1.00  0.00    -0.200 F 
ATOM     87  F   UNL A   1      40.764  25.490  25.312  1.00  0.00    -0.200 F 
ENDBRANCH  53  77
BRANCH  65  88
ATOM     88  C   UNL A   1      43.979  28.370  34.603  1.00  0.00     0.064 A 
ATOM     89  C   UNL A   1      43.787  27.172  35.307  1.00  0.00     0.173 A 
ATOM     90  C   UNL A   1      45.300  28.795  34.385  1.00  0.00     0.173 A 
ATOM     91  F   UNL A   1      42.545  26.726  35.554  1.00  0.00    -0.203 F 
ATOM     92  C   UNL A   1      44.870  26.447  35.796  1.00  0.00     0.198 A 
ATOM     93  C   UNL A   1      46.382  28.047  34.841  1.00  0.00     0.198 A 
ATOM     94  F   UNL A   1      45.543  29.930  33.711  1.00  0.00    -0.203 F 
ATOM     95  F   UNL A   1      44.659  25.334  36.513  1.00  0.00    -0.200 F 
ATOM     96  C   UNL A   1      46.166  26.879  35.554  1.00  0.00     0.200 A 
ATOM     97  F   UNL A   1      47.632  28.456  34.587  1.00  0.00    -0.200 F 
ATOM     98  F   UNL A   1      47.206  26.171  36.013  1.00  0.00    -0.200 F 
ENDBRANCH  65  88
ENDBRANCH  39  40
ENDBRANCH  31  34
ENDBRANCH  29  30
ENDBRANCH  28  29
ENDBRANCH  27  28
ENDBRANCH   1  27
TORSDOF 16
ENDMDL
MODEL 2
REMARK VINA RESULT:     -12.8      0.903      7.223
REMARK SMILES Cc1ccc(C#N)cc1NC(=O)N1CC[C@@H](C(=O)NCCCCCCNC(=O)c2ccc(-c3c4nc(c(-c5c(F)c(F)c(F)c(F)c5F)c5ccc([nH]5)c(-c5c(F)c(F)c(F)c(F)c5F)c5nc(c(-c6c(F)c(F)c(F)c(F)c6F)c6ccc3[nH]6)C=C5)C=C4)cc2)[C@@H]1C
REMARK SMILES IDX 22 1 21 2 20 3 19 4 17 5 18 6 16 8 13 9 14 10 92 11 15 12
REMARK SMILES IDX 93 13 11 14 10 15 12 17 9 18 1 19 2 20 3 21 4 22 8 23 5 24
REMARK SMILES IDX 6 25 7 26 23 27 24 28 25 29 26 30 27 31 28 33 29 34 30 35
REMARK SMILES IDX 91 36 31 37 90 38 32 39 33 40 34 41 84 42 35 43 89 44 83 45
REMARK SMILES IDX 85 46 36 47 88 48 82 49 81 50 37 52 69 53 49 54 68 55 50 56
REMARK SMILES IDX 53 57 67 58 86 59 51 60 52 61 66 63 87 64 54 65 38 66 39 67
REMARK SMILES IDX 47 68 40 69 41 70 45 71 48 72 42 73 43 74 46 75 44 76 70 77
REMARK SMILES IDX 71 78 79 79 72 80 73 81 77 82 80 83 74 84 75 85 78 86 76 87
REMARK SMILES IDX 55 88 56 89 64 90 57 91 58 92 62 93 65 94 59 95 60 96 63 97
REMARK SMILES IDX 61 98
REMARK H PARENT 19 7 10 16 26 32 85 51 53 62
REMARK Flexibility Score: inf
ROOT
ATOM      1  C   UNL A   1      33.147  30.003  27.099  1.00  0.00     0.002 C 
ENDROOT
BRANCH   1   2
ATOM      2  C   UNL A   1      32.879  28.532  27.434  1.00  0.00     0.021 C 
BRANCH   2   3
ATOM      3  C   UNL A   1      31.431  28.139  27.721  1.00  0.00     0.116 C 
BRANCH   3   4
ATOM      4  N   UNL A   1      30.938  26.987  26.978  1.00  0.00    -0.356 N 
ATOM      5  C   UNL A   1      30.913  26.646  25.661  1.00  0.00     0.225 C 
ATOM      6  O   UNL A   1      30.558  25.487  25.415  1.00  0.00    -0.275 OA
ATOM      7  H   UNL A   1      30.533  26.303  27.559  1.00  0.00     0.163 HD
BRANCH   5   8
ATOM      8  C   UNL A   1      31.200  27.572  24.478  1.00  0.00     0.102 C 
ATOM      9  N   UNL A   1      32.466  26.565  22.803  1.00  0.00    -0.321 N 
ATOM     10  C   UNL A   1      31.219  26.934  22.140  1.00  0.00     0.122 C 
ATOM     11  C   UNL A   1      32.638  27.453  23.946  1.00  0.00     0.096 C 
ATOM     12  C   UNL A   1      30.290  27.390  23.262  1.00  0.00     0.037 C 
ATOM     13  C   UNL A   1      33.224  28.807  23.514  1.00  0.00     0.032 C 
BRANCH   9  14
ATOM     14  C   UNL A   1      33.321  25.736  22.166  1.00  0.00     0.322 C 
ATOM     15  N   UNL A   1      34.127  24.817  22.738  1.00  0.00    -0.308 N 
ATOM     16  H   UNL A   1      34.807  24.526  22.088  1.00  0.00     0.171 HD
ATOM     17  O   UNL A   1      33.344  25.722  20.927  1.00  0.00    -0.248 OA
BRANCH  15  18
ATOM     18  C   UNL A   1      34.317  24.133  23.961  1.00  0.00     0.047 A 
ATOM     19  C   UNL A   1      36.534  23.113  23.092  1.00  0.00     0.046 C 
ATOM     20  C   UNL A   1      35.495  23.374  24.158  1.00  0.00    -0.027 A 
ATOM     21  C   UNL A   1      35.667  22.630  25.352  1.00  0.00     0.007 A 
ATOM     22  C   UNL A   1      34.691  22.602  26.343  1.00  0.00     0.020 A 
ATOM     23  C   UNL A   1      33.345  24.024  24.952  1.00  0.00     0.046 A 
ATOM     24  C   UNL A   1      33.509  23.287  26.133  1.00  0.00     0.054 A 
BRANCH  24  25
ATOM     25  C   UNL A   1      32.405  23.136  27.033  1.00  0.00     0.099 C 
ATOM     26  N   UNL A   1      31.503  23.076  27.765  1.00  0.00    -0.192 NA
ENDBRANCH  24  25
ENDBRANCH  15  18
ENDBRANCH   9  14
ENDBRANCH   5   8
ENDBRANCH   3   4
ENDBRANCH   2   3
ENDBRANCH   1   2
BRANCH   1  27
ATOM     27  C   UNL A   1      32.011  30.682  26.330  1.00  0.00     0.002 C 
BRANCH  27  28
ATOM     28  C   UNL A   1      31.629  32.076  26.833  1.00  0.00     0.021 C 
BRANCH  28  29
ATOM     29  C   UNL A   1      32.775  32.835  27.495  1.00  0.00     0.116 C 
BRANCH  29  30
ATOM     30  N   UNL A   1      32.462  34.249  27.654  1.00  0.00    -0.352 N 
ATOM     31  C   UNL A   1      32.956  35.125  28.595  1.00  0.00     0.251 C 
ATOM     32  H   UNL A   1      31.817  34.623  27.011  1.00  0.00     0.163 HD
ATOM     33  O   UNL A   1      32.439  36.217  28.789  1.00  0.00    -0.269 OA
BRANCH  31  34
ATOM     34  C   UNL A   1      34.120  34.693  29.393  1.00  0.00     0.039 A 
ATOM     35  C   UNL A   1      35.389  34.730  28.814  1.00  0.00     0.014 A 
ATOM     36  C   UNL A   1      33.927  34.143  30.660  1.00  0.00     0.014 A 
ATOM     37  C   UNL A   1      36.428  34.031  29.413  1.00  0.00     0.010 A 
ATOM     38  C   UNL A   1      35.005  33.538  31.312  1.00  0.00     0.010 A 
ATOM     39  C   UNL A   1      36.250  33.428  30.670  1.00  0.00    -0.014 A 
BRANCH  39  40
ATOM     40  C   UNL A   1      37.384  32.703  31.300  1.00  0.00     0.031 A 
ATOM     41  C   UNL A   1      38.085  31.581  30.582  1.00  0.00     0.074 A 
ATOM     42  C   UNL A   1      37.806  33.093  32.518  1.00  0.00     0.049 A 
ATOM     43  N   UNL A   1      39.066  30.820  31.002  1.00  0.00    -0.248 NA
ATOM     44  C   UNL A   1      37.631  31.268  29.218  1.00  0.00     0.031 C 
ATOM     45  C   UNL A   1      37.224  34.187  33.298  1.00  0.00     0.029 A 
ATOM     46  N   UNL A   1      38.827  32.629  33.307  1.00  0.00    -0.354 N 
ATOM     47  C   UNL A   1      39.334  29.933  29.966  1.00  0.00     0.074 A 
ATOM     48  C   UNL A   1      38.392  30.227  28.908  1.00  0.00     0.031 C 
ATOM     49  C   UNL A   1      37.923  34.341  34.429  1.00  0.00     0.029 A 
ATOM     50  C   UNL A   1      38.944  33.303  34.498  1.00  0.00     0.049 A 
ATOM     51  H   UNL A   1      39.418  31.886  33.046  1.00  0.00     0.167 HD
ATOM     52  C   UNL A   1      40.288  28.973  29.904  1.00  0.00     0.037 A 
ATOM     53  C   UNL A   1      39.760  33.091  35.546  1.00  0.00     0.037 A 
ATOM     54  C   UNL A   1      41.228  28.694  30.963  1.00  0.00     0.049 A 
ATOM     55  C   UNL A   1      40.754  31.967  35.481  1.00  0.00     0.074 A 
ATOM     56  C   UNL A   1      42.234  27.743  30.993  1.00  0.00     0.029 A 
ATOM     57  N   UNL A   1      41.278  29.363  32.178  1.00  0.00    -0.354 N 
ATOM     58  N   UNL A   1      40.994  31.133  34.499  1.00  0.00    -0.248 NA
ATOM     59  C   UNL A   1      41.590  31.757  36.669  1.00  0.00     0.031 C 
ATOM     60  C   UNL A   1      42.848  27.792  32.247  1.00  0.00     0.029 A 
ATOM     61  C   UNL A   1      42.282  28.829  32.972  1.00  0.00     0.049 A 
ATOM     62  H   UNL A   1      40.688  30.108  32.438  1.00  0.00     0.167 HD
ATOM     63  C   UNL A   1      42.031  30.320  34.936  1.00  0.00     0.074 A 
ATOM     64  C   UNL A   1      42.381  30.773  36.266  1.00  0.00     0.031 C 
ATOM     65  C   UNL A   1      42.635  29.294  34.290  1.00  0.00     0.037 A 
BRANCH  52  66
ATOM     66  C   UNL A   1      40.373  28.133  28.660  1.00  0.00     0.064 A 
ATOM     67  C   UNL A   1      41.156  28.519  27.561  1.00  0.00     0.173 A 
ATOM     68  C   UNL A   1      39.741  26.880  28.601  1.00  0.00     0.173 A 
ATOM     69  F   UNL A   1      41.774  29.709  27.556  1.00  0.00    -0.203 F 
ATOM     70  C   UNL A   1      41.294  27.689  26.450  1.00  0.00     0.198 A 
ATOM     71  C   UNL A   1      39.909  26.038  27.505  1.00  0.00     0.198 A 
ATOM     72  F   UNL A   1      38.987  26.456  29.627  1.00  0.00    -0.203 F 
ATOM     73  F   UNL A   1      42.021  28.094  25.399  1.00  0.00    -0.200 F 
ATOM     74  C   UNL A   1      40.682  26.444  26.428  1.00  0.00     0.200 A 
ATOM     75  F   UNL A   1      39.333  24.828  27.496  1.00  0.00    -0.200 F 
ATOM     76  F   UNL A   1      40.837  25.637  25.370  1.00  0.00    -0.200 F 
ENDBRANCH  52  66
BRANCH  53  77
ATOM     77  C   UNL A   1      39.664  33.973  36.739  1.00  0.00     0.064 A 
ATOM     78  C   UNL A   1      38.872  33.613  37.836  1.00  0.00     0.173 A 
ATOM     79  C   UNL A   1      40.388  35.173  36.821  1.00  0.00     0.173 A 
ATOM     80  F   UNL A   1      38.148  32.485  37.799  1.00  0.00    -0.203 F 
ATOM     81  C   UNL A   1      38.799  34.424  38.966  1.00  0.00     0.198 A 
ATOM     82  C   UNL A   1      40.344  35.964  37.966  1.00  0.00     0.198 A 
ATOM     83  F   UNL A   1      41.168  35.559  35.800  1.00  0.00    -0.203 F 
ATOM     84  F   UNL A   1      38.003  34.075  39.986  1.00  0.00    -0.200 F 
ATOM     85  C   UNL A   1      39.542  35.593  39.035  1.00  0.00     0.200 A 
ATOM     86  F   UNL A   1      41.084  37.077  38.037  1.00  0.00    -0.200 F 
ATOM     87  F   UNL A   1      39.487  36.361  40.131  1.00  0.00    -0.200 F 
ENDBRANCH  53  77
BRANCH  65  88
ATOM     88  C   UNL A   1      43.783  28.616  34.984  1.00  0.00     0.064 A 
ATOM     89  C   UNL A   1      43.591  27.528  35.849  1.00  0.00     0.173 A 
ATOM     90  C   UNL A   1      45.101  29.032  34.741  1.00  0.00     0.173 A 
ATOM     91  F   UNL A   1      42.350  27.097  36.126  1.00  0.00    -0.203 F 
ATOM     92  C   UNL A   1      44.672  26.902  36.464  1.00  0.00     0.198 A 
ATOM     93  C   UNL A   1      46.182  28.378  35.326  1.00  0.00     0.198 A 
ATOM     94  F   UNL A   1      45.345  30.063  33.916  1.00  0.00    -0.203 F 
ATOM     95  F   UNL A   1      44.459  25.900  37.329  1.00  0.00    -0.200 F 
ATOM     96  C   UNL A   1      45.966  27.321  36.194  1.00  0.00     0.200 A 
ATOM     97  F   UNL A   1      47.433  28.772  35.047  1.00  0.00    -0.200 F 
ATOM     98  F   UNL A   1      47.005  26.707  36.777  1.00  0.00    -0.200 F 
ENDBRANCH  65  88
ENDBRANCH  39  40
ENDBRANCH  31  34
ENDBRANCH  29  30
ENDBRANCH  28  29
ENDBRANCH  27  28
ENDBRANCH   1  27
TORSDOF 16
ENDMDL
MODEL 3
REMARK VINA RESULT:     -12.7      5.316     10.915
REMARK SMILES Cc1ccc(C#N)cc1NC(=O)N1CC[C@@H](C(=O)NCCCCCCNC(=O)c2ccc(-c3c4nc(c(-c5c(F)c(F)c(F)c(F)c5F)c5ccc([nH]5)c(-c5c(F)c(F)c(F)c(F)c5F)c5nc(c(-c6c(F)c(F)c(F)c(F)c6F)c6ccc3[nH]6)C=C5)C=C4)cc2)[C@@H]1C
REMARK SMILES IDX 22 1 21 2 20 3 19 4 17 5 18 6 16 8 13 9 14 10 92 11 15 12
REMARK SMILES IDX 93 13 11 14 10 15 12 17 9 18 1 19 2 20 3 21 4 22 8 23 5 24
REMARK SMILES IDX 6 25 7 26 23 27 24 28 25 29 26 30 27 31 28 33 29 34 30 35
REMARK SMILES IDX 91 36 31 37 90 38 32 39 33 40 34 41 84 42 35 43 89 44 83 45
REMARK SMILES IDX 85 46 36 47 88 48 82 49 81 50 37 52 69 53 49 54 68 55 50 56
REMARK SMILES IDX 53 57 67 58 86 59 51 60 52 61 66 63 87 64 54 65 38 66 39 67
REMARK SMILES IDX 47 68 40 69 41 70 45 71 48 72 42 73 43 74 46 75 44 76 70 77
REMARK SMILES IDX 71 78 79 79 72 80 73 81 77 82 80 83 74 84 75 85 78 86 76 87
REMARK SMILES IDX 55 88 56 89 64 90 57 91 58 92 62 93 65 94 59 95 60 96 63 97
REMARK SMILES IDX 61 98
REMARK H PARENT 19 7 10 16 26 32 85 51 53 62
REMARK Flexibility Score: inf
ROOT
ATOM      1  C   UNL A   1      37.323  22.312  25.651  1.00  0.00     0.002 C 
ENDROOT
BRANCH   1   2
ATOM      2  C   UNL A   1      36.878  23.345  24.610  1.00  0.00     0.021 C 
BRANCH   2   3
ATOM      3  C   UNL A   1      36.460  22.813  23.240  1.00  0.00     0.116 C 
BRANCH   3   4
ATOM      4  N   UNL A   1      35.084  23.101  22.853  1.00  0.00    -0.356 N 
ATOM      5  C   UNL A   1      33.874  22.927  23.449  1.00  0.00     0.225 C 
ATOM      6  O   UNL A   1      32.914  23.457  22.876  1.00  0.00    -0.275 OA
ATOM      7  H   UNL A   1      35.017  23.511  21.961  1.00  0.00     0.163 HD
BRANCH   5   8
ATOM      8  C   UNL A   1      33.587  22.085  24.693  1.00  0.00     0.102 C 
ATOM      9  N   UNL A   1      32.011  23.043  26.114  1.00  0.00    -0.321 N 
ATOM     10  C   UNL A   1      31.420  21.765  25.730  1.00  0.00     0.122 C 
ATOM     11  C   UNL A   1      33.457  22.920  25.978  1.00  0.00     0.096 C 
ATOM     12  C   UNL A   1      32.326  21.221  24.629  1.00  0.00     0.037 C 
ATOM     13  C   UNL A   1      34.072  22.224  27.203  1.00  0.00     0.032 C 
BRANCH   9  14
ATOM     14  C   UNL A   1      31.237  23.956  26.740  1.00  0.00     0.322 C 
ATOM     15  N   UNL A   1      31.395  25.296  26.718  1.00  0.00    -0.308 N 
ATOM     16  H   UNL A   1      30.857  25.703  27.434  1.00  0.00     0.171 HD
ATOM     17  O   UNL A   1      30.218  23.581  27.338  1.00  0.00    -0.248 OA
BRANCH  15  18
ATOM     18  C   UNL A   1      32.078  26.309  26.005  1.00  0.00     0.047 A 
ATOM     19  C   UNL A   1      31.486  28.048  27.831  1.00  0.00     0.046 C 
ATOM     20  C   UNL A   1      32.180  27.605  26.565  1.00  0.00    -0.027 A 
ATOM     21  C   UNL A   1      32.804  28.646  25.831  1.00  0.00     0.007 A 
ATOM     22  C   UNL A   1      33.306  28.439  24.550  1.00  0.00     0.020 A 
ATOM     23  C   UNL A   1      32.539  26.168  24.699  1.00  0.00     0.046 A 
ATOM     24  C   UNL A   1      33.153  27.193  23.969  1.00  0.00     0.054 A 
BRANCH  24  25
ATOM     25  C   UNL A   1      33.481  26.985  22.590  1.00  0.00     0.099 C 
ATOM     26  N   UNL A   1      33.790  26.772  21.488  1.00  0.00    -0.192 NA
ENDBRANCH  24  25
ENDBRANCH  15  18
ENDBRANCH   9  14
ENDBRANCH   5   8
ENDBRANCH   3   4
ENDBRANCH   2   3
ENDBRANCH   1   2
BRANCH   1  27
ATOM     27  C   UNL A   1      36.998  20.866  25.270  1.00  0.00     0.002 C 
BRANCH  27  28
ATOM     28  C   UNL A   1      38.212  19.986  24.961  1.00  0.00     0.021 C 
BRANCH  28  29
ATOM     29  C   UNL A   1      39.431  20.282  25.828  1.00  0.00     0.116 C 
BRANCH  29  30
ATOM     30  N   UNL A   1      40.297  19.117  25.953  1.00  0.00    -0.352 N 
ATOM     31  C   UNL A   1      41.668  19.091  26.081  1.00  0.00     0.251 C 
ATOM     32  H   UNL A   1      39.848  18.241  25.941  1.00  0.00     0.163 HD
ATOM     33  O   UNL A   1      42.308  18.060  25.926  1.00  0.00    -0.269 OA
BRANCH  31  34
ATOM     34  C   UNL A   1      42.355  20.363  26.383  1.00  0.00     0.039 A 
ATOM     35  C   UNL A   1      42.326  20.854  27.689  1.00  0.00     0.014 A 
ATOM     36  C   UNL A   1      42.915  21.112  25.348  1.00  0.00     0.014 A 
ATOM     37  C   UNL A   1      42.668  22.179  27.921  1.00  0.00     0.010 A 
ATOM     38  C   UNL A   1      43.363  22.409  25.611  1.00  0.00     0.010 A 
ATOM     39  C   UNL A   1      43.193  22.973  26.887  1.00  0.00    -0.014 A 
BRANCH  39  40
ATOM     40  C   UNL A   1      43.571  24.382  27.167  1.00  0.00     0.031 A 
ATOM     41  C   UNL A   1      44.970  24.877  26.920  1.00  0.00     0.074 A 
ATOM     42  C   UNL A   1      42.624  25.230  27.613  1.00  0.00     0.049 A 
ATOM     43  N   UNL A   1      45.477  26.064  27.146  1.00  0.00    -0.248 NA
ATOM     44  C   UNL A   1      45.930  23.921  26.347  1.00  0.00     0.031 C 
ATOM     45  C   UNL A   1      41.226  24.872  27.862  1.00  0.00     0.029 A 
ATOM     46  N   UNL A   1      42.685  26.564  27.923  1.00  0.00    -0.354 N 
ATOM     47  C   UNL A   1      46.809  25.994  26.759  1.00  0.00     0.074 A 
ATOM     48  C   UNL A   1      47.045  24.638  26.314  1.00  0.00     0.031 C 
ATOM     49  C   UNL A   1      40.552  25.966  28.238  1.00  0.00     0.029 A 
ATOM     50  C   UNL A   1      41.485  27.081  28.346  1.00  0.00     0.049 A 
ATOM     51  H   UNL A   1      43.508  27.100  27.849  1.00  0.00     0.167 HD
ATOM     52  C   UNL A   1      47.742  26.977  26.766  1.00  0.00     0.037 A 
ATOM     53  C   UNL A   1      41.173  28.308  28.801  1.00  0.00     0.037 A 
ATOM     54  C   UNL A   1      47.493  28.329  27.205  1.00  0.00     0.049 A 
ATOM     55  C   UNL A   1      42.247  29.354  28.872  1.00  0.00     0.074 A 
ATOM     56  C   UNL A   1      48.373  29.396  27.245  1.00  0.00     0.029 A 
ATOM     57  N   UNL A   1      46.276  28.799  27.680  1.00  0.00    -0.354 N 
ATOM     58  N   UNL A   1      43.504  29.273  28.509  1.00  0.00    -0.248 NA
ATOM     59  C   UNL A   1      41.859  30.661  29.415  1.00  0.00     0.031 C 
ATOM     60  C   UNL A   1      47.710  30.491  27.805  1.00  0.00     0.029 A 
ATOM     61  C   UNL A   1      46.392  30.134  28.037  1.00  0.00     0.049 A 
ATOM     62  H   UNL A   1      45.453  28.263  27.751  1.00  0.00     0.167 HD
ATOM     63  C   UNL A   1      44.049  30.528  28.748  1.00  0.00     0.074 A 
ATOM     64  C   UNL A   1      42.981  31.352  29.273  1.00  0.00     0.031 C 
ATOM     65  C   UNL A   1      45.320  30.953  28.546  1.00  0.00     0.037 A 
BRANCH  52  66
ATOM     66  C   UNL A   1      49.131  26.643  26.295  1.00  0.00     0.064 A 
ATOM     67  C   UNL A   1      49.545  26.895  24.978  1.00  0.00     0.173 A 
ATOM     68  C   UNL A   1      50.090  26.154  27.198  1.00  0.00     0.173 A 
ATOM     69  F   UNL A   1      48.670  27.352  24.071  1.00  0.00    -0.203 F 
ATOM     70  C   UNL A   1      50.860  26.661  24.581  1.00  0.00     0.198 A 
ATOM     71  C   UNL A   1      51.412  25.954  26.807  1.00  0.00     0.198 A 
ATOM     72  F   UNL A   1      49.752  25.902  28.472  1.00  0.00    -0.203 F 
ATOM     73  F   UNL A   1      51.223  26.879  23.310  1.00  0.00    -0.200 F 
ATOM     74  C   UNL A   1      51.795  26.204  25.498  1.00  0.00     0.200 A 
ATOM     75  F   UNL A   1      52.316  25.532  27.700  1.00  0.00    -0.200 F 
ATOM     76  F   UNL A   1      53.065  26.004  25.121  1.00  0.00    -0.200 F 
ENDBRANCH  52  66
BRANCH  53  77
ATOM     77  C   UNL A   1      39.776  28.600  29.218  1.00  0.00     0.064 A 
ATOM     78  C   UNL A   1      39.355  28.365  30.533  1.00  0.00     0.173 A 
ATOM     79  C   UNL A   1      38.847  29.153  28.323  1.00  0.00     0.173 A 
ATOM     80  F   UNL A   1      40.201  27.823  31.420  1.00  0.00    -0.203 F 
ATOM     81  C   UNL A   1      38.055  28.661  30.934  1.00  0.00     0.198 A 
ATOM     82  C   UNL A   1      37.559  29.484  28.735  1.00  0.00     0.198 A 
ATOM     83  F   UNL A   1      39.202  29.405  27.054  1.00  0.00    -0.203 F 
ATOM     84  F   UNL A   1      37.666  28.391  32.188  1.00  0.00    -0.200 F 
ATOM     85  C   UNL A   1      37.161  29.230  30.039  1.00  0.00     0.200 A 
ATOM     86  F   UNL A   1      36.709  30.057  27.874  1.00  0.00    -0.200 F 
ATOM     87  F   UNL A   1      35.917  29.534  30.432  1.00  0.00    -0.200 F 
ENDBRANCH  53  77
BRANCH  65  88
ATOM     88  C   UNL A   1      45.624  32.395  28.841  1.00  0.00     0.064 A 
ATOM     89  C   UNL A   1      45.446  33.403  27.883  1.00  0.00     0.173 A 
ATOM     90  C   UNL A   1      46.055  32.779  30.121  1.00  0.00     0.173 A 
ATOM     91  F   UNL A   1      45.048  33.090  26.639  1.00  0.00    -0.203 F 
ATOM     92  C   UNL A   1      45.714  34.735  28.185  1.00  0.00     0.198 A 
ATOM     93  C   UNL A   1      46.284  34.116  30.432  1.00  0.00     0.198 A 
ATOM     94  F   UNL A   1      46.235  31.857  31.080  1.00  0.00    -0.203 F 
ATOM     95  F   UNL A   1      45.589  35.674  27.237  1.00  0.00    -0.200 F 
ATOM     96  C   UNL A   1      46.123  35.092  29.462  1.00  0.00     0.200 A 
ATOM     97  F   UNL A   1      46.658  34.460  31.673  1.00  0.00    -0.200 F 
ATOM     98  F   UNL A   1      46.366  36.377  29.755  1.00  0.00    -0.200 F 
ENDBRANCH  65  88
ENDBRANCH  39  40
ENDBRANCH  31  34
ENDBRANCH  29  30
ENDBRANCH  28  29
ENDBRANCH  27  28
ENDBRANCH   1  27
TORSDOF 16
ENDMDL
