MODEL 1
REMARK VINA RESULT:     -12.2      0.000      0.000
REMARK SMILES NC(=O)C1CC[NH+](Cc2ccc(C(=O)NCCCCCCNC(=O)c3ccc(-c4c5nc(c(-c6c(F)c(F)c(F)c(F)c6F)c6ccc([nH]6)c(-c6c(F)c(F)c(F)c(F)c6F)c6nc(c(-c7c(F)c(F)c(F)c(F)c7F)c7ccc4[nH]7)C=C6)C=C5)cc3)cc2)CC1
REMARK SMILES IDX 18 1 17 2 16 3 15 4 13 5 14 6 12 8 9 9 10 10 89 11 11 12
REMARK SMILES IDX 88 13 8 14 7 15 4 16 5 17 91 18 6 19 90 20 2 22 1 23 3 26
REMARK SMILES IDX 19 27 20 28 21 29 22 30 23 31 24 33 25 34 26 35 87 36 27 37
REMARK SMILES IDX 86 38 28 39 29 40 30 41 80 42 31 43 85 44 79 45 81 46 32 47
REMARK SMILES IDX 84 48 78 49 77 50 33 52 65 53 45 54 64 55 46 56 49 57 63 58
REMARK SMILES IDX 82 59 47 60 48 61 62 63 83 64 50 65 34 66 35 67 43 68 36 69
REMARK SMILES IDX 37 70 41 71 44 72 38 73 39 74 42 75 40 76 66 77 67 78 75 79
REMARK SMILES IDX 68 80 69 81 73 82 76 83 70 84 71 85 74 86 72 87 51 88 52 89
REMARK SMILES IDX 60 90 53 91 54 92 58 93 61 94 55 95 56 96 59 97 57 98
REMARK H PARENT 15 7 7 21 1 24 1 25 22 32 81 51 49 62
REMARK Flexibility Score: inf
ROOT
ATOM      1  C   UNL A   1      34.484  25.814  25.487  1.00  0.00     0.002 C 
ENDROOT
BRANCH   1   2
ATOM      2  C   UNL A   1      33.518  26.996  25.639  1.00  0.00     0.021 C 
BRANCH   2   3
ATOM      3  C   UNL A   1      32.355  26.968  24.644  1.00  0.00     0.116 C 
BRANCH   3   4
ATOM      4  N   UNL A   1      32.859  27.004  23.283  1.00  0.00    -0.352 N 
ATOM      5  C   UNL A   1      33.126  25.997  22.390  1.00  0.00     0.251 C 
ATOM      6  O   UNL A   1      33.515  26.294  21.262  1.00  0.00    -0.269 OA
ATOM      7  H   UNL A   1      33.043  27.909  22.941  1.00  0.00     0.163 HD
BRANCH   5   8
ATOM      8  C   UNL A   1      32.887  24.572  22.725  1.00  0.00     0.039 A 
ATOM      9  C   UNL A   1      32.347  21.958  23.611  1.00  0.00     0.006 A 
ATOM     10  C   UNL A   1      31.329  22.921  23.578  1.00  0.00     0.010 A 
ATOM     11  C   UNL A   1      33.608  22.291  23.093  1.00  0.00     0.010 A 
ATOM     12  C   UNL A   1      31.597  24.219  23.141  1.00  0.00     0.014 A 
ATOM     13  C   UNL A   1      33.872  23.586  22.639  1.00  0.00     0.014 A 
BRANCH   9  14
ATOM     14  C   UNL A   1      32.106  20.603  24.252  1.00  0.00     0.299 C 
BRANCH  14  15
ATOM     15  N   UNL A   1      33.069  19.538  23.902  1.00  0.00    -0.331 N 
ATOM     16  C   UNL A   1      34.512  16.980  24.000  1.00  0.00     0.089 C 
ATOM     17  C   UNL A   1      35.119  18.294  24.498  1.00  0.00     0.075 C 
ATOM     18  C   UNL A   1      33.425  17.269  22.961  1.00  0.00     0.075 C 
ATOM     19  C   UNL A   1      34.039  19.272  24.966  1.00  0.00     0.263 C 
ATOM     20  C   UNL A   1      32.409  18.309  23.446  1.00  0.00     0.263 C 
ATOM     21  H   UNL A   1      33.602  19.900  23.111  1.00  0.00     0.348 HD
BRANCH  16  22
ATOM     22  C   UNL A   1      33.993  16.129  25.157  1.00  0.00     0.220 C 
ATOM     23  N   UNL A   1      33.280  16.809  26.101  1.00  0.00    -0.369 N 
ATOM     24  H   UNL A   1      32.911  16.330  26.878  1.00  0.00     0.159 HD
ATOM     25  H   UNL A   1      33.136  17.778  26.006  1.00  0.00     0.159 HD
ATOM     26  O   UNL A   1      34.186  14.927  25.286  1.00  0.00    -0.275 OA
ENDBRANCH  16  22
ENDBRANCH  14  15
ENDBRANCH   9  14
ENDBRANCH   5   8
ENDBRANCH   3   4
ENDBRANCH   2   3
ENDBRANCH   1   2
BRANCH   1  27
ATOM     27  C   UNL A   1      34.017  24.508  26.142  1.00  0.00     0.002 C 
BRANCH  27  28
ATOM     28  C   UNL A   1      35.091  23.424  26.263  1.00  0.00     0.021 C 
BRANCH  28  29
ATOM     29  C   UNL A   1      36.473  23.845  25.773  1.00  0.00     0.116 C 
BRANCH  29  30
ATOM     30  N   UNL A   1      37.456  22.786  25.939  1.00  0.00    -0.352 N 
ATOM     31  C   UNL A   1      38.768  22.869  26.335  1.00  0.00     0.251 C 
ATOM     32  H   UNL A   1      37.135  21.877  25.739  1.00  0.00     0.163 HD
ATOM     33  O   UNL A   1      39.514  21.904  26.215  1.00  0.00    -0.269 OA
BRANCH  31  34
ATOM     34  C   UNL A   1      39.290  24.134  26.895  1.00  0.00     0.039 A 
ATOM     35  C   UNL A   1      39.970  25.017  26.054  1.00  0.00     0.014 A 
ATOM     36  C   UNL A   1      39.126  24.437  28.250  1.00  0.00     0.014 A 
ATOM     37  C   UNL A   1      40.440  26.232  26.559  1.00  0.00     0.010 A 
ATOM     38  C   UNL A   1      39.534  25.676  28.737  1.00  0.00     0.010 A 
ATOM     39  C   UNL A   1      40.199  26.583  27.897  1.00  0.00    -0.014 A 
BRANCH  39  40
ATOM     40  C   UNL A   1      40.639  27.893  28.439  1.00  0.00     0.031 A 
ATOM     41  C   UNL A   1      42.086  28.127  28.769  1.00  0.00     0.074 A 
ATOM     42  C   UNL A   1      39.724  28.848  28.696  1.00  0.00     0.049 A 
ATOM     43  N   UNL A   1      42.654  29.176  29.311  1.00  0.00    -0.248 NA
ATOM     44  C   UNL A   1      43.017  27.024  28.479  1.00  0.00     0.031 C 
ATOM     45  C   UNL A   1      38.285  28.726  28.457  1.00  0.00     0.029 A 
ATOM     46  N   UNL A   1      39.867  30.108  29.221  1.00  0.00    -0.354 N 
ATOM     47  C   UNL A   1      43.998  28.851  29.444  1.00  0.00     0.074 A 
ATOM     48  C   UNL A   1      44.153  27.492  28.971  1.00  0.00     0.031 C 
ATOM     49  C   UNL A   1      37.682  29.872  28.810  1.00  0.00     0.029 A 
ATOM     50  C   UNL A   1      38.685  30.795  29.334  1.00  0.00     0.049 A 
ATOM     51  H   UNL A   1      40.737  30.483  29.492  1.00  0.00     0.167 HD
ATOM     52  C   UNL A   1      45.013  29.624  29.899  1.00  0.00     0.037 A 
ATOM     53  C   UNL A   1      38.436  32.030  29.812  1.00  0.00     0.037 A 
ATOM     54  C   UNL A   1      44.857  30.987  30.335  1.00  0.00     0.049 A 
ATOM     55  C   UNL A   1      39.581  32.865  30.317  1.00  0.00     0.074 A 
ATOM     56  C   UNL A   1      45.834  31.880  30.740  1.00  0.00     0.029 A 
ATOM     57  N   UNL A   1      43.644  31.652  30.429  1.00  0.00    -0.354 N 
ATOM     58  N   UNL A   1      40.858  32.576  30.367  1.00  0.00    -0.248 NA
ATOM     59  C   UNL A   1      39.248  34.202  30.829  1.00  0.00     0.031 C 
ATOM     60  C   UNL A   1      45.206  33.068  31.128  1.00  0.00     0.029 A 
ATOM     61  C   UNL A   1      43.844  32.936  30.913  1.00  0.00     0.049 A 
ATOM     62  H   UNL A   1      42.769  31.270  30.187  1.00  0.00     0.167 HD
ATOM     63  C   UNL A   1      41.484  33.703  30.883  1.00  0.00     0.074 A 
ATOM     64  C   UNL A   1      40.447  34.685  31.120  1.00  0.00     0.031 C 
ATOM     65  C   UNL A   1      42.801  33.905  31.136  1.00  0.00     0.037 A 
BRANCH  52  66
ATOM     66  C   UNL A   1      46.384  29.013  29.952  1.00  0.00     0.064 A 
ATOM     67  C   UNL A   1      47.263  29.073  28.860  1.00  0.00     0.173 A 
ATOM     68  C   UNL A   1      46.838  28.390  31.125  1.00  0.00     0.173 A 
ATOM     69  F   UNL A   1      46.876  29.649  27.712  1.00  0.00    -0.203 F 
ATOM     70  C   UNL A   1      48.533  28.505  28.929  1.00  0.00     0.198 A 
ATOM     71  C   UNL A   1      48.119  27.850  31.201  1.00  0.00     0.198 A 
ATOM     72  F   UNL A   1      46.040  28.310  32.200  1.00  0.00    -0.203 F 
ATOM     73  F   UNL A   1      49.335  28.529  27.857  1.00  0.00    -0.200 F 
ATOM     74  C   UNL A   1      48.961  27.899  30.102  1.00  0.00     0.200 A 
ATOM     75  F   UNL A   1      48.537  27.278  32.339  1.00  0.00    -0.200 F 
ATOM     76  F   UNL A   1      50.186  27.359  30.169  1.00  0.00    -0.200 F 
ENDBRANCH  52  66
BRANCH  53  77
ATOM     77  C   UNL A   1      37.049  32.564  29.806  1.00  0.00     0.064 A 
ATOM     78  C   UNL A   1      36.561  33.274  28.701  1.00  0.00     0.173 A 
ATOM     79  C   UNL A   1      36.188  32.383  30.897  1.00  0.00     0.173 A 
ATOM     80  F   UNL A   1      37.353  33.491  27.641  1.00  0.00    -0.203 F 
ATOM     81  C   UNL A   1      35.271  33.800  28.695  1.00  0.00     0.198 A 
ATOM     82  C   UNL A   1      34.888  32.884  30.880  1.00  0.00     0.198 A 
ATOM     83  F   UNL A   1      36.604  31.706  31.978  1.00  0.00    -0.203 F 
ATOM     84  F   UNL A   1      34.845  34.514  27.644  1.00  0.00    -0.200 F 
ATOM     85  C   UNL A   1      34.434  33.600  29.782  1.00  0.00     0.200 A 
ATOM     86  F   UNL A   1      34.077  32.676  31.926  1.00  0.00    -0.200 F 
ATOM     87  F   UNL A   1      33.191  34.102  29.776  1.00  0.00    -0.200 F 
ENDBRANCH  53  77
BRANCH  65  88
ATOM     88  C   UNL A   1      43.201  35.253  31.662  1.00  0.00     0.064 A 
ATOM     89  C   UNL A   1      43.164  35.550  33.032  1.00  0.00     0.173 A 
ATOM     90  C   UNL A   1      43.664  36.247  30.786  1.00  0.00     0.173 A 
ATOM     91  F   UNL A   1      42.714  34.639  33.909  1.00  0.00    -0.203 F 
ATOM     92  C   UNL A   1      43.552  36.801  33.503  1.00  0.00     0.198 A 
ATOM     93  C   UNL A   1      44.081  37.485  31.264  1.00  0.00     0.198 A 
ATOM     94  F   UNL A   1      43.725  36.010  29.467  1.00  0.00    -0.203 F 
ATOM     95  F   UNL A   1      43.462  37.081  34.810  1.00  0.00    -0.200 F 
ATOM     96  C   UNL A   1      44.018  37.764  32.620  1.00  0.00     0.200 A 
ATOM     97  F   UNL A   1      44.544  38.410  30.410  1.00  0.00    -0.200 F 
ATOM     98  F   UNL A   1      44.398  38.966  33.076  1.00  0.00    -0.200 F 
ENDBRANCH  65  88
ENDBRANCH  39  40
ENDBRANCH  31  34
ENDBRANCH  29  30
ENDBRANCH  28  29
ENDBRANCH  27  28
ENDBRANCH   1  27
TORSDOF 16
ENDMDL
MODEL 2
REMARK VINA RESULT:     -12.2      4.435      8.881
REMARK SMILES NC(=O)C1CC[NH+](Cc2ccc(C(=O)NCCCCCCNC(=O)c3ccc(-c4c5nc(c(-c6c(F)c(F)c(F)c(F)c6F)c6ccc([nH]6)c(-c6c(F)c(F)c(F)c(F)c6F)c6nc(c(-c7c(F)c(F)c(F)c(F)c7F)c7ccc4[nH]7)C=C6)C=C5)cc3)cc2)CC1
REMARK SMILES IDX 18 1 17 2 16 3 15 4 13 5 14 6 12 8 9 9 10 10 89 11 11 12
REMARK SMILES IDX 88 13 8 14 7 15 4 16 5 17 91 18 6 19 90 20 2 22 1 23 3 26
REMARK SMILES IDX 19 27 20 28 21 29 22 30 23 31 24 33 25 34 26 35 87 36 27 37
REMARK SMILES IDX 86 38 28 39 29 40 30 41 80 42 31 43 85 44 79 45 81 46 32 47
REMARK SMILES IDX 84 48 78 49 77 50 33 52 65 53 45 54 64 55 46 56 49 57 63 58
REMARK SMILES IDX 82 59 47 60 48 61 62 63 83 64 50 65 34 66 35 67 43 68 36 69
REMARK SMILES IDX 37 70 41 71 44 72 38 73 39 74 42 75 40 76 66 77 67 78 75 79
REMARK SMILES IDX 68 80 69 81 73 82 76 83 70 84 71 85 74 86 72 87 51 88 52 89
REMARK SMILES IDX 60 90 53 91 54 92 58 93 61 94 55 95 56 96 59 97 57 98
REMARK H PARENT 15 7 7 21 1 24 1 25 22 32 81 51 49 62
REMARK Flexibility Score: inf
ROOT
ATOM      1  C   UNL A   1      34.375  32.050  28.644  1.00  0.00     0.002 C 
ENDROOT
BRANCH   1   2
ATOM      2  C   UNL A   1      35.159  31.064  27.768  1.00  0.00     0.021 C 
BRANCH   2   3
ATOM      3  C   UNL A   1      34.350  29.827  27.366  1.00  0.00     0.116 C 
BRANCH   3   4
ATOM      4  N   UNL A   1      33.926  29.934  25.982  1.00  0.00    -0.352 N 
ATOM      5  C   UNL A   1      33.301  29.035  25.155  1.00  0.00     0.251 C 
ATOM      6  O   UNL A   1      33.005  29.387  24.015  1.00  0.00    -0.269 OA
ATOM      7  H   UNL A   1      34.121  30.804  25.563  1.00  0.00     0.163 HD
BRANCH   5   8
ATOM      8  C   UNL A   1      32.910  27.684  25.625  1.00  0.00     0.039 A 
ATOM      9  C   UNL A   1      32.251  25.026  26.267  1.00  0.00     0.006 A 
ATOM     10  C   UNL A   1      33.563  25.367  25.914  1.00  0.00     0.010 A 
ATOM     11  C   UNL A   1      31.300  26.050  26.399  1.00  0.00     0.010 A 
ATOM     12  C   UNL A   1      33.890  26.685  25.593  1.00  0.00     0.014 A 
ATOM     13  C   UNL A   1      31.632  27.373  26.094  1.00  0.00     0.014 A 
BRANCH   9  14
ATOM     14  C   UNL A   1      31.852  23.572  26.440  1.00  0.00     0.299 C 
BRANCH  14  15
ATOM     15  N   UNL A   1      32.663  22.583  25.700  1.00  0.00    -0.331 N 
ATOM     16  C   UNL A   1      33.601  19.991  24.680  1.00  0.00     0.089 C 
ATOM     17  C   UNL A   1      34.327  20.758  25.788  1.00  0.00     0.075 C 
ATOM     18  C   UNL A   1      32.784  20.963  23.824  1.00  0.00     0.075 C 
ATOM     19  C   UNL A   1      33.366  21.647  26.581  1.00  0.00     0.263 C 
ATOM     20  C   UNL A   1      31.892  21.882  24.665  1.00  0.00     0.263 C 
ATOM     21  H   UNL A   1      33.382  23.122  25.220  1.00  0.00     0.348 HD
BRANCH  16  22
ATOM     22  C   UNL A   1      32.744  18.863  25.249  1.00  0.00     0.220 C 
ATOM     23  N   UNL A   1      32.931  18.605  26.575  1.00  0.00    -0.369 N 
ATOM     24  H   UNL A   1      32.414  17.892  27.016  1.00  0.00     0.159 HD
ATOM     25  H   UNL A   1      33.582  19.133  27.092  1.00  0.00     0.159 HD
ATOM     26  O   UNL A   1      31.947  18.194  24.604  1.00  0.00    -0.275 OA
ENDBRANCH  16  22
ENDBRANCH  14  15
ENDBRANCH   9  14
ENDBRANCH   5   8
ENDBRANCH   3   4
ENDBRANCH   2   3
ENDBRANCH   1   2
BRANCH   1  27
ATOM     27  C   UNL A   1      34.470  33.518  28.211  1.00  0.00     0.002 C 
BRANCH  27  28
ATOM     28  C   UNL A   1      33.193  34.337  28.411  1.00  0.00     0.021 C 
BRANCH  28  29
ATOM     29  C   UNL A   1      33.421  35.743  28.957  1.00  0.00     0.116 C 
BRANCH  29  30
ATOM     30  N   UNL A   1      32.661  35.985  30.174  1.00  0.00    -0.352 N 
ATOM     31  C   UNL A   1      32.824  35.443  31.424  1.00  0.00     0.251 C 
ATOM     32  H   UNL A   1      31.924  36.630  30.089  1.00  0.00     0.163 HD
ATOM     33  O   UNL A   1      31.962  35.594  32.283  1.00  0.00    -0.269 OA
BRANCH  31  34
ATOM     34  C   UNL A   1      34.038  34.657  31.734  1.00  0.00     0.039 A 
ATOM     35  C   UNL A   1      35.291  35.251  31.562  1.00  0.00     0.014 A 
ATOM     36  C   UNL A   1      33.940  33.334  32.173  1.00  0.00     0.014 A 
ATOM     37  C   UNL A   1      36.446  34.534  31.882  1.00  0.00     0.010 A 
ATOM     38  C   UNL A   1      35.088  32.645  32.557  1.00  0.00     0.010 A 
ATOM     39  C   UNL A   1      36.352  33.237  32.411  1.00  0.00    -0.014 A 
BRANCH  39  40
ATOM     40  C   UNL A   1      37.564  32.480  32.812  1.00  0.00     0.031 A 
ATOM     41  C   UNL A   1      38.256  32.793  34.109  1.00  0.00     0.074 A 
ATOM     42  C   UNL A   1      38.079  31.557  31.977  1.00  0.00     0.049 A 
ATOM     43  N   UNL A   1      39.361  32.291  34.602  1.00  0.00    -0.248 NA
ATOM     44  C   UNL A   1      37.641  33.831  34.953  1.00  0.00     0.031 C 
ATOM     45  C   UNL A   1      37.523  31.194  30.673  1.00  0.00     0.029 A 
ATOM     46  N   UNL A   1      39.191  30.762  32.097  1.00  0.00    -0.354 N 
ATOM     47  C   UNL A   1      39.581  32.963  35.798  1.00  0.00     0.074 A 
ATOM     48  C   UNL A   1      38.524  33.941  35.933  1.00  0.00     0.031 C 
ATOM     49  C   UNL A   1      38.280  30.230  30.125  1.00  0.00     0.029 A 
ATOM     50  C   UNL A   1      39.395  29.934  31.021  1.00  0.00     0.049 A 
ATOM     51  H   UNL A   1      39.787  30.783  32.880  1.00  0.00     0.167 HD
ATOM     52  C   UNL A   1      40.564  32.766  36.709  1.00  0.00     0.037 A 
ATOM     53  C   UNL A   1      40.374  29.041  30.781  1.00  0.00     0.037 A 
ATOM     54  C   UNL A   1      41.593  31.768  36.584  1.00  0.00     0.049 A 
ATOM     55  C   UNL A   1      41.457  28.847  31.807  1.00  0.00     0.074 A 
ATOM     56  C   UNL A   1      42.587  31.437  37.488  1.00  0.00     0.029 A 
ATOM     57  N   UNL A   1      41.763  30.942  35.482  1.00  0.00    -0.354 N 
ATOM     58  N   UNL A   1      41.613  29.434  32.968  1.00  0.00    -0.248 NA
ATOM     59  C   UNL A   1      42.499  27.861  31.489  1.00  0.00     0.031 C 
ATOM     60  C   UNL A   1      43.390  30.446  36.910  1.00  0.00     0.029 A 
ATOM     61  C   UNL A   1      42.864  30.122  35.671  1.00  0.00     0.049 A 
ATOM     62  H   UNL A   1      41.186  30.939  34.684  1.00  0.00     0.167 HD
ATOM     63  C   UNL A   1      42.748  28.868  33.533  1.00  0.00     0.074 A 
ATOM     64  C   UNL A   1      43.235  27.882  32.591  1.00  0.00     0.031 C 
ATOM     65  C   UNL A   1      43.332  29.140  34.726  1.00  0.00     0.037 A 
BRANCH  52  66
ATOM     66  C   UNL A   1      40.577  33.653  37.921  1.00  0.00     0.064 A 
ATOM     67  C   UNL A   1      41.411  34.778  38.005  1.00  0.00     0.173 A 
ATOM     68  C   UNL A   1      39.716  33.393  38.999  1.00  0.00     0.173 A 
ATOM     69  F   UNL A   1      42.259  35.066  37.007  1.00  0.00    -0.203 F 
ATOM     70  C   UNL A   1      41.406  35.592  39.135  1.00  0.00     0.198 A 
ATOM     71  C   UNL A   1      39.691  34.227  40.114  1.00  0.00     0.198 A 
ATOM     72  F   UNL A   1      38.893  32.334  38.967  1.00  0.00    -0.203 F 
ATOM     73  F   UNL A   1      42.248  36.630  39.215  1.00  0.00    -0.200 F 
ATOM     74  C   UNL A   1      40.541  35.318  40.186  1.00  0.00     0.200 A 
ATOM     75  F   UNL A   1      38.845  33.970  41.122  1.00  0.00    -0.200 F 
ATOM     76  F   UNL A   1      40.533  36.107  41.270  1.00  0.00    -0.200 F 
ENDBRANCH  52  66
BRANCH  53  77
ATOM     77  C   UNL A   1      40.358  28.238  29.530  1.00  0.00     0.064 A 
ATOM     78  C   UNL A   1      41.083  28.652  28.404  1.00  0.00     0.173 A 
ATOM     79  C   UNL A   1      39.621  27.050  29.431  1.00  0.00     0.173 A 
ATOM     80  F   UNL A   1      41.788  29.792  28.445  1.00  0.00    -0.203 F 
ATOM     81  C   UNL A   1      41.055  27.919  27.220  1.00  0.00     0.198 A 
ATOM     82  C   UNL A   1      39.616  26.302  28.255  1.00  0.00     0.198 A 
ATOM     83  F   UNL A   1      38.914  26.606  30.481  1.00  0.00    -0.203 F 
ATOM     84  F   UNL A   1      41.721  28.362  26.145  1.00  0.00    -0.200 F 
ATOM     85  C   UNL A   1      40.327  26.742  27.148  1.00  0.00     0.200 A 
ATOM     86  F   UNL A   1      38.922  25.157  28.194  1.00  0.00    -0.200 F 
ATOM     87  F   UNL A   1      40.303  26.034  26.011  1.00  0.00    -0.200 F 
ENDBRANCH  53  77
BRANCH  65  88
ATOM     88  C   UNL A   1      44.542  28.333  35.098  1.00  0.00     0.064 A 
ATOM     89  C   UNL A   1      44.432  27.104  35.765  1.00  0.00     0.173 A 
ATOM     90  C   UNL A   1      45.826  28.778  34.747  1.00  0.00     0.173 A 
ATOM     91  F   UNL A   1      43.228  26.643  36.136  1.00  0.00    -0.203 F 
ATOM     92  C   UNL A   1      45.565  26.362  36.089  1.00  0.00     0.198 A 
ATOM     93  C   UNL A   1      46.954  28.019  35.045  1.00  0.00     0.198 A 
ATOM     94  F   UNL A   1      45.985  29.944  34.103  1.00  0.00    -0.203 F 
ATOM     95  F   UNL A   1      45.440  25.215  36.771  1.00  0.00    -0.200 F 
ATOM     96  C   UNL A   1      46.823  26.816  35.723  1.00  0.00     0.200 A 
ATOM     97  F   UNL A   1      48.168  28.452  34.678  1.00  0.00    -0.200 F 
ATOM     98  F   UNL A   1      47.912  26.097  36.029  1.00  0.00    -0.200 F 
ENDBRANCH  65  88
ENDBRANCH  39  40
ENDBRANCH  31  34
ENDBRANCH  29  30
ENDBRANCH  28  29
ENDBRANCH  27  28
ENDBRANCH   1  27
TORSDOF 16
ENDMDL
MODEL 3
REMARK VINA RESULT:     -12.2      3.581      9.470
REMARK SMILES NC(=O)C1CC[NH+](Cc2ccc(C(=O)NCCCCCCNC(=O)c3ccc(-c4c5nc(c(-c6c(F)c(F)c(F)c(F)c6F)c6ccc([nH]6)c(-c6c(F)c(F)c(F)c(F)c6F)c6nc(c(-c7c(F)c(F)c(F)c(F)c7F)c7ccc4[nH]7)C=C6)C=C5)cc3)cc2)CC1
REMARK SMILES IDX 18 1 17 2 16 3 15 4 13 5 14 6 12 8 9 9 10 10 89 11 11 12
REMARK SMILES IDX 88 13 8 14 7 15 4 16 5 17 91 18 6 19 90 20 2 22 1 23 3 26
REMARK SMILES IDX 19 27 20 28 21 29 22 30 23 31 24 33 25 34 26 35 87 36 27 37
REMARK SMILES IDX 86 38 28 39 29 40 30 41 80 42 31 43 85 44 79 45 81 46 32 47
REMARK SMILES IDX 84 48 78 49 77 50 33 52 65 53 45 54 64 55 46 56 49 57 63 58
REMARK SMILES IDX 82 59 47 60 48 61 62 63 83 64 50 65 34 66 35 67 43 68 36 69
REMARK SMILES IDX 37 70 41 71 44 72 38 73 39 74 42 75 40 76 66 77 67 78 75 79
REMARK SMILES IDX 68 80 69 81 73 82 76 83 70 84 71 85 74 86 72 87 51 88 52 89
REMARK SMILES IDX 60 90 53 91 54 92 58 93 61 94 55 95 56 96 59 97 57 98
REMARK H PARENT 15 7 7 21 1 24 1 25 22 32 81 51 49 62
REMARK Flexibility Score: inf
ROOT
ATOM      1  C   UNL A   1      37.335  21.750  24.470  1.00  0.00     0.002 C 
ENDROOT
BRANCH   1   2
ATOM      2  C   UNL A   1      38.165  22.643  25.401  1.00  0.00     0.021 C 
BRANCH   2   3
ATOM      3  C   UNL A   1      37.332  23.688  26.149  1.00  0.00     0.116 C 
BRANCH   3   4
ATOM      4  N   UNL A   1      36.119  23.083  26.668  1.00  0.00    -0.352 N 
ATOM      5  C   UNL A   1      34.798  23.307  26.373  1.00  0.00     0.251 C 
ATOM      6  O   UNL A   1      33.942  22.623  26.930  1.00  0.00    -0.269 OA
ATOM      7  H   UNL A   1      36.270  22.390  27.352  1.00  0.00     0.163 HD
BRANCH   5   8
ATOM      8  C   UNL A   1      34.384  24.298  25.350  1.00  0.00     0.039 A 
ATOM      9  C   UNL A   1      33.362  26.206  23.554  1.00  0.00     0.006 A 
ATOM     10  C   UNL A   1      33.526  26.523  24.909  1.00  0.00     0.010 A 
ATOM     11  C   UNL A   1      33.817  24.962  23.092  1.00  0.00     0.010 A 
ATOM     12  C   UNL A   1      34.032  25.576  25.801  1.00  0.00     0.014 A 
ATOM     13  C   UNL A   1      34.339  24.019  23.983  1.00  0.00     0.014 A 
BRANCH   9  14
ATOM     14  C   UNL A   1      32.649  27.165  22.619  1.00  0.00     0.299 C 
BRANCH  14  15
ATOM     15  N   UNL A   1      31.474  27.866  23.178  1.00  0.00    -0.331 N 
ATOM     16  C   UNL A   1      29.184  29.697  23.367  1.00  0.00     0.089 C 
ATOM     17  C   UNL A   1      30.518  29.964  24.067  1.00  0.00     0.075 C 
ATOM     18  C   UNL A   1      29.015  28.195  23.123  1.00  0.00     0.075 C 
ATOM     19  C   UNL A   1      31.684  29.308  23.325  1.00  0.00     0.263 C 
ATOM     20  C   UNL A   1      30.238  27.567  22.446  1.00  0.00     0.263 C 
ATOM     21  H   UNL A   1      31.357  27.495  24.121  1.00  0.00     0.348 HD
BRANCH  16  22
ATOM     22  C   UNL A   1      29.053  30.508  22.080  1.00  0.00     0.220 C 
ATOM     23  N   UNL A   1      29.494  31.797  22.160  1.00  0.00    -0.369 N 
ATOM     24  H   UNL A   1      29.444  32.384  21.371  1.00  0.00     0.159 HD
ATOM     25  H   UNL A   1      29.862  32.139  23.006  1.00  0.00     0.159 HD
ATOM     26  O   UNL A   1      28.580  30.089  21.031  1.00  0.00    -0.275 OA
ENDBRANCH  16  22
ENDBRANCH  14  15
ENDBRANCH   9  14
ENDBRANCH   5   8
ENDBRANCH   3   4
ENDBRANCH   2   3
ENDBRANCH   1   2
BRANCH   1  27
ATOM     27  C   UNL A   1      37.101  20.323  24.980  1.00  0.00     0.002 C 
BRANCH  27  28
ATOM     28  C   UNL A   1      38.337  19.419  24.966  1.00  0.00     0.021 C 
BRANCH  28  29
ATOM     29  C   UNL A   1      39.451  19.854  25.912  1.00  0.00     0.116 C 
BRANCH  29  30
ATOM     30  N   UNL A   1      40.527  18.877  25.971  1.00  0.00    -0.352 N 
ATOM     31  C   UNL A   1      41.882  19.078  26.060  1.00  0.00     0.251 C 
ATOM     32  H   UNL A   1      40.244  17.935  25.944  1.00  0.00     0.163 HD
ATOM     33  O   UNL A   1      42.661  18.148  25.883  1.00  0.00    -0.269 OA
BRANCH  31  34
ATOM     34  C   UNL A   1      42.409  20.428  26.354  1.00  0.00     0.039 A 
ATOM     35  C   UNL A   1      42.938  21.192  25.311  1.00  0.00     0.014 A 
ATOM     36  C   UNL A   1      42.400  20.930  27.659  1.00  0.00     0.014 A 
ATOM     37  C   UNL A   1      43.409  22.482  25.566  1.00  0.00     0.010 A 
ATOM     38  C   UNL A   1      42.806  22.240  27.900  1.00  0.00     0.010 A 
ATOM     39  C   UNL A   1      43.318  23.027  26.857  1.00  0.00    -0.014 A 
BRANCH  39  40
ATOM     40  C   UNL A   1      43.759  24.416  27.138  1.00  0.00     0.031 A 
ATOM     41  C   UNL A   1      42.776  25.432  27.649  1.00  0.00     0.074 A 
ATOM     42  C   UNL A   1      45.028  24.778  26.870  1.00  0.00     0.049 A 
ATOM     43  N   UNL A   1      42.953  26.708  27.890  1.00  0.00    -0.248 NA
ATOM     44  C   UNL A   1      41.404  24.959  27.894  1.00  0.00     0.031 C 
ATOM     45  C   UNL A   1      46.064  23.894  26.332  1.00  0.00     0.029 A 
ATOM     46  N   UNL A   1      45.662  25.988  27.004  1.00  0.00    -0.354 N 
ATOM     47  C   UNL A   1      41.715  27.190  28.295  1.00  0.00     0.074 A 
ATOM     48  C   UNL A   1      40.785  26.084  28.221  1.00  0.00     0.031 C 
ATOM     49  C   UNL A   1      47.209  24.583  26.208  1.00  0.00     0.029 A 
ATOM     50  C   UNL A   1      46.980  25.965  26.620  1.00  0.00     0.049 A 
ATOM     51  H   UNL A   1      45.214  26.796  27.344  1.00  0.00     0.167 HD
ATOM     52  C   UNL A   1      41.389  28.438  28.710  1.00  0.00     0.037 A 
ATOM     53  C   UNL A   1      47.899  26.950  26.597  1.00  0.00     0.037 A 
ATOM     54  C   UNL A   1      42.326  29.525  28.813  1.00  0.00     0.049 A 
ATOM     55  C   UNL A   1      47.508  28.327  27.058  1.00  0.00     0.074 A 
ATOM     56  C   UNL A   1      42.113  30.804  29.296  1.00  0.00     0.029 A 
ATOM     57  N   UNL A   1      43.655  29.462  28.421  1.00  0.00    -0.354 N 
ATOM     58  N   UNL A   1      46.355  28.754  27.510  1.00  0.00    -0.248 NA
ATOM     59  C   UNL A   1      48.552  29.361  27.008  1.00  0.00     0.031 C 
ATOM     60  C   UNL A   1      43.300  31.530  29.149  1.00  0.00     0.029 A 
ATOM     61  C   UNL A   1      44.267  30.689  28.625  1.00  0.00     0.049 A 
ATOM     62  H   UNL A   1      44.099  28.663  28.054  1.00  0.00     0.167 HD
ATOM     63  C   UNL A   1      46.541  30.092  27.829  1.00  0.00     0.074 A 
ATOM     64  C   UNL A   1      47.922  30.404  27.529  1.00  0.00     0.031 C 
ATOM     65  C   UNL A   1      45.646  30.982  28.328  1.00  0.00     0.037 A 
BRANCH  52  66
ATOM     66  C   UNL A   1      39.956  28.696  29.080  1.00  0.00     0.064 A 
ATOM     67  C   UNL A   1      39.023  29.161  28.141  1.00  0.00     0.173 A 
ATOM     68  C   UNL A   1      39.503  28.440  30.383  1.00  0.00     0.173 A 
ATOM     69  F   UNL A   1      39.405  29.431  26.884  1.00  0.00    -0.203 F 
ATOM     70  C   UNL A   1      37.697  29.391  28.501  1.00  0.00     0.198 A 
ATOM     71  C   UNL A   1      38.170  28.640  30.731  1.00  0.00     0.198 A 
ATOM     72  F   UNL A   1      40.352  27.988  31.318  1.00  0.00    -0.203 F 
ATOM     73  F   UNL A   1      36.837  29.885  27.601  1.00  0.00    -0.200 F 
ATOM     74  C   UNL A   1      37.271  29.124  29.794  1.00  0.00     0.200 A 
ATOM     75  F   UNL A   1      37.756  28.369  31.977  1.00  0.00    -0.200 F 
ATOM     76  F   UNL A   1      35.993  29.339  30.137  1.00  0.00    -0.200 F 
ENDBRANCH  52  66
BRANCH  53  77
ATOM     77  C   UNL A   1      49.287  26.661  26.153  1.00  0.00     0.064 A 
ATOM     78  C   UNL A   1      49.677  26.896  24.827  1.00  0.00     0.173 A 
ATOM     79  C   UNL A   1      50.248  26.145  27.034  1.00  0.00     0.173 A 
ATOM     80  F   UNL A   1      48.789  27.370  23.942  1.00  0.00    -0.203 F 
ATOM     81  C   UNL A   1      50.969  26.606  24.394  1.00  0.00     0.198 A 
ATOM     82  C   UNL A   1      51.548  25.882  26.608  1.00  0.00     0.198 A 
ATOM     83  F   UNL A   1      49.927  25.908  28.315  1.00  0.00    -0.203 F 
ATOM     84  F   UNL A   1      51.303  26.797  23.111  1.00  0.00    -0.200 F 
ATOM     85  C   UNL A   1      51.905  26.105  25.286  1.00  0.00     0.200 A 
ATOM     86  F   UNL A   1      52.454  25.412  27.477  1.00  0.00    -0.200 F 
ATOM     87  F   UNL A   1      53.149  25.830  24.873  1.00  0.00    -0.200 F 
ENDBRANCH  53  77
BRANCH  65  88
ATOM     88  C   UNL A   1      46.145  32.368  28.617  1.00  0.00     0.064 A 
ATOM     89  C   UNL A   1      46.069  33.392  27.663  1.00  0.00     0.173 A 
ATOM     90  C   UNL A   1      46.668  32.684  29.881  1.00  0.00     0.173 A 
ATOM     91  F   UNL A   1      45.591  33.137  26.435  1.00  0.00    -0.203 F 
ATOM     92  C   UNL A   1      46.523  34.676  27.953  1.00  0.00     0.198 A 
ATOM     93  C   UNL A   1      47.091  33.976  30.178  1.00  0.00     0.198 A 
ATOM     94  F   UNL A   1      46.756  31.742  30.831  1.00  0.00    -0.203 F 
ATOM     95  F   UNL A   1      46.487  35.627  27.010  1.00  0.00    -0.200 F 
ATOM     96  C   UNL A   1      47.026  34.969  29.212  1.00  0.00     0.200 A 
ATOM     97  F   UNL A   1      47.564  34.260  31.400  1.00  0.00    -0.200 F 
ATOM     98  F   UNL A   1      47.455  36.207  29.493  1.00  0.00    -0.200 F 
ENDBRANCH  65  88
ENDBRANCH  39  40
ENDBRANCH  31  34
ENDBRANCH  29  30
ENDBRANCH  28  29
ENDBRANCH  27  28
ENDBRANCH   1  27
TORSDOF 16
ENDMDL
