MODEL 1
REMARK VINA RESULT:     -12.1      0.000      0.000
REMARK SMILES CC(C)(C)c1ccc(CSc2ccnc(C(=O)NCCCCCCNC(=O)c3ccc(-c4c5nc(c(-c6c(F)c(F)c(F)c(F)c6F)c6ccc([nH]6)c(-c6c(F)c(F)c(F)c(F)c6F)c6nc(c(-c7c(F)c(F)c(F)c(F)c7F)c7ccc4[nH]7)C=C6)C=C5)cc3)c2)cc1
REMARK SMILES IDX 20 1 19 2 18 3 16 4 17 5 15 7 11 8 12 9 91 10 13 11 14 12
REMARK SMILES IDX 10 13 9 14 8 15 5 16 6 17 93 18 7 19 92 20 2 21 1 22 3 23
REMARK SMILES IDX 4 24 21 25 22 26 23 27 24 28 25 29 26 30 27 32 28 33 29 34
REMARK SMILES IDX 90 35 30 36 89 37 31 38 32 39 33 40 83 41 34 42 88 43 82 44
REMARK SMILES IDX 84 45 35 46 87 47 81 48 80 49 36 51 68 52 48 53 67 54 49 55
REMARK SMILES IDX 52 56 66 57 85 58 50 59 51 60 65 62 86 63 53 64 37 65 38 66
REMARK SMILES IDX 46 67 39 68 40 69 44 70 47 71 41 72 42 73 45 74 43 75 69 76
REMARK SMILES IDX 70 77 78 78 71 79 72 80 76 81 79 82 73 83 74 84 77 85 75 86
REMARK SMILES IDX 54 87 55 88 63 89 56 90 57 91 61 92 64 93 58 94 59 95 62 96
REMARK SMILES IDX 60 97
REMARK H PARENT 18 6 25 31 84 50 52 61
REMARK Flexibility Score: inf
ROOT
ATOM      1  C   UNL A   1      32.012  25.036  22.655  1.00  0.00     0.021 C 
ENDROOT
BRANCH   1   2
ATOM      2  C   UNL A   1      30.931  24.214  23.343  1.00  0.00     0.116 C 
BRANCH   2   3
ATOM      3  N   UNL A   1      30.305  24.880  24.471  1.00  0.00    -0.351 N 
ATOM      4  C   UNL A   1      30.638  24.987  25.809  1.00  0.00     0.269 C 
ATOM      5  O   UNL A   1      29.873  25.653  26.511  1.00  0.00    -0.268 OA
ATOM      6  H   UNL A   1      29.475  25.352  24.235  1.00  0.00     0.163 HD
BRANCH   4   7
ATOM      7  C   UNL A   1      31.826  24.302  26.436  1.00  0.00     0.129 A 
ATOM      8  C   UNL A   1      34.159  23.731  26.509  1.00  0.00     0.011 A 
ATOM      9  C   UNL A   1      33.851  22.718  27.407  1.00  0.00     0.035 A 
ATOM     10  C   UNL A   1      33.138  24.594  26.104  1.00  0.00     0.049 A 
ATOM     11  C   UNL A   1      32.537  22.591  27.824  1.00  0.00     0.113 A 
ATOM     12  N   UNL A   1      31.521  23.326  27.329  1.00  0.00    -0.251 NA
BRANCH   8  13
ATOM     13  S   UNL A   1      35.730  23.955  25.674  1.00  0.00    -0.121 SA
BRANCH  13  14
ATOM     14  C   UNL A   1      35.583  22.995  24.125  1.00  0.00     0.110 C 
BRANCH  14  15
ATOM     15  C   UNL A   1      35.104  21.587  24.347  1.00  0.00    -0.038 A 
ATOM     16  C   UNL A   1      34.290  18.877  24.564  1.00  0.00    -0.043 A 
ATOM     17  C   UNL A   1      33.404  19.873  24.118  1.00  0.00     0.004 A 
ATOM     18  C   UNL A   1      35.575  19.285  24.954  1.00  0.00     0.004 A 
ATOM     19  C   UNL A   1      33.797  21.208  24.025  1.00  0.00     0.005 A 
ATOM     20  C   UNL A   1      35.973  20.620  24.857  1.00  0.00     0.005 A 
BRANCH  16  21
ATOM     21  C   UNL A   1      33.865  17.401  24.549  1.00  0.00    -0.013 C 
ATOM     22  C   UNL A   1      32.592  17.183  25.394  1.00  0.00     0.016 C 
ATOM     23  C   UNL A   1      34.944  16.444  25.103  1.00  0.00     0.016 C 
ATOM     24  C   UNL A   1      33.582  16.997  23.087  1.00  0.00     0.016 C 
ENDBRANCH  16  21
ENDBRANCH  14  15
ENDBRANCH  13  14
ENDBRANCH   8  13
ENDBRANCH   4   7
ENDBRANCH   2   3
ENDBRANCH   1   2
BRANCH   1  25
ATOM     25  C   UNL A   1      31.837  26.553  22.697  1.00  0.00     0.002 C 
BRANCH  25  26
ATOM     26  C   UNL A   1      32.867  27.331  23.522  1.00  0.00     0.002 C 
BRANCH  26  27
ATOM     27  C   UNL A   1      32.401  28.668  24.105  1.00  0.00     0.021 C 
BRANCH  27  28
ATOM     28  C   UNL A   1      33.223  29.198  25.275  1.00  0.00     0.116 C 
BRANCH  28  29
ATOM     29  N   UNL A   1      32.717  30.463  25.781  1.00  0.00    -0.352 N 
ATOM     30  C   UNL A   1      33.145  31.216  26.845  1.00  0.00     0.251 C 
ATOM     31  H   UNL A   1      31.950  30.833  25.287  1.00  0.00     0.163 HD
ATOM     32  O   UNL A   1      32.474  32.166  27.236  1.00  0.00    -0.269 OA
BRANCH  30  33
ATOM     33  C   UNL A   1      34.407  30.879  27.538  1.00  0.00     0.039 A 
ATOM     34  C   UNL A   1      35.366  31.881  27.713  1.00  0.00     0.014 A 
ATOM     35  C   UNL A   1      34.660  29.581  27.989  1.00  0.00     0.014 A 
ATOM     36  C   UNL A   1      36.552  31.596  28.394  1.00  0.00     0.010 A 
ATOM     37  C   UNL A   1      35.811  29.315  28.728  1.00  0.00     0.010 A 
ATOM     38  C   UNL A   1      36.769  30.319  28.937  1.00  0.00    -0.014 A 
BRANCH  38  39
ATOM     39  C   UNL A   1      37.987  30.020  29.731  1.00  0.00     0.031 A 
ATOM     40  C   UNL A   1      39.035  29.088  29.192  1.00  0.00     0.074 A 
ATOM     41  C   UNL A   1      38.115  30.539  30.967  1.00  0.00     0.049 A 
ATOM     42  N   UNL A   1      40.134  28.660  29.761  1.00  0.00    -0.248 NA
ATOM     43  C   UNL A   1      38.803  28.543  27.847  1.00  0.00     0.031 C 
ATOM     44  C   UNL A   1      37.144  31.420  31.617  1.00  0.00     0.029 A 
ATOM     45  N   UNL A   1      39.109  30.393  31.901  1.00  0.00    -0.354 N 
ATOM     46  C   UNL A   1      40.717  27.790  28.850  1.00  0.00     0.074 A 
ATOM     47  C   UNL A   1      39.823  27.706  27.715  1.00  0.00     0.031 C 
ATOM     48  C   UNL A   1      37.602  31.756  32.832  1.00  0.00     0.029 A 
ATOM     49  C   UNL A   1      38.877  31.084  33.065  1.00  0.00     0.049 A 
ATOM     50  H   UNL A   1      39.914  29.845  31.752  1.00  0.00     0.167 HD
ATOM     51  C   UNL A   1      41.901  27.136  28.942  1.00  0.00     0.037 A 
ATOM     52  C   UNL A   1      39.606  31.162  34.193  1.00  0.00     0.037 A 
ATOM     53  C   UNL A   1      42.794  27.236  30.067  1.00  0.00     0.049 A 
ATOM     54  C   UNL A   1      40.908  30.413  34.279  1.00  0.00     0.074 A 
ATOM     55  C   UNL A   1      44.045  26.668  30.230  1.00  0.00     0.029 A 
ATOM     56  N   UNL A   1      42.525  27.949  31.228  1.00  0.00    -0.354 N 
ATOM     57  N   UNL A   1      41.485  29.651  33.382  1.00  0.00    -0.248 NA
ATOM     58  C   UNL A   1      41.662  30.540  35.534  1.00  0.00     0.031 C 
ATOM     59  C   UNL A   1      44.509  26.991  31.510  1.00  0.00     0.029 A 
ATOM     60  C   UNL A   1      43.574  27.807  32.124  1.00  0.00     0.049 A 
ATOM     61  H   UNL A   1      41.710  28.476  31.391  1.00  0.00     0.167 HD
ATOM     62  C   UNL A   1      42.677  29.227  33.951  1.00  0.00     0.074 A 
ATOM     63  C   UNL A   1      42.750  29.831  35.267  1.00  0.00     0.031 C 
ATOM     64  C   UNL A   1      43.629  28.412  33.432  1.00  0.00     0.037 A 
BRANCH  51  65
ATOM     65  C   UNL A   1      42.292  26.251  27.794  1.00  0.00     0.064 A 
ATOM     66  C   UNL A   1      41.786  24.947  27.660  1.00  0.00     0.173 A 
ATOM     67  C   UNL A   1      43.170  26.715  26.802  1.00  0.00     0.173 A 
ATOM     68  F   UNL A   1      40.952  24.450  28.584  1.00  0.00    -0.203 F 
ATOM     69  C   UNL A   1      42.176  24.131  26.601  1.00  0.00     0.198 A 
ATOM     70  C   UNL A   1      43.531  25.907  25.727  1.00  0.00     0.198 A 
ATOM     71  F   UNL A   1      43.678  27.954  26.875  1.00  0.00    -0.203 F 
ATOM     72  F   UNL A   1      41.728  22.870  26.530  1.00  0.00    -0.200 F 
ATOM     73  C   UNL A   1      43.043  24.613  25.633  1.00  0.00     0.200 A 
ATOM     74  F   UNL A   1      44.358  26.379  24.784  1.00  0.00    -0.200 F 
ATOM     75  F   UNL A   1      43.416  23.826  24.614  1.00  0.00    -0.200 F 
ENDBRANCH  51  65
BRANCH  52  76
ATOM     76  C   UNL A   1      39.132  32.007  35.320  1.00  0.00     0.064 A 
ATOM     77  C   UNL A   1      38.386  31.451  36.368  1.00  0.00     0.173 A 
ATOM     78  C   UNL A   1      39.426  33.377  35.383  1.00  0.00     0.173 A 
ATOM     79  F   UNL A   1      38.062  30.150  36.342  1.00  0.00    -0.203 F 
ATOM     80  C   UNL A   1      37.940  32.235  37.430  1.00  0.00     0.198 A 
ATOM     81  C   UNL A   1      39.003  34.154  36.459  1.00  0.00     0.198 A 
ATOM     82  F   UNL A   1      40.142  33.955  34.407  1.00  0.00    -0.203 F 
ATOM     83  F   UNL A   1      37.196  31.686  38.399  1.00  0.00    -0.200 F 
ATOM     84  C   UNL A   1      38.255  33.585  37.478  1.00  0.00     0.200 A 
ATOM     85  F   UNL A   1      39.324  35.455  36.509  1.00  0.00    -0.200 F 
ATOM     86  F   UNL A   1      37.835  34.337  38.504  1.00  0.00    -0.200 F 
ENDBRANCH  52  76
BRANCH  64  87
ATOM     87  C   UNL A   1      44.840  28.144  34.277  1.00  0.00     0.064 A 
ATOM     88  C   UNL A   1      45.939  29.016  34.287  1.00  0.00     0.173 A 
ATOM     89  C   UNL A   1      44.885  27.021  35.117  1.00  0.00     0.173 A 
ATOM     90  F   UNL A   1      45.952  30.094  33.489  1.00  0.00    -0.203 F 
ATOM     91  C   UNL A   1      47.049  28.758  35.088  1.00  0.00     0.198 A 
ATOM     92  C   UNL A   1      45.983  26.785  35.940  1.00  0.00     0.198 A 
ATOM     93  F   UNL A   1      43.858  26.159  35.151  1.00  0.00    -0.203 F 
ATOM     94  F   UNL A   1      48.108  29.578  35.043  1.00  0.00    -0.200 F 
ATOM     95  C   UNL A   1      47.067  27.648  35.919  1.00  0.00     0.200 A 
ATOM     96  F   UNL A   1      45.993  25.719  36.753  1.00  0.00    -0.200 F 
ATOM     97  F   UNL A   1      48.133  27.408  36.694  1.00  0.00    -0.200 F 
ENDBRANCH  64  87
ENDBRANCH  38  39
ENDBRANCH  30  33
ENDBRANCH  28  29
ENDBRANCH  27  28
ENDBRANCH  26  27
ENDBRANCH  25  26
ENDBRANCH   1  25
TORSDOF 17
ENDMDL
MODEL 2
REMARK VINA RESULT:     -11.6      0.638      7.198
REMARK SMILES CC(C)(C)c1ccc(CSc2ccnc(C(=O)NCCCCCCNC(=O)c3ccc(-c4c5nc(c(-c6c(F)c(F)c(F)c(F)c6F)c6ccc([nH]6)c(-c6c(F)c(F)c(F)c(F)c6F)c6nc(c(-c7c(F)c(F)c(F)c(F)c7F)c7ccc4[nH]7)C=C6)C=C5)cc3)c2)cc1
REMARK SMILES IDX 20 1 19 2 18 3 16 4 17 5 15 7 11 8 12 9 91 10 13 11 14 12
REMARK SMILES IDX 10 13 9 14 8 15 5 16 6 17 93 18 7 19 92 20 2 21 1 22 3 23
REMARK SMILES IDX 4 24 21 25 22 26 23 27 24 28 25 29 26 30 27 32 28 33 29 34
REMARK SMILES IDX 90 35 30 36 89 37 31 38 32 39 33 40 83 41 34 42 88 43 82 44
REMARK SMILES IDX 84 45 35 46 87 47 81 48 80 49 36 51 68 52 48 53 67 54 49 55
REMARK SMILES IDX 52 56 66 57 85 58 50 59 51 60 65 62 86 63 53 64 37 65 38 66
REMARK SMILES IDX 46 67 39 68 40 69 44 70 47 71 41 72 42 73 45 74 43 75 69 76
REMARK SMILES IDX 70 77 78 78 71 79 72 80 76 81 79 82 73 83 74 84 77 85 75 86
REMARK SMILES IDX 54 87 55 88 63 89 56 90 57 91 61 92 64 93 58 94 59 95 62 96
REMARK SMILES IDX 60 97
REMARK H PARENT 18 6 25 31 84 50 52 61
REMARK Flexibility Score: inf
ROOT
ATOM      1  C   UNL A   1      31.668  25.701  22.776  1.00  0.00     0.021 C 
ENDROOT
BRANCH   1   2
ATOM      2  C   UNL A   1      30.803  24.596  23.370  1.00  0.00     0.116 C 
BRANCH   2   3
ATOM      3  N   UNL A   1      30.070  24.990  24.558  1.00  0.00    -0.351 N 
ATOM      4  C   UNL A   1      30.354  24.924  25.910  1.00  0.00     0.269 C 
ATOM      5  O   UNL A   1      29.492  25.368  26.673  1.00  0.00    -0.268 OA
ATOM      6  H   UNL A   1      29.190  25.385  24.362  1.00  0.00     0.163 HD
BRANCH   4   7
ATOM      7  C   UNL A   1      31.607  24.303  26.475  1.00  0.00     0.129 A 
ATOM      8  C   UNL A   1      33.986  23.973  26.514  1.00  0.00     0.011 A 
ATOM      9  C   UNL A   1      33.786  22.843  27.296  1.00  0.00     0.035 A 
ATOM     10  C   UNL A   1      32.881  24.763  26.191  1.00  0.00     0.049 A 
ATOM     11  C   UNL A   1      32.492  22.537  27.683  1.00  0.00     0.113 A 
ATOM     12  N   UNL A   1      31.405  23.211  27.256  1.00  0.00    -0.251 NA
BRANCH   8  13
ATOM     13  S   UNL A   1      35.526  24.447  25.726  1.00  0.00    -0.121 SA
BRANCH  13  14
ATOM     14  C   UNL A   1      35.450  23.706  24.057  1.00  0.00     0.110 C 
BRANCH  14  15
ATOM     15  C   UNL A   1      34.968  22.281  24.065  1.00  0.00    -0.038 A 
ATOM     16  C   UNL A   1      33.957  19.638  24.277  1.00  0.00    -0.043 A 
ATOM     17  C   UNL A   1      35.268  19.954  24.674  1.00  0.00     0.004 A 
ATOM     18  C   UNL A   1      33.187  20.670  23.717  1.00  0.00     0.004 A 
ATOM     19  C   UNL A   1      35.772  21.249  24.557  1.00  0.00     0.005 A 
ATOM     20  C   UNL A   1      33.688  21.969  23.602  1.00  0.00     0.005 A 
BRANCH  16  21
ATOM     21  C   UNL A   1      33.391  18.232  24.523  1.00  0.00    -0.013 C 
ATOM     22  C   UNL A   1      32.565  18.189  25.827  1.00  0.00     0.016 C 
ATOM     23  C   UNL A   1      34.479  17.142  24.641  1.00  0.00     0.016 C 
ATOM     24  C   UNL A   1      32.482  17.864  23.331  1.00  0.00     0.016 C 
ENDBRANCH  16  21
ENDBRANCH  14  15
ENDBRANCH  13  14
ENDBRANCH   8  13
ENDBRANCH   4   7
ENDBRANCH   2   3
ENDBRANCH   1   2
BRANCH   1  25
ATOM     25  C   UNL A   1      31.579  27.066  23.454  1.00  0.00     0.002 C 
BRANCH  25  26
ATOM     26  C   UNL A   1      32.907  27.697  23.883  1.00  0.00     0.002 C 
BRANCH  26  27
ATOM     27  C   UNL A   1      32.848  29.156  24.346  1.00  0.00     0.021 C 
BRANCH  27  28
ATOM     28  C   UNL A   1      33.258  29.404  25.794  1.00  0.00     0.116 C 
BRANCH  28  29
ATOM     29  N   UNL A   1      32.967  30.759  26.230  1.00  0.00    -0.352 N 
ATOM     30  C   UNL A   1      33.550  31.506  27.222  1.00  0.00     0.251 C 
ATOM     31  H   UNL A   1      32.240  31.208  25.740  1.00  0.00     0.163 HD
ATOM     32  O   UNL A   1      33.045  32.568  27.570  1.00  0.00    -0.269 OA
BRANCH  30  33
ATOM     33  C   UNL A   1      34.781  31.030  27.888  1.00  0.00     0.039 A 
ATOM     34  C   UNL A   1      35.861  31.909  28.016  1.00  0.00     0.014 A 
ATOM     35  C   UNL A   1      34.885  29.719  28.364  1.00  0.00     0.014 A 
ATOM     36  C   UNL A   1      37.022  31.493  28.672  1.00  0.00     0.010 A 
ATOM     37  C   UNL A   1      36.016  29.328  29.078  1.00  0.00     0.010 A 
ATOM     38  C   UNL A   1      37.095  30.210  29.238  1.00  0.00    -0.014 A 
BRANCH  38  39
ATOM     39  C   UNL A   1      38.289  29.777  30.007  1.00  0.00     0.031 A 
ATOM     40  C   UNL A   1      38.530  30.301  31.394  1.00  0.00     0.074 A 
ATOM     41  C   UNL A   1      39.190  28.962  29.427  1.00  0.00     0.049 A 
ATOM     42  N   UNL A   1      39.543  30.086  32.196  1.00  0.00    -0.248 NA
ATOM     43  C   UNL A   1      37.512  31.209  31.942  1.00  0.00     0.031 C 
ATOM     44  C   UNL A   1      39.089  28.423  28.070  1.00  0.00     0.029 A 
ATOM     45  N   UNL A   1      40.373  28.451  29.900  1.00  0.00    -0.354 N 
ATOM     46  C   UNL A   1      39.289  30.839  33.335  1.00  0.00     0.074 A 
ATOM     47  C   UNL A   1      38.056  31.560  33.098  1.00  0.00     0.031 C 
ATOM     48  C   UNL A   1      40.152  27.638  27.830  1.00  0.00     0.029 A 
ATOM     49  C   UNL A   1      41.027  27.649  28.998  1.00  0.00     0.049 A 
ATOM     50  H   UNL A   1      40.719  28.641  30.803  1.00  0.00     0.167 HD
ATOM     51  C   UNL A   1      40.007  30.906  34.483  1.00  0.00     0.037 A 
ATOM     52  C   UNL A   1      42.202  27.002  29.098  1.00  0.00     0.037 A 
ATOM     53  C   UNL A   1      41.224  30.173  34.719  1.00  0.00     0.049 A 
ATOM     54  C   UNL A   1      42.991  27.106  30.376  1.00  0.00     0.074 A 
ATOM     55  C   UNL A   1      41.992  30.121  35.869  1.00  0.00     0.029 A 
ATOM     56  N   UNL A   1      41.856  29.369  33.780  1.00  0.00    -0.354 N 
ATOM     57  N   UNL A   1      42.705  27.763  31.473  1.00  0.00    -0.248 NA
ATOM     58  C   UNL A   1      44.265  26.375  30.427  1.00  0.00     0.031 C 
ATOM     59  C   UNL A   1      43.116  29.329  35.609  1.00  0.00     0.029 A 
ATOM     60  C   UNL A   1      43.022  28.842  34.316  1.00  0.00     0.049 A 
ATOM     61  H   UNL A   1      41.526  29.199  32.869  1.00  0.00     0.167 HD
ATOM     62  C   UNL A   1      43.746  27.507  32.354  1.00  0.00     0.074 A 
ATOM     63  C   UNL A   1      44.664  26.619  31.667  1.00  0.00     0.031 C 
ATOM     64  C   UNL A   1      43.926  27.963  33.618  1.00  0.00     0.037 A 
BRANCH  51  65
ATOM     65  C   UNL A   1      39.494  31.809  35.567  1.00  0.00     0.064 A 
ATOM     66  C   UNL A   1      38.546  31.372  36.506  1.00  0.00     0.173 A 
ATOM     67  C   UNL A   1      39.968  33.125  35.682  1.00  0.00     0.173 A 
ATOM     68  F   UNL A   1      38.052  30.127  36.436  1.00  0.00    -0.203 F 
ATOM     69  C   UNL A   1      38.063  32.229  37.492  1.00  0.00     0.198 A 
ATOM     70  C   UNL A   1      39.508  33.969  36.691  1.00  0.00     0.198 A 
ATOM     71  F   UNL A   1      40.880  33.594  34.817  1.00  0.00    -0.203 F 
ATOM     72  F   UNL A   1      37.113  31.807  38.338  1.00  0.00    -0.200 F 
ATOM     73  C   UNL A   1      38.549  33.524  37.587  1.00  0.00     0.200 A 
ATOM     74  F   UNL A   1      39.988  35.216  36.790  1.00  0.00    -0.200 F 
ATOM     75  F   UNL A   1      38.084  34.347  38.538  1.00  0.00    -0.200 F 
ENDBRANCH  51  65
BRANCH  52  76
ATOM     76  C   UNL A   1      42.687  26.174  27.964  1.00  0.00     0.064 A 
ATOM     77  C   UNL A   1      43.576  26.703  27.018  1.00  0.00     0.173 A 
ATOM     78  C   UNL A   1      42.288  24.839  27.809  1.00  0.00     0.173 A 
ATOM     79  F   UNL A   1      43.969  27.982  27.112  1.00  0.00    -0.203 F 
ATOM     80  C   UNL A   1      44.037  25.933  25.953  1.00  0.00     0.198 A 
ATOM     81  C   UNL A   1      42.772  24.061  26.759  1.00  0.00     0.198 A 
ATOM     82  F   UNL A   1      41.443  24.283  28.691  1.00  0.00    -0.203 F 
ATOM     83  F   UNL A   1      44.856  26.475  25.042  1.00  0.00    -0.200 F 
ATOM     84  C   UNL A   1      43.641  24.610  25.829  1.00  0.00     0.200 A 
ATOM     85  F   UNL A   1      42.399  22.777  26.652  1.00  0.00    -0.200 F 
ATOM     86  F   UNL A   1      44.093  23.865  24.810  1.00  0.00    -0.200 F 
ENDBRANCH  52  76
BRANCH  64  87
ATOM     87  C   UNL A   1      45.150  27.493  34.350  1.00  0.00     0.064 A 
ATOM     88  C   UNL A   1      46.346  28.226  34.332  1.00  0.00     0.173 A 
ATOM     89  C   UNL A   1      45.113  26.314  35.111  1.00  0.00     0.173 A 
ATOM     90  F   UNL A   1      46.438  29.350  33.607  1.00  0.00    -0.203 F 
ATOM     91  C   UNL A   1      47.468  27.782  35.028  1.00  0.00     0.198 A 
ATOM     92  C   UNL A   1      46.227  25.891  35.831  1.00  0.00     0.198 A 
ATOM     93  F   UNL A   1      43.993  25.580  35.167  1.00  0.00    -0.203 F 
ATOM     94  F   UNL A   1      48.614  28.472  34.956  1.00  0.00    -0.200 F 
ATOM     95  C   UNL A   1      47.404  26.620  35.783  1.00  0.00     0.200 A 
ATOM     96  F   UNL A   1      46.160  24.775  36.571  1.00  0.00    -0.200 F 
ATOM     97  F   UNL A   1      48.483  26.199  36.458  1.00  0.00    -0.200 F 
ENDBRANCH  64  87
ENDBRANCH  38  39
ENDBRANCH  30  33
ENDBRANCH  28  29
ENDBRANCH  27  28
ENDBRANCH  26  27
ENDBRANCH  25  26
ENDBRANCH   1  25
TORSDOF 17
ENDMDL
MODEL 3
REMARK VINA RESULT:     -11.4      5.150     10.659
REMARK SMILES CC(C)(C)c1ccc(CSc2ccnc(C(=O)NCCCCCCNC(=O)c3ccc(-c4c5nc(c(-c6c(F)c(F)c(F)c(F)c6F)c6ccc([nH]6)c(-c6c(F)c(F)c(F)c(F)c6F)c6nc(c(-c7c(F)c(F)c(F)c(F)c7F)c7ccc4[nH]7)C=C6)C=C5)cc3)c2)cc1
REMARK SMILES IDX 20 1 19 2 18 3 16 4 17 5 15 7 11 8 12 9 91 10 13 11 14 12
REMARK SMILES IDX 10 13 9 14 8 15 5 16 6 17 93 18 7 19 92 20 2 21 1 22 3 23
REMARK SMILES IDX 4 24 21 25 22 26 23 27 24 28 25 29 26 30 27 32 28 33 29 34
REMARK SMILES IDX 90 35 30 36 89 37 31 38 32 39 33 40 83 41 34 42 88 43 82 44
REMARK SMILES IDX 84 45 35 46 87 47 81 48 80 49 36 51 68 52 48 53 67 54 49 55
REMARK SMILES IDX 52 56 66 57 85 58 50 59 51 60 65 62 86 63 53 64 37 65 38 66
REMARK SMILES IDX 46 67 39 68 40 69 44 70 47 71 41 72 42 73 45 74 43 75 69 76
REMARK SMILES IDX 70 77 78 78 71 79 72 80 76 81 79 82 73 83 74 84 77 85 75 86
REMARK SMILES IDX 54 87 55 88 63 89 56 90 57 91 61 92 64 93 58 94 59 95 62 96
REMARK SMILES IDX 60 97
REMARK H PARENT 18 6 25 31 84 50 52 61
REMARK Flexibility Score: inf
ROOT
ATOM      1  C   UNL A   1      44.625  23.896  27.743  1.00  0.00     0.021 C 
ENDROOT
BRANCH   1   2
ATOM      2  C   UNL A   1      45.172  24.945  26.784  1.00  0.00     0.116 C 
BRANCH   2   3
ATOM      3  N   UNL A   1      44.177  25.514  25.894  1.00  0.00    -0.351 N 
ATOM      4  C   UNL A   1      43.909  26.805  25.477  1.00  0.00     0.269 C 
ATOM      5  O   UNL A   1      42.971  26.942  24.689  1.00  0.00    -0.268 OA
ATOM      6  H   UNL A   1      43.568  24.844  25.508  1.00  0.00     0.163 HD
BRANCH   4   7
ATOM      7  C   UNL A   1      44.654  28.019  25.974  1.00  0.00     0.129 A 
ATOM      8  C   UNL A   1      44.755  30.141  27.096  1.00  0.00     0.011 A 
ATOM      9  C   UNL A   1      45.989  30.363  26.499  1.00  0.00     0.035 A 
ATOM     10  C   UNL A   1      44.136  28.904  26.904  1.00  0.00     0.049 A 
ATOM     11  C   UNL A   1      46.524  29.358  25.710  1.00  0.00     0.113 A 
ATOM     12  N   UNL A   1      45.869  28.221  25.403  1.00  0.00    -0.251 NA
BRANCH   8  13
ATOM     13  S   UNL A   1      43.779  31.360  27.976  1.00  0.00    -0.121 SA
BRANCH  13  14
ATOM     14  C   UNL A   1      44.998  32.523  28.683  1.00  0.00     0.110 C 
BRANCH  14  15
ATOM     15  C   UNL A   1      44.565  33.961  28.589  1.00  0.00    -0.038 A 
ATOM     16  C   UNL A   1      43.767  36.655  28.188  1.00  0.00    -0.043 A 
ATOM     17  C   UNL A   1      45.095  36.326  28.516  1.00  0.00     0.004 A 
ATOM     18  C   UNL A   1      42.840  35.603  28.124  1.00  0.00     0.004 A 
ATOM     19  C   UNL A   1      45.485  35.004  28.728  1.00  0.00     0.005 A 
ATOM     20  C   UNL A   1      43.229  34.278  28.332  1.00  0.00     0.005 A 
BRANCH  16  21
ATOM     21  C   UNL A   1      43.390  38.105  27.848  1.00  0.00    -0.013 C 
ATOM     22  C   UNL A   1      43.339  38.975  29.122  1.00  0.00     0.016 C 
ATOM     23  C   UNL A   1      42.016  38.237  27.154  1.00  0.00     0.016 C 
ATOM     24  C   UNL A   1      44.460  38.668  26.889  1.00  0.00     0.016 C 
ENDBRANCH  16  21
ENDBRANCH  14  15
ENDBRANCH  13  14
ENDBRANCH   8  13
ENDBRANCH   4   7
ENDBRANCH   2   3
ENDBRANCH   1   2
BRANCH   1  25
ATOM     25  C   UNL A   1      43.114  23.907  27.965  1.00  0.00     0.002 C 
BRANCH  25  26
ATOM     26  C   UNL A   1      42.528  22.693  28.693  1.00  0.00     0.002 C 
BRANCH  26  27
ATOM     27  C   UNL A   1      41.474  21.887  27.929  1.00  0.00     0.021 C 
BRANCH  27  28
ATOM     28  C   UNL A   1      41.384  22.172  26.433  1.00  0.00     0.116 C 
BRANCH  28  29
ATOM     29  N   UNL A   1      40.012  22.225  25.959  1.00  0.00    -0.352 N 
ATOM     30  C   UNL A   1      39.032  23.152  26.211  1.00  0.00     0.251 C 
ATOM     31  H   UNL A   1      39.745  21.483  25.369  1.00  0.00     0.163 HD
ATOM     32  O   UNL A   1      37.874  22.931  25.871  1.00  0.00    -0.269 OA
BRANCH  30  33
ATOM     33  C   UNL A   1      39.361  24.414  26.907  1.00  0.00     0.039 A 
ATOM     34  C   UNL A   1      38.949  24.579  28.233  1.00  0.00     0.014 A 
ATOM     35  C   UNL A   1      40.047  25.442  26.254  1.00  0.00     0.014 A 
ATOM     36  C   UNL A   1      39.278  25.748  28.922  1.00  0.00     0.010 A 
ATOM     37  C   UNL A   1      40.435  26.578  26.963  1.00  0.00     0.010 A 
ATOM     38  C   UNL A   1      40.052  26.743  28.303  1.00  0.00    -0.014 A 
BRANCH  38  39
ATOM     39  C   UNL A   1      40.478  27.956  29.045  1.00  0.00     0.031 A 
ATOM     40  C   UNL A   1      41.863  28.049  29.618  1.00  0.00     0.074 A 
ATOM     41  C   UNL A   1      39.591  28.948  29.255  1.00  0.00     0.049 A 
ATOM     42  N   UNL A   1      42.397  29.000  30.344  1.00  0.00    -0.248 NA
ATOM     43  C   UNL A   1      42.759  26.911  29.366  1.00  0.00     0.031 C 
ATOM     44  C   UNL A   1      38.205  28.953  28.787  1.00  0.00     0.029 A 
ATOM     45  N   UNL A   1      39.721  30.138  29.926  1.00  0.00    -0.354 N 
ATOM     46  C   UNL A   1      43.682  28.569  30.644  1.00  0.00     0.074 A 
ATOM     47  C   UNL A   1      43.830  27.249  30.070  1.00  0.00     0.031 C 
ATOM     48  C   UNL A   1      37.620  30.101  29.163  1.00  0.00     0.029 A 
ATOM     49  C   UNL A   1      38.575  30.895  29.931  1.00  0.00     0.049 A 
ATOM     50  H   UNL A   1      40.556  30.423  30.362  1.00  0.00     0.167 HD
ATOM     51  C   UNL A   1      44.659  29.225  31.318  1.00  0.00     0.037 A 
ATOM     52  C   UNL A   1      38.321  32.089  30.496  1.00  0.00     0.037 A 
ATOM     53  C   UNL A   1      44.511  30.545  31.873  1.00  0.00     0.049 A 
ATOM     54  C   UNL A   1      39.415  32.789  31.256  1.00  0.00     0.074 A 
ATOM     55  C   UNL A   1      45.458  31.323  32.516  1.00  0.00     0.029 A 
ATOM     56  N   UNL A   1      43.334  31.282  31.857  1.00  0.00    -0.354 N 
ATOM     57  N   UNL A   1      40.649  32.405  31.470  1.00  0.00    -0.248 NA
ATOM     58  C   UNL A   1      39.079  34.092  31.847  1.00  0.00     0.031 C 
ATOM     59  C   UNL A   1      44.841  32.506  32.937  1.00  0.00     0.029 A 
ATOM     60  C   UNL A   1      43.524  32.492  32.507  1.00  0.00     0.049 A 
ATOM     61  H   UNL A   1      42.490  30.988  31.445  1.00  0.00     0.167 HD
ATOM     62  C   UNL A   1      41.245  33.425  32.199  1.00  0.00     0.074 A 
ATOM     63  C   UNL A   1      40.239  34.454  32.376  1.00  0.00     0.031 C 
ATOM     64  C   UNL A   1      42.512  33.504  32.678  1.00  0.00     0.037 A 
BRANCH  51  65
ATOM     65  C   UNL A   1      45.971  28.516  31.496  1.00  0.00     0.064 A 
ATOM     66  C   UNL A   1      46.197  27.638  32.569  1.00  0.00     0.173 A 
ATOM     67  C   UNL A   1      47.011  28.701  30.573  1.00  0.00     0.173 A 
ATOM     68  F   UNL A   1      45.241  27.433  33.485  1.00  0.00    -0.203 F 
ATOM     69  C   UNL A   1      47.427  27.006  32.732  1.00  0.00     0.198 A 
ATOM     70  C   UNL A   1      48.229  28.040  30.721  1.00  0.00     0.198 A 
ATOM     71  F   UNL A   1      46.848  29.521  29.524  1.00  0.00    -0.203 F 
ATOM     72  F   UNL A   1      47.639  26.221  33.798  1.00  0.00    -0.200 F 
ATOM     73  C   UNL A   1      48.439  27.203  31.805  1.00  0.00     0.200 A 
ATOM     74  F   UNL A   1      49.202  28.220  29.816  1.00  0.00    -0.200 F 
ATOM     75  F   UNL A   1      49.622  26.592  31.963  1.00  0.00    -0.200 F 
ENDBRANCH  51  65
BRANCH  52  76
ATOM     76  C   UNL A   1      36.980  32.709  30.338  1.00  0.00     0.064 A 
ATOM     77  C   UNL A   1      36.001  32.565  31.330  1.00  0.00     0.173 A 
ATOM     78  C   UNL A   1      36.653  33.468  29.205  1.00  0.00     0.173 A 
ATOM     79  F   UNL A   1      36.259  31.830  32.422  1.00  0.00    -0.203 F 
ATOM     80  C   UNL A   1      34.742  33.146  31.190  1.00  0.00     0.198 A 
ATOM     81  C   UNL A   1      35.404  34.071  29.078  1.00  0.00     0.198 A 
ATOM     82  F   UNL A   1      37.557  33.641  28.228  1.00  0.00    -0.203 F 
ATOM     83  F   UNL A   1      33.813  32.960  32.137  1.00  0.00    -0.200 F 
ATOM     84  C   UNL A   1      34.447  33.905  30.068  1.00  0.00     0.200 A 
ATOM     85  F   UNL A   1      35.129  34.818  27.999  1.00  0.00    -0.200 F 
ATOM     86  F   UNL A   1      33.240  34.472  29.939  1.00  0.00    -0.200 F 
ENDBRANCH  52  76
BRANCH  64  87
ATOM     87  C   UNL A   1      42.889  34.754  33.419  1.00  0.00     0.064 A 
ATOM     88  C   UNL A   1      42.809  34.834  34.817  1.00  0.00     0.173 A 
ATOM     89  C   UNL A   1      43.374  35.873  32.723  1.00  0.00     0.173 A 
ATOM     90  F   UNL A   1      42.337  33.798  35.526  1.00  0.00    -0.203 F 
ATOM     91  C   UNL A   1      43.176  35.998  35.489  1.00  0.00     0.198 A 
ATOM     92  C   UNL A   1      43.769  37.022  33.402  1.00  0.00     0.198 A 
ATOM     93  F   UNL A   1      43.476  35.846  31.386  1.00  0.00    -0.203 F 
ATOM     94  F   UNL A   1      43.045  36.068  36.820  1.00  0.00    -0.200 F 
ATOM     95  C   UNL A   1      43.663  37.087  34.781  1.00  0.00     0.200 A 
ATOM     96  F   UNL A   1      44.253  38.069  32.717  1.00  0.00    -0.200 F 
ATOM     97  F   UNL A   1      44.023  38.202  35.431  1.00  0.00    -0.200 F 
ENDBRANCH  64  87
ENDBRANCH  38  39
ENDBRANCH  30  33
ENDBRANCH  28  29
ENDBRANCH  27  28
ENDBRANCH  26  27
ENDBRANCH  25  26
ENDBRANCH   1  25
TORSDOF 17
ENDMDL
