MODEL 1
REMARK VINA RESULT:     -11.6      0.000      0.000
REMARK SMILES Cc1cnc(C)c(N2CCC[C@@](CC3CC3)(C(=O)NCCCCCCNC(=O)c3ccc(-c4c5nc(c(-c6c(F)c(F)c(F)c(F)c6F)c6ccc([nH]6)c(-c6c(F)c(F)c(F)c(F)c6F)c6nc(c(-c7c(F)c(F)c(F)c(F)c7F)c7ccc4[nH]7)C=C6)C=C5)cc3)C2)n1
REMARK SMILES IDX 22 1 21 2 20 3 19 4 17 5 18 6 12 8 8 9 9 10 92 11 10 12
REMARK SMILES IDX 11 13 7 14 1 15 2 16 3 17 93 18 4 19 5 20 6 21 13 22 14 23
REMARK SMILES IDX 15 24 16 25 23 26 24 27 25 28 26 29 27 30 28 32 29 33 30 34
REMARK SMILES IDX 91 35 31 36 90 37 32 38 33 39 34 40 84 41 35 42 89 43 83 44
REMARK SMILES IDX 85 45 36 46 88 47 82 48 81 49 37 51 69 52 49 53 68 54 50 55
REMARK SMILES IDX 53 56 67 57 86 58 51 59 52 60 66 62 87 63 54 64 38 65 39 66
REMARK SMILES IDX 47 67 40 68 41 69 45 70 48 71 42 72 43 73 46 74 44 75 70 76
REMARK SMILES IDX 71 77 79 78 72 79 73 80 77 81 80 82 74 83 75 84 78 85 76 86
REMARK SMILES IDX 55 87 56 88 64 89 57 90 58 91 62 92 65 93 59 94 60 95 63 96
REMARK SMILES IDX 61 97
REMARK H PARENT 19 7 26 31 85 50 53 61
REMARK Flexibility Score: inf
ROOT
ATOM      1  C   UNL A   1      35.727  18.275  24.626  1.00  0.00     0.002 C 
ENDROOT
BRANCH   1   2
ATOM      2  C   UNL A   1      34.242  18.381  24.283  1.00  0.00     0.021 C 
BRANCH   2   3
ATOM      3  C   UNL A   1      33.574  19.695  24.659  1.00  0.00     0.116 C 
BRANCH   3   4
ATOM      4  N   UNL A   1      32.684  20.256  23.681  1.00  0.00    -0.356 N 
ATOM      5  C   UNL A   1      32.319  21.552  23.473  1.00  0.00     0.228 C 
ATOM      6  O   UNL A   1      31.769  21.756  22.383  1.00  0.00    -0.274 OA
ATOM      7  H   UNL A   1      32.276  19.604  23.068  1.00  0.00     0.163 HD
BRANCH   5   8
ATOM      8  C   UNL A   1      32.576  22.724  24.477  1.00  0.00     0.067 C 
ATOM      9  N   UNL A   1      31.529  24.912  25.000  1.00  0.00    -0.354 N 
ATOM     10  C   UNL A   1      31.021  24.584  26.315  1.00  0.00     0.118 C 
ATOM     11  C   UNL A   1      31.514  23.814  24.028  1.00  0.00     0.135 C 
ATOM     12  C   UNL A   1      31.950  23.528  26.898  1.00  0.00     0.023 C 
ATOM     13  C   UNL A   1      32.203  22.357  25.940  1.00  0.00     0.020 C 
BRANCH   9  14
ATOM     14  C   UNL A   1      31.319  26.197  24.532  1.00  0.00     0.150 A 
ATOM     15  C   UNL A   1      28.547  28.164  23.126  1.00  0.00     0.068 C 
ATOM     16  C   UNL A   1      29.911  27.777  23.602  1.00  0.00     0.058 A 
ATOM     17  C   UNL A   1      30.966  28.671  23.505  1.00  0.00     0.135 A 
ATOM     18  N   UNL A   1      30.078  26.530  24.110  1.00  0.00    -0.233 NA
ATOM     19  N   UNL A   1      32.213  28.374  23.919  1.00  0.00    -0.256 NA
ATOM     20  C   UNL A   1      32.379  27.126  24.440  1.00  0.00     0.080 A 
ATOM     21  C   UNL A   1      33.795  26.756  24.766  1.00  0.00     0.071 C 
ENDBRANCH   9  14
BRANCH   8  22
ATOM     22  C   UNL A   1      33.957  23.392  24.195  1.00  0.00     0.022 C 
BRANCH  22  23
ATOM     23  C   UNL A   1      35.286  22.997  24.787  1.00  0.00    -0.010 C 
ATOM     24  C   UNL A   1      36.612  23.703  24.920  1.00  0.00     0.004 C 
ATOM     25  C   UNL A   1      35.664  23.700  26.076  1.00  0.00     0.004 C 
ENDBRANCH  22  23
ENDBRANCH   8  22
ENDBRANCH   5   8
ENDBRANCH   3   4
ENDBRANCH   2   3
ENDBRANCH   1   2
BRANCH   1  26
ATOM     26  C   UNL A   1      36.440  19.581  25.000  1.00  0.00     0.002 C 
BRANCH  26  27
ATOM     27  C   UNL A   1      37.911  19.711  24.588  1.00  0.00     0.021 C 
BRANCH  27  28
ATOM     28  C   UNL A   1      38.884  20.100  25.696  1.00  0.00     0.116 C 
BRANCH  28  29
ATOM     29  N   UNL A   1      39.958  19.138  25.866  1.00  0.00    -0.352 N 
ATOM     30  C   UNL A   1      41.287  19.329  26.130  1.00  0.00     0.251 C 
ATOM     31  H   UNL A   1      39.687  18.195  25.776  1.00  0.00     0.163 HD
ATOM     32  O   UNL A   1      42.060  18.366  26.092  1.00  0.00    -0.269 OA
BRANCH  30  33
ATOM     33  C   UNL A   1      41.817  20.671  26.445  1.00  0.00     0.039 A 
ATOM     34  C   UNL A   1      42.170  21.515  25.385  1.00  0.00     0.014 A 
ATOM     35  C   UNL A   1      42.014  21.091  27.763  1.00  0.00     0.014 A 
ATOM     36  C   UNL A   1      42.669  22.792  25.646  1.00  0.00     0.010 A 
ATOM     37  C   UNL A   1      42.447  22.390  28.023  1.00  0.00     0.010 A 
ATOM     38  C   UNL A   1      42.784  23.251  26.968  1.00  0.00    -0.014 A 
BRANCH  38  39
ATOM     39  C   UNL A   1      43.260  24.626  27.263  1.00  0.00     0.031 A 
ATOM     40  C   UNL A   1      42.307  25.660  27.795  1.00  0.00     0.074 A 
ATOM     41  C   UNL A   1      44.536  24.959  26.995  1.00  0.00     0.049 A 
ATOM     42  N   UNL A   1      42.516  26.927  28.050  1.00  0.00    -0.248 NA
ATOM     43  C   UNL A   1      40.928  25.217  28.053  1.00  0.00     0.031 C 
ATOM     44  C   UNL A   1      45.545  24.056  26.437  1.00  0.00     0.029 A 
ATOM     45  N   UNL A   1      45.203  26.150  27.143  1.00  0.00    -0.354 N 
ATOM     46  C   UNL A   1      41.296  27.433  28.479  1.00  0.00     0.074 A 
ATOM     47  C   UNL A   1      40.339  26.350  28.404  1.00  0.00     0.031 C 
ATOM     48  C   UNL A   1      46.706  24.718  26.310  1.00  0.00     0.029 A 
ATOM     49  C   UNL A   1      46.515  26.099  26.740  1.00  0.00     0.049 A 
ATOM     50  H   UNL A   1      44.781  26.962  27.504  1.00  0.00     0.167 HD
ATOM     51  C   UNL A   1      41.006  28.683  28.914  1.00  0.00     0.037 A 
ATOM     52  C   UNL A   1      47.456  27.063  26.714  1.00  0.00     0.037 A 
ATOM     53  C   UNL A   1      41.968  29.750  29.013  1.00  0.00     0.049 A 
ATOM     54  C   UNL A   1      47.106  28.443  27.201  1.00  0.00     0.074 A 
ATOM     55  C   UNL A   1      41.789  31.031  29.501  1.00  0.00     0.029 A 
ATOM     56  N   UNL A   1      43.294  29.657  28.611  1.00  0.00    -0.354 N 
ATOM     57  N   UNL A   1      45.967  28.893  27.667  1.00  0.00    -0.248 NA
ATOM     58  C   UNL A   1      48.177  29.449  27.164  1.00  0.00     0.031 C 
ATOM     59  C   UNL A   1      42.993  31.729  29.352  1.00  0.00     0.029 A 
ATOM     60  C   UNL A   1      43.937  30.866  28.820  1.00  0.00     0.049 A 
ATOM     61  H   UNL A   1      43.714  28.850  28.234  1.00  0.00     0.167 HD
ATOM     62  C   UNL A   1      46.190  30.219  28.006  1.00  0.00     0.074 A 
ATOM     63  C   UNL A   1      47.578  30.499  27.704  1.00  0.00     0.031 C 
ATOM     64  C   UNL A   1      45.322  31.125  28.522  1.00  0.00     0.037 A 
BRANCH  51  65
ATOM     65  C   UNL A   1      39.589  28.968  29.319  1.00  0.00     0.064 A 
ATOM     66  C   UNL A   1      38.639  29.435  28.397  1.00  0.00     0.173 A 
ATOM     67  C   UNL A   1      39.163  28.735  30.635  1.00  0.00     0.173 A 
ATOM     68  F   UNL A   1      38.996  29.684  27.128  1.00  0.00    -0.203 F 
ATOM     69  C   UNL A   1      37.326  29.686  28.786  1.00  0.00     0.198 A 
ATOM     70  C   UNL A   1      37.841  28.959  31.014  1.00  0.00     0.198 A 
ATOM     71  F   UNL A   1      40.028  28.283  31.556  1.00  0.00    -0.203 F 
ATOM     72  F   UNL A   1      36.449  30.180  27.899  1.00  0.00    -0.200 F 
ATOM     73  C   UNL A   1      36.926  29.442  30.091  1.00  0.00     0.200 A 
ATOM     74  F   UNL A   1      37.454  28.708  32.272  1.00  0.00    -0.200 F 
ATOM     75  F   UNL A   1      35.660  29.677  30.461  1.00  0.00    -0.200 F 
ENDBRANCH  51  65
BRANCH  52  76
ATOM     76  C   UNL A   1      48.826  26.749  26.233  1.00  0.00     0.064 A 
ATOM     77  C   UNL A   1      49.801  26.255  27.110  1.00  0.00     0.173 A 
ATOM     78  C   UNL A   1      49.192  26.937  24.892  1.00  0.00     0.173 A 
ATOM     79  F   UNL A   1      49.505  26.077  28.406  1.00  0.00    -0.203 F 
ATOM     80  C   UNL A   1      51.095  25.984  26.672  1.00  0.00     0.198 A 
ATOM     81  C   UNL A   1      50.478  26.637  24.447  1.00  0.00     0.198 A 
ATOM     82  F   UNL A   1      48.294  27.402  24.009  1.00  0.00    -0.203 F 
ATOM     83  F   UNL A   1      52.019  25.557  27.542  1.00  0.00    -0.200 F 
ATOM     84  C   UNL A   1      51.430  26.169  25.339  1.00  0.00     0.200 A 
ATOM     85  F   UNL A   1      50.793  26.804  23.156  1.00  0.00    -0.200 F 
ATOM     86  F   UNL A   1      52.674  25.903  24.916  1.00  0.00    -0.200 F 
ENDBRANCH  52  76
BRANCH  64  87
ATOM     87  C   UNL A   1      45.859  32.494  28.828  1.00  0.00     0.064 A 
ATOM     88  C   UNL A   1      45.778  33.542  27.900  1.00  0.00     0.173 A 
ATOM     89  C   UNL A   1      46.427  32.767  30.082  1.00  0.00     0.173 A 
ATOM     90  F   UNL A   1      45.258  33.326  26.681  1.00  0.00    -0.203 F 
ATOM     91  C   UNL A   1      46.270  34.807  28.207  1.00  0.00     0.198 A 
ATOM     92  C   UNL A   1      46.889  34.042  30.396  1.00  0.00     0.198 A 
ATOM     93  F   UNL A   1      46.522  31.801  31.007  1.00  0.00    -0.203 F 
ATOM     94  F   UNL A   1      46.226  35.782  27.287  1.00  0.00    -0.200 F 
ATOM     95  C   UNL A   1      46.817  35.059  29.456  1.00  0.00     0.200 A 
ATOM     96  F   UNL A   1      47.406  34.286  31.609  1.00  0.00    -0.200 F 
ATOM     97  F   UNL A   1      47.283  36.280  29.752  1.00  0.00    -0.200 F 
ENDBRANCH  64  87
ENDBRANCH  38  39
ENDBRANCH  30  33
ENDBRANCH  28  29
ENDBRANCH  27  28
ENDBRANCH  26  27
ENDBRANCH   1  26
TORSDOF 16
ENDMDL
MODEL 2
REMARK VINA RESULT:     -11.6      5.256     10.798
REMARK SMILES Cc1cnc(C)c(N2CCC[C@@](CC3CC3)(C(=O)NCCCCCCNC(=O)c3ccc(-c4c5nc(c(-c6c(F)c(F)c(F)c(F)c6F)c6ccc([nH]6)c(-c6c(F)c(F)c(F)c(F)c6F)c6nc(c(-c7c(F)c(F)c(F)c(F)c7F)c7ccc4[nH]7)C=C6)C=C5)cc3)C2)n1
REMARK SMILES IDX 22 1 21 2 20 3 19 4 17 5 18 6 12 8 8 9 9 10 92 11 10 12
REMARK SMILES IDX 11 13 7 14 1 15 2 16 3 17 93 18 4 19 5 20 6 21 13 22 14 23
REMARK SMILES IDX 15 24 16 25 23 26 24 27 25 28 26 29 27 30 28 32 29 33 30 34
REMARK SMILES IDX 91 35 31 36 90 37 32 38 33 39 34 40 84 41 35 42 89 43 83 44
REMARK SMILES IDX 85 45 36 46 88 47 82 48 81 49 37 51 69 52 49 53 68 54 50 55
REMARK SMILES IDX 53 56 67 57 86 58 51 59 52 60 66 62 87 63 54 64 38 65 39 66
REMARK SMILES IDX 47 67 40 68 41 69 45 70 48 71 42 72 43 73 46 74 44 75 70 76
REMARK SMILES IDX 71 77 79 78 72 79 73 80 77 81 80 82 74 83 75 84 78 85 76 86
REMARK SMILES IDX 55 87 56 88 64 89 57 90 58 91 62 92 65 93 59 94 60 95 63 96
REMARK SMILES IDX 61 97
REMARK H PARENT 19 7 26 31 85 50 53 61
REMARK Flexibility Score: inf
ROOT
ATOM      1  C   UNL A   1      30.383  30.211  24.618  1.00  0.00     0.002 C 
ENDROOT
BRANCH   1   2
ATOM      2  C   UNL A   1      30.916  29.299  23.514  1.00  0.00     0.021 C 
BRANCH   2   3
ATOM      3  C   UNL A   1      29.951  28.234  23.019  1.00  0.00     0.116 C 
BRANCH   3   4
ATOM      4  N   UNL A   1      29.620  27.194  23.954  1.00  0.00    -0.356 N 
ATOM      5  C   UNL A   1      30.390  26.182  24.443  1.00  0.00     0.228 C 
ATOM      6  O   UNL A   1      29.918  25.624  25.443  1.00  0.00    -0.274 OA
ATOM      7  H   UNL A   1      28.697  27.218  24.292  1.00  0.00     0.163 HD
BRANCH   5   8
ATOM      8  C   UNL A   1      31.769  25.742  23.851  1.00  0.00     0.067 C 
ATOM      9  N   UNL A   1      32.892  23.600  23.297  1.00  0.00    -0.354 N 
ATOM     10  C   UNL A   1      32.903  23.745  21.857  1.00  0.00     0.118 C 
ATOM     11  C   UNL A   1      31.720  24.161  23.975  1.00  0.00     0.135 C 
ATOM     12  C   UNL A   1      32.953  25.237  21.562  1.00  0.00     0.023 C 
ATOM     13  C   UNL A   1      31.893  26.036  22.330  1.00  0.00     0.020 C 
BRANCH   9  14
ATOM     14  C   UNL A   1      33.472  22.464  23.833  1.00  0.00     0.150 A 
ATOM     15  C   UNL A   1      32.528  18.968  24.475  1.00  0.00     0.068 C 
ATOM     16  C   UNL A   1      33.315  20.239  24.438  1.00  0.00     0.058 A 
ATOM     17  C   UNL A   1      34.581  20.295  25.001  1.00  0.00     0.135 A 
ATOM     18  N   UNL A   1      32.747  21.323  23.855  1.00  0.00    -0.233 NA
ATOM     19  N   UNL A   1      35.333  21.413  24.993  1.00  0.00    -0.256 NA
ATOM     20  C   UNL A   1      34.766  22.498  24.398  1.00  0.00     0.080 A 
ATOM     21  C   UNL A   1      35.550  23.772  24.520  1.00  0.00     0.071 C 
ENDBRANCH   9  14
BRANCH   8  22
ATOM     22  C   UNL A   1      32.932  26.168  24.800  1.00  0.00     0.022 C 
BRANCH  22  23
ATOM     23  C   UNL A   1      33.027  27.449  25.588  1.00  0.00    -0.010 C 
ATOM     24  C   UNL A   1      34.079  28.028  26.501  1.00  0.00     0.004 C 
ATOM     25  C   UNL A   1      34.028  28.463  25.070  1.00  0.00     0.004 C 
ENDBRANCH  22  23
ENDBRANCH   8  22
ENDBRANCH   5   8
ENDBRANCH   3   4
ENDBRANCH   2   3
ENDBRANCH   1   2
BRANCH   1  26
ATOM     26  C   UNL A   1      31.361  30.571  25.743  1.00  0.00     0.002 C 
BRANCH  26  27
ATOM     27  C   UNL A   1      31.210  31.959  26.376  1.00  0.00     0.021 C 
BRANCH  27  28
ATOM     28  C   UNL A   1      32.460  32.534  27.033  1.00  0.00     0.116 C 
BRANCH  28  29
ATOM     29  N   UNL A   1      32.284  33.908  27.473  1.00  0.00    -0.352 N 
ATOM     30  C   UNL A   1      32.940  34.621  28.438  1.00  0.00     0.251 C 
ATOM     31  H   UNL A   1      31.578  34.406  27.000  1.00  0.00     0.163 HD
ATOM     32  O   UNL A   1      32.529  35.743  28.751  1.00  0.00    -0.269 OA
BRANCH  30  33
ATOM     33  C   UNL A   1      34.122  34.065  29.128  1.00  0.00     0.039 A 
ATOM     34  C   UNL A   1      33.919  33.191  30.202  1.00  0.00     0.014 A 
ATOM     35  C   UNL A   1      35.421  34.427  28.761  1.00  0.00     0.014 A 
ATOM     36  C   UNL A   1      35.014  32.643  30.871  1.00  0.00     0.010 A 
ATOM     37  C   UNL A   1      36.513  33.828  29.385  1.00  0.00     0.010 A 
ATOM     38  C   UNL A   1      36.321  32.934  30.449  1.00  0.00    -0.014 A 
BRANCH  38  39
ATOM     39  C   UNL A   1      37.497  32.317  31.114  1.00  0.00     0.031 A 
ATOM     40  C   UNL A   1      38.259  31.213  30.434  1.00  0.00     0.074 A 
ATOM     41  C   UNL A   1      37.841  32.710  32.355  1.00  0.00     0.049 A 
ATOM     42  N   UNL A   1      39.267  30.507  30.879  1.00  0.00    -0.248 NA
ATOM     43  C   UNL A   1      37.813  30.837  29.083  1.00  0.00     0.031 C 
ATOM     44  C   UNL A   1      37.153  33.741  33.135  1.00  0.00     0.029 A 
ATOM     45  N   UNL A   1      38.847  32.283  33.185  1.00  0.00    -0.354 N 
ATOM     46  C   UNL A   1      39.562  29.595  29.874  1.00  0.00     0.074 A 
ATOM     47  C   UNL A   1      38.597  29.804  28.817  1.00  0.00     0.031 C 
ATOM     48  C   UNL A   1      37.769  33.881  34.319  1.00  0.00     0.029 A 
ATOM     49  C   UNL A   1      38.869  32.925  34.398  1.00  0.00     0.049 A 
ATOM     50  H   UNL A   1      39.491  31.582  32.933  1.00  0.00     0.167 HD
ATOM     51  C   UNL A   1      40.561  28.680  29.830  1.00  0.00     0.037 A 
ATOM     52  C   UNL A   1      39.682  32.756  35.458  1.00  0.00     0.037 A 
ATOM     53  C   UNL A   1      41.535  28.494  30.874  1.00  0.00     0.049 A 
ATOM     54  C   UNL A   1      40.781  31.731  35.384  1.00  0.00     0.074 A 
ATOM     55  C   UNL A   1      42.623  27.640  30.897  1.00  0.00     0.029 A 
ATOM     56  N   UNL A   1      41.536  29.176  32.083  1.00  0.00    -0.354 N 
ATOM     57  N   UNL A   1      41.093  30.920  34.402  1.00  0.00    -0.248 NA
ATOM     58  C   UNL A   1      41.646  31.601  36.565  1.00  0.00     0.031 C 
ATOM     59  C   UNL A   1      43.255  27.770  32.139  1.00  0.00     0.029 A 
ATOM     60  C   UNL A   1      42.593  28.744  32.868  1.00  0.00     0.049 A 
ATOM     61  H   UNL A   1      40.883  29.864  32.343  1.00  0.00     0.167 HD
ATOM     62  C   UNL A   1      42.204  30.209  34.832  1.00  0.00     0.074 A 
ATOM     63  C   UNL A   1      42.521  30.693  36.159  1.00  0.00     0.031 C 
ATOM     64  C   UNL A   1      42.900  29.242  34.184  1.00  0.00     0.037 A 
BRANCH  51  65
ATOM     65  C   UNL A   1      40.652  27.807  28.612  1.00  0.00     0.064 A 
ATOM     66  C   UNL A   1      41.434  28.167  27.504  1.00  0.00     0.173 A 
ATOM     67  C   UNL A   1      39.978  26.577  28.565  1.00  0.00     0.173 A 
ATOM     68  F   UNL A   1      42.090  29.337  27.492  1.00  0.00    -0.203 F 
ATOM     69  C   UNL A   1      41.515  27.342  26.385  1.00  0.00     0.198 A 
ATOM     70  C   UNL A   1      40.085  25.740  27.457  1.00  0.00     0.198 A 
ATOM     71  F   UNL A   1      39.221  26.180  29.599  1.00  0.00    -0.203 F 
ATOM     72  F   UNL A   1      42.229  27.730  25.319  1.00  0.00    -0.200 F 
ATOM     73  C   UNL A   1      40.847  26.127  26.364  1.00  0.00     0.200 A 
ATOM     74  F   UNL A   1      39.450  24.560  27.445  1.00  0.00    -0.200 F 
ATOM     75  F   UNL A   1      40.932  25.332  25.290  1.00  0.00    -0.200 F 
ENDBRANCH  51  65
BRANCH  52  76
ATOM     76  C   UNL A   1      39.503  33.594  36.672  1.00  0.00     0.064 A 
ATOM     77  C   UNL A   1      38.722  33.147  37.746  1.00  0.00     0.173 A 
ATOM     78  C   UNL A   1      40.103  34.857  36.784  1.00  0.00     0.173 A 
ATOM     79  F   UNL A   1      38.111  31.955  37.678  1.00  0.00    -0.203 F 
ATOM     80  C   UNL A   1      38.528  33.939  38.876  1.00  0.00     0.198 A 
ATOM     81  C   UNL A   1      39.934  35.636  37.927  1.00  0.00     0.198 A 
ATOM     82  F   UNL A   1      40.866  35.329  35.787  1.00  0.00    -0.203 F 
ATOM     83  F   UNL A   1      37.739  33.505  39.867  1.00  0.00    -0.200 F 
ATOM     84  C   UNL A   1      39.140  35.180  38.968  1.00  0.00     0.200 A 
ATOM     85  F   UNL A   1      40.538  36.828  38.017  1.00  0.00    -0.200 F 
ATOM     86  F   UNL A   1      38.957  35.939  40.057  1.00  0.00    -0.200 F 
ENDBRANCH  52  76
BRANCH  64  87
ATOM     87  C   UNL A   1      44.096  28.669  34.888  1.00  0.00     0.064 A 
ATOM     88  C   UNL A   1      43.998  27.529  35.700  1.00  0.00     0.173 A 
ATOM     89  C   UNL A   1      45.363  29.247  34.715  1.00  0.00     0.173 A 
ATOM     90  F   UNL A   1      42.806  26.950  35.909  1.00  0.00    -0.203 F 
ATOM     91  C   UNL A   1      45.122  27.005  36.333  1.00  0.00     0.198 A 
ATOM     92  C   UNL A   1      46.489  28.701  35.325  1.00  0.00     0.198 A 
ATOM     93  F   UNL A   1      45.511  30.333  33.943  1.00  0.00    -0.203 F 
ATOM     94  F   UNL A   1      44.996  25.944  37.143  1.00  0.00    -0.200 F 
ATOM     95  C   UNL A   1      46.366  27.585  36.139  1.00  0.00     0.200 A 
ATOM     96  F   UNL A   1      47.693  29.255  35.126  1.00  0.00    -0.200 F 
ATOM     97  F   UNL A   1      47.447  27.074  36.745  1.00  0.00    -0.200 F 
ENDBRANCH  64  87
ENDBRANCH  38  39
ENDBRANCH  30  33
ENDBRANCH  28  29
ENDBRANCH  27  28
ENDBRANCH  26  27
ENDBRANCH   1  26
TORSDOF 16
ENDMDL
MODEL 3
REMARK VINA RESULT:     -11.5      4.604      8.474
REMARK SMILES Cc1cnc(C)c(N2CCC[C@@](CC3CC3)(C(=O)NCCCCCCNC(=O)c3ccc(-c4c5nc(c(-c6c(F)c(F)c(F)c(F)c6F)c6ccc([nH]6)c(-c6c(F)c(F)c(F)c(F)c6F)c6nc(c(-c7c(F)c(F)c(F)c(F)c7F)c7ccc4[nH]7)C=C6)C=C5)cc3)C2)n1
REMARK SMILES IDX 22 1 21 2 20 3 19 4 17 5 18 6 12 8 8 9 9 10 92 11 10 12
REMARK SMILES IDX 11 13 7 14 1 15 2 16 3 17 93 18 4 19 5 20 6 21 13 22 14 23
REMARK SMILES IDX 15 24 16 25 23 26 24 27 25 28 26 29 27 30 28 32 29 33 30 34
REMARK SMILES IDX 91 35 31 36 90 37 32 38 33 39 34 40 84 41 35 42 89 43 83 44
REMARK SMILES IDX 85 45 36 46 88 47 82 48 81 49 37 51 69 52 49 53 68 54 50 55
REMARK SMILES IDX 53 56 67 57 86 58 51 59 52 60 66 62 87 63 54 64 38 65 39 66
REMARK SMILES IDX 47 67 40 68 41 69 45 70 48 71 42 72 43 73 46 74 44 75 70 76
REMARK SMILES IDX 71 77 79 78 72 79 73 80 77 81 80 82 74 83 75 84 78 85 76 86
REMARK SMILES IDX 55 87 56 88 64 89 57 90 58 91 62 92 65 93 59 94 60 95 63 96
REMARK SMILES IDX 61 97
REMARK H PARENT 19 7 26 31 85 50 53 61
REMARK Flexibility Score: inf
ROOT
ATOM      1  C   UNL A   1      30.392  29.434  23.564  1.00  0.00     0.002 C 
ENDROOT
BRANCH   1   2
ATOM      2  C   UNL A   1      31.151  29.005  22.310  1.00  0.00     0.021 C 
BRANCH   2   3
ATOM      3  C   UNL A   1      32.641  28.763  22.495  1.00  0.00     0.116 C 
BRANCH   3   4
ATOM      4  N   UNL A   1      33.196  27.649  21.779  1.00  0.00    -0.356 N 
ATOM      5  C   UNL A   1      33.248  26.330  22.117  1.00  0.00     0.228 C 
ATOM      6  O   UNL A   1      33.527  25.575  21.177  1.00  0.00    -0.274 OA
ATOM      7  H   UNL A   1      33.602  27.873  20.911  1.00  0.00     0.163 HD
BRANCH   5   8
ATOM      8  C   UNL A   1      32.959  25.762  23.546  1.00  0.00     0.067 C 
ATOM      9  N   UNL A   1      33.671  23.798  24.884  1.00  0.00    -0.354 N 
ATOM     10  C   UNL A   1      34.444  24.504  25.883  1.00  0.00     0.118 C 
ATOM     11  C   UNL A   1      33.718  24.369  23.535  1.00  0.00     0.135 C 
ATOM     12  C   UNL A   1      33.830  25.890  26.021  1.00  0.00     0.023 C 
ATOM     13  C   UNL A   1      33.633  26.594  24.672  1.00  0.00     0.020 C 
BRANCH   9  14
ATOM     14  C   UNL A   1      33.567  22.424  25.004  1.00  0.00     0.150 A 
ATOM     15  C   UNL A   1      35.773  19.492  24.750  1.00  0.00     0.068 C 
ATOM     16  C   UNL A   1      34.548  20.333  24.918  1.00  0.00     0.058 A 
ATOM     17  C   UNL A   1      33.312  19.736  25.118  1.00  0.00     0.135 A 
ATOM     18  N   UNL A   1      34.686  21.680  24.853  1.00  0.00    -0.233 NA
ATOM     19  N   UNL A   1      32.178  20.446  25.277  1.00  0.00    -0.256 NA
ATOM     20  C   UNL A   1      32.319  21.799  25.223  1.00  0.00     0.080 A 
ATOM     21  C   UNL A   1      31.035  22.574  25.259  1.00  0.00     0.071 C 
ENDBRANCH   9  14
BRANCH   8  22
ATOM     22  C   UNL A   1      31.453  25.380  23.688  1.00  0.00     0.022 C 
BRANCH  22  23
ATOM     23  C   UNL A   1      30.333  26.284  24.136  1.00  0.00    -0.010 C 
ATOM     24  C   UNL A   1      28.836  26.117  24.217  1.00  0.00     0.004 C 
ATOM     25  C   UNL A   1      29.667  25.904  25.442  1.00  0.00     0.004 C 
ENDBRANCH  22  23
ENDBRANCH   8  22
ENDBRANCH   5   8
ENDBRANCH   3   4
ENDBRANCH   2   3
ENDBRANCH   1   2
BRANCH   1  26
ATOM     26  C   UNL A   1      31.224  30.070  24.686  1.00  0.00     0.002 C 
BRANCH  26  27
ATOM     27  C   UNL A   1      31.523  29.194  25.908  1.00  0.00     0.021 C 
BRANCH  27  28
ATOM     28  C   UNL A   1      32.529  29.758  26.905  1.00  0.00     0.116 C 
BRANCH  28  29
ATOM     29  N   UNL A   1      32.659  31.202  26.817  1.00  0.00    -0.352 N 
ATOM     30  C   UNL A   1      33.602  32.041  27.346  1.00  0.00     0.251 C 
ATOM     31  H   UNL A   1      31.956  31.650  26.293  1.00  0.00     0.163 HD
ATOM     32  O   UNL A   1      33.441  33.264  27.267  1.00  0.00    -0.269 OA
BRANCH  30  33
ATOM     33  C   UNL A   1      34.802  31.511  28.025  1.00  0.00     0.039 A 
ATOM     34  C   UNL A   1      35.891  32.368  28.221  1.00  0.00     0.014 A 
ATOM     35  C   UNL A   1      34.885  30.176  28.429  1.00  0.00     0.014 A 
ATOM     36  C   UNL A   1      37.038  31.902  28.865  1.00  0.00     0.010 A 
ATOM     37  C   UNL A   1      36.003  29.730  29.131  1.00  0.00     0.010 A 
ATOM     38  C   UNL A   1      37.092  30.586  29.351  1.00  0.00    -0.014 A 
BRANCH  38  39
ATOM     39  C   UNL A   1      38.282  30.089  30.088  1.00  0.00     0.031 A 
ATOM     40  C   UNL A   1      38.551  30.552  31.493  1.00  0.00     0.074 A 
ATOM     41  C   UNL A   1      39.151  29.268  29.469  1.00  0.00     0.049 A 
ATOM     42  N   UNL A   1      39.568  30.285  32.272  1.00  0.00    -0.248 NA
ATOM     43  C   UNL A   1      37.557  31.456  32.093  1.00  0.00     0.031 C 
ATOM     44  C   UNL A   1      39.020  28.782  28.094  1.00  0.00     0.029 A 
ATOM     45  N   UNL A   1      40.322  28.703  29.911  1.00  0.00    -0.354 N 
ATOM     46  C   UNL A   1      39.346  30.999  33.443  1.00  0.00     0.074 A 
ATOM     47  C   UNL A   1      38.123  31.749  33.254  1.00  0.00     0.031 C 
ATOM     48  C   UNL A   1      40.058  27.978  27.811  1.00  0.00     0.029 A 
ATOM     49  C   UNL A   1      40.944  27.922  28.970  1.00  0.00     0.049 A 
ATOM     50  H   UNL A   1      40.681  28.847  30.816  1.00  0.00     0.167 HD
ATOM     51  C   UNL A   1      40.084  31.010  34.579  1.00  0.00     0.037 A 
ATOM     52  C   UNL A   1      42.105  27.241  29.032  1.00  0.00     0.037 A 
ATOM     53  C   UNL A   1      41.285  30.241  34.771  1.00  0.00     0.049 A 
ATOM     54  C   UNL A   1      42.907  27.273  30.304  1.00  0.00     0.074 A 
ATOM     55  C   UNL A   1      42.070  30.134  35.906  1.00  0.00     0.029 A 
ATOM     56  N   UNL A   1      41.877  29.445  33.800  1.00  0.00    -0.354 N 
ATOM     57  N   UNL A   1      42.652  27.898  31.428  1.00  0.00    -0.248 NA
ATOM     58  C   UNL A   1      44.156  26.500  30.320  1.00  0.00     0.031 C 
ATOM     59  C   UNL A   1      43.162  29.312  35.608  1.00  0.00     0.029 A 
ATOM     60  C   UNL A   1      43.030  28.863  34.304  1.00  0.00     0.049 A 
ATOM     61  H   UNL A   1      41.529  29.314  32.889  1.00  0.00     0.167 HD
ATOM     62  C   UNL A   1      43.688  27.571  32.291  1.00  0.00     0.074 A 
ATOM     63  C   UNL A   1      44.569  26.680  31.565  1.00  0.00     0.031 C 
ATOM     64  C   UNL A   1      43.891  27.972  33.570  1.00  0.00     0.037 A 
BRANCH  51  65
ATOM     65  C   UNL A   1      39.614  31.885  35.705  1.00  0.00     0.064 A 
ATOM     66  C   UNL A   1      38.630  31.456  36.610  1.00  0.00     0.173 A 
ATOM     67  C   UNL A   1      40.180  33.152  35.907  1.00  0.00     0.173 A 
ATOM     68  F   UNL A   1      38.049  30.257  36.457  1.00  0.00    -0.203 F 
ATOM     69  C   UNL A   1      38.211  32.275  37.655  1.00  0.00     0.198 A 
ATOM     70  C   UNL A   1      39.780  33.957  36.971  1.00  0.00     0.198 A 
ATOM     71  F   UNL A   1      41.128  33.610  35.076  1.00  0.00    -0.203 F 
ATOM     72  F   UNL A   1      37.235  31.864  38.477  1.00  0.00    -0.200 F 
ATOM     73  C   UNL A   1      38.790  33.521  37.840  1.00  0.00     0.200 A 
ATOM     74  F   UNL A   1      40.351  35.156  37.155  1.00  0.00    -0.200 F 
ATOM     75  F   UNL A   1      38.390  34.305  38.849  1.00  0.00    -0.200 F 
ENDBRANCH  51  65
BRANCH  52  76
ATOM     76  C   UNL A   1      42.565  26.450  27.861  1.00  0.00     0.064 A 
ATOM     77  C   UNL A   1      43.469  26.993  26.937  1.00  0.00     0.173 A 
ATOM     78  C   UNL A   1      42.112  25.141  27.638  1.00  0.00     0.173 A 
ATOM     79  F   UNL A   1      43.915  28.248  27.096  1.00  0.00    -0.203 F 
ATOM     80  C   UNL A   1      43.884  26.267  25.824  1.00  0.00     0.198 A 
ATOM     81  C   UNL A   1      42.552  24.405  26.540  1.00  0.00     0.198 A 
ATOM     82  F   UNL A   1      41.252  24.573  28.496  1.00  0.00    -0.203 F 
ATOM     83  F   UNL A   1      44.712  26.827  24.932  1.00  0.00    -0.200 F 
ATOM     84  C   UNL A   1      43.430  24.971  25.630  1.00  0.00     0.200 A 
ATOM     85  F   UNL A   1      42.121  23.148  26.364  1.00  0.00    -0.200 F 
ATOM     86  F   UNL A   1      43.834  24.271  24.560  1.00  0.00    -0.200 F 
ENDBRANCH  52  76
BRANCH  64  87
ATOM     87  C   UNL A   1      45.094  27.420  34.280  1.00  0.00     0.064 A 
ATOM     88  C   UNL A   1      45.043  26.208  34.984  1.00  0.00     0.173 A 
ATOM     89  C   UNL A   1      46.323  28.096  34.222  1.00  0.00     0.173 A 
ATOM     90  F   UNL A   1      43.888  25.532  35.082  1.00  0.00    -0.203 F 
ATOM     91  C   UNL A   1      46.173  25.706  35.624  1.00  0.00     0.198 A 
ATOM     92  C   UNL A   1      47.457  27.575  34.837  1.00  0.00     0.198 A 
ATOM     93  F   UNL A   1      46.426  29.256  33.556  1.00  0.00    -0.203 F 
ATOM     94  F   UNL A   1      46.089  24.570  36.332  1.00  0.00    -0.200 F 
ATOM     95  C   UNL A   1      47.380  26.385  35.545  1.00  0.00     0.200 A 
ATOM     96  F   UNL A   1      48.625  28.226  34.748  1.00  0.00    -0.200 F 
ATOM     97  F   UNL A   1      48.467  25.896  36.156  1.00  0.00    -0.200 F 
ENDBRANCH  64  87
ENDBRANCH  38  39
ENDBRANCH  30  33
ENDBRANCH  28  29
ENDBRANCH  27  28
ENDBRANCH  26  27
ENDBRANCH   1  26
TORSDOF 16
ENDMDL
