MODEL 1
REMARK VINA RESULT:     -12.7      0.000      0.000
REMARK SMILES CCOc1ccc(-n2nnc(-c3nc(C)c(C(=O)NCCCCCCNC(=O)c4ccc(-c5c6nc(c(-c7c(F)c(F)c(F)c(F)c7F)c7ccc([nH]7)c(-c7c(F)c(F)c(F)c(F)c7F)c7nc(c(-c8c(F)c(F)c(F)c(F)c8F)c8ccc5[nH]8)C=C7)C=C6)cc4)s3)c2C)cc1
REMARK SMILES IDX 21 1 20 2 19 3 17 4 18 5 16 7 12 8 13 9 92 10 14 11 15 12
REMARK SMILES IDX 11 13 8 14 9 15 93 16 10 17 94 18 7 19 4 20 5 21 96 22 6 23
REMARK SMILES IDX 95 24 3 25 2 26 1 27 22 28 23 29 24 30 25 31 26 32 27 33
REMARK SMILES IDX 28 35 29 36 30 37 91 38 31 39 90 40 32 41 33 42 34 43 84 44
REMARK SMILES IDX 35 45 89 46 83 47 85 48 36 49 88 50 82 51 81 52 37 54 69 55
REMARK SMILES IDX 49 56 68 57 50 58 53 59 67 60 86 61 51 62 52 63 66 65 87 66
REMARK SMILES IDX 54 67 38 68 39 69 47 70 40 71 41 72 45 73 48 74 42 75 43 76
REMARK SMILES IDX 46 77 44 78 70 79 71 80 79 81 72 82 73 83 77 84 80 85 74 86
REMARK SMILES IDX 75 87 78 88 76 89 55 90 56 91 64 92 57 93 58 94 62 95 65 96
REMARK SMILES IDX 59 97 60 98 63 99 61 100
REMARK H PARENT 19 6 26 34 85 53 53 64
REMARK Flexibility Score: inf
ROOT
ATOM      1  C   UNL A   1      34.094  31.781  27.934  1.00  0.00     0.021 C 
ENDROOT
BRANCH   1   2
ATOM      2  C   UNL A   1      33.629  30.687  26.972  1.00  0.00     0.116 C 
BRANCH   2   3
ATOM      3  N   UNL A   1      32.634  29.842  27.610  1.00  0.00    -0.351 N 
ATOM      4  C   UNL A   1      31.980  28.710  27.171  1.00  0.00     0.263 C 
ATOM      5  O   UNL A   1      31.188  28.203  27.966  1.00  0.00    -0.268 OA
ATOM      6  H   UNL A   1      32.382  30.129  28.517  1.00  0.00     0.163 HD
BRANCH   4   7
ATOM      7  C   UNL A   1      32.320  28.108  25.902  1.00  0.00     0.115 A 
ATOM      8  C   UNL A   1      32.967  26.499  24.247  1.00  0.00     0.146 A 
ATOM      9  N   UNL A   1      31.989  27.240  23.768  1.00  0.00    -0.239 NA
ATOM     10  S   UNL A   1      33.720  27.139  25.649  1.00  0.00    -0.107 S 
ATOM     11  C   UNL A   1      31.731  28.287  24.656  1.00  0.00     0.062 A 
ATOM     12  C   UNL A   1      30.808  29.375  24.229  1.00  0.00     0.068 C 
BRANCH   8  13
ATOM     13  C   UNL A   1      33.307  25.120  23.785  1.00  0.00     0.145 A 
ATOM     14  N   UNL A   1      33.668  22.971  23.848  1.00  0.00    -0.217 N 
ATOM     15  N   UNL A   1      34.599  23.532  23.040  1.00  0.00    -0.061 NA
ATOM     16  C   UNL A   1      32.900  23.966  24.440  1.00  0.00     0.072 A 
ATOM     17  N   UNL A   1      34.367  24.836  22.974  1.00  0.00    -0.127 NA
ATOM     18  C   UNL A   1      32.068  23.804  25.662  1.00  0.00     0.069 C 
BRANCH  14  19
ATOM     19  C   UNL A   1      33.644  21.575  24.081  1.00  0.00     0.067 A 
ATOM     20  C   UNL A   1      33.537  18.856  24.710  1.00  0.00     0.119 A 
ATOM     21  C   UNL A   1      34.719  19.571  24.914  1.00  0.00     0.048 A 
ATOM     22  C   UNL A   1      32.415  19.498  24.193  1.00  0.00     0.048 A 
ATOM     23  C   UNL A   1      34.786  20.927  24.573  1.00  0.00     0.032 A 
ATOM     24  C   UNL A   1      32.469  20.850  23.863  1.00  0.00     0.032 A 
BRANCH  20  25
ATOM     25  O   UNL A   1      33.463  17.571  25.170  1.00  0.00    -0.494 OA
BRANCH  25  26
ATOM     26  C   UNL A   1      33.242  16.595  24.143  1.00  0.00     0.226 C 
ATOM     27  C   UNL A   1      34.272  16.671  23.026  1.00  0.00     0.049 C 
ENDBRANCH  25  26
ENDBRANCH  20  25
ENDBRANCH  14  19
ENDBRANCH   8  13
ENDBRANCH   4   7
ENDBRANCH   2   3
ENDBRANCH   1   2
BRANCH   1  28
ATOM     28  C   UNL A   1      33.204  33.027  27.903  1.00  0.00     0.002 C 
BRANCH  28  29
ATOM     29  C   UNL A   1      33.850  34.307  28.456  1.00  0.00     0.002 C 
BRANCH  29  30
ATOM     30  C   UNL A   1      32.879  35.412  28.897  1.00  0.00     0.021 C 
BRANCH  30  31
ATOM     31  C   UNL A   1      33.446  36.319  29.979  1.00  0.00     0.116 C 
BRANCH  31  32
ATOM     32  N   UNL A   1      32.800  36.080  31.268  1.00  0.00    -0.352 N 
ATOM     33  C   UNL A   1      33.008  35.059  32.173  1.00  0.00     0.251 C 
ATOM     34  H   UNL A   1      32.119  36.742  31.528  1.00  0.00     0.163 HD
ATOM     35  O   UNL A   1      32.158  34.774  32.997  1.00  0.00    -0.269 OA
BRANCH  33  36
ATOM     36  C   UNL A   1      34.287  34.329  32.144  1.00  0.00     0.039 A 
ATOM     37  C   UNL A   1      34.338  32.979  31.779  1.00  0.00     0.014 A 
ATOM     38  C   UNL A   1      35.442  35.011  32.517  1.00  0.00     0.014 A 
ATOM     39  C   UNL A   1      35.574  32.338  31.734  1.00  0.00     0.010 A 
ATOM     40  C   UNL A   1      36.667  34.427  32.340  1.00  0.00     0.010 A 
ATOM     41  C   UNL A   1      36.731  33.077  32.010  1.00  0.00    -0.014 A 
BRANCH  41  42
ATOM     42  C   UNL A   1      38.062  32.514  31.822  1.00  0.00     0.031 A 
ATOM     43  C   UNL A   1      38.807  32.331  33.099  1.00  0.00     0.074 A 
ATOM     44  C   UNL A   1      38.415  31.931  30.655  1.00  0.00     0.049 A 
ATOM     45  N   UNL A   1      39.905  32.899  33.474  1.00  0.00    -0.248 NA
ATOM     46  C   UNL A   1      38.157  31.546  34.167  1.00  0.00     0.031 C 
ATOM     47  C   UNL A   1      37.582  31.753  29.459  1.00  0.00     0.029 A 
ATOM     48  N   UNL A   1      39.546  31.248  30.326  1.00  0.00    -0.354 N 
ATOM     49  C   UNL A   1      40.198  32.365  34.730  1.00  0.00     0.074 A 
ATOM     50  C   UNL A   1      38.980  31.763  35.193  1.00  0.00     0.031 C 
ATOM     51  C   UNL A   1      38.137  30.826  28.649  1.00  0.00     0.029 A 
ATOM     52  C   UNL A   1      39.431  30.451  29.186  1.00  0.00     0.049 A 
ATOM     53  H   UNL A   1      40.377  31.311  30.850  1.00  0.00     0.167 HD
ATOM     54  C   UNL A   1      41.492  32.189  35.124  1.00  0.00     0.037 A 
ATOM     55  C   UNL A   1      40.322  29.514  28.766  1.00  0.00     0.037 A 
ATOM     56  C   UNL A   1      42.372  32.984  34.299  1.00  0.00     0.049 A 
ATOM     57  C   UNL A   1      41.592  29.768  29.493  1.00  0.00     0.074 A 
ATOM     58  C   UNL A   1      42.487  34.330  34.009  1.00  0.00     0.029 A 
ATOM     59  N   UNL A   1      43.072  32.332  33.313  1.00  0.00    -0.354 N 
ATOM     60  N   UNL A   1      42.346  30.813  29.296  1.00  0.00    -0.248 NA
ATOM     61  C   UNL A   1      41.773  29.095  30.770  1.00  0.00     0.031 C 
ATOM     62  C   UNL A   1      42.829  34.384  32.624  1.00  0.00     0.029 A 
ATOM     63  C   UNL A   1      42.994  33.076  32.169  1.00  0.00     0.049 A 
ATOM     64  H   UNL A   1      43.548  31.477  33.413  1.00  0.00     0.167 HD
ATOM     65  C   UNL A   1      42.756  31.190  30.566  1.00  0.00     0.074 A 
ATOM     66  C   UNL A   1      42.436  30.051  31.425  1.00  0.00     0.031 C 
ATOM     67  C   UNL A   1      43.028  32.497  30.848  1.00  0.00     0.037 A 
BRANCH  54  68
ATOM     68  C   UNL A   1      42.003  30.984  35.907  1.00  0.00     0.064 A 
ATOM     69  C   UNL A   1      42.951  31.212  36.932  1.00  0.00     0.173 A 
ATOM     70  C   UNL A   1      41.871  29.632  35.519  1.00  0.00     0.173 A 
ATOM     71  F   UNL A   1      43.150  32.446  37.419  1.00  0.00    -0.203 F 
ATOM     72  C   UNL A   1      43.798  30.206  37.402  1.00  0.00     0.198 A 
ATOM     73  C   UNL A   1      42.688  28.621  36.025  1.00  0.00     0.198 A 
ATOM     74  F   UNL A   1      41.019  29.222  34.578  1.00  0.00    -0.203 F 
ATOM     75  F   UNL A   1      44.784  30.515  38.256  1.00  0.00    -0.200 F 
ATOM     76  C   UNL A   1      43.681  28.914  36.933  1.00  0.00     0.200 A 
ATOM     77  F   UNL A   1      42.552  27.372  35.558  1.00  0.00    -0.200 F 
ATOM     78  F   UNL A   1      44.539  27.964  37.323  1.00  0.00    -0.200 F 
ENDBRANCH  54  68
BRANCH  55  79
ATOM     79  C   UNL A   1      40.102  28.247  28.022  1.00  0.00     0.064 A 
ATOM     80  C   UNL A   1      40.774  27.998  26.811  1.00  0.00     0.173 A 
ATOM     81  C   UNL A   1      39.471  27.139  28.619  1.00  0.00     0.173 A 
ATOM     82  F   UNL A   1      41.435  28.988  26.191  1.00  0.00    -0.203 F 
ATOM     83  C   UNL A   1      40.845  26.717  26.254  1.00  0.00     0.198 A 
ATOM     84  C   UNL A   1      39.536  25.861  28.058  1.00  0.00     0.198 A 
ATOM     85  F   UNL A   1      38.862  27.254  29.808  1.00  0.00    -0.203 F 
ATOM     86  F   UNL A   1      41.557  26.511  25.138  1.00  0.00    -0.200 F 
ATOM     87  C   UNL A   1      40.237  25.646  26.887  1.00  0.00     0.200 A 
ATOM     88  F   UNL A   1      38.972  24.826  28.698  1.00  0.00    -0.200 F 
ATOM     89  F   UNL A   1      40.362  24.407  26.393  1.00  0.00    -0.200 F 
ENDBRANCH  55  79
BRANCH  67  90
ATOM     90  C   UNL A   1      43.168  33.454  29.700  1.00  0.00     0.064 A 
ATOM     91  C   UNL A   1      42.134  34.277  29.217  1.00  0.00     0.173 A 
ATOM     92  C   UNL A   1      44.450  33.653  29.174  1.00  0.00     0.173 A 
ATOM     93  F   UNL A   1      40.901  34.214  29.734  1.00  0.00    -0.203 F 
ATOM     94  C   UNL A   1      42.376  35.229  28.226  1.00  0.00     0.198 A 
ATOM     95  C   UNL A   1      44.697  34.631  28.216  1.00  0.00     0.198 A 
ATOM     96  F   UNL A   1      45.484  32.929  29.634  1.00  0.00    -0.203 F 
ATOM     97  F   UNL A   1      41.374  35.997  27.774  1.00  0.00    -0.200 F 
ATOM     98  C   UNL A   1      43.658  35.412  27.735  1.00  0.00     0.200 A 
ATOM     99  F   UNL A   1      45.948  34.836  27.783  1.00  0.00    -0.200 F 
ATOM    100  F   UNL A   1      43.901  36.360  26.820  1.00  0.00    -0.200 F 
ENDBRANCH  67  90
ENDBRANCH  41  42
ENDBRANCH  33  36
ENDBRANCH  31  32
ENDBRANCH  30  31
ENDBRANCH  29  30
ENDBRANCH  28  29
ENDBRANCH   1  28
TORSDOF 17
ENDMDL
MODEL 2
REMARK VINA RESULT:     -12.4      2.441      3.335
REMARK SMILES CCOc1ccc(-n2nnc(-c3nc(C)c(C(=O)NCCCCCCNC(=O)c4ccc(-c5c6nc(c(-c7c(F)c(F)c(F)c(F)c7F)c7ccc([nH]7)c(-c7c(F)c(F)c(F)c(F)c7F)c7nc(c(-c8c(F)c(F)c(F)c(F)c8F)c8ccc5[nH]8)C=C7)C=C6)cc4)s3)c2C)cc1
REMARK SMILES IDX 21 1 20 2 19 3 17 4 18 5 16 7 12 8 13 9 92 10 14 11 15 12
REMARK SMILES IDX 11 13 8 14 9 15 93 16 10 17 94 18 7 19 4 20 5 21 96 22 6 23
REMARK SMILES IDX 95 24 3 25 2 26 1 27 22 28 23 29 24 30 25 31 26 32 27 33
REMARK SMILES IDX 28 35 29 36 30 37 91 38 31 39 90 40 32 41 33 42 34 43 84 44
REMARK SMILES IDX 35 45 89 46 83 47 85 48 36 49 88 50 82 51 81 52 37 54 69 55
REMARK SMILES IDX 49 56 68 57 50 58 53 59 67 60 86 61 51 62 52 63 66 65 87 66
REMARK SMILES IDX 54 67 38 68 39 69 47 70 40 71 41 72 45 73 48 74 42 75 43 76
REMARK SMILES IDX 46 77 44 78 70 79 71 80 79 81 72 82 73 83 77 84 80 85 74 86
REMARK SMILES IDX 75 87 78 88 76 89 55 90 56 91 64 92 57 93 58 94 62 95 65 96
REMARK SMILES IDX 59 97 60 98 63 99 61 100
REMARK H PARENT 19 6 26 34 85 53 53 64
REMARK Flexibility Score: inf
ROOT
ATOM      1  C   UNL A   1      33.134  28.308  27.471  1.00  0.00     0.021 C 
ENDROOT
BRANCH   1   2
ATOM      2  C   UNL A   1      31.903  28.091  26.591  1.00  0.00     0.116 C 
BRANCH   2   3
ATOM      3  N   UNL A   1      31.401  29.364  26.101  1.00  0.00    -0.351 N 
ATOM      4  C   UNL A   1      31.118  29.804  24.825  1.00  0.00     0.263 C 
ATOM      5  O   UNL A   1      30.683  30.952  24.736  1.00  0.00    -0.268 OA
ATOM      6  H   UNL A   1      31.234  30.031  26.805  1.00  0.00     0.163 HD
BRANCH   4   7
ATOM      7  C   UNL A   1      31.214  28.906  23.697  1.00  0.00     0.115 A 
ATOM      8  C   UNL A   1      31.708  26.981  22.356  1.00  0.00     0.146 A 
ATOM      9  N   UNL A   1      30.500  27.414  22.060  1.00  0.00    -0.239 NA
ATOM     10  S   UNL A   1      32.664  28.098  23.240  1.00  0.00    -0.107 S 
ATOM     11  C   UNL A   1      30.278  28.632  22.707  1.00  0.00     0.062 A 
ATOM     12  C   UNL A   1      29.060  29.416  22.358  1.00  0.00     0.068 C 
BRANCH   8  13
ATOM     13  C   UNL A   1      32.196  25.585  22.151  1.00  0.00     0.145 A 
ATOM     14  N   UNL A   1      32.775  23.532  22.602  1.00  0.00    -0.217 N 
ATOM     15  N   UNL A   1      33.657  24.032  21.704  1.00  0.00    -0.061 NA
ATOM     16  C   UNL A   1      31.899  24.532  23.005  1.00  0.00     0.072 A 
ATOM     17  N   UNL A   1      33.294  25.271  21.403  1.00  0.00    -0.127 NA
ATOM     18  C   UNL A   1      31.067  24.507  24.237  1.00  0.00     0.069 C 
BRANCH  14  19
ATOM     19  C   UNL A   1      32.891  22.206  23.084  1.00  0.00     0.067 A 
ATOM     20  C   UNL A   1      32.983  19.628  24.152  1.00  0.00     0.119 A 
ATOM     21  C   UNL A   1      33.797  20.629  24.684  1.00  0.00     0.048 A 
ATOM     22  C   UNL A   1      32.128  19.914  23.091  1.00  0.00     0.048 A 
ATOM     23  C   UNL A   1      33.775  21.916  24.133  1.00  0.00     0.032 A 
ATOM     24  C   UNL A   1      32.091  21.195  22.545  1.00  0.00     0.032 A 
BRANCH  20  25
ATOM     25  O   UNL A   1      32.932  18.419  24.790  1.00  0.00    -0.494 OA
BRANCH  25  26
ATOM     26  C   UNL A   1      32.832  17.295  23.906  1.00  0.00     0.226 C 
ATOM     27  C   UNL A   1      34.154  16.953  23.236  1.00  0.00     0.049 C 
ENDBRANCH  25  26
ENDBRANCH  20  25
ENDBRANCH  14  19
ENDBRANCH   8  13
ENDBRANCH   4   7
ENDBRANCH   2   3
ENDBRANCH   1   2
BRANCH   1  28
ATOM     28  C   UNL A   1      34.304  28.956  26.721  1.00  0.00     0.002 C 
BRANCH  28  29
ATOM     29  C   UNL A   1      34.836  30.258  27.338  1.00  0.00     0.002 C 
BRANCH  29  30
ATOM     30  C   UNL A   1      33.773  31.288  27.750  1.00  0.00     0.021 C 
BRANCH  30  31
ATOM     31  C   UNL A   1      34.359  32.632  28.158  1.00  0.00     0.116 C 
BRANCH  31  32
ATOM     32  N   UNL A   1      34.175  32.884  29.585  1.00  0.00    -0.352 N 
ATOM     33  C   UNL A   1      34.840  32.333  30.662  1.00  0.00     0.251 C 
ATOM     34  H   UNL A   1      33.478  33.540  29.811  1.00  0.00     0.163 HD
ATOM     35  O   UNL A   1      34.341  32.340  31.773  1.00  0.00    -0.269 OA
BRANCH  33  36
ATOM     36  C   UNL A   1      36.178  31.753  30.453  1.00  0.00     0.039 A 
ATOM     37  C   UNL A   1      37.282  32.567  30.178  1.00  0.00     0.014 A 
ATOM     38  C   UNL A   1      36.310  30.368  30.509  1.00  0.00     0.014 A 
ATOM     39  C   UNL A   1      38.534  31.977  30.020  1.00  0.00     0.010 A 
ATOM     40  C   UNL A   1      37.555  29.800  30.495  1.00  0.00     0.010 A 
ATOM     41  C   UNL A   1      38.657  30.592  30.189  1.00  0.00    -0.014 A 
BRANCH  41  42
ATOM     42  C   UNL A   1      39.957  29.935  30.201  1.00  0.00     0.031 A 
ATOM     43  C   UNL A   1      40.520  29.772  31.570  1.00  0.00     0.074 A 
ATOM     44  C   UNL A   1      40.413  29.270  29.116  1.00  0.00     0.049 A 
ATOM     45  N   UNL A   1      41.599  30.287  32.060  1.00  0.00    -0.248 NA
ATOM     46  C   UNL A   1      39.685  29.088  32.578  1.00  0.00     0.031 C 
ATOM     47  C   UNL A   1      39.728  29.083  27.830  1.00  0.00     0.029 A 
ATOM     48  N   UNL A   1      41.525  28.498  28.968  1.00  0.00    -0.354 N 
ATOM     49  C   UNL A   1      41.690  29.802  33.366  1.00  0.00     0.074 A 
ATOM     50  C   UNL A   1      40.384  29.305  33.692  1.00  0.00     0.031 C 
ATOM     51  C   UNL A   1      40.315  28.081  27.141  1.00  0.00     0.029 A 
ATOM     52  C   UNL A   1      41.499  27.651  27.859  1.00  0.00     0.049 A 
ATOM     53  H   UNL A   1      42.285  28.535  29.592  1.00  0.00     0.167 HD
ATOM     54  C   UNL A   1      42.908  29.563  33.932  1.00  0.00     0.037 A 
ATOM     55  C   UNL A   1      42.367  26.638  27.600  1.00  0.00     0.037 A 
ATOM     56  C   UNL A   1      43.941  30.254  33.195  1.00  0.00     0.049 A 
ATOM     57  C   UNL A   1      43.550  26.847  28.474  1.00  0.00     0.074 A 
ATOM     58  C   UNL A   1      44.187  31.573  32.863  1.00  0.00     0.029 A 
ATOM     59  N   UNL A   1      44.712  29.508  32.338  1.00  0.00    -0.354 N 
ATOM     60  N   UNL A   1      44.395  27.829  28.331  1.00  0.00    -0.248 NA
ATOM     61  C   UNL A   1      43.519  26.232  29.793  1.00  0.00     0.031 C 
ATOM     62  C   UNL A   1      44.705  31.531  31.533  1.00  0.00     0.029 A 
ATOM     63  C   UNL A   1      44.832  30.193  31.162  1.00  0.00     0.049 A 
ATOM     64  H   UNL A   1      45.109  28.629  32.536  1.00  0.00     0.167 HD
ATOM     65  C   UNL A   1      44.666  28.245  29.626  1.00  0.00     0.074 A 
ATOM     66  C   UNL A   1      44.160  27.176  30.485  1.00  0.00     0.031 C 
ATOM     67  C   UNL A   1      44.992  29.545  29.883  1.00  0.00     0.037 A 
BRANCH  54  68
ATOM     68  C   UNL A   1      43.229  28.370  34.827  1.00  0.00     0.064 A 
ATOM     69  C   UNL A   1      43.777  28.628  36.105  1.00  0.00     0.173 A 
ATOM     70  C   UNL A   1      43.329  27.026  34.405  1.00  0.00     0.173 A 
ATOM     71  F   UNL A   1      43.717  29.856  36.642  1.00  0.00    -0.203 F 
ATOM     72  C   UNL A   1      44.501  27.667  36.815  1.00  0.00     0.198 A 
ATOM     73  C   UNL A   1      44.013  26.056  35.139  1.00  0.00     0.198 A 
ATOM     74  F   UNL A   1      42.858  26.591  33.236  1.00  0.00    -0.203 F 
ATOM     75  F   UNL A   1      45.134  28.014  37.944  1.00  0.00    -0.200 F 
ATOM     76  C   UNL A   1      44.637  26.386  36.321  1.00  0.00     0.200 A 
ATOM     77  F   UNL A   1      44.127  24.817  34.642  1.00  0.00    -0.200 F 
ATOM     78  F   UNL A   1      45.392  25.483  36.958  1.00  0.00    -0.200 F 
ENDBRANCH  54  68
BRANCH  55  79
ATOM     79  C   UNL A   1      42.154  25.350  26.890  1.00  0.00     0.064 A 
ATOM     80  C   UNL A   1      42.952  24.997  25.786  1.00  0.00     0.173 A 
ATOM     81  C   UNL A   1      41.378  24.317  27.450  1.00  0.00     0.173 A 
ATOM     82  F   UNL A   1      43.752  25.908  25.213  1.00  0.00    -0.203 F 
ATOM     83  C   UNL A   1      43.003  23.686  25.300  1.00  0.00     0.198 A 
ATOM     84  C   UNL A   1      41.424  23.010  26.958  1.00  0.00     0.198 A 
ATOM     85  F   UNL A   1      40.636  24.532  28.545  1.00  0.00    -0.203 F 
ATOM     86  F   UNL A   1      43.832  23.377  24.293  1.00  0.00    -0.200 F 
ATOM     87  C   UNL A   1      42.248  22.690  25.896  1.00  0.00     0.200 A 
ATOM     88  F   UNL A   1      40.714  22.047  27.565  1.00  0.00    -0.200 F 
ATOM     89  F   UNL A   1      42.347  21.421  25.477  1.00  0.00    -0.200 F 
ENDBRANCH  55  79
BRANCH  67  90
ATOM     90  C   UNL A   1      45.345  30.429  28.722  1.00  0.00     0.064 A 
ATOM     91  C   UNL A   1      44.411  31.148  27.956  1.00  0.00     0.173 A 
ATOM     92  C   UNL A   1      46.703  30.673  28.481  1.00  0.00     0.173 A 
ATOM     93  F   UNL A   1      43.096  31.043  28.188  1.00  0.00    -0.203 F 
ATOM     94  C   UNL A   1      44.826  32.045  26.971  1.00  0.00     0.198 A 
ATOM     95  C   UNL A   1      47.114  31.597  27.527  1.00  0.00     0.198 A 
ATOM     96  F   UNL A   1      47.637  30.049  29.217  1.00  0.00    -0.203 F 
ATOM     97  F   UNL A   1      43.919  32.715  26.245  1.00  0.00    -0.200 F 
ATOM     98  C   UNL A   1      46.177  32.276  26.766  1.00  0.00     0.200 A 
ATOM     99  F   UNL A   1      48.420  31.853  27.369  1.00  0.00    -0.200 F 
ATOM    100  F   UNL A   1      46.577  33.173  25.854  1.00  0.00    -0.200 F 
ENDBRANCH  67  90
ENDBRANCH  41  42
ENDBRANCH  33  36
ENDBRANCH  31  32
ENDBRANCH  30  31
ENDBRANCH  29  30
ENDBRANCH  28  29
ENDBRANCH   1  28
TORSDOF 17
ENDMDL
MODEL 3
REMARK VINA RESULT:     -11.8      1.882      6.584
REMARK SMILES CCOc1ccc(-n2nnc(-c3nc(C)c(C(=O)NCCCCCCNC(=O)c4ccc(-c5c6nc(c(-c7c(F)c(F)c(F)c(F)c7F)c7ccc([nH]7)c(-c7c(F)c(F)c(F)c(F)c7F)c7nc(c(-c8c(F)c(F)c(F)c(F)c8F)c8ccc5[nH]8)C=C7)C=C6)cc4)s3)c2C)cc1
REMARK SMILES IDX 21 1 20 2 19 3 17 4 18 5 16 7 12 8 13 9 92 10 14 11 15 12
REMARK SMILES IDX 11 13 8 14 9 15 93 16 10 17 94 18 7 19 4 20 5 21 96 22 6 23
REMARK SMILES IDX 95 24 3 25 2 26 1 27 22 28 23 29 24 30 25 31 26 32 27 33
REMARK SMILES IDX 28 35 29 36 30 37 91 38 31 39 90 40 32 41 33 42 34 43 84 44
REMARK SMILES IDX 35 45 89 46 83 47 85 48 36 49 88 50 82 51 81 52 37 54 69 55
REMARK SMILES IDX 49 56 68 57 50 58 53 59 67 60 86 61 51 62 52 63 66 65 87 66
REMARK SMILES IDX 54 67 38 68 39 69 47 70 40 71 41 72 45 73 48 74 42 75 43 76
REMARK SMILES IDX 46 77 44 78 70 79 71 80 79 81 72 82 73 83 77 84 80 85 74 86
REMARK SMILES IDX 75 87 78 88 76 89 55 90 56 91 64 92 57 93 58 94 62 95 65 96
REMARK SMILES IDX 59 97 60 98 63 99 61 100
REMARK H PARENT 19 6 26 34 85 53 53 64
REMARK Flexibility Score: inf
ROOT
ATOM      1  C   UNL A   1      32.852  29.258  27.535  1.00  0.00     0.021 C 
ENDROOT
BRANCH   1   2
ATOM      2  C   UNL A   1      31.947  28.832  26.379  1.00  0.00     0.116 C 
BRANCH   2   3
ATOM      3  N   UNL A   1      31.250  29.984  25.832  1.00  0.00    -0.351 N 
ATOM      4  C   UNL A   1      30.769  30.244  24.566  1.00  0.00     0.263 C 
ATOM      5  O   UNL A   1      30.201  31.326  24.417  1.00  0.00    -0.268 OA
ATOM      6  H   UNL A   1      31.095  30.709  26.480  1.00  0.00     0.163 HD
BRANCH   4   7
ATOM      7  C   UNL A   1      30.830  29.235  23.533  1.00  0.00     0.115 A 
ATOM      8  C   UNL A   1      31.416  27.253  22.320  1.00  0.00     0.146 A 
ATOM      9  N   UNL A   1      30.120  27.459  22.207  1.00  0.00    -0.239 NA
ATOM     10  S   UNL A   1      32.301  28.602  22.901  1.00  0.00    -0.107 S 
ATOM     11  C   UNL A   1      29.804  28.702  22.761  1.00  0.00     0.062 A 
ATOM     12  C   UNL A   1      28.432  29.245  22.564  1.00  0.00     0.068 C 
BRANCH   8  13
ATOM     13  C   UNL A   1      32.093  25.931  22.167  1.00  0.00     0.145 A 
ATOM     14  N   UNL A   1      32.813  23.931  22.655  1.00  0.00    -0.217 N 
ATOM     15  N   UNL A   1      33.782  24.571  21.958  1.00  0.00    -0.061 NA
ATOM     16  C   UNL A   1      31.767  24.808  22.915  1.00  0.00     0.072 A 
ATOM     17  N   UNL A   1      33.340  25.777  21.632  1.00  0.00    -0.127 NA
ATOM     18  C   UNL A   1      30.730  24.627  23.966  1.00  0.00     0.069 C 
BRANCH  14  19
ATOM     19  C   UNL A   1      32.991  22.602  23.109  1.00  0.00     0.067 A 
ATOM     20  C   UNL A   1      33.208  20.010  24.124  1.00  0.00     0.119 A 
ATOM     21  C   UNL A   1      33.997  21.032  24.654  1.00  0.00     0.048 A 
ATOM     22  C   UNL A   1      32.316  20.283  23.091  1.00  0.00     0.048 A 
ATOM     23  C   UNL A   1      33.913  22.327  24.129  1.00  0.00     0.032 A 
ATOM     24  C   UNL A   1      32.216  21.571  22.570  1.00  0.00     0.032 A 
BRANCH  20  25
ATOM     25  O   UNL A   1      33.219  18.789  24.740  1.00  0.00    -0.494 OA
BRANCH  25  26
ATOM     26  C   UNL A   1      34.251  17.909  24.275  1.00  0.00     0.226 C 
ATOM     27  C   UNL A   1      33.703  16.631  23.659  1.00  0.00     0.049 C 
ENDBRANCH  25  26
ENDBRANCH  20  25
ENDBRANCH  14  19
ENDBRANCH   8  13
ENDBRANCH   4   7
ENDBRANCH   2   3
ENDBRANCH   1   2
BRANCH   1  28
ATOM     28  C   UNL A   1      34.091  30.034  27.075  1.00  0.00     0.002 C 
BRANCH  28  29
ATOM     29  C   UNL A   1      34.257  31.430  27.696  1.00  0.00     0.002 C 
BRANCH  29  30
ATOM     30  C   UNL A   1      32.956  32.186  28.001  1.00  0.00     0.021 C 
BRANCH  30  31
ATOM     31  C   UNL A   1      32.867  33.540  27.312  1.00  0.00     0.116 C 
BRANCH  31  32
ATOM     32  N   UNL A   1      32.674  34.619  28.277  1.00  0.00    -0.352 N 
ATOM     33  C   UNL A   1      33.300  34.830  29.488  1.00  0.00     0.251 C 
ATOM     34  H   UNL A   1      32.000  35.292  28.028  1.00  0.00     0.163 HD
ATOM     35  O   UNL A   1      32.786  35.530  30.343  1.00  0.00    -0.269 OA
BRANCH  33  36
ATOM     36  C   UNL A   1      34.616  34.213  29.728  1.00  0.00     0.039 A 
ATOM     37  C   UNL A   1      34.825  33.362  30.819  1.00  0.00     0.014 A 
ATOM     38  C   UNL A   1      35.656  34.523  28.856  1.00  0.00     0.014 A 
ATOM     39  C   UNL A   1      36.078  32.776  30.988  1.00  0.00     0.010 A 
ATOM     40  C   UNL A   1      36.841  33.843  28.938  1.00  0.00     0.010 A 
ATOM     41  C   UNL A   1      37.075  33.020  30.035  1.00  0.00    -0.014 A 
BRANCH  41  42
ATOM     42  C   UNL A   1      38.348  32.312  30.061  1.00  0.00     0.031 A 
ATOM     43  C   UNL A   1      38.276  30.953  29.456  1.00  0.00     0.074 A 
ATOM     44  C   UNL A   1      39.505  32.966  30.307  1.00  0.00     0.049 A 
ATOM     45  N   UNL A   1      38.471  29.810  30.027  1.00  0.00    -0.248 NA
ATOM     46  C   UNL A   1      37.752  30.840  28.081  1.00  0.00     0.031 C 
ATOM     47  C   UNL A   1      39.683  34.403  30.555  1.00  0.00     0.029 A 
ATOM     48  N   UNL A   1      40.790  32.519  30.254  1.00  0.00    -0.354 N 
ATOM     49  C   UNL A   1      38.315  28.854  29.023  1.00  0.00     0.074 A 
ATOM     50  C   UNL A   1      37.633  29.519  27.950  1.00  0.00     0.031 C 
ATOM     51  C   UNL A   1      40.982  34.737  30.395  1.00  0.00     0.029 A 
ATOM     52  C   UNL A   1      41.752  33.527  30.179  1.00  0.00     0.049 A 
ATOM     53  H   UNL A   1      41.021  31.562  30.266  1.00  0.00     0.167 HD
ATOM     54  C   UNL A   1      39.047  27.703  29.043  1.00  0.00     0.037 A 
ATOM     55  C   UNL A   1      43.072  33.361  29.903  1.00  0.00     0.037 A 
ATOM     56  C   UNL A   1      39.591  27.485  30.365  1.00  0.00     0.049 A 
ATOM     57  C   UNL A   1      43.375  31.918  30.087  1.00  0.00     0.074 A 
ATOM     58  C   UNL A   1      39.052  27.342  31.630  1.00  0.00     0.029 A 
ATOM     59  N   UNL A   1      40.917  27.783  30.559  1.00  0.00    -0.354 N 
ATOM     60  N   UNL A   1      43.372  31.316  31.243  1.00  0.00    -0.248 NA
ATOM     61  C   UNL A   1      43.216  31.052  28.927  1.00  0.00     0.031 C 
ATOM     62  C   UNL A   1      39.954  28.029  32.497  1.00  0.00     0.029 A 
ATOM     63  C   UNL A   1      41.034  28.472  31.734  1.00  0.00     0.049 A 
ATOM     64  H   UNL A   1      41.657  27.543  29.956  1.00  0.00     0.167 HD
ATOM     65  C   UNL A   1      42.771  30.092  30.995  1.00  0.00     0.074 A 
ATOM     66  C   UNL A   1      42.767  29.954  29.539  1.00  0.00     0.031 C 
ATOM     67  C   UNL A   1      42.062  29.456  31.973  1.00  0.00     0.037 A 
BRANCH  54  68
ATOM     68  C   UNL A   1      39.657  27.041  27.811  1.00  0.00     0.064 A 
ATOM     69  C   UNL A   1      39.643  25.629  27.741  1.00  0.00     0.173 A 
ATOM     70  C   UNL A   1      40.510  27.667  26.876  1.00  0.00     0.173 A 
ATOM     71  F   UNL A   1      38.848  24.910  28.549  1.00  0.00    -0.203 F 
ATOM     72  C   UNL A   1      40.522  24.912  26.926  1.00  0.00     0.198 A 
ATOM     73  C   UNL A   1      41.355  26.947  26.030  1.00  0.00     0.198 A 
ATOM     74  F   UNL A   1      40.646  28.991  26.783  1.00  0.00    -0.203 F 
ATOM     75  F   UNL A   1      40.575  23.577  27.021  1.00  0.00    -0.200 F 
ATOM     76  C   UNL A   1      41.394  25.573  26.086  1.00  0.00     0.200 A 
ATOM     77  F   UNL A   1      42.190  27.611  25.217  1.00  0.00    -0.200 F 
ATOM     78  F   UNL A   1      42.291  24.895  25.360  1.00  0.00    -0.200 F 
ENDBRANCH  54  68
BRANCH  55  79
ATOM     79  C   UNL A   1      44.029  34.265  29.214  1.00  0.00     0.064 A 
ATOM     80  C   UNL A   1      44.079  34.324  27.809  1.00  0.00     0.173 A 
ATOM     81  C   UNL A   1      44.698  35.296  29.902  1.00  0.00     0.173 A 
ATOM     82  F   UNL A   1      43.439  33.404  27.073  1.00  0.00    -0.203 F 
ATOM     83  C   UNL A   1      44.721  35.369  27.135  1.00  0.00     0.198 A 
ATOM     84  C   UNL A   1      45.345  36.335  29.228  1.00  0.00     0.198 A 
ATOM     85  F   UNL A   1      44.654  35.370  31.239  1.00  0.00    -0.203 F 
ATOM     86  F   UNL A   1      44.681  35.426  25.797  1.00  0.00    -0.200 F 
ATOM     87  C   UNL A   1      45.341  36.381  27.846  1.00  0.00     0.200 A 
ATOM     88  F   UNL A   1      45.913  37.328  29.928  1.00  0.00    -0.200 F 
ATOM     89  F   UNL A   1      45.895  37.419  27.205  1.00  0.00    -0.200 F 
ENDBRANCH  55  79
BRANCH  67  90
ATOM     90  C   UNL A   1      42.201  29.951  33.383  1.00  0.00     0.064 A 
ATOM     91  C   UNL A   1      41.411  30.965  33.953  1.00  0.00     0.173 A 
ATOM     92  C   UNL A   1      43.070  29.255  34.232  1.00  0.00     0.173 A 
ATOM     93  F   UNL A   1      40.489  31.614  33.231  1.00  0.00    -0.203 F 
ATOM     94  C   UNL A   1      41.518  31.285  35.307  1.00  0.00     0.198 A 
ATOM     95  C   UNL A   1      43.145  29.548  35.590  1.00  0.00     0.198 A 
ATOM     96  F   UNL A   1      43.813  28.245  33.750  1.00  0.00    -0.203 F 
ATOM     97  F   UNL A   1      40.761  32.261  35.829  1.00  0.00    -0.200 F 
ATOM     98  C   UNL A   1      42.376  30.569  36.125  1.00  0.00     0.200 A 
ATOM     99  F   UNL A   1      43.940  28.819  36.384  1.00  0.00    -0.200 F 
ATOM    100  F   UNL A   1      42.444  30.842  37.436  1.00  0.00    -0.200 F 
ENDBRANCH  67  90
ENDBRANCH  41  42
ENDBRANCH  33  36
ENDBRANCH  31  32
ENDBRANCH  30  31
ENDBRANCH  29  30
ENDBRANCH  28  29
ENDBRANCH   1  28
TORSDOF 17
ENDMDL
