MODEL 1
REMARK VINA RESULT:     -11.2      0.000      0.000
REMARK SMILES O=C(C[C@H]1CN(c2nc(C3CC3)ns2)CCO1)NCCCCCCNC(=O)c1ccc(-c2c3nc(c(-c4c(F)c(F)c(F)c(F)c4F)c4ccc([nH]4)c(-c4c(F)c(F)c(F)c(F)c4F)c4nc(c(-c5c(F)c(F)c(F)c(F)c5F)c5ccc2[nH]5)C=C4)C=C3)cc1
REMARK SMILES IDX 21 1 20 2 19 3 18 4 1 5 2 6 3 8 4 9 5 10 17 11 6 12 16 13
REMARK SMILES IDX 15 14 7 15 8 16 14 17 9 18 13 19 10 20 11 21 12 22 22 23
REMARK SMILES IDX 23 24 24 25 25 26 26 27 27 29 28 30 29 31 90 32 30 33 89 34
REMARK SMILES IDX 31 35 32 36 33 37 83 38 34 39 88 40 82 41 84 42 35 43 87 44
REMARK SMILES IDX 81 45 80 46 36 48 68 49 48 50 67 51 49 52 52 53 66 54 85 55
REMARK SMILES IDX 50 56 51 57 65 59 86 60 53 61 37 62 38 63 46 64 39 65 40 66
REMARK SMILES IDX 44 67 47 68 41 69 42 70 45 71 43 72 69 73 70 74 78 75 71 76
REMARK SMILES IDX 72 77 76 78 79 79 73 80 74 81 77 82 75 83 54 84 55 85 63 86
REMARK SMILES IDX 56 87 57 88 61 89 64 90 58 91 59 92 62 93 60 94
REMARK H PARENT 18 7 25 28 84 47 52 58
REMARK Flexibility Score: inf
ROOT
ATOM      1  C   UNL A   1      42.001  21.400  27.396  1.00  0.00     0.002 C 
ENDROOT
BRANCH   1   2
ATOM      2  C   UNL A   1      40.700  22.199  27.289  1.00  0.00     0.021 C 
BRANCH   2   3
ATOM      3  C   UNL A   1      39.641  21.640  26.348  1.00  0.00     0.116 C 
BRANCH   3   4
ATOM      4  N   UNL A   1      38.355  22.299  26.354  1.00  0.00    -0.356 N 
ATOM      5  O   UNL A   1      37.630  21.254  24.435  1.00  0.00    -0.275 OA
ATOM      6  C   UNL A   1      37.394  21.936  25.429  1.00  0.00     0.222 C 
ATOM      7  H   UNL A   1      38.165  23.004  27.013  1.00  0.00     0.163 HD
BRANCH   6   8
ATOM      8  C   UNL A   1      36.000  22.465  25.688  1.00  0.00     0.133 C 
BRANCH   8   9
ATOM      9  C   UNL A   1      34.997  21.468  26.292  1.00  0.00     0.147 C 
ATOM     10  C   UNL A   1      33.767  22.052  27.014  1.00  0.00     0.151 C 
ATOM     11  O   UNL A   1      34.625  20.430  25.356  1.00  0.00    -0.374 OA
ATOM     12  N   UNL A   1      32.731  22.442  26.059  1.00  0.00    -0.342 N 
ATOM     13  C   UNL A   1      33.620  20.833  24.422  1.00  0.00     0.182 C 
ATOM     14  C   UNL A   1      32.359  21.419  25.089  1.00  0.00     0.147 C 
BRANCH  12  15
ATOM     15  C   UNL A   1      32.038  23.596  26.272  1.00  0.00     0.205 A 
ATOM     16  N   UNL A   1      32.577  24.798  26.248  1.00  0.00    -0.203 NA
ATOM     17  S   UNL A   1      30.335  23.719  26.572  1.00  0.00     0.004 S 
ATOM     18  C   UNL A   1      31.593  25.771  26.355  1.00  0.00     0.147 A 
ATOM     19  N   UNL A   1      30.337  25.389  26.593  1.00  0.00    -0.174 NA
BRANCH  18  20
ATOM     20  C   UNL A   1      31.911  27.268  26.208  1.00  0.00     0.059 C 
ATOM     21  C   UNL A   1      32.044  28.120  27.457  1.00  0.00     0.012 C 
ATOM     22  C   UNL A   1      33.251  27.835  26.632  1.00  0.00     0.012 C 
ENDBRANCH  18  20
ENDBRANCH  12  15
ENDBRANCH   8   9
ENDBRANCH   6   8
ENDBRANCH   3   4
ENDBRANCH   2   3
ENDBRANCH   1   2
BRANCH   1  23
ATOM     23  C   UNL A   1      41.874  19.909  27.722  1.00  0.00     0.002 C 
BRANCH  23  24
ATOM     24  C   UNL A   1      42.543  18.916  26.775  1.00  0.00     0.021 C 
BRANCH  24  25
ATOM     25  C   UNL A   1      42.557  19.309  25.306  1.00  0.00     0.116 C 
BRANCH  25  26
ATOM     26  N   UNL A   1      43.749  18.866  24.600  1.00  0.00    -0.352 N 
ATOM     27  C   UNL A   1      44.883  19.566  24.267  1.00  0.00     0.251 C 
ATOM     28  H   UNL A   1      43.740  17.923  24.317  1.00  0.00     0.163 HD
ATOM     29  O   UNL A   1      45.743  19.044  23.572  1.00  0.00    -0.269 OA
BRANCH  27  30
ATOM     30  C   UNL A   1      45.056  20.965  24.727  1.00  0.00     0.039 A 
ATOM     31  C   UNL A   1      44.746  22.005  23.846  1.00  0.00     0.014 A 
ATOM     32  C   UNL A   1      45.532  21.256  26.007  1.00  0.00     0.014 A 
ATOM     33  C   UNL A   1      44.866  23.331  24.268  1.00  0.00     0.010 A 
ATOM     34  C   UNL A   1      45.557  22.572  26.458  1.00  0.00     0.010 A 
ATOM     35  C   UNL A   1      45.245  23.625  25.587  1.00  0.00    -0.014 A 
BRANCH  35  36
ATOM     36  C   UNL A   1      45.370  25.028  26.060  1.00  0.00     0.031 A 
ATOM     37  C   UNL A   1      46.712  25.712  26.027  1.00  0.00     0.074 A 
ATOM     38  C   UNL A   1      44.295  25.670  26.554  1.00  0.00     0.049 A 
ATOM     39  N   UNL A   1      47.046  26.905  26.450  1.00  0.00    -0.248 NA
ATOM     40  C   UNL A   1      47.835  24.941  25.467  1.00  0.00     0.031 C 
ATOM     41  C   UNL A   1      42.953  25.100  26.685  1.00  0.00     0.029 A 
ATOM     42  N   UNL A   1      44.162  26.945  27.049  1.00  0.00    -0.354 N 
ATOM     43  C   UNL A   1      48.409  27.022  26.209  1.00  0.00     0.074 A 
ATOM     44  C   UNL A   1      48.857  25.755  25.677  1.00  0.00     0.031 C 
ATOM     45  C   UNL A   1      42.129  26.025  27.203  1.00  0.00     0.029 A 
ATOM     46  C   UNL A   1      42.891  27.240  27.478  1.00  0.00     0.049 A 
ATOM     47  H   UNL A   1      44.908  27.586  27.092  1.00  0.00     0.167 HD
ATOM     48  C   UNL A   1      49.210  28.101  26.378  1.00  0.00     0.037 A 
ATOM     49  C   UNL A   1      42.401  28.362  28.039  1.00  0.00     0.037 A 
ATOM     50  C   UNL A   1      48.760  29.366  26.895  1.00  0.00     0.049 A 
ATOM     51  C   UNL A   1      43.319  29.541  28.234  1.00  0.00     0.074 A 
ATOM     52  C   UNL A   1      49.486  30.526  27.097  1.00  0.00     0.029 A 
ATOM     53  N   UNL A   1      47.457  29.637  27.289  1.00  0.00    -0.354 N 
ATOM     54  N   UNL A   1      44.595  29.656  27.955  1.00  0.00    -0.248 NA
ATOM     55  C   UNL A   1      42.723  30.755  28.808  1.00  0.00     0.031 C 
ATOM     56  C   UNL A   1      48.633  31.486  27.650  1.00  0.00     0.029 A 
ATOM     57  C   UNL A   1      47.361  30.944  27.735  1.00  0.00     0.049 A 
ATOM     58  H   UNL A   1      46.712  28.993  27.257  1.00  0.00     0.167 HD
ATOM     59  C   UNL A   1      44.941  30.962  28.276  1.00  0.00     0.074 A 
ATOM     60  C   UNL A   1      43.736  31.605  28.756  1.00  0.00     0.031 C 
ATOM     61  C   UNL A   1      46.146  31.575  28.183  1.00  0.00     0.037 A 
BRANCH  48  62
ATOM     62  C   UNL A   1      50.651  27.968  25.976  1.00  0.00     0.064 A 
ATOM     63  C   UNL A   1      51.051  28.101  24.636  1.00  0.00     0.173 A 
ATOM     64  C   UNL A   1      51.648  27.748  26.937  1.00  0.00     0.173 A 
ATOM     65  F   UNL A   1      50.135  28.297  23.675  1.00  0.00    -0.203 F 
ATOM     66  C   UNL A   1      52.390  27.995  24.272  1.00  0.00     0.198 A 
ATOM     67  C   UNL A   1      52.991  27.677  26.573  1.00  0.00     0.198 A 
ATOM     68  F   UNL A   1      51.324  27.616  28.231  1.00  0.00    -0.203 F 
ATOM     69  F   UNL A   1      52.740  28.077  22.981  1.00  0.00    -0.200 F 
ATOM     70  C   UNL A   1      53.361  27.793  25.241  1.00  0.00     0.200 A 
ATOM     71  F   UNL A   1      53.930  27.496  27.513  1.00  0.00    -0.200 F 
ATOM     72  F   UNL A   1      54.651  27.705  24.891  1.00  0.00    -0.200 F 
ENDBRANCH  48  62
BRANCH  49  73
ATOM     73  C   UNL A   1      40.971  28.439  28.447  1.00  0.00     0.064 A 
ATOM     74  C   UNL A   1      39.998  28.968  27.586  1.00  0.00     0.173 A 
ATOM     75  C   UNL A   1      40.556  28.031  29.723  1.00  0.00     0.173 A 
ATOM     76  F   UNL A   1      40.346  29.388  26.360  1.00  0.00    -0.203 F 
ATOM     77  C   UNL A   1      38.678  29.127  28.001  1.00  0.00     0.198 A 
ATOM     78  C   UNL A   1      39.227  28.156  30.124  1.00  0.00     0.198 A 
ATOM     79  F   UNL A   1      41.442  27.511  30.585  1.00  0.00    -0.203 F 
ATOM     80  F   UNL A   1      37.786  29.705  27.183  1.00  0.00    -0.200 F 
ATOM     81  C   UNL A   1      38.291  28.719  29.268  1.00  0.00     0.200 A 
ATOM     82  F   UNL A   1      38.856  27.745  31.344  1.00  0.00    -0.200 F 
ATOM     83  F   UNL A   1      37.024  28.881  29.670  1.00  0.00    -0.200 F 
ENDBRANCH  49  73
BRANCH  61  84
ATOM     84  C   UNL A   1      46.207  33.034  28.537  1.00  0.00     0.064 A 
ATOM     85  C   UNL A   1      45.990  34.042  27.586  1.00  0.00     0.173 A 
ATOM     86  C   UNL A   1      46.467  33.427  29.860  1.00  0.00     0.173 A 
ATOM     87  F   UNL A   1      45.750  33.722  26.305  1.00  0.00    -0.203 F 
ATOM     88  C   UNL A   1      46.071  35.387  27.937  1.00  0.00     0.198 A 
ATOM     89  C   UNL A   1      46.509  34.771  30.215  1.00  0.00     0.198 A 
ATOM     90  F   UNL A   1      46.670  32.503  30.812  1.00  0.00    -0.203 F 
ATOM     91  F   UNL A   1      45.925  36.332  26.998  1.00  0.00    -0.200 F 
ATOM     92  C   UNL A   1      46.324  35.750  29.251  1.00  0.00     0.200 A 
ATOM     93  F   UNL A   1      46.734  35.120  31.490  1.00  0.00    -0.200 F 
ATOM     94  F   UNL A   1      46.399  37.046  29.588  1.00  0.00    -0.200 F 
ENDBRANCH  61  84
ENDBRANCH  35  36
ENDBRANCH  27  30
ENDBRANCH  25  26
ENDBRANCH  24  25
ENDBRANCH  23  24
ENDBRANCH   1  23
TORSDOF 16
ENDMDL
MODEL 2
REMARK VINA RESULT:     -11.2      6.103     11.585
REMARK SMILES O=C(C[C@H]1CN(c2nc(C3CC3)ns2)CCO1)NCCCCCCNC(=O)c1ccc(-c2c3nc(c(-c4c(F)c(F)c(F)c(F)c4F)c4ccc([nH]4)c(-c4c(F)c(F)c(F)c(F)c4F)c4nc(c(-c5c(F)c(F)c(F)c(F)c5F)c5ccc2[nH]5)C=C4)C=C3)cc1
REMARK SMILES IDX 21 1 20 2 19 3 18 4 1 5 2 6 3 8 4 9 5 10 17 11 6 12 16 13
REMARK SMILES IDX 15 14 7 15 8 16 14 17 9 18 13 19 10 20 11 21 12 22 22 23
REMARK SMILES IDX 23 24 24 25 25 26 26 27 27 29 28 30 29 31 90 32 30 33 89 34
REMARK SMILES IDX 31 35 32 36 33 37 83 38 34 39 88 40 82 41 84 42 35 43 87 44
REMARK SMILES IDX 81 45 80 46 36 48 68 49 48 50 67 51 49 52 52 53 66 54 85 55
REMARK SMILES IDX 50 56 51 57 65 59 86 60 53 61 37 62 38 63 46 64 39 65 40 66
REMARK SMILES IDX 44 67 47 68 41 69 42 70 45 71 43 72 69 73 70 74 78 75 71 76
REMARK SMILES IDX 72 77 76 78 79 79 73 80 74 81 77 82 75 83 54 84 55 85 63 86
REMARK SMILES IDX 56 87 57 88 61 89 64 90 58 91 59 92 62 93 60 94
REMARK H PARENT 18 7 25 28 84 47 52 58
REMARK Flexibility Score: inf
ROOT
ATOM      1  C   UNL A   1      32.440  29.664  27.178  1.00  0.00     0.002 C 
ENDROOT
BRANCH   1   2
ATOM      2  C   UNL A   1      31.917  28.256  27.477  1.00  0.00     0.021 C 
BRANCH   2   3
ATOM      3  C   UNL A   1      31.322  27.494  26.300  1.00  0.00     0.116 C 
BRANCH   3   4
ATOM      4  N   UNL A   1      31.796  26.145  26.094  1.00  0.00    -0.356 N 
ATOM      5  O   UNL A   1      29.743  25.188  26.502  1.00  0.00    -0.275 OA
ATOM      6  C   UNL A   1      30.899  25.094  26.097  1.00  0.00     0.222 C 
ATOM      7  H   UNL A   1      32.755  25.975  25.954  1.00  0.00     0.163 HD
BRANCH   6   8
ATOM      8  C   UNL A   1      31.433  23.771  25.594  1.00  0.00     0.133 C 
BRANCH   8   9
ATOM      9  C   UNL A   1      31.087  23.407  24.141  1.00  0.00     0.147 C 
ATOM     10  C   UNL A   1      30.653  24.553  23.208  1.00  0.00     0.151 C 
ATOM     11  O   UNL A   1      32.099  22.573  23.529  1.00  0.00    -0.374 OA
ATOM     12  N   UNL A   1      31.811  25.286  22.698  1.00  0.00    -0.342 N 
ATOM     13  C   UNL A   1      33.230  23.305  23.047  1.00  0.00     0.182 C 
ATOM     14  C   UNL A   1      32.856  24.463  22.100  1.00  0.00     0.147 C 
BRANCH  12  15
ATOM     15  C   UNL A   1      31.742  26.643  22.598  1.00  0.00     0.205 A 
ATOM     16  N   UNL A   1      30.656  27.305  22.253  1.00  0.00    -0.203 NA
ATOM     17  S   UNL A   1      33.028  27.755  22.934  1.00  0.00     0.004 S 
ATOM     18  C   UNL A   1      30.862  28.671  22.383  1.00  0.00     0.147 A 
ATOM     19  N   UNL A   1      32.086  29.110  22.681  1.00  0.00    -0.174 NA
BRANCH  18  20
ATOM     20  C   UNL A   1      29.723  29.687  22.191  1.00  0.00     0.059 C 
ATOM     21  C   UNL A   1      28.349  29.369  22.750  1.00  0.00     0.012 C 
ATOM     22  C   UNL A   1      29.154  30.463  23.362  1.00  0.00     0.012 C 
ENDBRANCH  18  20
ENDBRANCH  12  15
ENDBRANCH   8   9
ENDBRANCH   6   8
ENDBRANCH   3   4
ENDBRANCH   2   3
ENDBRANCH   1   2
BRANCH   1  23
ATOM     23  C   UNL A   1      31.557  30.559  26.304  1.00  0.00     0.002 C 
BRANCH  23  24
ATOM     24  C   UNL A   1      31.405  32.021  26.714  1.00  0.00     0.021 C 
BRANCH  24  25
ATOM     25  C   UNL A   1      32.700  32.799  26.887  1.00  0.00     0.116 C 
BRANCH  25  26
ATOM     26  N   UNL A   1      32.528  34.062  27.588  1.00  0.00    -0.352 N 
ATOM     27  C   UNL A   1      33.206  34.563  28.673  1.00  0.00     0.251 C 
ATOM     28  H   UNL A   1      31.818  34.644  27.232  1.00  0.00     0.163 HD
ATOM     29  O   UNL A   1      32.843  35.610  29.192  1.00  0.00    -0.269 OA
BRANCH  27  30
ATOM     30  C   UNL A   1      34.362  33.824  29.235  1.00  0.00     0.039 A 
ATOM     31  C   UNL A   1      35.653  34.259  28.924  1.00  0.00     0.014 A 
ATOM     32  C   UNL A   1      34.182  32.704  30.049  1.00  0.00     0.014 A 
ATOM     33  C   UNL A   1      36.757  33.601  29.471  1.00  0.00     0.010 A 
ATOM     34  C   UNL A   1      35.277  32.111  30.670  1.00  0.00     0.010 A 
ATOM     35  C   UNL A   1      36.578  32.539  30.372  1.00  0.00    -0.014 A 
BRANCH  35  36
ATOM     36  C   UNL A   1      37.738  31.831  30.971  1.00  0.00     0.031 A 
ATOM     37  C   UNL A   1      38.204  32.198  32.356  1.00  0.00     0.074 A 
ATOM     38  C   UNL A   1      38.394  30.894  30.262  1.00  0.00     0.049 A 
ATOM     39  N   UNL A   1      39.230  31.748  33.033  1.00  0.00    -0.248 NA
ATOM     40  C   UNL A   1      37.428  33.230  33.064  1.00  0.00     0.031 C 
ATOM     41  C   UNL A   1      38.071  30.484  28.894  1.00  0.00     0.029 A 
ATOM     42  N   UNL A   1      39.480  30.119  30.591  1.00  0.00    -0.354 N 
ATOM     43  C   UNL A   1      39.220  32.440  34.237  1.00  0.00     0.074 A 
ATOM     44  C   UNL A   1      38.137  33.396  34.170  1.00  0.00     0.031 C 
ATOM     45  C   UNL A   1      38.924  29.521  28.509  1.00  0.00     0.029 A 
ATOM     46  C   UNL A   1      39.877  29.271  29.586  1.00  0.00     0.049 A 
ATOM     47  H   UNL A   1      39.930  30.167  31.465  1.00  0.00     0.167 HD
ATOM     48  C   UNL A   1      40.016  32.269  35.320  1.00  0.00     0.037 A 
ATOM     49  C   UNL A   1      40.903  28.399  29.537  1.00  0.00     0.037 A 
ATOM     50  C   UNL A   1      41.086  31.309  35.391  1.00  0.00     0.049 A 
ATOM     51  C   UNL A   1      41.785  28.244  30.749  1.00  0.00     0.074 A 
ATOM     52  C   UNL A   1      41.945  31.048  36.442  1.00  0.00     0.029 A 
ATOM     53  N   UNL A   1      41.437  30.445  34.363  1.00  0.00    -0.354 N 
ATOM     54  N   UNL A   1      41.734  28.869  31.901  1.00  0.00    -0.248 NA
ATOM     55  C   UNL A   1      42.861  27.247  30.659  1.00  0.00     0.031 C 
ATOM     56  C   UNL A   1      42.843  30.054  36.037  1.00  0.00     0.029 A 
ATOM     57  C   UNL A   1      42.502  29.653  34.756  1.00  0.00     0.049 A 
ATOM     58  H   UNL A   1      40.994  30.403  33.484  1.00  0.00     0.167 HD
ATOM     59  C   UNL A   1      42.736  28.311  32.684  1.00  0.00     0.074 A 
ATOM     60  C   UNL A   1      43.369  27.286  31.881  1.00  0.00     0.031 C 
ATOM     61  C   UNL A   1      43.101  28.618  33.953  1.00  0.00     0.037 A 
BRANCH  48  62
ATOM     62  C   UNL A   1      39.744  33.123  36.525  1.00  0.00     0.064 A 
ATOM     63  C   UNL A   1      40.396  34.353  36.711  1.00  0.00     0.173 A 
ATOM     64  C   UNL A   1      38.795  32.736  37.482  1.00  0.00     0.173 A 
ATOM     65  F   UNL A   1      41.325  34.764  35.833  1.00  0.00    -0.203 F 
ATOM     66  C   UNL A   1      40.127  35.149  37.820  1.00  0.00     0.198 A 
ATOM     67  C   UNL A   1      38.504  33.551  38.573  1.00  0.00     0.198 A 
ATOM     68  F   UNL A   1      38.140  31.573  37.353  1.00  0.00    -0.203 F 
ATOM     69  F   UNL A   1      40.798  36.294  38.000  1.00  0.00    -0.200 F 
ATOM     70  C   UNL A   1      39.174  34.752  38.746  1.00  0.00     0.200 A 
ATOM     71  F   UNL A   1      37.571  33.173  39.459  1.00  0.00    -0.200 F 
ATOM     72  F   UNL A   1      38.905  35.526  39.806  1.00  0.00    -0.200 F 
ENDBRANCH  48  62
BRANCH  49  73
ATOM     73  C   UNL A   1      41.150  27.593  28.311  1.00  0.00     0.064 A 
ATOM     74  C   UNL A   1      40.600  26.312  28.160  1.00  0.00     0.173 A 
ATOM     75  C   UNL A   1      41.981  28.067  27.285  1.00  0.00     0.173 A 
ATOM     76  F   UNL A   1      39.811  25.805  29.121  1.00  0.00    -0.203 F 
ATOM     77  C   UNL A   1      40.907  25.520  27.057  1.00  0.00     0.198 A 
ATOM     78  C   UNL A   1      42.257  27.288  26.162  1.00  0.00     0.198 A 
ATOM     79  F   UNL A   1      42.529  29.288  27.371  1.00  0.00    -0.203 F 
ATOM     80  F   UNL A   1      40.426  24.271  26.977  1.00  0.00    -0.200 F 
ATOM     81  C   UNL A   1      41.733  26.008  26.056  1.00  0.00     0.200 A 
ATOM     82  F   UNL A   1      43.044  27.772  25.191  1.00  0.00    -0.200 F 
ATOM     83  F   UNL A   1      42.035  25.243  25.000  1.00  0.00    -0.200 F 
ENDBRANCH  49  73
BRANCH  61  84
ATOM     84  C   UNL A   1      44.186  27.788  34.579  1.00  0.00     0.064 A 
ATOM     85  C   UNL A   1      45.535  28.167  34.532  1.00  0.00     0.173 A 
ATOM     86  C   UNL A   1      43.861  26.601  35.255  1.00  0.00     0.173 A 
ATOM     87  F   UNL A   1      45.901  29.286  33.889  1.00  0.00    -0.203 F 
ATOM     88  C   UNL A   1      46.523  27.369  35.104  1.00  0.00     0.198 A 
ATOM     89  C   UNL A   1      44.846  25.826  35.858  1.00  0.00     0.198 A 
ATOM     90  F   UNL A   1      42.584  26.197  35.339  1.00  0.00    -0.203 F 
ATOM     91  F   UNL A   1      47.812  27.719  34.991  1.00  0.00    -0.200 F 
ATOM     92  C   UNL A   1      46.177  26.203  35.771  1.00  0.00     0.200 A 
ATOM     93  F   UNL A   1      44.508  24.709  36.519  1.00  0.00    -0.200 F 
ATOM     94  F   UNL A   1      47.129  25.438  36.324  1.00  0.00    -0.200 F 
ENDBRANCH  61  84
ENDBRANCH  35  36
ENDBRANCH  27  30
ENDBRANCH  25  26
ENDBRANCH  24  25
ENDBRANCH  23  24
ENDBRANCH   1  23
TORSDOF 16
ENDMDL
MODEL 3
REMARK VINA RESULT:     -11.0      7.173     12.637
REMARK SMILES O=C(C[C@H]1CN(c2nc(C3CC3)ns2)CCO1)NCCCCCCNC(=O)c1ccc(-c2c3nc(c(-c4c(F)c(F)c(F)c(F)c4F)c4ccc([nH]4)c(-c4c(F)c(F)c(F)c(F)c4F)c4nc(c(-c5c(F)c(F)c(F)c(F)c5F)c5ccc2[nH]5)C=C4)C=C3)cc1
REMARK SMILES IDX 21 1 20 2 19 3 18 4 1 5 2 6 3 8 4 9 5 10 17 11 6 12 16 13
REMARK SMILES IDX 15 14 7 15 8 16 14 17 9 18 13 19 10 20 11 21 12 22 22 23
REMARK SMILES IDX 23 24 24 25 25 26 26 27 27 29 28 30 29 31 90 32 30 33 89 34
REMARK SMILES IDX 31 35 32 36 33 37 83 38 34 39 88 40 82 41 84 42 35 43 87 44
REMARK SMILES IDX 81 45 80 46 36 48 68 49 48 50 67 51 49 52 52 53 66 54 85 55
REMARK SMILES IDX 50 56 51 57 65 59 86 60 53 61 37 62 38 63 46 64 39 65 40 66
REMARK SMILES IDX 44 67 47 68 41 69 42 70 45 71 43 72 69 73 70 74 78 75 71 76
REMARK SMILES IDX 72 77 76 78 79 79 73 80 74 81 77 82 75 83 54 84 55 85 63 86
REMARK SMILES IDX 56 87 57 88 61 89 64 90 58 91 59 92 62 93 60 94
REMARK H PARENT 18 7 25 28 84 47 52 58
REMARK Flexibility Score: inf
ROOT
ATOM      1  C   UNL A   1      34.550  32.391  28.953  1.00  0.00     0.002 C 
ENDROOT
BRANCH   1   2
ATOM      2  C   UNL A   1      34.046  31.741  27.661  1.00  0.00     0.021 C 
BRANCH   2   3
ATOM      3  C   UNL A   1      34.391  30.269  27.468  1.00  0.00     0.116 C 
BRANCH   3   4
ATOM      4  N   UNL A   1      33.405  29.309  27.906  1.00  0.00    -0.356 N 
ATOM      5  O   UNL A   1      31.856  29.933  26.322  1.00  0.00    -0.275 OA
ATOM      6  C   UNL A   1      32.237  29.146  27.185  1.00  0.00     0.222 C 
ATOM      7  H   UNL A   1      33.563  28.773  28.716  1.00  0.00     0.163 HD
BRANCH   6   8
ATOM      8  C   UNL A   1      31.404  27.935  27.545  1.00  0.00     0.133 C 
BRANCH   8   9
ATOM      9  C   UNL A   1      31.595  26.693  26.660  1.00  0.00     0.147 C 
ATOM     10  C   UNL A   1      30.865  26.670  25.304  1.00  0.00     0.151 C 
ATOM     11  O   UNL A   1      32.988  26.327  26.523  1.00  0.00    -0.374 OA
ATOM     12  N   UNL A   1      31.595  27.440  24.298  1.00  0.00    -0.342 N 
ATOM     13  C   UNL A   1      33.690  27.098  25.544  1.00  0.00     0.182 C 
ATOM     14  C   UNL A   1      33.008  27.106  24.161  1.00  0.00     0.147 C 
BRANCH  12  15
ATOM     15  C   UNL A   1      30.895  28.217  23.424  1.00  0.00     0.205 A 
ATOM     16  N   UNL A   1      29.628  28.545  23.577  1.00  0.00    -0.203 NA
ATOM     17  S   UNL A   1      31.524  28.949  21.984  1.00  0.00     0.004 S 
ATOM     18  C   UNL A   1      29.245  29.458  22.604  1.00  0.00     0.147 A 
ATOM     19  N   UNL A   1      30.105  29.753  21.628  1.00  0.00    -0.174 NA
BRANCH  18  20
ATOM     20  C   UNL A   1      27.863  30.132  22.621  1.00  0.00     0.059 C 
ATOM     21  C   UNL A   1      27.636  31.328  23.527  1.00  0.00     0.012 C 
ATOM     22  C   UNL A   1      27.656  31.520  22.050  1.00  0.00     0.012 C 
ENDBRANCH  18  20
ENDBRANCH  12  15
ENDBRANCH   8   9
ENDBRANCH   6   8
ENDBRANCH   3   4
ENDBRANCH   2   3
ENDBRANCH   1   2
BRANCH   1  23
ATOM     23  C   UNL A   1      34.579  33.921  28.992  1.00  0.00     0.002 C 
BRANCH  23  24
ATOM     24  C   UNL A   1      33.241  34.656  29.004  1.00  0.00     0.021 C 
BRANCH  24  25
ATOM     25  C   UNL A   1      33.279  36.093  29.500  1.00  0.00     0.116 C 
BRANCH  25  26
ATOM     26  N   UNL A   1      32.437  36.328  30.662  1.00  0.00    -0.352 N 
ATOM     27  C   UNL A   1      32.586  35.893  31.956  1.00  0.00     0.251 C 
ATOM     28  H   UNL A   1      31.639  36.881  30.494  1.00  0.00     0.163 HD
ATOM     29  O   UNL A   1      31.707  36.108  32.780  1.00  0.00    -0.269 OA
BRANCH  27  30
ATOM     30  C   UNL A   1      33.798  35.137  32.353  1.00  0.00     0.039 A 
ATOM     31  C   UNL A   1      33.650  33.839  32.847  1.00  0.00     0.014 A 
ATOM     32  C   UNL A   1      35.071  35.702  32.254  1.00  0.00     0.014 A 
ATOM     33  C   UNL A   1      34.779  33.094  33.193  1.00  0.00     0.010 A 
ATOM     34  C   UNL A   1      36.199  34.927  32.506  1.00  0.00     0.010 A 
ATOM     35  C   UNL A   1      36.065  33.622  32.998  1.00  0.00    -0.014 A 
BRANCH  35  36
ATOM     36  C   UNL A   1      37.280  32.844  33.351  1.00  0.00     0.031 A 
ATOM     37  C   UNL A   1      38.012  33.139  34.634  1.00  0.00     0.074 A 
ATOM     38  C   UNL A   1      37.749  31.906  32.505  1.00  0.00     0.049 A 
ATOM     39  N   UNL A   1      39.123  32.621  35.095  1.00  0.00    -0.248 NA
ATOM     40  C   UNL A   1      37.431  34.175  35.504  1.00  0.00     0.031 C 
ATOM     41  C   UNL A   1      37.158  31.563  31.210  1.00  0.00     0.029 A 
ATOM     42  N   UNL A   1      38.838  31.075  32.603  1.00  0.00    -0.354 N 
ATOM     43  C   UNL A   1      39.369  33.267  36.299  1.00  0.00     0.074 A 
ATOM     44  C   UNL A   1      38.339  34.270  36.462  1.00  0.00     0.031 C 
ATOM     45  C   UNL A   1      37.878  30.579  30.645  1.00  0.00     0.029 A 
ATOM     46  C   UNL A   1      39.001  30.250  31.517  1.00  0.00     0.049 A 
ATOM     47  H   UNL A   1      39.444  31.071  33.379  1.00  0.00     0.167 HD
ATOM     48  C   UNL A   1      40.342  33.023  37.209  1.00  0.00     0.037 A 
ATOM     49  C   UNL A   1      39.957  29.338  31.253  1.00  0.00     0.037 A 
ATOM     50  C   UNL A   1      41.358  32.016  37.052  1.00  0.00     0.049 A 
ATOM     51  C   UNL A   1      41.039  29.100  32.274  1.00  0.00     0.074 A 
ATOM     52  C   UNL A   1      42.384  31.680  37.916  1.00  0.00     0.029 A 
ATOM     53  N   UNL A   1      41.471  31.178  35.952  1.00  0.00    -0.354 N 
ATOM     54  N   UNL A   1      41.232  29.683  33.433  1.00  0.00    -0.248 NA
ATOM     55  C   UNL A   1      42.031  28.063  31.957  1.00  0.00     0.031 C 
ATOM     56  C   UNL A   1      43.142  30.666  37.323  1.00  0.00     0.029 A 
ATOM     57  C   UNL A   1      42.552  30.327  36.117  1.00  0.00     0.049 A 
ATOM     58  H   UNL A   1      40.873  31.187  35.171  1.00  0.00     0.167 HD
ATOM     59  C   UNL A   1      42.334  29.055  33.999  1.00  0.00     0.074 A 
ATOM     60  C   UNL A   1      42.757  28.035  33.063  1.00  0.00     0.031 C 
ATOM     61  C   UNL A   1      42.941  29.299  35.186  1.00  0.00     0.037 A 
BRANCH  48  62
ATOM     62  C   UNL A   1      40.339  33.842  38.468  1.00  0.00     0.064 A 
ATOM     63  C   UNL A   1      41.112  35.009  38.582  1.00  0.00     0.173 A 
ATOM     64  C   UNL A   1      39.527  33.487  39.555  1.00  0.00     0.173 A 
ATOM     65  F   UNL A   1      41.917  35.386  37.576  1.00  0.00    -0.203 F 
ATOM     66  C   UNL A   1      41.091  35.774  39.744  1.00  0.00     0.198 A 
ATOM     67  C   UNL A   1      39.483  34.274  40.704  1.00  0.00     0.198 A 
ATOM     68  F   UNL A   1      38.766  32.384  39.500  1.00  0.00    -0.203 F 
ATOM     69  F   UNL A   1      41.875  36.856  39.847  1.00  0.00    -0.200 F 
ATOM     70  C   UNL A   1      40.269  35.412  40.801  1.00  0.00     0.200 A 
ATOM     71  F   UNL A   1      38.678  33.930  41.719  1.00  0.00    -0.200 F 
ATOM     72  F   UNL A   1      40.240  36.157  41.914  1.00  0.00    -0.200 F 
ENDBRANCH  48  62
BRANCH  49  73
ATOM     73  C   UNL A   1      39.934  28.568  29.979  1.00  0.00     0.064 A 
ATOM     74  C   UNL A   1      39.346  27.297  29.909  1.00  0.00     0.173 A 
ATOM     75  C   UNL A   1      40.542  29.067  28.818  1.00  0.00     0.173 A 
ATOM     76  F   UNL A   1      38.766  26.767  30.997  1.00  0.00    -0.203 F 
ATOM     77  C   UNL A   1      39.407  26.537  28.743  1.00  0.00     0.198 A 
ATOM     78  C   UNL A   1      40.569  28.321  27.641  1.00  0.00     0.198 A 
ATOM     79  F   UNL A   1      41.113  30.281  28.825  1.00  0.00    -0.203 F 
ATOM     80  F   UNL A   1      38.903  25.295  28.729  1.00  0.00    -0.200 F 
ATOM     81  C   UNL A   1      40.016  27.050  27.608  1.00  0.00     0.200 A 
ATOM     82  F   UNL A   1      41.145  28.829  26.542  1.00  0.00    -0.200 F 
ATOM     83  F   UNL A   1      40.083  26.315  26.491  1.00  0.00    -0.200 F 
ENDBRANCH  49  73
BRANCH  61  84
ATOM     84  C   UNL A   1      44.081  28.401  35.575  1.00  0.00     0.064 A 
ATOM     85  C   UNL A   1      45.409  28.688  35.225  1.00  0.00     0.173 A 
ATOM     86  C   UNL A   1      43.838  27.242  36.330  1.00  0.00     0.173 A 
ATOM     87  F   UNL A   1      45.695  29.776  34.494  1.00  0.00    -0.203 F 
ATOM     88  C   UNL A   1      46.445  27.829  35.582  1.00  0.00     0.198 A 
ATOM     89  C   UNL A   1      44.880  26.406  36.717  1.00  0.00     0.198 A 
ATOM     90  F   UNL A   1      42.588  26.926  36.701  1.00  0.00    -0.203 F 
ATOM     91  F   UNL A   1      47.697  28.090  35.180  1.00  0.00    -0.200 F 
ATOM     92  C   UNL A   1      46.181  26.693  36.332  1.00  0.00     0.200 A 
ATOM     93  F   UNL A   1      44.626  25.319  37.459  1.00  0.00    -0.200 F 
ATOM     94  F   UNL A   1      47.180  25.868  36.677  1.00  0.00    -0.200 F 
ENDBRANCH  61  84
ENDBRANCH  35  36
ENDBRANCH  27  30
ENDBRANCH  25  26
ENDBRANCH  24  25
ENDBRANCH  23  24
ENDBRANCH   1  23
TORSDOF 16
ENDMDL
