MODEL 1
REMARK VINA RESULT:     -13.2      0.000      0.000
REMARK SMILES Cc1cccc(-c2cccnc2C(=O)NCCCCCCNC(=O)c2ccc(-c3c4nc(c(-c5c(F)c(F)c(F)c(F)c5F)c5ccc([nH]5)c(-c5c(F)c(F)c(F)c(F)c5F)c5nc(c(-c6c(F)c(F)c(F)c(F)c6F)c6ccc3[nH]6)C=C5)C=C4)cc2)c1
REMARK SMILES IDX 19 1 18 2 17 3 16 4 15 5 13 6 14 7 12 9 7 10 8 11 9 12 11 13
REMARK SMILES IDX 10 14 6 15 1 16 2 17 3 18 88 19 4 20 5 21 20 22 21 23 22 24
REMARK SMILES IDX 23 25 24 27 25 28 26 29 87 30 27 31 86 32 28 33 29 34 30 35
REMARK SMILES IDX 80 36 31 37 85 38 79 39 81 40 32 41 84 42 78 43 77 44 33 46
REMARK SMILES IDX 65 47 45 48 64 49 46 50 49 51 63 52 82 53 47 54 48 55 62 57
REMARK SMILES IDX 83 58 50 59 34 60 35 61 43 62 36 63 37 64 41 65 44 66 38 67
REMARK SMILES IDX 39 68 42 69 40 70 66 71 67 72 75 73 68 74 69 75 73 76 76 77
REMARK SMILES IDX 70 78 71 79 74 80 72 81 51 82 52 83 60 84 53 85 54 86 58 87
REMARK SMILES IDX 61 88 55 89 56 90 59 91 57 92
REMARK H PARENT 15 8 22 26 81 45 49 56
REMARK Flexibility Score: inf
ROOT
ATOM      1  C   UNL A   1      31.829  30.405  26.567  1.00  0.00     0.002 C 
ENDROOT
BRANCH   1   2
ATOM      2  C   UNL A   1      32.228  28.927  26.447  1.00  0.00     0.002 C 
BRANCH   2   3
ATOM      3  C   UNL A   1      31.399  27.844  27.150  1.00  0.00     0.021 C 
BRANCH   3   4
ATOM      4  C   UNL A   1      31.563  26.385  26.735  1.00  0.00     0.116 C 
BRANCH   4   5
ATOM      5  N   UNL A   1      30.639  25.855  25.774  1.00  0.00    -0.351 N 
ATOM      6  C   UNL A   1      30.688  25.914  24.392  1.00  0.00     0.270 C 
ATOM      7  O   UNL A   1      29.892  25.184  23.793  1.00  0.00    -0.267 OA
ATOM      8  H   UNL A   1      29.860  25.385  26.150  1.00  0.00     0.163 HD
BRANCH   6   9
ATOM      9  C   UNL A   1      31.566  26.852  23.579  1.00  0.00     0.135 A 
ATOM     10  C   UNL A   1      31.240  28.128  23.087  1.00  0.00     0.013 A 
ATOM     11  C   UNL A   1      32.282  28.858  22.470  1.00  0.00     0.013 A 
ATOM     12  C   UNL A   1      33.568  28.343  22.366  1.00  0.00     0.021 A 
ATOM     13  N   UNL A   1      32.834  26.338  23.459  1.00  0.00    -0.250 NA
ATOM     14  C   UNL A   1      33.792  27.084  22.873  1.00  0.00     0.112 A 
BRANCH  10  15
ATOM     15  C   UNL A   1      29.937  28.795  23.147  1.00  0.00    -0.016 A 
ATOM     16  C   UNL A   1      28.653  32.376  23.473  1.00  0.00     0.044 C 
ATOM     17  C   UNL A   1      28.665  30.877  23.405  1.00  0.00    -0.051 A 
ATOM     18  C   UNL A   1      27.480  30.156  23.240  1.00  0.00     0.003 A 
ATOM     19  C   UNL A   1      29.881  30.184  23.392  1.00  0.00     0.012 A 
ATOM     20  C   UNL A   1      27.515  28.772  23.049  1.00  0.00     0.001 A 
ATOM     21  C   UNL A   1      28.737  28.094  22.993  1.00  0.00     0.009 A 
ENDBRANCH  10  15
ENDBRANCH   6   9
ENDBRANCH   4   5
ENDBRANCH   3   4
ENDBRANCH   2   3
ENDBRANCH   1   2
BRANCH   1  22
ATOM     22  C   UNL A   1      32.788  31.361  27.271  1.00  0.00     0.021 C 
BRANCH  22  23
ATOM     23  C   UNL A   1      34.065  30.743  27.826  1.00  0.00     0.116 C 
BRANCH  23  24
ATOM     24  N   UNL A   1      34.687  31.551  28.877  1.00  0.00    -0.352 N 
ATOM     25  C   UNL A   1      35.890  31.345  29.538  1.00  0.00     0.251 C 
ATOM     26  H   UNL A   1      34.184  32.352  29.152  1.00  0.00     0.163 HD
ATOM     27  O   UNL A   1      36.348  32.163  30.311  1.00  0.00    -0.269 OA
BRANCH  25  28
ATOM     28  C   UNL A   1      36.659  30.131  29.189  1.00  0.00     0.039 A 
ATOM     29  C   UNL A   1      36.908  29.202  30.203  1.00  0.00     0.014 A 
ATOM     30  C   UNL A   1      37.343  30.081  27.977  1.00  0.00     0.014 A 
ATOM     31  C   UNL A   1      38.031  28.390  30.103  1.00  0.00     0.010 A 
ATOM     32  C   UNL A   1      38.500  29.330  27.911  1.00  0.00     0.010 A 
ATOM     33  C   UNL A   1      38.889  28.560  29.014  1.00  0.00    -0.014 A 
BRANCH  33  34
ATOM     34  C   UNL A   1      40.281  28.122  29.046  1.00  0.00     0.031 A 
ATOM     35  C   UNL A   1      40.658  26.762  28.609  1.00  0.00     0.074 A 
ATOM     36  C   UNL A   1      41.234  28.990  29.458  1.00  0.00     0.049 A 
ATOM     37  N   UNL A   1      41.773  26.193  28.925  1.00  0.00    -0.248 NA
ATOM     38  C   UNL A   1      39.764  25.888  27.856  1.00  0.00     0.031 C 
ATOM     39  C   UNL A   1      42.682  28.855  29.313  1.00  0.00     0.029 A 
ATOM     40  N   UNL A   1      41.073  30.093  30.319  1.00  0.00    -0.354 N 
ATOM     41  C   UNL A   1      41.867  25.027  28.207  1.00  0.00     0.074 A 
ATOM     42  C   UNL A   1      40.543  24.815  27.680  1.00  0.00     0.031 C 
ATOM     43  C   UNL A   1      43.284  29.600  30.252  1.00  0.00     0.029 A 
ATOM     44  C   UNL A   1      42.240  30.120  31.118  1.00  0.00     0.049 A 
ATOM     45  H   UNL A   1      40.311  30.714  30.356  1.00  0.00     0.167 HD
ATOM     46  C   UNL A   1      43.096  24.462  28.040  1.00  0.00     0.037 A 
ATOM     47  C   UNL A   1      42.199  29.960  32.472  1.00  0.00     0.037 A 
ATOM     48  C   UNL A   1      44.065  25.041  28.970  1.00  0.00     0.049 A 
ATOM     49  C   UNL A   1      43.045  28.822  32.992  1.00  0.00     0.074 A 
ATOM     50  C   UNL A   1      45.119  25.925  28.826  1.00  0.00     0.029 A 
ATOM     51  N   UNL A   1      43.859  24.891  30.340  1.00  0.00    -0.354 N 
ATOM     52  N   UNL A   1      43.483  27.848  32.245  1.00  0.00    -0.248 NA
ATOM     53  C   UNL A   1      43.415  28.662  34.396  1.00  0.00     0.031 C 
ATOM     54  C   UNL A   1      45.489  26.374  30.122  1.00  0.00     0.029 A 
ATOM     55  C   UNL A   1      44.694  25.727  31.052  1.00  0.00     0.049 A 
ATOM     56  H   UNL A   1      43.208  24.272  30.744  1.00  0.00     0.167 HD
ATOM     57  C   UNL A   1      44.135  26.933  33.028  1.00  0.00     0.074 A 
ATOM     58  C   UNL A   1      44.089  27.498  34.362  1.00  0.00     0.031 C 
ATOM     59  C   UNL A   1      44.634  25.774  32.506  1.00  0.00     0.037 A 
BRANCH  46  60
ATOM     60  C   UNL A   1      43.501  23.529  26.911  1.00  0.00     0.064 A 
ATOM     61  C   UNL A   1      43.107  22.170  26.942  1.00  0.00     0.173 A 
ATOM     62  C   UNL A   1      44.384  23.852  25.858  1.00  0.00     0.173 A 
ATOM     63  F   UNL A   1      42.266  21.711  27.879  1.00  0.00    -0.203 F 
ATOM     64  C   UNL A   1      43.581  21.224  26.025  1.00  0.00     0.198 A 
ATOM     65  C   UNL A   1      44.817  22.915  24.913  1.00  0.00     0.198 A 
ATOM     66  F   UNL A   1      44.922  25.065  25.716  1.00  0.00    -0.203 F 
ATOM     67  F   UNL A   1      43.224  19.938  26.149  1.00  0.00    -0.200 F 
ATOM     68  C   UNL A   1      44.432  21.597  25.007  1.00  0.00     0.200 A 
ATOM     69  F   UNL A   1      45.644  23.304  23.931  1.00  0.00    -0.200 F 
ATOM     70  F   UNL A   1      44.894  20.694  24.132  1.00  0.00    -0.200 F 
ENDBRANCH  46  60
BRANCH  47  71
ATOM     71  C   UNL A   1      40.925  30.415  33.086  1.00  0.00     0.064 A 
ATOM     72  C   UNL A   1      40.685  31.799  33.187  1.00  0.00     0.173 A 
ATOM     73  C   UNL A   1      39.831  29.554  33.226  1.00  0.00     0.173 A 
ATOM     74  F   UNL A   1      41.701  32.666  33.056  1.00  0.00    -0.203 F 
ATOM     75  C   UNL A   1      39.392  32.302  33.308  1.00  0.00     0.198 A 
ATOM     76  C   UNL A   1      38.538  30.062  33.361  1.00  0.00     0.198 A 
ATOM     77  F   UNL A   1      39.992  28.228  33.117  1.00  0.00    -0.203 F 
ATOM     78  F   UNL A   1      39.187  33.626  33.285  1.00  0.00    -0.200 F 
ATOM     79  C   UNL A   1      38.317  31.432  33.368  1.00  0.00     0.200 A 
ATOM     80  F   UNL A   1      37.492  29.223  33.385  1.00  0.00    -0.200 F 
ATOM     81  F   UNL A   1      37.066  31.912  33.385  1.00  0.00    -0.200 F 
ENDBRANCH  47  71
BRANCH  59  82
ATOM     82  C   UNL A   1      45.168  24.606  33.299  1.00  0.00     0.064 A 
ATOM     83  C   UNL A   1      44.448  23.422  33.534  1.00  0.00     0.173 A 
ATOM     84  C   UNL A   1      46.517  24.595  33.726  1.00  0.00     0.173 A 
ATOM     85  F   UNL A   1      43.198  23.265  33.078  1.00  0.00    -0.203 F 
ATOM     86  C   UNL A   1      45.018  22.331  34.197  1.00  0.00     0.198 A 
ATOM     87  C   UNL A   1      47.098  23.484  34.337  1.00  0.00     0.198 A 
ATOM     88  F   UNL A   1      47.317  25.655  33.538  1.00  0.00    -0.203 F 
ATOM     89  F   UNL A   1      44.279  21.236  34.430  1.00  0.00    -0.200 F 
ATOM     90  C   UNL A   1      46.344  22.357  34.587  1.00  0.00     0.200 A 
ATOM     91  F   UNL A   1      48.398  23.507  34.665  1.00  0.00    -0.200 F 
ATOM     92  F   UNL A   1      46.898  21.291  35.180  1.00  0.00    -0.200 F 
ENDBRANCH  59  82
ENDBRANCH  33  34
ENDBRANCH  25  28
ENDBRANCH  23  24
ENDBRANCH  22  23
ENDBRANCH   1  22
TORSDOF 14
ENDMDL
MODEL 2
REMARK VINA RESULT:     -13.1      4.573     10.548
REMARK SMILES Cc1cccc(-c2cccnc2C(=O)NCCCCCCNC(=O)c2ccc(-c3c4nc(c(-c5c(F)c(F)c(F)c(F)c5F)c5ccc([nH]5)c(-c5c(F)c(F)c(F)c(F)c5F)c5nc(c(-c6c(F)c(F)c(F)c(F)c6F)c6ccc3[nH]6)C=C5)C=C4)cc2)c1
REMARK SMILES IDX 19 1 18 2 17 3 16 4 15 5 13 6 14 7 12 9 7 10 8 11 9 12 11 13
REMARK SMILES IDX 10 14 6 15 1 16 2 17 3 18 88 19 4 20 5 21 20 22 21 23 22 24
REMARK SMILES IDX 23 25 24 27 25 28 26 29 87 30 27 31 86 32 28 33 29 34 30 35
REMARK SMILES IDX 80 36 31 37 85 38 79 39 81 40 32 41 84 42 78 43 77 44 33 46
REMARK SMILES IDX 65 47 45 48 64 49 46 50 49 51 63 52 82 53 47 54 48 55 62 57
REMARK SMILES IDX 83 58 50 59 34 60 35 61 43 62 36 63 37 64 41 65 44 66 38 67
REMARK SMILES IDX 39 68 42 69 40 70 66 71 67 72 75 73 68 74 69 75 73 76 76 77
REMARK SMILES IDX 70 78 71 79 74 80 72 81 51 82 52 83 60 84 53 85 54 86 58 87
REMARK SMILES IDX 61 88 55 89 56 90 59 91 57 92
REMARK H PARENT 15 8 22 26 81 45 49 56
REMARK Flexibility Score: inf
ROOT
ATOM      1  C   UNL A   1      36.755  21.560  24.837  1.00  0.00     0.002 C 
ENDROOT
BRANCH   1   2
ATOM      2  C   UNL A   1      36.192  22.901  24.347  1.00  0.00     0.002 C 
BRANCH   2   3
ATOM      3  C   UNL A   1      35.355  22.965  23.063  1.00  0.00     0.021 C 
BRANCH   3   4
ATOM      4  C   UNL A   1      34.290  24.047  22.913  1.00  0.00     0.116 C 
BRANCH   4   5
ATOM      5  N   UNL A   1      32.918  23.630  22.855  1.00  0.00    -0.351 N 
ATOM      6  C   UNL A   1      32.121  23.109  23.858  1.00  0.00     0.270 C 
ATOM      7  O   UNL A   1      30.913  23.046  23.609  1.00  0.00    -0.267 OA
ATOM      8  H   UNL A   1      32.484  23.728  21.976  1.00  0.00     0.163 HD
BRANCH   6   9
ATOM      9  C   UNL A   1      32.620  22.543  25.178  1.00  0.00     0.135 A 
ATOM     10  C   UNL A   1      33.072  21.238  25.440  1.00  0.00     0.013 A 
ATOM     11  C   UNL A   1      33.613  20.996  26.724  1.00  0.00     0.013 A 
ATOM     12  C   UNL A   1      33.704  22.003  27.676  1.00  0.00     0.021 A 
ATOM     13  N   UNL A   1      32.696  23.534  26.127  1.00  0.00    -0.250 NA
ATOM     14  C   UNL A   1      33.233  23.249  27.331  1.00  0.00     0.112 A 
BRANCH  10  15
ATOM     15  C   UNL A   1      33.052  20.093  24.526  1.00  0.00    -0.016 A 
ATOM     16  C   UNL A   1      34.589  16.600  24.402  1.00  0.00     0.044 C 
ATOM     17  C   UNL A   1      33.852  17.838  23.983  1.00  0.00    -0.051 A 
ATOM     18  C   UNL A   1      33.043  17.842  22.844  1.00  0.00     0.003 A 
ATOM     19  C   UNL A   1      33.875  18.978  24.794  1.00  0.00     0.012 A 
ATOM     20  C   UNL A   1      32.262  18.959  22.535  1.00  0.00     0.001 A 
ATOM     21  C   UNL A   1      32.258  20.076  23.375  1.00  0.00     0.009 A 
ENDBRANCH  10  15
ENDBRANCH   6   9
ENDBRANCH   4   5
ENDBRANCH   3   4
ENDBRANCH   2   3
ENDBRANCH   1   2
BRANCH   1  22
ATOM     22  C   UNL A   1      38.193  21.518  25.349  1.00  0.00     0.021 C 
BRANCH  22  23
ATOM     23  C   UNL A   1      38.657  22.734  26.141  1.00  0.00     0.116 C 
BRANCH  23  24
ATOM     24  N   UNL A   1      40.114  22.810  26.277  1.00  0.00    -0.352 N 
ATOM     25  C   UNL A   1      40.896  23.881  26.685  1.00  0.00     0.251 C 
ATOM     26  H   UNL A   1      40.606  21.988  26.048  1.00  0.00     0.163 HD
ATOM     27  O   UNL A   1      42.092  23.772  26.867  1.00  0.00    -0.269 OA
BRANCH  25  28
ATOM     28  C   UNL A   1      40.203  25.151  26.996  1.00  0.00     0.039 A 
ATOM     29  C   UNL A   1      40.586  26.293  26.288  1.00  0.00     0.014 A 
ATOM     30  C   UNL A   1      39.422  25.237  28.145  1.00  0.00     0.014 A 
ATOM     31  C   UNL A   1      40.411  27.537  26.884  1.00  0.00     0.010 A 
ATOM     32  C   UNL A   1      39.315  26.464  28.771  1.00  0.00     0.010 A 
ATOM     33  C   UNL A   1      39.896  27.594  28.181  1.00  0.00    -0.014 A 
BRANCH  33  34
ATOM     34  C   UNL A   1      40.103  28.748  29.050  1.00  0.00     0.031 A 
ATOM     35  C   UNL A   1      39.108  29.838  29.114  1.00  0.00     0.074 A 
ATOM     36  C   UNL A   1      41.214  28.799  29.822  1.00  0.00     0.049 A 
ATOM     37  N   UNL A   1      39.368  31.018  29.568  1.00  0.00    -0.248 NA
ATOM     38  C   UNL A   1      37.755  29.718  28.578  1.00  0.00     0.031 C 
ATOM     39  C   UNL A   1      41.481  29.705  30.937  1.00  0.00     0.029 A 
ATOM     40  N   UNL A   1      42.449  28.163  29.588  1.00  0.00    -0.354 N 
ATOM     41  C   UNL A   1      38.184  31.707  29.649  1.00  0.00     0.074 A 
ATOM     42  C   UNL A   1      37.248  30.915  28.891  1.00  0.00     0.031 C 
ATOM     43  C   UNL A   1      42.808  29.809  31.104  1.00  0.00     0.029 A 
ATOM     44  C   UNL A   1      43.434  29.088  30.009  1.00  0.00     0.049 A 
ATOM     45  H   UNL A   1      42.595  27.266  29.212  1.00  0.00     0.167 HD
ATOM     46  C   UNL A   1      38.118  32.796  30.466  1.00  0.00     0.037 A 
ATOM     47  C   UNL A   1      44.350  29.617  29.149  1.00  0.00     0.037 A 
ATOM     48  C   UNL A   1      39.457  33.237  30.854  1.00  0.00     0.049 A 
ATOM     49  C   UNL A   1      44.352  31.127  29.091  1.00  0.00     0.074 A 
ATOM     50  C   UNL A   1      40.188  33.156  32.026  1.00  0.00     0.029 A 
ATOM     51  N   UNL A   1      40.339  33.667  29.866  1.00  0.00    -0.354 N 
ATOM     52  N   UNL A   1      43.364  31.867  29.510  1.00  0.00    -0.248 NA
ATOM     53  C   UNL A   1      45.434  31.915  28.509  1.00  0.00     0.031 C 
ATOM     54  C   UNL A   1      41.542  33.457  31.714  1.00  0.00     0.029 A 
ATOM     55  C   UNL A   1      41.621  33.768  30.367  1.00  0.00     0.049 A 
ATOM     56  H   UNL A   1      40.084  33.873  28.937  1.00  0.00     0.167 HD
ATOM     57  C   UNL A   1      43.631  33.181  29.234  1.00  0.00     0.074 A 
ATOM     58  C   UNL A   1      44.949  33.164  28.631  1.00  0.00     0.031 C 
ATOM     59  C   UNL A   1      42.726  34.166  29.507  1.00  0.00     0.037 A 
BRANCH  46  60
ATOM     60  C   UNL A   1      36.855  33.363  31.094  1.00  0.00     0.064 A 
ATOM     61  C   UNL A   1      36.533  33.053  32.437  1.00  0.00     0.173 A 
ATOM     62  C   UNL A   1      35.852  34.083  30.409  1.00  0.00     0.173 A 
ATOM     63  F   UNL A   1      37.387  32.378  33.218  1.00  0.00    -0.203 F 
ATOM     64  C   UNL A   1      35.310  33.403  33.021  1.00  0.00     0.198 A 
ATOM     65  C   UNL A   1      34.651  34.475  31.011  1.00  0.00     0.198 A 
ATOM     66  F   UNL A   1      35.946  34.394  29.115  1.00  0.00    -0.203 F 
ATOM     67  F   UNL A   1      35.037  33.021  34.277  1.00  0.00    -0.200 F 
ATOM     68  C   UNL A   1      34.371  34.120  32.310  1.00  0.00     0.200 A 
ATOM     69  F   UNL A   1      33.754  35.173  30.298  1.00  0.00    -0.200 F 
ATOM     70  F   UNL A   1      33.196  34.451  32.864  1.00  0.00    -0.200 F 
ENDBRANCH  46  60
BRANCH  47  71
ATOM     71  C   UNL A   1      44.675  28.728  28.005  1.00  0.00     0.064 A 
ATOM     72  C   UNL A   1      45.469  27.590  28.244  1.00  0.00     0.173 A 
ATOM     73  C   UNL A   1      43.945  28.771  26.812  1.00  0.00     0.173 A 
ATOM     74  F   UNL A   1      46.186  27.499  29.376  1.00  0.00    -0.203 F 
ATOM     75  C   UNL A   1      45.444  26.495  27.383  1.00  0.00     0.198 A 
ATOM     76  C   UNL A   1      43.932  27.677  25.945  1.00  0.00     0.198 A 
ATOM     77  F   UNL A   1      43.152  29.817  26.539  1.00  0.00    -0.203 F 
ATOM     78  F   UNL A   1      46.121  25.383  27.699  1.00  0.00    -0.200 F 
ATOM     79  C   UNL A   1      44.654  26.531  26.248  1.00  0.00     0.200 A 
ATOM     80  F   UNL A   1      43.141  27.694  24.863  1.00  0.00    -0.200 F 
ATOM     81  F   UNL A   1      44.548  25.444  25.469  1.00  0.00    -0.200 F 
ENDBRANCH  47  71
BRANCH  59  82
ATOM     82  C   UNL A   1      42.819  35.601  29.050  1.00  0.00     0.064 A 
ATOM     83  C   UNL A   1      42.125  36.119  27.943  1.00  0.00     0.173 A 
ATOM     84  C   UNL A   1      43.514  36.553  29.833  1.00  0.00     0.173 A 
ATOM     85  F   UNL A   1      41.338  35.340  27.187  1.00  0.00    -0.203 F 
ATOM     86  C   UNL A   1      42.169  37.477  27.611  1.00  0.00     0.198 A 
ATOM     87  C   UNL A   1      43.511  37.915  29.531  1.00  0.00     0.198 A 
ATOM     88  F   UNL A   1      44.195  36.189  30.930  1.00  0.00    -0.203 F 
ATOM     89  F   UNL A   1      41.520  37.917  26.524  1.00  0.00    -0.200 F 
ATOM     90  C   UNL A   1      42.852  38.375  28.411  1.00  0.00     0.200 A 
ATOM     91  F   UNL A   1      44.136  38.779  30.344  1.00  0.00    -0.200 F 
ATOM     92  F   UNL A   1      42.853  39.682  28.116  1.00  0.00    -0.200 F 
ENDBRANCH  59  82
ENDBRANCH  33  34
ENDBRANCH  25  28
ENDBRANCH  23  24
ENDBRANCH  22  23
ENDBRANCH   1  22
TORSDOF 14
ENDMDL
MODEL 3
REMARK VINA RESULT:     -13.1      3.959      9.978
REMARK SMILES Cc1cccc(-c2cccnc2C(=O)NCCCCCCNC(=O)c2ccc(-c3c4nc(c(-c5c(F)c(F)c(F)c(F)c5F)c5ccc([nH]5)c(-c5c(F)c(F)c(F)c(F)c5F)c5nc(c(-c6c(F)c(F)c(F)c(F)c6F)c6ccc3[nH]6)C=C5)C=C4)cc2)c1
REMARK SMILES IDX 19 1 18 2 17 3 16 4 15 5 13 6 14 7 12 9 7 10 8 11 9 12 11 13
REMARK SMILES IDX 10 14 6 15 1 16 2 17 3 18 88 19 4 20 5 21 20 22 21 23 22 24
REMARK SMILES IDX 23 25 24 27 25 28 26 29 87 30 27 31 86 32 28 33 29 34 30 35
REMARK SMILES IDX 80 36 31 37 85 38 79 39 81 40 32 41 84 42 78 43 77 44 33 46
REMARK SMILES IDX 65 47 45 48 64 49 46 50 49 51 63 52 82 53 47 54 48 55 62 57
REMARK SMILES IDX 83 58 50 59 34 60 35 61 43 62 36 63 37 64 41 65 44 66 38 67
REMARK SMILES IDX 39 68 42 69 40 70 66 71 67 72 75 73 68 74 69 75 73 76 76 77
REMARK SMILES IDX 70 78 71 79 74 80 72 81 51 82 52 83 60 84 53 85 54 86 58 87
REMARK SMILES IDX 61 88 55 89 56 90 59 91 57 92
REMARK H PARENT 15 8 22 26 81 45 49 56
REMARK Flexibility Score: inf
ROOT
ATOM      1  C   UNL A   1      36.664  21.353  24.962  1.00  0.00     0.002 C 
ENDROOT
BRANCH   1   2
ATOM      2  C   UNL A   1      35.745  22.256  25.796  1.00  0.00     0.002 C 
BRANCH   2   3
ATOM      3  C   UNL A   1      34.655  21.640  26.684  1.00  0.00     0.021 C 
BRANCH   3   4
ATOM      4  C   UNL A   1      33.790  22.550  27.552  1.00  0.00     0.116 C 
BRANCH   4   5
ATOM      5  N   UNL A   1      32.373  22.536  27.329  1.00  0.00    -0.351 N 
ATOM      6  C   UNL A   1      31.673  22.716  26.148  1.00  0.00     0.270 C 
ATOM      7  O   UNL A   1      30.473  22.430  26.185  1.00  0.00    -0.267 OA
ATOM      8  H   UNL A   1      31.821  22.377  28.128  1.00  0.00     0.163 HD
BRANCH   6   9
ATOM      9  C   UNL A   1      32.240  23.307  24.868  1.00  0.00     0.135 A 
ATOM     10  C   UNL A   1      32.609  24.642  24.624  1.00  0.00     0.013 A 
ATOM     11  C   UNL A   1      33.239  24.914  23.388  1.00  0.00     0.013 A 
ATOM     12  C   UNL A   1      33.492  23.907  22.464  1.00  0.00     0.021 A 
ATOM     13  N   UNL A   1      32.475  22.317  23.945  1.00  0.00    -0.250 NA
ATOM     14  C   UNL A   1      33.092  22.632  22.788  1.00  0.00     0.112 A 
BRANCH  10  15
ATOM     15  C   UNL A   1      32.420  25.790  25.514  1.00  0.00    -0.016 A 
ATOM     16  C   UNL A   1      34.528  28.712  26.778  1.00  0.00     0.044 C 
ATOM     17  C   UNL A   1      33.384  27.754  26.627  1.00  0.00    -0.051 A 
ATOM     18  C   UNL A   1      32.133  28.033  27.182  1.00  0.00     0.003 A 
ATOM     19  C   UNL A   1      33.523  26.614  25.826  1.00  0.00     0.012 A 
ATOM     20  C   UNL A   1      31.042  27.198  26.927  1.00  0.00     0.001 A 
ATOM     21  C   UNL A   1      31.180  26.087  26.090  1.00  0.00     0.009 A 
ENDBRANCH  10  15
ENDBRANCH   6   9
ENDBRANCH   4   5
ENDBRANCH   3   4
ENDBRANCH   2   3
ENDBRANCH   1   2
BRANCH   1  22
ATOM     22  C   UNL A   1      38.168  21.408  25.221  1.00  0.00     0.021 C 
BRANCH  22  23
ATOM     23  C   UNL A   1      38.650  22.534  26.127  1.00  0.00     0.116 C 
BRANCH  23  24
ATOM     24  N   UNL A   1      40.110  22.641  26.185  1.00  0.00    -0.352 N 
ATOM     25  C   UNL A   1      40.890  23.737  26.525  1.00  0.00     0.251 C 
ATOM     26  H   UNL A   1      40.606  21.823  25.951  1.00  0.00     0.163 HD
ATOM     27  O   UNL A   1      42.096  23.655  26.647  1.00  0.00    -0.269 OA
BRANCH  25  28
ATOM     28  C   UNL A   1      40.189  25.000  26.841  1.00  0.00     0.039 A 
ATOM     29  C   UNL A   1      40.632  26.167  26.212  1.00  0.00     0.014 A 
ATOM     30  C   UNL A   1      39.329  25.048  27.935  1.00  0.00     0.014 A 
ATOM     31  C   UNL A   1      40.426  27.386  26.847  1.00  0.00     0.010 A 
ATOM     32  C   UNL A   1      39.190  26.248  28.605  1.00  0.00     0.010 A 
ATOM     33  C   UNL A   1      39.821  27.395  28.106  1.00  0.00    -0.014 A 
BRANCH  33  34
ATOM     34  C   UNL A   1      39.978  28.509  29.036  1.00  0.00     0.031 A 
ATOM     35  C   UNL A   1      38.975  29.591  29.098  1.00  0.00     0.074 A 
ATOM     36  C   UNL A   1      41.048  28.528  29.865  1.00  0.00     0.049 A 
ATOM     37  N   UNL A   1      39.205  30.750  29.619  1.00  0.00    -0.248 NA
ATOM     38  C   UNL A   1      37.651  29.491  28.490  1.00  0.00     0.031 C 
ATOM     39  C   UNL A   1      41.253  29.382  31.033  1.00  0.00     0.029 A 
ATOM     40  N   UNL A   1      42.296  27.908  29.666  1.00  0.00    -0.354 N 
ATOM     41  C   UNL A   1      38.014  31.431  29.671  1.00  0.00     0.074 A 
ATOM     42  C   UNL A   1      37.122  30.671  28.831  1.00  0.00     0.031 C 
ATOM     43  C   UNL A   1      42.568  29.483  31.272  1.00  0.00     0.029 A 
ATOM     44  C   UNL A   1      43.253  28.816  30.179  1.00  0.00     0.049 A 
ATOM     45  H   UNL A   1      42.467  27.029  29.258  1.00  0.00     0.167 HD
ATOM     46  C   UNL A   1      37.900  32.481  30.532  1.00  0.00     0.037 A 
ATOM     47  C   UNL A   1      44.209  29.387  29.391  1.00  0.00     0.037 A 
ATOM     48  C   UNL A   1      39.215  32.908  31.008  1.00  0.00     0.049 A 
ATOM     49  C   UNL A   1      44.205  30.897  29.402  1.00  0.00     0.074 A 
ATOM     50  C   UNL A   1      39.886  32.776  32.210  1.00  0.00     0.029 A 
ATOM     51  N   UNL A   1      40.143  33.386  30.087  1.00  0.00    -0.354 N 
ATOM     52  N   UNL A   1      43.192  31.614  29.804  1.00  0.00    -0.248 NA
ATOM     53  C   UNL A   1      45.311  31.716  28.913  1.00  0.00     0.031 C 
ATOM     54  C   UNL A   1      41.252  33.096  31.982  1.00  0.00     0.029 A 
ATOM     55  C   UNL A   1      41.397  33.468  30.656  1.00  0.00     0.049 A 
ATOM     56  H   UNL A   1      39.934  33.633  29.156  1.00  0.00     0.167 HD
ATOM     57  C   UNL A   1      43.466  32.940  29.602  1.00  0.00     0.074 A 
ATOM     58  C   UNL A   1      44.813  32.956  29.067  1.00  0.00     0.031 C 
ATOM     59  C   UNL A   1      42.542  33.909  29.873  1.00  0.00     0.037 A 
BRANCH  46  60
ATOM     60  C   UNL A   1      36.603  33.014  31.120  1.00  0.00     0.064 A 
ATOM     61  C   UNL A   1      35.783  33.876  30.354  1.00  0.00     0.173 A 
ATOM     62  C   UNL A   1      36.178  32.846  32.455  1.00  0.00     0.173 A 
ATOM     63  F   UNL A   1      36.053  34.131  29.066  1.00  0.00    -0.203 F 
ATOM     64  C   UNL A   1      34.667  34.532  30.889  1.00  0.00     0.198 A 
ATOM     65  C   UNL A   1      35.035  33.463  32.974  1.00  0.00     0.198 A 
ATOM     66  F   UNL A   1      36.870  32.132  33.346  1.00  0.00    -0.203 F 
ATOM     67  F   UNL A   1      33.971  35.390  30.131  1.00  0.00    -0.200 F 
ATOM     68  C   UNL A   1      34.289  34.320  32.198  1.00  0.00     0.200 A 
ATOM     69  F   UNL A   1      34.687  33.240  34.251  1.00  0.00    -0.200 F 
ATOM     70  F   UNL A   1      33.226  34.950  32.716  1.00  0.00    -0.200 F 
ENDBRANCH  46  60
BRANCH  47  71
ATOM     71  C   UNL A   1      44.597  28.552  28.226  1.00  0.00     0.064 A 
ATOM     72  C   UNL A   1      45.373  27.399  28.455  1.00  0.00     0.173 A 
ATOM     73  C   UNL A   1      43.937  28.657  26.996  1.00  0.00     0.173 A 
ATOM     74  F   UNL A   1      46.022  27.249  29.620  1.00  0.00    -0.203 F 
ATOM     75  C   UNL A   1      45.394  26.348  27.542  1.00  0.00     0.198 A 
ATOM     76  C   UNL A   1      43.971  27.607  26.078  1.00  0.00     0.198 A 
ATOM     77  F   UNL A   1      43.165  29.720  26.729  1.00  0.00    -0.203 F 
ATOM     78  F   UNL A   1      46.048  25.217  27.841  1.00  0.00    -0.200 F 
ATOM     79  C   UNL A   1      44.670  26.443  26.366  1.00  0.00     0.200 A 
ATOM     80  F   UNL A   1      43.244  27.681  24.954  1.00  0.00    -0.200 F 
ATOM     81  F   UNL A   1      44.607  25.396  25.531  1.00  0.00    -0.200 F 
ENDBRANCH  47  71
BRANCH  59  82
ATOM     82  C   UNL A   1      42.650  35.364  29.487  1.00  0.00     0.064 A 
ATOM     83  C   UNL A   1      43.441  36.301  30.173  1.00  0.00     0.173 A 
ATOM     84  C   UNL A   1      42.057  35.827  28.289  1.00  0.00     0.173 A 
ATOM     85  F   UNL A   1      44.146  35.956  31.259  1.00  0.00    -0.203 F 
ATOM     86  C   UNL A   1      43.582  37.618  29.725  1.00  0.00     0.198 A 
ATOM     87  C   UNL A   1      42.245  37.126  27.815  1.00  0.00     0.198 A 
ATOM     88  F   UNL A   1      41.299  35.023  27.529  1.00  0.00    -0.203 F 
ATOM     89  F   UNL A   1      44.318  38.486  30.435  1.00  0.00    -0.200 F 
ATOM     90  C   UNL A   1      42.995  38.027  28.542  1.00  0.00     0.200 A 
ATOM     91  F   UNL A   1      41.710  37.492  26.642  1.00  0.00    -0.200 F 
ATOM     92  F   UNL A   1      43.171  39.276  28.092  1.00  0.00    -0.200 F 
ENDBRANCH  59  82
ENDBRANCH  33  34
ENDBRANCH  25  28
ENDBRANCH  23  24
ENDBRANCH  22  23
ENDBRANCH   1  22
TORSDOF 14
ENDMDL
