MODEL 1
REMARK VINA RESULT:     -12.3      0.000      0.000
REMARK SMILES CN(C)S(=O)(=O)c1ccc(-n2c(CCC(=O)NCCCCCCNC(=O)c3ccc(-c4c5nc(c(-c6c(F)c(F)c(F)c(F)c6F)c6ccc([nH]6)c(-c6c(F)c(F)c(F)c(F)c6F)c6nc(c(-c7c(F)c(F)c(F)c(F)c7F)c7ccc4[nH]7)C=C6)C=C5)cc3)ccc2-c2ccc(F)cc2)cc1
REMARK SMILES IDX 19 1 18 2 17 3 15 4 16 5 14 7 13 8 12 9 11 10 92 11 90 12
REMARK SMILES IDX 91 13 10 14 7 15 8 16 101 17 9 18 100 19 4 20 5 21 6 22 2 23
REMARK SMILES IDX 1 24 3 25 93 26 94 27 99 28 95 29 98 30 96 31 97 32 20 33
REMARK SMILES IDX 21 34 22 35 23 36 24 37 25 38 26 40 27 41 28 42 89 43 29 44
REMARK SMILES IDX 88 45 30 46 31 47 32 48 82 49 33 50 87 51 81 52 83 53 34 54
REMARK SMILES IDX 86 55 80 56 79 57 35 59 67 60 47 61 66 62 48 63 51 64 65 65
REMARK SMILES IDX 84 66 49 67 50 68 64 70 85 71 52 72 36 73 37 74 45 75 38 76
REMARK SMILES IDX 39 77 43 78 46 79 40 80 41 81 44 82 42 83 68 84 69 85 77 86
REMARK SMILES IDX 70 87 71 88 75 89 78 90 72 91 73 92 76 93 74 94 53 95 54 96
REMARK SMILES IDX 62 97 55 98 56 99 60 100 63 101 57 102 58 103 61 104 59 105
REMARK H PARENT 17 6 24 39 83 58 51 69
REMARK Flexibility Score: inf
ROOT
ATOM      1  C   UNL A   1      34.091  20.045  25.561  1.00  0.00     0.021 C 
ENDROOT
BRANCH   1   2
ATOM      2  C   UNL A   1      32.660  19.933  25.019  1.00  0.00     0.116 C 
BRANCH   2   3
ATOM      3  N   UNL A   1      31.818  21.083  25.312  1.00  0.00    -0.356 N 
ATOM      4  C   UNL A   1      31.451  22.141  24.528  1.00  0.00     0.220 C 
ATOM      5  O   UNL A   1      30.654  22.958  24.998  1.00  0.00    -0.275 OA
ATOM      6  H   UNL A   1      31.452  21.103  26.227  1.00  0.00     0.163 HD
BRANCH   4   7
ATOM      7  C   UNL A   1      32.068  22.367  23.159  1.00  0.00     0.106 C 
BRANCH   7   8
ATOM      8  C   UNL A   1      32.197  23.852  22.761  1.00  0.00     0.064 C 
BRANCH   8   9
ATOM      9  C   UNL A   1      32.816  24.729  23.832  1.00  0.00     0.024 A 
ATOM     10  N   UNL A   1      32.590  26.104  24.046  1.00  0.00    -0.314 N 
ATOM     11  C   UNL A   1      33.400  26.500  25.132  1.00  0.00     0.053 A 
ATOM     12  C   UNL A   1      33.794  24.315  24.724  1.00  0.00     0.024 A 
ATOM     13  C   UNL A   1      34.154  25.409  25.527  1.00  0.00     0.029 A 
BRANCH  10  14
ATOM     14  C   UNL A   1      31.571  26.932  23.449  1.00  0.00     0.046 A 
ATOM     15  C   UNL A   1      29.574  28.781  22.714  1.00  0.00     0.082 A 
ATOM     16  C   UNL A   1      30.862  28.881  22.173  1.00  0.00     0.024 A 
ATOM     17  C   UNL A   1      29.285  27.770  23.610  1.00  0.00     0.024 A 
ATOM     18  C   UNL A   1      31.857  27.956  22.537  1.00  0.00     0.028 A 
ATOM     19  C   UNL A   1      30.271  26.848  23.934  1.00  0.00     0.028 A 
BRANCH  15  20
ATOM     20  S   UNL A   1      28.358  30.002  22.300  1.00  0.00     0.242 S 
ATOM     21  O   UNL A   1      27.162  29.698  23.072  1.00  0.00    -0.207 OA
ATOM     22  O   UNL A   1      28.331  30.064  20.863  1.00  0.00    -0.207 OA
BRANCH  20  23
ATOM     23  N   UNL A   1      28.963  31.511  22.881  1.00  0.00    -0.204 NA
ATOM     24  C   UNL A   1      28.037  32.633  22.572  1.00  0.00     0.124 C 
ATOM     25  C   UNL A   1      29.354  31.553  24.315  1.00  0.00     0.124 C 
ENDBRANCH  20  23
ENDBRANCH  15  20
ENDBRANCH  10  14
BRANCH  11  26
ATOM     26  C   UNL A   1      33.242  27.759  25.874  1.00  0.00    -0.001 A 
ATOM     27  C   UNL A   1      34.008  28.893  25.596  1.00  0.00     0.013 A 
ATOM     28  C   UNL A   1      32.263  27.833  26.875  1.00  0.00     0.013 A 
ATOM     29  C   UNL A   1      33.746  30.089  26.275  1.00  0.00     0.040 A 
ATOM     30  C   UNL A   1      32.002  29.018  27.557  1.00  0.00     0.040 A 
ATOM     31  C   UNL A   1      32.743  30.143  27.242  1.00  0.00     0.123 A 
ATOM     32  F   UNL A   1      32.530  31.278  27.917  1.00  0.00    -0.207 F 
ENDBRANCH  11  26
ENDBRANCH   8   9
ENDBRANCH   7   8
ENDBRANCH   4   7
ENDBRANCH   2   3
ENDBRANCH   1   2
BRANCH   1  33
ATOM     33  C   UNL A   1      35.014  21.001  24.790  1.00  0.00     0.002 C 
BRANCH  33  34
ATOM     34  C   UNL A   1      35.840  22.069  25.560  1.00  0.00     0.002 C 
BRANCH  34  35
ATOM     35  C   UNL A   1      37.336  22.322  25.266  1.00  0.00     0.021 C 
BRANCH  35  36
ATOM     36  C   UNL A   1      38.046  23.447  26.060  1.00  0.00     0.116 C 
BRANCH  36  37
ATOM     37  N   UNL A   1      39.463  23.172  26.265  1.00  0.00    -0.352 N 
ATOM     38  C   UNL A   1      40.562  23.963  26.514  1.00  0.00     0.251 C 
ATOM     39  H   UNL A   1      39.682  22.213  26.214  1.00  0.00     0.163 HD
ATOM     40  O   UNL A   1      41.661  23.462  26.258  1.00  0.00    -0.269 OA
BRANCH  38  41
ATOM     41  C   UNL A   1      40.549  25.347  27.080  1.00  0.00     0.039 A 
ATOM     42  C   UNL A   1      40.293  25.484  28.458  1.00  0.00     0.014 A 
ATOM     43  C   UNL A   1      40.623  26.511  26.319  1.00  0.00     0.014 A 
ATOM     44  C   UNL A   1      40.157  26.743  29.059  1.00  0.00     0.010 A 
ATOM     45  C   UNL A   1      40.414  27.779  26.903  1.00  0.00     0.010 A 
ATOM     46  C   UNL A   1      40.235  27.908  28.288  1.00  0.00    -0.014 A 
BRANCH  46  47
ATOM     47  C   UNL A   1      40.469  29.214  28.989  1.00  0.00     0.031 A 
ATOM     48  C   UNL A   1      39.147  29.975  29.219  1.00  0.00     0.074 A 
ATOM     49  C   UNL A   1      41.743  29.636  29.269  1.00  0.00     0.049 A 
ATOM     50  N   UNL A   1      38.922  31.253  29.318  1.00  0.00    -0.248 NA
ATOM     51  C   UNL A   1      37.872  29.207  29.279  1.00  0.00     0.031 C 
ATOM     52  C   UNL A   1      42.953  28.820  29.072  1.00  0.00     0.029 A 
ATOM     53  N   UNL A   1      42.287  30.821  29.763  1.00  0.00    -0.354 N 
ATOM     54  C   UNL A   1      37.549  31.421  29.597  1.00  0.00     0.074 A 
ATOM     55  C   UNL A   1      36.938  30.140  29.458  1.00  0.00     0.031 C 
ATOM     56  C   UNL A   1      44.067  29.531  29.359  1.00  0.00     0.029 A 
ATOM     57  C   UNL A   1      43.711  30.876  29.780  1.00  0.00     0.049 A 
ATOM     58  H   UNL A   1      41.727  31.566  30.077  1.00  0.00     0.167 HD
ATOM     59  C   UNL A   1      37.003  32.587  30.045  1.00  0.00     0.037 A 
ATOM     60  C   UNL A   1      44.553  31.926  30.068  1.00  0.00     0.037 A 
ATOM     61  C   UNL A   1      37.986  33.610  30.083  1.00  0.00     0.049 A 
ATOM     62  C   UNL A   1      43.694  33.029  30.523  1.00  0.00     0.074 A 
ATOM     63  C   UNL A   1      38.602  34.346  29.109  1.00  0.00     0.029 A 
ATOM     64  N   UNL A   1      38.646  33.788  31.270  1.00  0.00    -0.354 N 
ATOM     65  N   UNL A   1      43.183  33.123  31.713  1.00  0.00    -0.248 NA
ATOM     66  C   UNL A   1      43.384  34.118  29.586  1.00  0.00     0.031 C 
ATOM     67  C   UNL A   1      39.862  34.656  29.658  1.00  0.00     0.029 A 
ATOM     68  C   UNL A   1      39.922  34.186  30.974  1.00  0.00     0.049 A 
ATOM     69  H   UNL A   1      38.272  33.655  32.171  1.00  0.00     0.167 HD
ATOM     70  C   UNL A   1      42.238  34.109  31.538  1.00  0.00     0.074 A 
ATOM     71  C   UNL A   1      42.649  34.880  30.391  1.00  0.00     0.031 C 
ATOM     72  C   UNL A   1      40.962  33.859  31.921  1.00  0.00     0.037 A 
BRANCH  59  73
ATOM     73  C   UNL A   1      35.676  32.888  30.687  1.00  0.00     0.064 A 
ATOM     74  C   UNL A   1      34.790  33.768  30.016  1.00  0.00     0.173 A 
ATOM     75  C   UNL A   1      35.398  32.650  32.040  1.00  0.00     0.173 A 
ATOM     76  F   UNL A   1      34.938  34.028  28.707  1.00  0.00    -0.203 F 
ATOM     77  C   UNL A   1      33.790  34.468  30.687  1.00  0.00     0.198 A 
ATOM     78  C   UNL A   1      34.357  33.313  32.697  1.00  0.00     0.198 A 
ATOM     79  F   UNL A   1      36.181  31.858  32.783  1.00  0.00    -0.203 F 
ATOM     80  F   UNL A   1      33.076  35.399  30.039  1.00  0.00    -0.200 F 
ATOM     81  C   UNL A   1      33.585  34.252  32.034  1.00  0.00     0.200 A 
ATOM     82  F   UNL A   1      34.156  33.094  34.004  1.00  0.00    -0.200 F 
ATOM     83  F   UNL A   1      32.672  34.971  32.701  1.00  0.00    -0.200 F 
ENDBRANCH  59  73
BRANCH  60  84
ATOM     84  C   UNL A   1      46.042  32.262  30.015  1.00  0.00     0.064 A 
ATOM     85  C   UNL A   1      46.877  32.483  31.116  1.00  0.00     0.173 A 
ATOM     86  C   UNL A   1      46.725  32.360  28.760  1.00  0.00     0.173 A 
ATOM     87  F   UNL A   1      46.380  32.566  32.353  1.00  0.00    -0.203 F 
ATOM     88  C   UNL A   1      48.271  32.666  30.982  1.00  0.00     0.198 A 
ATOM     89  C   UNL A   1      48.107  32.505  28.625  1.00  0.00     0.198 A 
ATOM     90  F   UNL A   1      46.074  32.331  27.590  1.00  0.00    -0.203 F 
ATOM     91  F   UNL A   1      49.022  32.866  32.074  1.00  0.00    -0.200 F 
ATOM     92  C   UNL A   1      48.888  32.643  29.743  1.00  0.00     0.200 A 
ATOM     93  F   UNL A   1      48.661  32.502  27.403  1.00  0.00    -0.200 F 
ATOM     94  F   UNL A   1      50.217  32.770  29.625  1.00  0.00    -0.200 F 
ENDBRANCH  60  84
BRANCH  72  95
ATOM     95  C   UNL A   1      40.872  32.853  33.047  1.00  0.00     0.064 A 
ATOM     96  C   UNL A   1      41.261  33.225  34.343  1.00  0.00     0.173 A 
ATOM     97  C   UNL A   1      40.570  31.495  32.850  1.00  0.00     0.173 A 
ATOM     98  F   UNL A   1      41.562  34.505  34.608  1.00  0.00    -0.203 F 
ATOM     99  C   UNL A   1      41.358  32.287  35.373  1.00  0.00     0.198 A 
ATOM    100  C   UNL A   1      40.655  30.559  33.881  1.00  0.00     0.198 A 
ATOM    101  F   UNL A   1      40.199  31.049  31.650  1.00  0.00    -0.203 F 
ATOM    102  F   UNL A   1      41.744  32.678  36.596  1.00  0.00    -0.200 F 
ATOM    103  C   UNL A   1      41.058  30.955  35.143  1.00  0.00     0.200 A 
ATOM    104  F   UNL A   1      40.348  29.273  33.649  1.00  0.00    -0.200 F 
ATOM    105  F   UNL A   1      41.146  30.057  36.134  1.00  0.00    -0.200 F 
ENDBRANCH  72  95
ENDBRANCH  46  47
ENDBRANCH  38  41
ENDBRANCH  36  37
ENDBRANCH  35  36
ENDBRANCH  34  35
ENDBRANCH  33  34
ENDBRANCH   1  33
TORSDOF 19
ENDMDL
MODEL 2
REMARK VINA RESULT:     -12.0      4.168      7.579
REMARK SMILES CN(C)S(=O)(=O)c1ccc(-n2c(CCC(=O)NCCCCCCNC(=O)c3ccc(-c4c5nc(c(-c6c(F)c(F)c(F)c(F)c6F)c6ccc([nH]6)c(-c6c(F)c(F)c(F)c(F)c6F)c6nc(c(-c7c(F)c(F)c(F)c(F)c7F)c7ccc4[nH]7)C=C6)C=C5)cc3)ccc2-c2ccc(F)cc2)cc1
REMARK SMILES IDX 19 1 18 2 17 3 15 4 16 5 14 7 13 8 12 9 11 10 92 11 90 12
REMARK SMILES IDX 91 13 10 14 7 15 8 16 101 17 9 18 100 19 4 20 5 21 6 22 2 23
REMARK SMILES IDX 1 24 3 25 93 26 94 27 99 28 95 29 98 30 96 31 97 32 20 33
REMARK SMILES IDX 21 34 22 35 23 36 24 37 25 38 26 40 27 41 28 42 89 43 29 44
REMARK SMILES IDX 88 45 30 46 31 47 32 48 82 49 33 50 87 51 81 52 83 53 34 54
REMARK SMILES IDX 86 55 80 56 79 57 35 59 67 60 47 61 66 62 48 63 51 64 65 65
REMARK SMILES IDX 84 66 49 67 50 68 64 70 85 71 52 72 36 73 37 74 45 75 38 76
REMARK SMILES IDX 39 77 43 78 46 79 40 80 41 81 44 82 42 83 68 84 69 85 77 86
REMARK SMILES IDX 70 87 71 88 75 89 78 90 72 91 73 92 76 93 74 94 53 95 54 96
REMARK SMILES IDX 62 97 55 98 56 99 60 100 63 101 57 102 58 103 61 104 59 105
REMARK H PARENT 17 6 24 39 83 58 51 69
REMARK Flexibility Score: inf
ROOT
ATOM      1  C   UNL A   1      32.757  26.628  25.972  1.00  0.00     0.021 C 
ENDROOT
BRANCH   1   2
ATOM      2  C   UNL A   1      32.340  27.529  27.141  1.00  0.00     0.116 C 
BRANCH   2   3
ATOM      3  N   UNL A   1      31.744  28.794  26.738  1.00  0.00    -0.356 N 
ATOM      4  C   UNL A   1      32.324  29.993  26.428  1.00  0.00     0.220 C 
ATOM      5  O   UNL A   1      31.590  30.904  26.037  1.00  0.00    -0.275 OA
ATOM      6  H   UNL A   1      30.761  28.786  26.678  1.00  0.00     0.163 HD
BRANCH   4   7
ATOM      7  C   UNL A   1      33.807  30.237  26.645  1.00  0.00     0.106 C 
BRANCH   7   8
ATOM      8  C   UNL A   1      34.191  30.541  28.108  1.00  0.00     0.064 C 
BRANCH   8   9
ATOM      9  C   UNL A   1      35.660  30.857  28.309  1.00  0.00     0.024 A 
ATOM     10  N   UNL A   1      36.211  31.992  28.938  1.00  0.00    -0.314 N 
ATOM     11  C   UNL A   1      37.616  31.872  28.869  1.00  0.00     0.053 A 
ATOM     12  C   UNL A   1      36.707  30.099  27.808  1.00  0.00     0.024 A 
ATOM     13  C   UNL A   1      37.915  30.725  28.154  1.00  0.00     0.029 A 
BRANCH  10  14
ATOM     14  C   UNL A   1      35.520  32.991  29.716  1.00  0.00     0.046 A 
ATOM     15  C   UNL A   1      33.776  34.812  30.976  1.00  0.00     0.082 A 
ATOM     16  C   UNL A   1      34.250  33.693  31.671  1.00  0.00     0.024 A 
ATOM     17  C   UNL A   1      34.169  35.022  29.668  1.00  0.00     0.024 A 
ATOM     18  C   UNL A   1      35.122  32.786  31.043  1.00  0.00     0.028 A 
ATOM     19  C   UNL A   1      35.056  34.135  29.075  1.00  0.00     0.028 A 
BRANCH  15  20
ATOM     20  S   UNL A   1      32.618  35.900  31.762  1.00  0.00     0.242 S 
ATOM     21  O   UNL A   1      31.651  35.066  32.462  1.00  0.00    -0.207 OA
ATOM     22  O   UNL A   1      32.210  36.842  30.754  1.00  0.00    -0.207 OA
BRANCH  20  23
ATOM     23  N   UNL A   1      33.500  36.765  32.966  1.00  0.00    -0.204 NA
ATOM     24  C   UNL A   1      34.665  35.988  33.464  1.00  0.00     0.124 C 
ATOM     25  C   UNL A   1      33.925  38.144  32.605  1.00  0.00     0.124 C 
ENDBRANCH  20  23
ENDBRANCH  15  20
ENDBRANCH  10  14
BRANCH  11  26
ATOM     26  C   UNL A   1      38.561  32.669  29.663  1.00  0.00    -0.001 A 
ATOM     27  C   UNL A   1      39.091  32.214  30.873  1.00  0.00     0.013 A 
ATOM     28  C   UNL A   1      38.972  33.917  29.172  1.00  0.00     0.013 A 
ATOM     29  C   UNL A   1      40.058  32.979  31.536  1.00  0.00     0.040 A 
ATOM     30  C   UNL A   1      39.928  34.684  29.831  1.00  0.00     0.040 A 
ATOM     31  C   UNL A   1      40.473  34.201  31.007  1.00  0.00     0.123 A 
ATOM     32  F   UNL A   1      41.364  34.945  31.670  1.00  0.00    -0.207 F 
ENDBRANCH  11  26
ENDBRANCH   8   9
ENDBRANCH   7   8
ENDBRANCH   4   7
ENDBRANCH   2   3
ENDBRANCH   1   2
BRANCH   1  33
ATOM     33  C   UNL A   1      32.181  25.205  25.998  1.00  0.00     0.002 C 
BRANCH  33  34
ATOM     34  C   UNL A   1      33.005  24.024  25.411  1.00  0.00     0.002 C 
BRANCH  34  35
ATOM     35  C   UNL A   1      34.521  23.871  25.667  1.00  0.00     0.021 C 
BRANCH  35  36
ATOM     36  C   UNL A   1      34.976  22.771  26.659  1.00  0.00     0.116 C 
BRANCH  36  37
ATOM     37  N   UNL A   1      35.754  21.724  26.007  1.00  0.00    -0.352 N 
ATOM     38  C   UNL A   1      37.059  21.632  25.578  1.00  0.00     0.251 C 
ATOM     39  H   UNL A   1      35.234  20.905  25.837  1.00  0.00     0.163 HD
ATOM     40  O   UNL A   1      37.293  20.763  24.733  1.00  0.00    -0.269 OA
BRANCH  38  41
ATOM     41  C   UNL A   1      38.209  22.462  26.051  1.00  0.00     0.039 A 
ATOM     42  C   UNL A   1      38.141  23.852  25.833  1.00  0.00     0.014 A 
ATOM     43  C   UNL A   1      39.400  21.946  26.555  1.00  0.00     0.014 A 
ATOM     44  C   UNL A   1      39.213  24.699  26.147  1.00  0.00     0.010 A 
ATOM     45  C   UNL A   1      40.509  22.782  26.805  1.00  0.00     0.010 A 
ATOM     46  C   UNL A   1      40.406  24.173  26.655  1.00  0.00    -0.014 A 
BRANCH  46  47
ATOM     47  C   UNL A   1      41.368  25.106  27.329  1.00  0.00     0.031 A 
ATOM     48  C   UNL A   1      40.653  26.002  28.362  1.00  0.00     0.074 A 
ATOM     49  C   UNL A   1      42.684  25.151  26.944  1.00  0.00     0.049 A 
ATOM     50  N   UNL A   1      40.950  27.196  28.783  1.00  0.00    -0.248 NA
ATOM     51  C   UNL A   1      39.377  25.528  28.969  1.00  0.00     0.031 C 
ATOM     52  C   UNL A   1      43.303  24.217  25.989  1.00  0.00     0.029 A 
ATOM     53  N   UNL A   1      43.760  25.978  27.259  1.00  0.00    -0.354 N 
ATOM     54  C   UNL A   1      40.014  27.538  29.784  1.00  0.00     0.074 A 
ATOM     55  C   UNL A   1      39.014  26.520  29.780  1.00  0.00     0.031 C 
ATOM     56  C   UNL A   1      44.589  24.558  25.745  1.00  0.00     0.029 A 
ATOM     57  C   UNL A   1      44.951  25.738  26.514  1.00  0.00     0.049 A 
ATOM     58  H   UNL A   1      43.702  26.678  27.948  1.00  0.00     0.167 HD
ATOM     59  C   UNL A   1      40.173  28.581  30.646  1.00  0.00     0.037 A 
ATOM     60  C   UNL A   1      46.129  26.447  26.476  1.00  0.00     0.037 A 
ATOM     61  C   UNL A   1      41.341  29.317  30.323  1.00  0.00     0.049 A 
ATOM     62  C   UNL A   1      46.014  27.492  27.503  1.00  0.00     0.074 A 
ATOM     63  C   UNL A   1      41.642  30.189  29.312  1.00  0.00     0.029 A 
ATOM     64  N   UNL A   1      42.493  28.966  30.975  1.00  0.00    -0.354 N 
ATOM     65  N   UNL A   1      46.182  27.297  28.776  1.00  0.00    -0.248 NA
ATOM     66  C   UNL A   1      45.695  28.864  27.085  1.00  0.00     0.031 C 
ATOM     67  C   UNL A   1      43.032  30.045  29.137  1.00  0.00     0.029 A 
ATOM     68  C   UNL A   1      43.534  29.173  30.109  1.00  0.00     0.049 A 
ATOM     69  H   UNL A   1      42.562  28.627  31.896  1.00  0.00     0.167 HD
ATOM     70  C   UNL A   1      45.664  28.455  29.310  1.00  0.00     0.074 A 
ATOM     71  C   UNL A   1      45.728  29.457  28.275  1.00  0.00     0.031 C 
ATOM     72  C   UNL A   1      44.713  28.356  30.273  1.00  0.00     0.037 A 
BRANCH  59  73
ATOM     73  C   UNL A   1      39.489  28.918  31.945  1.00  0.00     0.064 A 
ATOM     74  C   UNL A   1      38.119  29.284  31.905  1.00  0.00     0.173 A 
ATOM     75  C   UNL A   1      40.177  29.234  33.124  1.00  0.00     0.173 A 
ATOM     76  F   UNL A   1      37.357  28.986  30.841  1.00  0.00    -0.203 F 
ATOM     77  C   UNL A   1      37.525  30.040  32.913  1.00  0.00     0.198 A 
ATOM     78  C   UNL A   1      39.560  29.945  34.158  1.00  0.00     0.198 A 
ATOM     79  F   UNL A   1      41.480  28.961  33.264  1.00  0.00    -0.203 F 
ATOM     80  F   UNL A   1      36.271  30.489  32.761  1.00  0.00    -0.200 F 
ATOM     81  C   UNL A   1      38.253  30.385  34.033  1.00  0.00     0.200 A 
ATOM     82  F   UNL A   1      40.267  30.270  35.248  1.00  0.00    -0.200 F 
ATOM     83  F   UNL A   1      37.710  31.170  34.975  1.00  0.00    -0.200 F 
ENDBRANCH  59  73
BRANCH  60  84
ATOM     84  C   UNL A   1      47.436  26.476  25.685  1.00  0.00     0.064 A 
ATOM     85  C   UNL A   1      47.653  27.143  24.475  1.00  0.00     0.173 A 
ATOM     86  C   UNL A   1      48.599  25.796  26.171  1.00  0.00     0.173 A 
ATOM     87  F   UNL A   1      46.643  27.713  23.810  1.00  0.00    -0.203 F 
ATOM     88  C   UNL A   1      48.928  27.221  23.872  1.00  0.00     0.198 A 
ATOM     89  C   UNL A   1      49.869  25.901  25.598  1.00  0.00     0.198 A 
ATOM     90  F   UNL A   1      48.557  24.979  27.231  1.00  0.00    -0.203 F 
ATOM     91  F   UNL A   1      49.077  27.881  22.716  1.00  0.00    -0.200 F 
ATOM     92  C   UNL A   1      50.038  26.631  24.451  1.00  0.00     0.200 A 
ATOM     93  F   UNL A   1      50.913  25.291  26.179  1.00  0.00    -0.200 F 
ATOM     94  F   UNL A   1      51.254  26.747  23.900  1.00  0.00    -0.200 F 
ENDBRANCH  60  84
BRANCH  72  95
ATOM     95  C   UNL A   1      44.821  27.080  31.077  1.00  0.00     0.064 A 
ATOM     96  C   UNL A   1      45.750  26.998  32.126  1.00  0.00     0.173 A 
ATOM     97  C   UNL A   1      44.154  25.891  30.738  1.00  0.00     0.173 A 
ATOM     98  F   UNL A   1      46.423  28.092  32.509  1.00  0.00    -0.203 F 
ATOM     99  C   UNL A   1      46.005  25.791  32.782  1.00  0.00     0.198 A 
ATOM    100  C   UNL A   1      44.400  24.687  31.399  1.00  0.00     0.198 A 
ATOM    101  F   UNL A   1      43.261  25.873  29.748  1.00  0.00    -0.203 F 
ATOM    102  F   UNL A   1      46.908  25.749  33.772  1.00  0.00    -0.200 F 
ATOM    103  C   UNL A   1      45.333  24.636  32.418  1.00  0.00     0.200 A 
ATOM    104  F   UNL A   1      43.731  23.578  31.046  1.00  0.00    -0.200 F 
ATOM    105  F   UNL A   1      45.575  23.480  33.052  1.00  0.00    -0.200 F 
ENDBRANCH  72  95
ENDBRANCH  46  47
ENDBRANCH  38  41
ENDBRANCH  36  37
ENDBRANCH  35  36
ENDBRANCH  34  35
ENDBRANCH  33  34
ENDBRANCH   1  33
TORSDOF 19
ENDMDL
MODEL 3
REMARK VINA RESULT:     -11.0      9.954     15.045
REMARK SMILES CN(C)S(=O)(=O)c1ccc(-n2c(CCC(=O)NCCCCCCNC(=O)c3ccc(-c4c5nc(c(-c6c(F)c(F)c(F)c(F)c6F)c6ccc([nH]6)c(-c6c(F)c(F)c(F)c(F)c6F)c6nc(c(-c7c(F)c(F)c(F)c(F)c7F)c7ccc4[nH]7)C=C6)C=C5)cc3)ccc2-c2ccc(F)cc2)cc1
REMARK SMILES IDX 19 1 18 2 17 3 15 4 16 5 14 7 13 8 12 9 11 10 92 11 90 12
REMARK SMILES IDX 91 13 10 14 7 15 8 16 101 17 9 18 100 19 4 20 5 21 6 22 2 23
REMARK SMILES IDX 1 24 3 25 93 26 94 27 99 28 95 29 98 30 96 31 97 32 20 33
REMARK SMILES IDX 21 34 22 35 23 36 24 37 25 38 26 40 27 41 28 42 89 43 29 44
REMARK SMILES IDX 88 45 30 46 31 47 32 48 82 49 33 50 87 51 81 52 83 53 34 54
REMARK SMILES IDX 86 55 80 56 79 57 35 59 67 60 47 61 66 62 48 63 51 64 65 65
REMARK SMILES IDX 84 66 49 67 50 68 64 70 85 71 52 72 36 73 37 74 45 75 38 76
REMARK SMILES IDX 39 77 43 78 46 79 40 80 41 81 44 82 42 83 68 84 69 85 77 86
REMARK SMILES IDX 70 87 71 88 75 89 78 90 72 91 73 92 76 93 74 94 53 95 54 96
REMARK SMILES IDX 62 97 55 98 56 99 60 100 63 101 57 102 58 103 61 104 59 105
REMARK H PARENT 17 6 24 39 83 58 51 69
REMARK Flexibility Score: inf
ROOT
ATOM      1  C   UNL A   1      44.729  43.149  24.956  1.00  0.00     0.021 C 
ENDROOT
BRANCH   1   2
ATOM      2  C   UNL A   1      44.055  44.258  24.138  1.00  0.00     0.116 C 
BRANCH   2   3
ATOM      3  N   UNL A   1      42.724  43.919  23.654  1.00  0.00    -0.356 N 
ATOM      4  C   UNL A   1      42.329  43.266  22.521  1.00  0.00     0.220 C 
ATOM      5  O   UNL A   1      41.125  43.034  22.379  1.00  0.00    -0.275 OA
ATOM      6  H   UNL A   1      41.987  44.208  24.240  1.00  0.00     0.163 HD
BRANCH   4   7
ATOM      7  C   UNL A   1      43.315  42.916  21.420  1.00  0.00     0.106 C 
BRANCH   7   8
ATOM      8  C   UNL A   1      42.674  42.741  20.028  1.00  0.00     0.064 C 
BRANCH   8   9
ATOM      9  C   UNL A   1      42.555  44.028  19.236  1.00  0.00     0.024 A 
ATOM     10  N   UNL A   1      43.469  45.101  19.209  1.00  0.00    -0.314 N 
ATOM     11  C   UNL A   1      42.931  46.091  18.358  1.00  0.00     0.053 A 
ATOM     12  C   UNL A   1      41.455  44.387  18.473  1.00  0.00     0.024 A 
ATOM     13  C   UNL A   1      41.687  45.661  17.930  1.00  0.00     0.029 A 
BRANCH  10  14
ATOM     14  C   UNL A   1      44.808  45.132  19.744  1.00  0.00     0.046 A 
ATOM     15  C   UNL A   1      47.539  45.425  20.376  1.00  0.00     0.082 A 
ATOM     16  C   UNL A   1      46.573  46.176  21.056  1.00  0.00     0.024 A 
ATOM     17  C   UNL A   1      47.148  44.537  19.393  1.00  0.00     0.024 A 
ATOM     18  C   UNL A   1      45.211  46.027  20.743  1.00  0.00     0.028 A 
ATOM     19  C   UNL A   1      45.796  44.379  19.119  1.00  0.00     0.028 A 
BRANCH  15  20
ATOM     20  S   UNL A   1      49.256  45.684  20.734  1.00  0.00     0.242 S 
ATOM     21  O   UNL A   1      49.353  46.914  21.507  1.00  0.00    -0.207 OA
ATOM     22  O   UNL A   1      49.951  45.524  19.485  1.00  0.00    -0.207 OA
BRANCH  20  23
ATOM     23  N   UNL A   1      49.738  44.396  21.775  1.00  0.00    -0.204 NA
ATOM     24  C   UNL A   1      51.215  44.340  21.938  1.00  0.00     0.124 C 
ATOM     25  C   UNL A   1      49.076  44.343  23.105  1.00  0.00     0.124 C 
ENDBRANCH  20  23
ENDBRANCH  15  20
ENDBRANCH  10  14
BRANCH  11  26
ATOM     26  C   UNL A   1      43.692  47.223  17.810  1.00  0.00    -0.001 A 
ATOM     27  C   UNL A   1      44.863  47.048  17.069  1.00  0.00     0.013 A 
ATOM     28  C   UNL A   1      43.207  48.523  18.011  1.00  0.00     0.013 A 
ATOM     29  C   UNL A   1      45.492  48.161  16.495  1.00  0.00     0.040 A 
ATOM     30  C   UNL A   1      43.831  49.632  17.448  1.00  0.00     0.040 A 
ATOM     31  C   UNL A   1      44.967  49.439  16.683  1.00  0.00     0.123 A 
ATOM     32  F   UNL A   1      45.599  50.500  16.169  1.00  0.00    -0.207 F 
ENDBRANCH  11  26
ENDBRANCH   8   9
ENDBRANCH   7   8
ENDBRANCH   4   7
ENDBRANCH   2   3
ENDBRANCH   1   2
BRANCH   1  33
ATOM     33  C   UNL A   1      43.962  41.820  25.021  1.00  0.00     0.002 C 
BRANCH  33  34
ATOM     34  C   UNL A   1      43.029  41.521  26.228  1.00  0.00     0.002 C 
BRANCH  34  35
ATOM     35  C   UNL A   1      41.813  40.575  26.113  1.00  0.00     0.021 C 
BRANCH  35  36
ATOM     36  C   UNL A   1      42.036  39.074  26.430  1.00  0.00     0.116 C 
BRANCH  36  37
ATOM     37  N   UNL A   1      43.451  38.730  26.515  1.00  0.00    -0.352 N 
ATOM     38  C   UNL A   1      44.183  37.901  27.335  1.00  0.00     0.251 C 
ATOM     39  H   UNL A   1      44.002  39.191  25.842  1.00  0.00     0.163 HD
ATOM     40  O   UNL A   1      45.396  38.126  27.392  1.00  0.00    -0.269 OA
BRANCH  38  41
ATOM     41  C   UNL A   1      43.655  36.753  28.135  1.00  0.00     0.039 A 
ATOM     42  C   UNL A   1      43.514  36.939  29.524  1.00  0.00     0.014 A 
ATOM     43  C   UNL A   1      43.435  35.474  27.630  1.00  0.00     0.014 A 
ATOM     44  C   UNL A   1      43.127  35.890  30.371  1.00  0.00     0.010 A 
ATOM     45  C   UNL A   1      43.115  34.397  28.484  1.00  0.00     0.010 A 
ATOM     46  C   UNL A   1      42.905  34.609  29.855  1.00  0.00    -0.014 A 
BRANCH  46  47
ATOM     47  C   UNL A   1      42.137  33.627  30.689  1.00  0.00     0.031 A 
ATOM     48  C   UNL A   1      40.616  33.873  30.591  1.00  0.00     0.074 A 
ATOM     49  C   UNL A   1      42.793  32.717  31.479  1.00  0.00     0.049 A 
ATOM     50  N   UNL A   1      39.672  33.627  31.451  1.00  0.00    -0.248 NA
ATOM     51  C   UNL A   1      40.072  34.559  29.387  1.00  0.00     0.031 C 
ATOM     52  C   UNL A   1      44.251  32.505  31.468  1.00  0.00     0.029 A 
ATOM     53  N   UNL A   1      42.388  31.800  32.446  1.00  0.00    -0.354 N 
ATOM     54  C   UNL A   1      38.445  33.976  30.844  1.00  0.00     0.074 A 
ATOM     55  C   UNL A   1      38.763  34.637  29.621  1.00  0.00     0.031 C 
ATOM     56  C   UNL A   1      44.614  31.604  32.409  1.00  0.00     0.029 A 
ATOM     57  C   UNL A   1      43.443  31.126  33.126  1.00  0.00     0.049 A 
ATOM     58  H   UNL A   1      41.439  31.629  32.645  1.00  0.00     0.167 HD
ATOM     59  C   UNL A   1      37.227  33.597  31.324  1.00  0.00     0.037 A 
ATOM     60  C   UNL A   1      43.399  30.278  34.209  1.00  0.00     0.037 A 
ATOM     61  C   UNL A   1      37.373  32.907  32.555  1.00  0.00     0.049 A 
ATOM     62  C   UNL A   1      41.975  30.048  34.494  1.00  0.00     0.074 A 
ATOM     63  C   UNL A   1      37.673  33.320  33.823  1.00  0.00     0.029 A 
ATOM     64  N   UNL A   1      37.461  31.542  32.491  1.00  0.00    -0.354 N 
ATOM     65  N   UNL A   1      41.213  29.230  33.834  1.00  0.00    -0.248 NA
ATOM     66  C   UNL A   1      41.348  30.778  35.605  1.00  0.00     0.031 C 
ATOM     67  C   UNL A   1      38.314  32.208  34.404  1.00  0.00     0.029 A 
ATOM     68  C   UNL A   1      38.286  31.136  33.506  1.00  0.00     0.049 A 
ATOM     69  H   UNL A   1      37.014  30.959  31.836  1.00  0.00     0.167 HD
ATOM     70  C   UNL A   1      39.959  29.609  34.254  1.00  0.00     0.074 A 
ATOM     71  C   UNL A   1      40.126  30.258  35.531  1.00  0.00     0.031 C 
ATOM     72  C   UNL A   1      39.024  29.909  33.318  1.00  0.00     0.037 A 
BRANCH  59  73
ATOM     73  C   UNL A   1      35.863  33.582  30.687  1.00  0.00     0.064 A 
ATOM     74  C   UNL A   1      35.677  32.801  29.519  1.00  0.00     0.173 A 
ATOM     75  C   UNL A   1      34.874  34.541  30.951  1.00  0.00     0.173 A 
ATOM     76  F   UNL A   1      36.540  31.824  29.199  1.00  0.00    -0.203 F 
ATOM     77  C   UNL A   1      34.655  33.061  28.608  1.00  0.00     0.198 A 
ATOM     78  C   UNL A   1      33.818  34.760  30.061  1.00  0.00     0.198 A 
ATOM     79  F   UNL A   1      34.958  35.354  32.011  1.00  0.00    -0.203 F 
ATOM     80  F   UNL A   1      34.609  32.393  27.447  1.00  0.00    -0.200 F 
ATOM     81  C   UNL A   1      33.734  34.054  28.873  1.00  0.00     0.200 A 
ATOM     82  F   UNL A   1      32.921  35.720  30.326  1.00  0.00    -0.200 F 
ATOM     83  F   UNL A   1      32.790  34.356  27.971  1.00  0.00    -0.200 F 
ENDBRANCH  59  73
BRANCH  60  84
ATOM     84  C   UNL A   1      44.359  29.578  35.169  1.00  0.00     0.064 A 
ATOM     85  C   UNL A   1      44.920  30.132  36.325  1.00  0.00     0.173 A 
ATOM     86  C   UNL A   1      44.756  28.221  34.945  1.00  0.00     0.173 A 
ATOM     87  F   UNL A   1      44.767  31.429  36.612  1.00  0.00    -0.203 F 
ATOM     88  C   UNL A   1      45.702  29.374  37.224  1.00  0.00     0.198 A 
ATOM     89  C   UNL A   1      45.498  27.458  35.849  1.00  0.00     0.198 A 
ATOM     90  F   UNL A   1      44.449  27.565  33.818  1.00  0.00    -0.203 F 
ATOM     91  F   UNL A   1      46.207  29.958  38.319  1.00  0.00    -0.200 F 
ATOM     92  C   UNL A   1      45.961  28.033  37.003  1.00  0.00     0.200 A 
ATOM     93  F   UNL A   1      45.747  26.167  35.583  1.00  0.00    -0.200 F 
ATOM     94  F   UNL A   1      46.664  27.306  37.883  1.00  0.00    -0.200 F 
ENDBRANCH  60  84
BRANCH  72  95
ATOM     95  C   UNL A   1      39.245  29.181  32.012  1.00  0.00     0.064 A 
ATOM     96  C   UNL A   1      39.761  29.878  30.908  1.00  0.00     0.173 A 
ATOM     97  C   UNL A   1      38.811  27.866  31.774  1.00  0.00     0.173 A 
ATOM     98  F   UNL A   1      40.198  31.137  31.057  1.00  0.00    -0.203 F 
ATOM     99  C   UNL A   1      39.820  29.295  29.640  1.00  0.00     0.198 A 
ATOM    100  C   UNL A   1      38.881  27.278  30.510  1.00  0.00     0.198 A 
ATOM    101  F   UNL A   1      38.300  27.132  32.762  1.00  0.00    -0.203 F 
ATOM    102  F   UNL A   1      40.309  29.996  28.607  1.00  0.00    -0.200 F 
ATOM    103  C   UNL A   1      39.379  27.998  29.440  1.00  0.00     0.200 A 
ATOM    104  F   UNL A   1      38.463  26.015  30.333  1.00  0.00    -0.200 F 
ATOM    105  F   UNL A   1      39.442  27.437  28.224  1.00  0.00    -0.200 F 
ENDBRANCH  72  95
ENDBRANCH  46  47
ENDBRANCH  38  41
ENDBRANCH  36  37
ENDBRANCH  35  36
ENDBRANCH  34  35
ENDBRANCH  33  34
ENDBRANCH   1  33
TORSDOF 19
ENDMDL
