MODEL 1
REMARK VINA RESULT:     -11.1      0.000      0.000
REMARK SMILES CCCCCCNC(=O)Oc1cccc(-c2ccc([C@@H](C)C(=O)NCCCCCCNC(=O)c3ccc(-c4c5nc(c(-c6c(F)c(F)c(F)c(F)c6F)c6ccc([nH]6)c(-c6c(F)c(F)c(F)c(F)c6F)c6nc(c(-c7c(F)c(F)c(F)c(F)c7F)c7ccc4[nH]7)C=C6)C=C5)cc3)cc2C)c1
REMARK SMILES IDX 22 1 23 2 24 3 20 5 21 6 19 7 16 8 17 9 98 10 18 11 97 12
REMARK SMILES IDX 99 13 15 14 11 15 12 16 100 17 13 18 14 19 10 20 8 21 7 22
REMARK SMILES IDX 9 24 6 25 5 26 4 27 3 28 2 29 1 30 25 31 26 32 27 33 28 34
REMARK SMILES IDX 29 35 30 36 31 37 32 38 33 40 34 41 35 42 96 43 36 44 95 45
REMARK SMILES IDX 37 46 38 47 39 48 89 49 40 50 94 51 88 52 90 53 41 54 93 55
REMARK SMILES IDX 87 56 86 57 42 59 74 60 54 61 73 62 55 63 58 64 72 65 91 66
REMARK SMILES IDX 56 67 57 68 71 70 92 71 59 72 43 73 44 74 52 75 45 76 46 77
REMARK SMILES IDX 50 78 53 79 47 80 48 81 51 82 49 83 75 84 76 85 84 86 77 87
REMARK SMILES IDX 78 88 82 89 85 90 79 91 80 92 83 93 81 94 60 95 61 96 69 97
REMARK SMILES IDX 62 98 63 99 67 100 70 101 64 102 65 103 68 104 66 105
REMARK H PARENT 24 4 7 23 31 39 90 58 58 69
REMARK Flexibility Score: inf
ROOT
ATOM      1  C   UNL A   1      33.411  23.181  24.711  1.00  0.00     0.227 C 
ATOM      2  O   UNL A   1      32.359  22.605  24.402  1.00  0.00    -0.274 OA
ATOM      3  N   UNL A   1      34.409  23.142  23.789  1.00  0.00    -0.356 N 
ATOM      4  H   UNL A   1      34.153  22.725  22.935  1.00  0.00     0.163 HD
ENDROOT
BRANCH   1   5
ATOM      5  C   UNL A   1      33.517  23.904  26.063  1.00  0.00     0.105 C 
ATOM      6  C   UNL A   1      33.025  23.088  27.257  1.00  0.00     0.023 C 
BRANCH   5   7
ATOM      7  C   UNL A   1      33.064  25.356  26.025  1.00  0.00    -0.036 A 
ATOM      8  C   UNL A   1      32.152  28.050  25.724  1.00  0.00    -0.015 A 
ATOM      9  C   UNL A   1      31.561  27.162  26.639  1.00  0.00     0.009 A 
ATOM     10  C   UNL A   1      33.293  27.597  25.028  1.00  0.00    -0.043 A 
ATOM     11  C   UNL A   1      32.035  25.859  26.818  1.00  0.00     0.005 A 
ATOM     12  C   UNL A   1      33.695  26.249  25.146  1.00  0.00     0.008 A 
ATOM     13  C   UNL A   1      34.142  28.481  24.149  1.00  0.00     0.045 C 
BRANCH   8  14
ATOM     14  C   UNL A   1      31.546  29.387  25.529  1.00  0.00    -0.014 A 
ATOM     15  C   UNL A   1      30.142  30.914  24.260  1.00  0.00     0.133 A 
ATOM     16  C   UNL A   1      30.403  31.946  25.156  1.00  0.00     0.047 A 
ATOM     17  C   UNL A   1      30.690  29.644  24.445  1.00  0.00     0.056 A 
ATOM     18  C   UNL A   1      31.216  31.700  26.258  1.00  0.00     0.004 A 
ATOM     19  C   UNL A   1      31.789  30.437  26.436  1.00  0.00     0.009 A 
BRANCH  15  20
ATOM     20  O   UNL A   1      29.449  31.255  23.086  1.00  0.00    -0.410 OA
BRANCH  20  21
ATOM     21  C   UNL A   1      28.076  31.451  23.131  1.00  0.00     0.412 C 
ATOM     22  N   UNL A   1      27.372  30.391  22.627  1.00  0.00    -0.321 N 
ATOM     23  H   UNL A   1      26.392  30.483  22.606  1.00  0.00     0.167 HD
ATOM     24  O   UNL A   1      27.505  32.446  23.555  1.00  0.00    -0.224 OA
BRANCH  22  25
ATOM     25  C   UNL A   1      27.919  29.145  22.124  1.00  0.00     0.119 C 
BRANCH  25  26
ATOM     26  C   UNL A   1      27.945  28.054  23.195  1.00  0.00     0.021 C 
BRANCH  26  27
ATOM     27  C   UNL A   1      29.286  27.323  23.343  1.00  0.00     0.002 C 
BRANCH  27  28
ATOM     28  C   UNL A   1      29.224  25.970  24.060  1.00  0.00    -0.000 C 
BRANCH  28  29
ATOM     29  C   UNL A   1      30.287  24.953  23.639  1.00  0.00    -0.003 C 
ATOM     30  C   UNL A   1      31.290  25.507  22.639  1.00  0.00     0.004 C 
ENDBRANCH  28  29
ENDBRANCH  27  28
ENDBRANCH  26  27
ENDBRANCH  25  26
ENDBRANCH  22  25
ENDBRANCH  20  21
ENDBRANCH  15  20
ENDBRANCH   8  14
ENDBRANCH   5   7
ENDBRANCH   1   5
BRANCH   3  31
ATOM     31  C   UNL A   1      35.781  23.602  23.836  1.00  0.00     0.116 C 
BRANCH  31  32
ATOM     32  C   UNL A   1      36.766  22.465  23.554  1.00  0.00     0.021 C 
BRANCH  32  33
ATOM     33  C   UNL A   1      37.191  21.687  24.804  1.00  0.00     0.002 C 
BRANCH  33  34
ATOM     34  C   UNL A   1      36.880  20.185  24.771  1.00  0.00     0.002 C 
BRANCH  34  35
ATOM     35  C   UNL A   1      38.067  19.260  25.058  1.00  0.00     0.021 C 
BRANCH  35  36
ATOM     36  C   UNL A   1      39.212  19.913  25.828  1.00  0.00     0.116 C 
BRANCH  36  37
ATOM     37  N   UNL A   1      40.356  19.025  25.951  1.00  0.00    -0.352 N 
ATOM     38  C   UNL A   1      41.688  19.322  26.093  1.00  0.00     0.251 C 
ATOM     39  H   UNL A   1      40.144  18.063  25.931  1.00  0.00     0.163 HD
ATOM     40  O   UNL A   1      42.535  18.445  25.953  1.00  0.00    -0.269 OA
BRANCH  38  41
ATOM     41  C   UNL A   1      42.111  20.704  26.408  1.00  0.00     0.039 A 
ATOM     42  C   UNL A   1      42.329  21.056  27.742  1.00  0.00     0.014 A 
ATOM     43  C   UNL A   1      42.254  21.658  25.397  1.00  0.00     0.014 A 
ATOM     44  C   UNL A   1      42.742  22.352  28.058  1.00  0.00     0.010 A 
ATOM     45  C   UNL A   1      42.730  22.929  25.705  1.00  0.00     0.010 A 
ATOM     46  C   UNL A   1      42.971  23.291  27.040  1.00  0.00    -0.014 A 
BRANCH  46  47
ATOM     47  C   UNL A   1      43.453  24.660  27.349  1.00  0.00     0.031 A 
ATOM     48  C   UNL A   1      42.514  25.679  27.927  1.00  0.00     0.074 A 
ATOM     49  C   UNL A   1      44.720  25.001  27.051  1.00  0.00     0.049 A 
ATOM     50  N   UNL A   1      42.729  26.940  28.209  1.00  0.00    -0.248 NA
ATOM     51  C   UNL A   1      41.141  25.228  28.199  1.00  0.00     0.031 C 
ATOM     52  C   UNL A   1      45.715  24.112  26.451  1.00  0.00     0.029 A 
ATOM     53  N   UNL A   1      45.386  26.191  27.204  1.00  0.00    -0.354 N 
ATOM     54  C   UNL A   1      41.518  27.434  28.675  1.00  0.00     0.074 A 
ATOM     55  C   UNL A   1      40.559  26.354  28.587  1.00  0.00     0.031 C 
ATOM     56  C   UNL A   1      46.873  24.777  26.313  1.00  0.00     0.029 A 
ATOM     57  C   UNL A   1      46.692  26.149  26.782  1.00  0.00     0.049 A 
ATOM     58  H   UNL A   1      44.968  26.997  27.583  1.00  0.00     0.167 HD
ATOM     59  C   UNL A   1      41.237  28.669  29.155  1.00  0.00     0.037 A 
ATOM     60  C   UNL A   1      47.634  27.109  26.771  1.00  0.00     0.037 A 
ATOM     61  C   UNL A   1      42.200  29.735  29.258  1.00  0.00     0.049 A 
ATOM     62  C   UNL A   1      47.297  28.477  27.295  1.00  0.00     0.074 A 
ATOM     63  C   UNL A   1      42.033  31.004  29.785  1.00  0.00     0.029 A 
ATOM     64  N   UNL A   1      43.515  29.655  28.819  1.00  0.00    -0.354 N 
ATOM     65  N   UNL A   1      46.167  28.916  27.793  1.00  0.00    -0.248 NA
ATOM     66  C   UNL A   1      48.367  29.481  27.256  1.00  0.00     0.031 C 
ATOM     67  C   UNL A   1      43.233  31.706  29.623  1.00  0.00     0.029 A 
ATOM     68  C   UNL A   1      44.162  30.861  29.041  1.00  0.00     0.049 A 
ATOM     69  H   UNL A   1      43.926  28.860  28.411  1.00  0.00     0.167 HD
ATOM     70  C   UNL A   1      46.396  30.237  28.154  1.00  0.00     0.074 A 
ATOM     71  C   UNL A   1      47.777  30.525  27.824  1.00  0.00     0.031 C 
ATOM     72  C   UNL A   1      45.539  31.130  28.708  1.00  0.00     0.037 A 
BRANCH  59  73
ATOM     73  C   UNL A   1      39.826  28.930  29.598  1.00  0.00     0.064 A 
ATOM     74  C   UNL A   1      38.861  29.444  28.717  1.00  0.00     0.173 A 
ATOM     75  C   UNL A   1      39.431  28.661  30.917  1.00  0.00     0.173 A 
ATOM     76  F   UNL A   1      39.189  29.729  27.448  1.00  0.00    -0.203 F 
ATOM     77  C   UNL A   1      37.567  29.719  29.153  1.00  0.00     0.198 A 
ATOM     78  C   UNL A   1      38.127  28.907  31.340  1.00  0.00     0.198 A 
ATOM     79  F   UNL A   1      40.311  28.162  31.798  1.00  0.00    -0.203 F 
ATOM     80  F   UNL A   1      36.681  30.269  28.309  1.00  0.00    -0.200 F 
ATOM     81  C   UNL A   1      37.200  29.447  30.461  1.00  0.00     0.200 A 
ATOM     82  F   UNL A   1      37.770  28.631  32.601  1.00  0.00    -0.200 F 
ATOM     83  F   UNL A   1      35.955  29.714  30.879  1.00  0.00    -0.200 F 
ENDBRANCH  59  73
BRANCH  60  84
ATOM     84  C   UNL A   1      49.002  26.790  26.289  1.00  0.00     0.064 A 
ATOM     85  C   UNL A   1      49.358  27.020  24.953  1.00  0.00     0.173 A 
ATOM     86  C   UNL A   1      49.983  26.277  27.149  1.00  0.00     0.173 A 
ATOM     87  F   UNL A   1      48.447  27.491  24.089  1.00  0.00    -0.203 F 
ATOM     88  C   UNL A   1      50.642  26.740  24.493  1.00  0.00     0.198 A 
ATOM     89  C   UNL A   1      51.275  26.020  26.693  1.00  0.00     0.198 A 
ATOM     90  F   UNL A   1      49.692  26.045  28.437  1.00  0.00    -0.203 F 
ATOM     91  F   UNL A   1      50.948  26.940  23.204  1.00  0.00    -0.200 F 
ATOM     92  C   UNL A   1      51.601  26.248  25.365  1.00  0.00     0.200 A 
ATOM     93  F   UNL A   1      52.202  25.558  27.541  1.00  0.00    -0.200 F 
ATOM     94  F   UNL A   1      52.840  25.989  24.924  1.00  0.00    -0.200 F 
ENDBRANCH  60  84
BRANCH  72  95
ATOM     95  C   UNL A   1      46.081  32.494  29.024  1.00  0.00     0.064 A 
ATOM     96  C   UNL A   1      46.706  32.772  30.247  1.00  0.00     0.173 A 
ATOM     97  C   UNL A   1      46.006  33.525  28.074  1.00  0.00     0.173 A 
ATOM     98  F   UNL A   1      46.788  31.824  31.194  1.00  0.00    -0.203 F 
ATOM     99  C   UNL A   1      47.214  34.039  30.519  1.00  0.00     0.198 A 
ATOM    100  C   UNL A   1      46.540  34.782  28.338  1.00  0.00     0.198 A 
ATOM    101  F   UNL A   1      45.422  33.308  26.886  1.00  0.00    -0.203 F 
ATOM    102  F   UNL A   1      47.767  34.296  31.713  1.00  0.00    -0.200 F 
ATOM    103  C   UNL A   1      47.139  35.040  29.562  1.00  0.00     0.200 A 
ATOM    104  F   UNL A   1      46.477  35.745  27.407  1.00  0.00    -0.200 F 
ATOM    105  F   UNL A   1      47.634  36.258  29.823  1.00  0.00    -0.200 F 
ENDBRANCH  72  95
ENDBRANCH  46  47
ENDBRANCH  38  41
ENDBRANCH  36  37
ENDBRANCH  35  36
ENDBRANCH  34  35
ENDBRANCH  33  34
ENDBRANCH  32  33
ENDBRANCH  31  32
ENDBRANCH   3  31
TORSDOF 22
ENDMDL
MODEL 2
REMARK VINA RESULT:     -11.1      0.673      7.035
REMARK SMILES CCCCCCNC(=O)Oc1cccc(-c2ccc([C@@H](C)C(=O)NCCCCCCNC(=O)c3ccc(-c4c5nc(c(-c6c(F)c(F)c(F)c(F)c6F)c6ccc([nH]6)c(-c6c(F)c(F)c(F)c(F)c6F)c6nc(c(-c7c(F)c(F)c(F)c(F)c7F)c7ccc4[nH]7)C=C6)C=C5)cc3)cc2C)c1
REMARK SMILES IDX 22 1 23 2 24 3 20 5 21 6 19 7 16 8 17 9 98 10 18 11 97 12
REMARK SMILES IDX 99 13 15 14 11 15 12 16 100 17 13 18 14 19 10 20 8 21 7 22
REMARK SMILES IDX 9 24 6 25 5 26 4 27 3 28 2 29 1 30 25 31 26 32 27 33 28 34
REMARK SMILES IDX 29 35 30 36 31 37 32 38 33 40 34 41 35 42 96 43 36 44 95 45
REMARK SMILES IDX 37 46 38 47 39 48 89 49 40 50 94 51 88 52 90 53 41 54 93 55
REMARK SMILES IDX 87 56 86 57 42 59 74 60 54 61 73 62 55 63 58 64 72 65 91 66
REMARK SMILES IDX 56 67 57 68 71 70 92 71 59 72 43 73 44 74 52 75 45 76 46 77
REMARK SMILES IDX 50 78 53 79 47 80 48 81 51 82 49 83 75 84 76 85 84 86 77 87
REMARK SMILES IDX 78 88 82 89 85 90 79 91 80 92 83 93 81 94 60 95 61 96 69 97
REMARK SMILES IDX 62 98 63 99 67 100 70 101 64 102 65 103 68 104 66 105
REMARK H PARENT 24 4 7 23 31 39 90 58 58 69
REMARK Flexibility Score: inf
ROOT
ATOM      1  C   UNL A   1      33.259  23.399  24.551  1.00  0.00     0.227 C 
ATOM      2  O   UNL A   1      32.242  22.983  23.979  1.00  0.00    -0.274 OA
ATOM      3  N   UNL A   1      34.408  23.373  23.824  1.00  0.00    -0.356 N 
ATOM      4  H   UNL A   1      34.287  23.099  22.887  1.00  0.00     0.163 HD
ENDROOT
BRANCH   1   5
ATOM      5  C   UNL A   1      33.163  23.927  25.991  1.00  0.00     0.105 C 
ATOM      6  C   UNL A   1      32.494  22.967  26.973  1.00  0.00     0.023 C 
BRANCH   5   7
ATOM      7  C   UNL A   1      32.726  25.381  26.089  1.00  0.00    -0.036 A 
ATOM      8  C   UNL A   1      31.985  28.144  26.048  1.00  0.00    -0.015 A 
ATOM      9  C   UNL A   1      31.036  27.120  26.213  1.00  0.00     0.009 A 
ATOM     10  C   UNL A   1      33.344  27.765  26.010  1.00  0.00    -0.043 A 
ATOM     11  C   UNL A   1      31.402  25.773  26.278  1.00  0.00     0.005 A 
ATOM     12  C   UNL A   1      33.687  26.396  25.975  1.00  0.00     0.008 A 
ATOM     13  C   UNL A   1      34.486  28.749  26.015  1.00  0.00     0.045 C 
BRANCH   8  14
ATOM     14  C   UNL A   1      31.516  29.540  25.907  1.00  0.00    -0.014 A 
ATOM     15  C   UNL A   1      30.183  31.225  24.767  1.00  0.00     0.133 A 
ATOM     16  C   UNL A   1      30.635  32.213  25.635  1.00  0.00     0.047 A 
ATOM     17  C   UNL A   1      30.600  29.900  24.904  1.00  0.00     0.056 A 
ATOM     18  C   UNL A   1      31.510  31.869  26.660  1.00  0.00     0.004 A 
ATOM     19  C   UNL A   1      31.953  30.549  26.788  1.00  0.00     0.009 A 
BRANCH  15  20
ATOM     20  O   UNL A   1      29.430  31.651  23.659  1.00  0.00    -0.410 OA
BRANCH  20  21
ATOM     21  C   UNL A   1      28.109  31.248  23.530  1.00  0.00     0.412 C 
ATOM     22  N   UNL A   1      27.951  30.224  22.636  1.00  0.00    -0.321 N 
ATOM     23  H   UNL A   1      27.030  29.914  22.480  1.00  0.00     0.167 HD
ATOM     24  O   UNL A   1      27.150  31.727  24.120  1.00  0.00    -0.224 OA
BRANCH  22  25
ATOM     25  C   UNL A   1      28.999  29.548  21.895  1.00  0.00     0.119 C 
BRANCH  25  26
ATOM     26  C   UNL A   1      29.306  28.164  22.467  1.00  0.00     0.021 C 
BRANCH  26  27
ATOM     27  C   UNL A   1      30.785  27.759  22.427  1.00  0.00     0.002 C 
BRANCH  27  28
ATOM     28  C   UNL A   1      31.066  26.263  22.605  1.00  0.00    -0.000 C 
BRANCH  28  29
ATOM     29  C   UNL A   1      32.361  25.756  21.968  1.00  0.00    -0.003 C 
ATOM     30  C   UNL A   1      33.574  26.610  22.304  1.00  0.00     0.004 C 
ENDBRANCH  28  29
ENDBRANCH  27  28
ENDBRANCH  26  27
ENDBRANCH  25  26
ENDBRANCH  22  25
ENDBRANCH  20  21
ENDBRANCH  15  20
ENDBRANCH   8  14
ENDBRANCH   5   7
ENDBRANCH   1   5
BRANCH   3  31
ATOM     31  C   UNL A   1      35.778  23.675  24.181  1.00  0.00     0.116 C 
BRANCH  31  32
ATOM     32  C   UNL A   1      36.719  22.523  23.824  1.00  0.00     0.021 C 
BRANCH  32  33
ATOM     33  C   UNL A   1      37.054  21.606  25.005  1.00  0.00     0.002 C 
BRANCH  33  34
ATOM     34  C   UNL A   1      36.834  20.109  24.747  1.00  0.00     0.002 C 
BRANCH  34  35
ATOM     35  C   UNL A   1      38.033  19.205  25.053  1.00  0.00     0.021 C 
BRANCH  35  36
ATOM     36  C   UNL A   1      39.185  19.897  25.776  1.00  0.00     0.116 C 
BRANCH  36  37
ATOM     37  N   UNL A   1      40.320  19.007  25.961  1.00  0.00    -0.352 N 
ATOM     38  C   UNL A   1      41.647  19.303  26.144  1.00  0.00     0.251 C 
ATOM     39  H   UNL A   1      40.104  18.046  25.955  1.00  0.00     0.163 HD
ATOM     40  O   UNL A   1      42.494  18.419  26.055  1.00  0.00    -0.269 OA
BRANCH  38  41
ATOM     41  C   UNL A   1      42.065  20.689  26.443  1.00  0.00     0.039 A 
ATOM     42  C   UNL A   1      42.300  21.568  25.382  1.00  0.00     0.014 A 
ATOM     43  C   UNL A   1      42.264  21.110  27.761  1.00  0.00     0.014 A 
ATOM     44  C   UNL A   1      42.682  22.885  25.644  1.00  0.00     0.010 A 
ATOM     45  C   UNL A   1      42.581  22.439  28.024  1.00  0.00     0.010 A 
ATOM     46  C   UNL A   1      42.800  23.338  26.968  1.00  0.00    -0.014 A 
BRANCH  46  47
ATOM     47  C   UNL A   1      43.161  24.745  27.271  1.00  0.00     0.031 A 
ATOM     48  C   UNL A   1      44.559  25.236  27.023  1.00  0.00     0.074 A 
ATOM     49  C   UNL A   1      42.246  25.561  27.826  1.00  0.00     0.049 A 
ATOM     50  N   UNL A   1      45.083  26.410  27.278  1.00  0.00    -0.248 NA
ATOM     51  C   UNL A   1      45.500  24.271  26.437  1.00  0.00     0.031 C 
ATOM     52  C   UNL A   1      40.869  25.189  28.151  1.00  0.00     0.029 A 
ATOM     53  N   UNL A   1      42.340  26.871  28.224  1.00  0.00    -0.354 N 
ATOM     54  C   UNL A   1      46.415  26.317  26.898  1.00  0.00     0.074 A 
ATOM     55  C   UNL A   1      46.633  24.959  26.447  1.00  0.00     0.031 C 
ATOM     56  C   UNL A   1      40.238  26.253  28.671  1.00  0.00     0.029 A 
ATOM     57  C   UNL A   1      41.175  27.371  28.750  1.00  0.00     0.049 A 
ATOM     58  H   UNL A   1      43.165  27.402  28.139  1.00  0.00     0.167 HD
ATOM     59  C   UNL A   1      47.365  27.283  26.902  1.00  0.00     0.037 A 
ATOM     60  C   UNL A   1      40.896  28.591  29.242  1.00  0.00     0.037 A 
ATOM     61  C   UNL A   1      47.138  28.638  27.333  1.00  0.00     0.049 A 
ATOM     62  C   UNL A   1      41.969  29.644  29.251  1.00  0.00     0.074 A 
ATOM     63  C   UNL A   1      48.015  29.708  27.321  1.00  0.00     0.029 A 
ATOM     64  N   UNL A   1      45.943  29.108  27.860  1.00  0.00    -0.354 N 
ATOM     65  N   UNL A   1      43.207  29.566  28.830  1.00  0.00    -0.248 NA
ATOM     66  C   UNL A   1      41.602  30.955  29.801  1.00  0.00     0.031 C 
ATOM     67  C   UNL A   1      47.365  30.813  27.882  1.00  0.00     0.029 A 
ATOM     68  C   UNL A   1      46.068  30.446  28.200  1.00  0.00     0.049 A 
ATOM     69  H   UNL A   1      45.127  28.570  27.976  1.00  0.00     0.167 HD
ATOM     70  C   UNL A   1      43.761  30.822  29.037  1.00  0.00     0.074 A 
ATOM     71  C   UNL A   1      42.719  31.647  29.614  1.00  0.00     0.031 C 
ATOM     72  C   UNL A   1      45.019  31.253  28.772  1.00  0.00     0.037 A 
BRANCH  59  73
ATOM     73  C   UNL A   1      48.738  26.899  26.429  1.00  0.00     0.064 A 
ATOM     74  C   UNL A   1      49.719  26.434  27.318  1.00  0.00     0.173 A 
ATOM     75  C   UNL A   1      49.077  26.995  25.070  1.00  0.00     0.173 A 
ATOM     76  F   UNL A   1      49.450  26.333  28.628  1.00  0.00    -0.203 F 
ATOM     77  C   UNL A   1      51.000  26.120  26.871  1.00  0.00     0.198 A 
ATOM     78  C   UNL A   1      50.350  26.650  24.623  1.00  0.00     0.198 A 
ATOM     79  F   UNL A   1      48.176  27.428  24.177  1.00  0.00    -0.203 F 
ATOM     80  F   UNL A   1      51.939  25.738  27.750  1.00  0.00    -0.200 F 
ATOM     81  C   UNL A   1      51.314  26.225  25.525  1.00  0.00     0.200 A 
ATOM     82  F   UNL A   1      50.647  26.739  23.320  1.00  0.00    -0.200 F 
ATOM     83  F   UNL A   1      52.548  25.925  25.097  1.00  0.00    -0.200 F 
ENDBRANCH  59  73
BRANCH  60  84
ATOM     84  C   UNL A   1      39.523  28.893  29.724  1.00  0.00     0.064 A 
ATOM     85  C   UNL A   1      39.165  28.644  31.056  1.00  0.00     0.173 A 
ATOM     86  C   UNL A   1      38.555  29.452  28.878  1.00  0.00     0.173 A 
ATOM     87  F   UNL A   1      40.053  28.091  31.896  1.00  0.00    -0.203 F 
ATOM     88  C   UNL A   1      37.887  28.939  31.523  1.00  0.00     0.198 A 
ATOM     89  C   UNL A   1      37.284  29.769  29.353  1.00  0.00     0.198 A 
ATOM     90  F   UNL A   1      38.852  29.712  27.597  1.00  0.00    -0.203 F 
ATOM     91  F   UNL A   1      37.560  28.664  32.793  1.00  0.00    -0.200 F 
ATOM     92  C   UNL A   1      36.950  29.507  30.673  1.00  0.00     0.200 A 
ATOM     93  F   UNL A   1      36.386  30.330  28.534  1.00  0.00    -0.200 F 
ATOM     94  F   UNL A   1      35.723  29.799  31.126  1.00  0.00    -0.200 F 
ENDBRANCH  60  84
BRANCH  72  95
ATOM     95  C   UNL A   1      45.329  32.690  29.074  1.00  0.00     0.064 A 
ATOM     96  C   UNL A   1      45.904  33.078  30.292  1.00  0.00     0.173 A 
ATOM     97  C   UNL A   1      45.081  33.686  28.117  1.00  0.00     0.173 A 
ATOM     98  F   UNL A   1      46.145  32.166  31.246  1.00  0.00    -0.203 F 
ATOM     99  C   UNL A   1      46.197  34.415  30.551  1.00  0.00     0.198 A 
ATOM    100  C   UNL A   1      45.401  35.017  28.368  1.00  0.00     0.198 A 
ATOM    101  F   UNL A   1      44.537  33.365  26.933  1.00  0.00    -0.203 F 
ATOM    102  F   UNL A   1      46.704  34.770  31.740  1.00  0.00    -0.200 F 
ATOM    103  C   UNL A   1      45.953  35.381  29.586  1.00  0.00     0.200 A 
ATOM    104  F   UNL A   1      45.177  35.948  27.429  1.00  0.00    -0.200 F 
ATOM    105  F   UNL A   1      46.242  36.666  29.835  1.00  0.00    -0.200 F 
ENDBRANCH  72  95
ENDBRANCH  46  47
ENDBRANCH  38  41
ENDBRANCH  36  37
ENDBRANCH  35  36
ENDBRANCH  34  35
ENDBRANCH  33  34
ENDBRANCH  32  33
ENDBRANCH  31  32
ENDBRANCH   3  31
TORSDOF 22
ENDMDL
MODEL 3
REMARK VINA RESULT:     -10.9      0.700      2.055
REMARK SMILES CCCCCCNC(=O)Oc1cccc(-c2ccc([C@@H](C)C(=O)NCCCCCCNC(=O)c3ccc(-c4c5nc(c(-c6c(F)c(F)c(F)c(F)c6F)c6ccc([nH]6)c(-c6c(F)c(F)c(F)c(F)c6F)c6nc(c(-c7c(F)c(F)c(F)c(F)c7F)c7ccc4[nH]7)C=C6)C=C5)cc3)cc2C)c1
REMARK SMILES IDX 22 1 23 2 24 3 20 5 21 6 19 7 16 8 17 9 98 10 18 11 97 12
REMARK SMILES IDX 99 13 15 14 11 15 12 16 100 17 13 18 14 19 10 20 8 21 7 22
REMARK SMILES IDX 9 24 6 25 5 26 4 27 3 28 2 29 1 30 25 31 26 32 27 33 28 34
REMARK SMILES IDX 29 35 30 36 31 37 32 38 33 40 34 41 35 42 96 43 36 44 95 45
REMARK SMILES IDX 37 46 38 47 39 48 89 49 40 50 94 51 88 52 90 53 41 54 93 55
REMARK SMILES IDX 87 56 86 57 42 59 74 60 54 61 73 62 55 63 58 64 72 65 91 66
REMARK SMILES IDX 56 67 57 68 71 70 92 71 59 72 43 73 44 74 52 75 45 76 46 77
REMARK SMILES IDX 50 78 53 79 47 80 48 81 51 82 49 83 75 84 76 85 84 86 77 87
REMARK SMILES IDX 78 88 82 89 85 90 79 91 80 92 83 93 81 94 60 95 61 96 69 97
REMARK SMILES IDX 62 98 63 99 67 100 70 101 64 102 65 103 68 104 66 105
REMARK H PARENT 24 4 7 23 31 39 90 58 58 69
REMARK Flexibility Score: inf
ROOT
ATOM      1  C   UNL A   1      33.667  23.714  24.413  1.00  0.00     0.227 C 
ATOM      2  O   UNL A   1      32.653  23.489  23.739  1.00  0.00    -0.274 OA
ATOM      3  N   UNL A   1      34.859  23.490  23.797  1.00  0.00    -0.356 N 
ATOM      4  H   UNL A   1      34.782  23.248  22.846  1.00  0.00     0.163 HD
ENDROOT
BRANCH   1   5
ATOM      5  C   UNL A   1      33.527  24.240  25.850  1.00  0.00     0.105 C 
ATOM      6  C   UNL A   1      32.793  23.296  26.800  1.00  0.00     0.023 C 
BRANCH   5   7
ATOM      7  C   UNL A   1      33.127  25.705  25.936  1.00  0.00    -0.036 A 
ATOM      8  C   UNL A   1      32.274  28.434  25.881  1.00  0.00    -0.015 A 
ATOM      9  C   UNL A   1      31.815  27.531  26.856  1.00  0.00     0.009 A 
ATOM     10  C   UNL A   1      33.263  27.974  24.986  1.00  0.00    -0.043 A 
ATOM     11  C   UNL A   1      32.266  26.208  26.909  1.00  0.00     0.005 A 
ATOM     12  C   UNL A   1      33.630  26.611  24.991  1.00  0.00     0.008 A 
ATOM     13  C   UNL A   1      33.981  28.864  24.004  1.00  0.00     0.045 C 
BRANCH   8  14
ATOM     14  C   UNL A   1      31.692  29.795  25.836  1.00  0.00    -0.014 A 
ATOM     15  C   UNL A   1      30.189  31.426  24.839  1.00  0.00     0.133 A 
ATOM     16  C   UNL A   1      30.594  32.399  25.747  1.00  0.00     0.047 A 
ATOM     17  C   UNL A   1      30.714  30.134  24.886  1.00  0.00     0.056 A 
ATOM     18  C   UNL A   1      31.532  32.072  26.721  1.00  0.00     0.004 A 
ATOM     19  C   UNL A   1      32.082  30.786  26.758  1.00  0.00     0.009 A 
BRANCH  15  20
ATOM     20  O   UNL A   1      29.363  31.850  23.783  1.00  0.00    -0.410 OA
BRANCH  20  21
ATOM     21  C   UNL A   1      28.192  31.160  23.507  1.00  0.00     0.412 C 
ATOM     22  N   UNL A   1      28.239  30.489  22.315  1.00  0.00    -0.321 N 
ATOM     23  H   UNL A   1      27.425  30.003  22.050  1.00  0.00     0.167 HD
ATOM     24  O   UNL A   1      27.193  31.129  24.212  1.00  0.00    -0.224 OA
BRANCH  22  25
ATOM     25  C   UNL A   1      29.365  30.417  21.403  1.00  0.00     0.119 C 
BRANCH  25  26
ATOM     26  C   UNL A   1      30.352  29.316  21.792  1.00  0.00     0.021 C 
BRANCH  26  27
ATOM     27  C   UNL A   1      29.725  28.097  22.480  1.00  0.00     0.002 C 
BRANCH  27  28
ATOM     28  C   UNL A   1      30.702  26.977  22.857  1.00  0.00    -0.000 C 
BRANCH  28  29
ATOM     29  C   UNL A   1      30.079  25.770  23.560  1.00  0.00    -0.003 C 
ATOM     30  C   UNL A   1      29.292  26.139  24.809  1.00  0.00     0.004 C 
ENDBRANCH  28  29
ENDBRANCH  27  28
ENDBRANCH  26  27
ENDBRANCH  25  26
ENDBRANCH  22  25
ENDBRANCH  20  21
ENDBRANCH  15  20
ENDBRANCH   8  14
ENDBRANCH   5   7
ENDBRANCH   1   5
BRANCH   3  31
ATOM     31  C   UNL A   1      36.220  23.541  24.287  1.00  0.00     0.116 C 
BRANCH  31  32
ATOM     32  C   UNL A   1      37.007  22.290  23.895  1.00  0.00     0.021 C 
BRANCH  32  33
ATOM     33  C   UNL A   1      37.019  21.200  24.972  1.00  0.00     0.002 C 
BRANCH  33  34
ATOM     34  C   UNL A   1      37.518  19.827  24.501  1.00  0.00     0.002 C 
BRANCH  34  35
ATOM     35  C   UNL A   1      38.385  19.061  25.506  1.00  0.00     0.021 C 
BRANCH  35  36
ATOM     36  C   UNL A   1      39.679  19.768  25.901  1.00  0.00     0.116 C 
BRANCH  36  37
ATOM     37  N   UNL A   1      40.809  18.854  25.927  1.00  0.00    -0.352 N 
ATOM     38  C   UNL A   1      42.154  19.121  25.976  1.00  0.00     0.251 C 
ATOM     39  H   UNL A   1      40.574  17.898  25.906  1.00  0.00     0.163 HD
ATOM     40  O   UNL A   1      42.969  18.229  25.761  1.00  0.00    -0.269 OA
BRANCH  38  41
ATOM     41  C   UNL A   1      42.629  20.487  26.282  1.00  0.00     0.039 A 
ATOM     42  C   UNL A   1      43.355  21.183  25.312  1.00  0.00     0.014 A 
ATOM     43  C   UNL A   1      42.396  21.064  27.533  1.00  0.00     0.014 A 
ATOM     44  C   UNL A   1      43.801  22.479  25.578  1.00  0.00     0.010 A 
ATOM     45  C   UNL A   1      42.782  22.379  27.773  1.00  0.00     0.010 A 
ATOM     46  C   UNL A   1      43.495  23.098  26.801  1.00  0.00    -0.014 A 
BRANCH  46  47
ATOM     47  C   UNL A   1      43.920  24.490  27.087  1.00  0.00     0.031 A 
ATOM     48  C   UNL A   1      42.927  25.494  27.598  1.00  0.00     0.074 A 
ATOM     49  C   UNL A   1      45.187  24.864  26.827  1.00  0.00     0.049 A 
ATOM     50  N   UNL A   1      43.091  26.769  27.850  1.00  0.00    -0.248 NA
ATOM     51  C   UNL A   1      41.560  25.006  27.832  1.00  0.00     0.031 C 
ATOM     52  C   UNL A   1      46.232  23.992  26.291  1.00  0.00     0.029 A 
ATOM     53  N   UNL A   1      45.807  26.080  26.969  1.00  0.00    -0.354 N 
ATOM     54  C   UNL A   1      41.848  27.235  28.255  1.00  0.00     0.074 A 
ATOM     55  C   UNL A   1      40.928  26.122  28.163  1.00  0.00     0.031 C 
ATOM     56  C   UNL A   1      47.372  24.691  26.177  1.00  0.00     0.029 A 
ATOM     57  C   UNL A   1      47.129  26.069  26.597  1.00  0.00     0.049 A 
ATOM     58  H   UNL A   1      45.349  26.883  27.307  1.00  0.00     0.167 HD
ATOM     59  C   UNL A   1      41.509  28.474  28.686  1.00  0.00     0.037 A 
ATOM     60  C   UNL A   1      48.040  27.059  26.593  1.00  0.00     0.037 A 
ATOM     61  C   UNL A   1      42.432  29.574  28.794  1.00  0.00     0.049 A 
ATOM     62  C   UNL A   1      47.638  28.430  27.063  1.00  0.00     0.074 A 
ATOM     63  C   UNL A   1      42.204  30.851  29.275  1.00  0.00     0.029 A 
ATOM     64  N   UNL A   1      43.765  29.525  28.408  1.00  0.00    -0.354 N 
ATOM     65  N   UNL A   1      46.477  28.846  27.505  1.00  0.00    -0.248 NA
ATOM     66  C   UNL A   1      48.677  29.468  27.034  1.00  0.00     0.031 C 
ATOM     67  C   UNL A   1      43.386  31.588  29.138  1.00  0.00     0.029 A 
ATOM     68  C   UNL A   1      44.364  30.757  28.617  1.00  0.00     0.049 A 
ATOM     69  H   UNL A   1      44.216  28.733  28.039  1.00  0.00     0.167 HD
ATOM     70  C   UNL A   1      46.649  30.183  27.833  1.00  0.00     0.074 A 
ATOM     71  C   UNL A   1      48.032  30.507  27.548  1.00  0.00     0.031 C 
ATOM     72  C   UNL A   1      45.743  31.062  28.328  1.00  0.00     0.037 A 
BRANCH  59  73
ATOM     73  C   UNL A   1      40.074  28.700  29.068  1.00  0.00     0.064 A 
ATOM     74  C   UNL A   1      39.609  28.448  30.369  1.00  0.00     0.173 A 
ATOM     75  C   UNL A   1      39.151  29.177  28.124  1.00  0.00     0.173 A 
ATOM     76  F   UNL A   1      40.448  27.981  31.306  1.00  0.00    -0.203 F 
ATOM     77  C   UNL A   1      38.267  28.624  30.697  1.00  0.00     0.198 A 
ATOM     78  C   UNL A   1      37.816  29.382  28.466  1.00  0.00     0.198 A 
ATOM     79  F   UNL A   1      39.543  29.441  26.869  1.00  0.00    -0.203 F 
ATOM     80  F   UNL A   1      37.836  28.315  31.929  1.00  0.00    -0.200 F 
ATOM     81  C   UNL A   1      37.373  29.094  29.748  1.00  0.00     0.200 A 
ATOM     82  F   UNL A   1      36.957  29.849  27.551  1.00  0.00    -0.200 F 
ATOM     83  F   UNL A   1      36.082  29.260  30.065  1.00  0.00    -0.200 F 
ENDBRANCH  59  73
BRANCH  60  84
ATOM     84  C   UNL A   1      49.435  26.772  26.173  1.00  0.00     0.064 A 
ATOM     85  C   UNL A   1      50.369  26.277  27.093  1.00  0.00     0.173 A 
ATOM     86  C   UNL A   1      49.856  26.962  24.850  1.00  0.00     0.173 A 
ATOM     87  F   UNL A   1      50.016  26.098  28.375  1.00  0.00    -0.203 F 
ATOM     88  C   UNL A   1      51.676  25.989  26.707  1.00  0.00     0.198 A 
ATOM     89  C   UNL A   1      51.157  26.651  24.459  1.00  0.00     0.198 A 
ATOM     90  F   UNL A   1      48.998  27.430  23.932  1.00  0.00    -0.203 F 
ATOM     91  F   UNL A   1      52.557  25.545  27.612  1.00  0.00    -0.200 F 
ATOM     92  C   UNL A   1      52.067  26.169  25.389  1.00  0.00     0.200 A 
ATOM     93  F   UNL A   1      51.528  26.813  23.182  1.00  0.00    -0.200 F 
ATOM     94  F   UNL A   1      53.321  25.882  25.015  1.00  0.00    -0.200 F 
ENDBRANCH  60  84
BRANCH  72  95
ATOM     95  C   UNL A   1      46.228  32.452  28.623  1.00  0.00     0.064 A 
ATOM     96  C   UNL A   1      46.152  33.475  27.668  1.00  0.00     0.173 A 
ATOM     97  C   UNL A   1      46.741  32.771  29.890  1.00  0.00     0.173 A 
ATOM     98  F   UNL A   1      45.684  33.217  26.437  1.00  0.00    -0.203 F 
ATOM     99  C   UNL A   1      46.594  34.763  27.963  1.00  0.00     0.198 A 
ATOM    100  C   UNL A   1      47.155  34.065  30.190  1.00  0.00     0.198 A 
ATOM    101  F   UNL A   1      46.830  31.828  30.840  1.00  0.00    -0.203 F 
ATOM    102  F   UNL A   1      46.555  35.715  27.020  1.00  0.00    -0.200 F 
ATOM    103  C   UNL A   1      47.088  35.058  29.224  1.00  0.00     0.200 A 
ATOM    104  F   UNL A   1      47.621  34.352  31.414  1.00  0.00    -0.200 F 
ATOM    105  F   UNL A   1      47.507  36.299  29.508  1.00  0.00    -0.200 F 
ENDBRANCH  72  95
ENDBRANCH  46  47
ENDBRANCH  38  41
ENDBRANCH  36  37
ENDBRANCH  35  36
ENDBRANCH  34  35
ENDBRANCH  33  34
ENDBRANCH  32  33
ENDBRANCH  31  32
ENDBRANCH   3  31
TORSDOF 22
ENDMDL
