MODEL 1
REMARK VINA RESULT:     -10.5      0.000      0.000
REMARK SMILES [NH3+]CCOCC(=O)N[C@H](C(=O)NCCCCCCNC(=O)c1ccc(-c2c3nc(c(-c4c(F)c(F)c(F)c(F)c4F)c4ccc([nH]4)c(-c4c(F)c(F)c(F)c(F)c4F)c4nc(c(-c5c(F)c(F)c(F)c(F)c5F)c5ccc2[nH]5)C=C4)C=C3)cc1)c1ccccc1
REMARK SMILES IDX 13 1 12 2 10 3 11 4 9 6 8 7 6 8 7 9 5 11 4 12 3 13 2 14 1 15
REMARK SMILES IDX 85 19 86 20 90 21 87 22 89 23 88 24 14 25 15 26 16 27 17 28
REMARK SMILES IDX 18 29 19 30 20 31 21 33 22 34 23 35 84 36 24 37 83 38 25 39
REMARK SMILES IDX 26 40 27 41 77 42 28 43 82 44 76 45 78 46 29 47 81 48 75 49
REMARK SMILES IDX 74 50 30 52 62 53 42 54 61 55 43 56 46 57 60 58 79 59 44 60
REMARK SMILES IDX 45 61 59 63 80 64 47 65 31 66 32 67 40 68 33 69 34 70 38 71
REMARK SMILES IDX 41 72 35 73 36 74 39 75 37 76 63 77 64 78 72 79 65 80 66 81
REMARK SMILES IDX 70 82 73 83 67 84 68 85 71 86 69 87 48 88 49 89 57 90 50 91
REMARK SMILES IDX 51 92 55 93 58 94 52 95 53 96 56 97 54 98
REMARK H PARENT 12 5 8 10 1 16 1 17 1 18 19 32 78 51 46 62
REMARK Flexibility Score: inf
ROOT
ATOM      1  C   UNL A   1      35.425  23.845  25.381  1.00  0.00     0.116 C 
ENDROOT
BRANCH   1   2
ATOM      2  N   UNL A   1      35.136  23.920  23.962  1.00  0.00    -0.354 N 
ATOM      3  C   UNL A   1      34.069  23.441  23.249  1.00  0.00     0.247 C 
ATOM      4  O   UNL A   1      34.230  23.358  22.030  1.00  0.00    -0.272 OA
ATOM      5  H   UNL A   1      35.814  24.390  23.425  1.00  0.00     0.163 HD
BRANCH   3   6
ATOM      6  C   UNL A   1      32.836  22.875  24.002  1.00  0.00     0.202 C 
BRANCH   6   7
ATOM      7  N   UNL A   1      31.555  23.505  23.661  1.00  0.00    -0.339 N 
ATOM      8  C   UNL A   1      31.097  24.770  23.839  1.00  0.00     0.246 C 
ATOM      9  O   UNL A   1      29.934  25.011  23.498  1.00  0.00    -0.272 OA
ATOM     10  H   UNL A   1      30.911  22.900  23.225  1.00  0.00     0.164 HD
BRANCH   8  11
ATOM     11  C   UNL A   1      31.971  25.871  24.448  1.00  0.00     0.260 C 
BRANCH  11  12
ATOM     12  O   UNL A   1      33.021  26.398  23.664  1.00  0.00    -0.366 OA
BRANCH  12  13
ATOM     13  C   UNL A   1      32.640  27.432  22.756  1.00  0.00     0.222 C 
BRANCH  13  14
ATOM     14  C   UNL A   1      32.197  28.731  23.447  1.00  0.00     0.287 C 
BRANCH  14  15
ATOM     15  N   UNL A   1      33.280  29.502  24.058  1.00  0.00    -0.356 N 
ATOM     16  H   UNL A   1      33.388  30.388  23.562  1.00  0.00     0.344 HD
ATOM     17  H   UNL A   1      34.149  28.973  24.001  1.00  0.00     0.344 HD
ATOM     18  H   UNL A   1      33.057  29.686  25.036  1.00  0.00     0.344 HD
ENDBRANCH  14  15
ENDBRANCH  13  14
ENDBRANCH  12  13
ENDBRANCH  11  12
ENDBRANCH   8  11
ENDBRANCH   6   7
BRANCH   6  19
ATOM     19  C   UNL A   1      32.741  21.365  24.133  1.00  0.00    -0.016 A 
ATOM     20  C   UNL A   1      32.258  20.608  23.050  1.00  0.00     0.006 A 
ATOM     21  C   UNL A   1      33.119  20.682  25.298  1.00  0.00     0.006 A 
ATOM     22  C   UNL A   1      32.151  19.219  23.135  1.00  0.00     0.000 A 
ATOM     23  C   UNL A   1      33.033  19.290  25.375  1.00  0.00     0.000 A 
ATOM     24  C   UNL A   1      32.546  18.560  24.295  1.00  0.00     0.000 A 
ENDBRANCH   6  19
ENDBRANCH   3   6
ENDBRANCH   1   2
BRANCH   1  25
ATOM     25  C   UNL A   1      36.686  23.018  25.638  1.00  0.00     0.021 C 
BRANCH  25  26
ATOM     26  C   UNL A   1      36.991  21.962  24.569  1.00  0.00     0.002 C 
BRANCH  26  27
ATOM     27  C   UNL A   1      36.729  20.514  24.991  1.00  0.00     0.002 C 
BRANCH  27  28
ATOM     28  C   UNL A   1      37.960  19.604  24.978  1.00  0.00     0.021 C 
BRANCH  28  29
ATOM     29  C   UNL A   1      39.101  20.048  25.889  1.00  0.00     0.116 C 
BRANCH  29  30
ATOM     30  N   UNL A   1      40.173  19.069  25.961  1.00  0.00    -0.352 N 
ATOM     31  C   UNL A   1      41.520  19.263  26.124  1.00  0.00     0.251 C 
ATOM     32  H   UNL A   1      39.890  18.128  25.882  1.00  0.00     0.163 HD
ATOM     33  O   UNL A   1      42.296  18.313  26.011  1.00  0.00    -0.269 OA
BRANCH  31  34
ATOM     34  C   UNL A   1      42.052  20.612  26.408  1.00  0.00     0.039 A 
ATOM     35  C   UNL A   1      42.385  21.439  25.334  1.00  0.00     0.014 A 
ATOM     36  C   UNL A   1      42.242  21.058  27.720  1.00  0.00     0.014 A 
ATOM     37  C   UNL A   1      42.856  22.731  25.573  1.00  0.00     0.010 A 
ATOM     38  C   UNL A   1      42.644  22.371  27.957  1.00  0.00     0.010 A 
ATOM     39  C   UNL A   1      42.961  23.219  26.886  1.00  0.00    -0.014 A 
BRANCH  39  40
ATOM     40  C   UNL A   1      43.396  24.616  27.140  1.00  0.00     0.031 A 
ATOM     41  C   UNL A   1      42.423  25.640  27.657  1.00  0.00     0.074 A 
ATOM     42  C   UNL A   1      44.665  24.974  26.868  1.00  0.00     0.049 A 
ATOM     43  N   UNL A   1      42.624  26.902  27.945  1.00  0.00    -0.248 NA
ATOM     44  C   UNL A   1      41.035  25.195  27.853  1.00  0.00     0.031 C 
ATOM     45  C   UNL A   1      45.687  24.090  26.303  1.00  0.00     0.029 A 
ATOM     46  N   UNL A   1      45.315  26.172  27.029  1.00  0.00    -0.354 N 
ATOM     47  C   UNL A   1      41.391  27.400  28.346  1.00  0.00     0.074 A 
ATOM     48  C   UNL A   1      40.436  26.322  28.211  1.00  0.00     0.031 C 
ATOM     49  C   UNL A   1      46.841  24.766  26.196  1.00  0.00     0.029 A 
ATOM     50  C   UNL A   1      46.636  26.136  26.656  1.00  0.00     0.049 A 
ATOM     51  H   UNL A   1      44.875  26.980  27.379  1.00  0.00     0.167 HD
ATOM     52  C   UNL A   1      41.088  28.636  28.812  1.00  0.00     0.037 A 
ATOM     53  C   UNL A   1      47.576  27.098  26.688  1.00  0.00     0.037 A 
ATOM     54  C   UNL A   1      42.045  29.702  28.965  1.00  0.00     0.049 A 
ATOM     55  C   UNL A   1      47.218  28.457  27.226  1.00  0.00     0.074 A 
ATOM     56  C   UNL A   1      41.851  30.969  29.485  1.00  0.00     0.029 A 
ATOM     57  N   UNL A   1      43.380  29.622  28.595  1.00  0.00    -0.354 N 
ATOM     58  N   UNL A   1      46.068  28.892  27.680  1.00  0.00    -0.248 NA
ATOM     59  C   UNL A   1      48.297  29.453  27.270  1.00  0.00     0.031 C 
ATOM     60  C   UNL A   1      43.056  31.674  29.386  1.00  0.00     0.029 A 
ATOM     61  C   UNL A   1      44.016  30.827  28.856  1.00  0.00     0.049 A 
ATOM     62  H   UNL A   1      43.813  28.829  28.206  1.00  0.00     0.167 HD
ATOM     63  C   UNL A   1      46.289  30.201  28.086  1.00  0.00     0.074 A 
ATOM     64  C   UNL A   1      47.690  30.481  27.846  1.00  0.00     0.031 C 
ATOM     65  C   UNL A   1      45.411  31.093  28.607  1.00  0.00     0.037 A 
BRANCH  52  66
ATOM     66  C   UNL A   1      39.660  28.903  29.193  1.00  0.00     0.064 A 
ATOM     67  C   UNL A   1      38.725  29.378  28.259  1.00  0.00     0.173 A 
ATOM     68  C   UNL A   1      39.210  28.649  30.498  1.00  0.00     0.173 A 
ATOM     69  F   UNL A   1      39.105  29.648  27.002  1.00  0.00    -0.203 F 
ATOM     70  C   UNL A   1      37.403  29.618  28.626  1.00  0.00     0.198 A 
ATOM     71  C   UNL A   1      37.880  28.860  30.852  1.00  0.00     0.198 A 
ATOM     72  F   UNL A   1      40.060  28.188  31.428  1.00  0.00    -0.203 F 
ATOM     73  F   UNL A   1      36.542  30.121  27.731  1.00  0.00    -0.200 F 
ATOM     74  C   UNL A   1      36.980  29.352  29.919  1.00  0.00     0.200 A 
ATOM     75  F   UNL A   1      37.470  28.590  32.099  1.00  0.00    -0.200 F 
ATOM     76  F   UNL A   1      35.706  29.577  30.269  1.00  0.00    -0.200 F 
ENDBRANCH  52  66
BRANCH  53  77
ATOM     77  C   UNL A   1      48.958  26.800  26.230  1.00  0.00     0.064 A 
ATOM     78  C   UNL A   1      49.340  27.022  24.899  1.00  0.00     0.173 A 
ATOM     79  C   UNL A   1      49.923  26.287  27.108  1.00  0.00     0.173 A 
ATOM     80  F   UNL A   1      48.446  27.495  24.018  1.00  0.00    -0.203 F 
ATOM     81  C   UNL A   1      50.627  26.720  24.459  1.00  0.00     0.198 A 
ATOM     82  C   UNL A   1      51.219  26.012  26.674  1.00  0.00     0.198 A 
ATOM     83  F   UNL A   1      49.610  26.063  28.394  1.00  0.00    -0.203 F 
ATOM     84  F   UNL A   1      50.949  26.897  23.171  1.00  0.00    -0.200 F 
ATOM     85  C   UNL A   1      51.566  26.221  25.348  1.00  0.00     0.200 A 
ATOM     86  F   UNL A   1      52.127  25.543  27.540  1.00  0.00    -0.200 F 
ATOM     87  F   UNL A   1      52.805  25.934  24.926  1.00  0.00    -0.200 F 
ENDBRANCH  53  77
BRANCH  65  88
ATOM     88  C   UNL A   1      45.951  32.445  28.977  1.00  0.00     0.064 A 
ATOM     89  C   UNL A   1      46.488  32.701  30.248  1.00  0.00     0.173 A 
ATOM     90  C   UNL A   1      45.939  33.494  28.046  1.00  0.00     0.173 A 
ATOM     91  F   UNL A   1      46.510  31.736  31.179  1.00  0.00    -0.203 F 
ATOM     92  C   UNL A   1      46.955  33.969  30.585  1.00  0.00     0.198 A 
ATOM     93  C   UNL A   1      46.438  34.751  28.376  1.00  0.00     0.198 A 
ATOM     94  F   UNL A   1      45.444  33.300  26.814  1.00  0.00    -0.203 F 
ATOM     95  F   UNL A   1      47.404  34.208  31.825  1.00  0.00    -0.200 F 
ATOM     96  C   UNL A   1      46.934  34.991  29.647  1.00  0.00     0.200 A 
ATOM     97  F   UNL A   1      46.430  35.734  27.465  1.00  0.00    -0.200 F 
ATOM     98  F   UNL A   1      47.382  36.211  29.975  1.00  0.00    -0.200 F 
ENDBRANCH  65  88
ENDBRANCH  39  40
ENDBRANCH  31  34
ENDBRANCH  29  30
ENDBRANCH  28  29
ENDBRANCH  27  28
ENDBRANCH  26  27
ENDBRANCH  25  26
ENDBRANCH   1  25
TORSDOF 20
ENDMDL
MODEL 2
REMARK VINA RESULT:     -10.5      5.007      9.096
REMARK SMILES [NH3+]CCOCC(=O)N[C@H](C(=O)NCCCCCCNC(=O)c1ccc(-c2c3nc(c(-c4c(F)c(F)c(F)c(F)c4F)c4ccc([nH]4)c(-c4c(F)c(F)c(F)c(F)c4F)c4nc(c(-c5c(F)c(F)c(F)c(F)c5F)c5ccc2[nH]5)C=C4)C=C3)cc1)c1ccccc1
REMARK SMILES IDX 13 1 12 2 10 3 11 4 9 6 8 7 6 8 7 9 5 11 4 12 3 13 2 14 1 15
REMARK SMILES IDX 85 19 86 20 90 21 87 22 89 23 88 24 14 25 15 26 16 27 17 28
REMARK SMILES IDX 18 29 19 30 20 31 21 33 22 34 23 35 84 36 24 37 83 38 25 39
REMARK SMILES IDX 26 40 27 41 77 42 28 43 82 44 76 45 78 46 29 47 81 48 75 49
REMARK SMILES IDX 74 50 30 52 62 53 42 54 61 55 43 56 46 57 60 58 79 59 44 60
REMARK SMILES IDX 45 61 59 63 80 64 47 65 31 66 32 67 40 68 33 69 34 70 38 71
REMARK SMILES IDX 41 72 35 73 36 74 39 75 37 76 63 77 64 78 72 79 65 80 66 81
REMARK SMILES IDX 70 82 73 83 67 84 68 85 71 86 69 87 48 88 49 89 57 90 50 91
REMARK SMILES IDX 51 92 55 93 58 94 52 95 53 96 56 97 54 98
REMARK H PARENT 12 5 8 10 1 16 1 17 1 18 19 32 78 51 46 62
REMARK Flexibility Score: inf
ROOT
ATOM      1  C   UNL A   1      31.903  26.726  24.310  1.00  0.00     0.116 C 
ENDROOT
BRANCH   1   2
ATOM      2  N   UNL A   1      32.403  26.578  22.957  1.00  0.00    -0.354 N 
ATOM      3  C   UNL A   1      33.064  25.533  22.367  1.00  0.00     0.247 C 
ATOM      4  O   UNL A   1      33.654  25.795  21.316  1.00  0.00    -0.272 OA
ATOM      5  H   UNL A   1      32.241  27.350  22.368  1.00  0.00     0.163 HD
BRANCH   3   6
ATOM      6  C   UNL A   1      33.189  24.182  23.118  1.00  0.00     0.202 C 
BRANCH   6   7
ATOM      7  N   UNL A   1      32.609  23.027  22.423  1.00  0.00    -0.339 N 
ATOM      8  C   UNL A   1      32.175  21.824  22.880  1.00  0.00     0.246 C 
ATOM      9  O   UNL A   1      31.777  21.005  22.045  1.00  0.00    -0.272 OA
ATOM     10  H   UNL A   1      32.519  23.145  21.449  1.00  0.00     0.164 HD
BRANCH   8  11
ATOM     11  C   UNL A   1      32.182  21.473  24.370  1.00  0.00     0.260 C 
BRANCH  11  12
ATOM     12  O   UNL A   1      31.981  20.123  24.737  1.00  0.00    -0.366 OA
BRANCH  12  13
ATOM     13  C   UNL A   1      33.168  19.332  24.814  1.00  0.00     0.222 C 
BRANCH  13  14
ATOM     14  C   UNL A   1      32.904  17.818  24.814  1.00  0.00     0.287 C 
BRANCH  14  15
ATOM     15  N   UNL A   1      32.986  17.180  26.128  1.00  0.00    -0.356 N 
ATOM     16  H   UNL A   1      32.837  17.879  26.856  1.00  0.00     0.344 HD
ATOM     17  H   UNL A   1      33.908  16.760  26.245  1.00  0.00     0.344 HD
ATOM     18  H   UNL A   1      32.272  16.456  26.200  1.00  0.00     0.344 HD
ENDBRANCH  14  15
ENDBRANCH  13  14
ENDBRANCH  12  13
ENDBRANCH  11  12
ENDBRANCH   8  11
ENDBRANCH   6   7
BRANCH   6  19
ATOM     19  C   UNL A   1      34.526  23.875  23.770  1.00  0.00    -0.016 A 
ATOM     20  C   UNL A   1      34.771  24.321  25.082  1.00  0.00     0.006 A 
ATOM     21  C   UNL A   1      35.539  23.159  23.117  1.00  0.00     0.006 A 
ATOM     22  C   UNL A   1      35.990  24.064  25.712  1.00  0.00     0.000 A 
ATOM     23  C   UNL A   1      36.750  22.883  23.756  1.00  0.00     0.000 A 
ATOM     24  C   UNL A   1      36.976  23.338  25.051  1.00  0.00     0.000 A 
ENDBRANCH   6  19
ENDBRANCH   3   6
ENDBRANCH   1   2
BRANCH   1  25
ATOM     25  C   UNL A   1      30.663  27.620  24.338  1.00  0.00     0.021 C 
BRANCH  25  26
ATOM     26  C   UNL A   1      30.943  29.115  24.139  1.00  0.00     0.002 C 
BRANCH  26  27
ATOM     27  C   UNL A   1      32.074  29.685  25.000  1.00  0.00     0.002 C 
BRANCH  27  28
ATOM     28  C   UNL A   1      31.617  30.532  26.190  1.00  0.00     0.021 C 
BRANCH  28  29
ATOM     29  C   UNL A   1      32.744  31.129  27.027  1.00  0.00     0.116 C 
BRANCH  29  30
ATOM     30  N   UNL A   1      32.603  32.564  27.215  1.00  0.00    -0.352 N 
ATOM     31  C   UNL A   1      33.336  33.415  28.000  1.00  0.00     0.251 C 
ATOM     32  H   UNL A   1      31.873  32.985  26.705  1.00  0.00     0.163 HD
ATOM     33  O   UNL A   1      32.972  34.582  28.148  1.00  0.00    -0.269 OA
BRANCH  31  34
ATOM     34  C   UNL A   1      34.550  32.935  28.693  1.00  0.00     0.039 A 
ATOM     35  C   UNL A   1      34.411  32.332  29.945  1.00  0.00     0.014 A 
ATOM     36  C   UNL A   1      35.820  33.091  28.128  1.00  0.00     0.014 A 
ATOM     37  C   UNL A   1      35.536  31.838  30.606  1.00  0.00     0.010 A 
ATOM     38  C   UNL A   1      36.933  32.533  28.756  1.00  0.00     0.010 A 
ATOM     39  C   UNL A   1      36.803  31.907  30.004  1.00  0.00    -0.014 A 
BRANCH  39  40
ATOM     40  C   UNL A   1      37.991  31.319  30.674  1.00  0.00     0.031 A 
ATOM     41  C   UNL A   1      38.390  31.760  32.054  1.00  0.00     0.074 A 
ATOM     42  C   UNL A   1      38.736  30.408  30.018  1.00  0.00     0.049 A 
ATOM     43  N   UNL A   1      39.388  31.353  32.798  1.00  0.00    -0.248 NA
ATOM     44  C   UNL A   1      37.574  32.816  32.673  1.00  0.00     0.031 C 
ATOM     45  C   UNL A   1      38.491  29.944  28.651  1.00  0.00     0.029 A 
ATOM     46  N   UNL A   1      39.850  29.708  30.411  1.00  0.00    -0.354 N 
ATOM     47  C   UNL A   1      39.325  32.106  33.963  1.00  0.00     0.074 A 
ATOM     48  C   UNL A   1      38.227  33.034  33.806  1.00  0.00     0.031 C 
ATOM     49  C   UNL A   1      39.406  29.016  28.332  1.00  0.00     0.029 A 
ATOM     50  C   UNL A   1      40.317  28.838  29.458  1.00  0.00     0.049 A 
ATOM     51  H   UNL A   1      40.272  29.821  31.293  1.00  0.00     0.167 HD
ATOM     52  C   UNL A   1      40.096  32.013  35.074  1.00  0.00     0.037 A 
ATOM     53  C   UNL A   1      41.360  27.987  29.492  1.00  0.00     0.037 A 
ATOM     54  C   UNL A   1      41.175  31.074  35.236  1.00  0.00     0.049 A 
ATOM     55  C   UNL A   1      42.188  27.891  30.744  1.00  0.00     0.074 A 
ATOM     56  C   UNL A   1      41.975  30.859  36.344  1.00  0.00     0.029 A 
ATOM     57  N   UNL A   1      41.608  30.192  34.255  1.00  0.00    -0.354 N 
ATOM     58  N   UNL A   1      42.068  28.550  31.870  1.00  0.00    -0.248 NA
ATOM     59  C   UNL A   1      43.289  26.917  30.732  1.00  0.00     0.031 C 
ATOM     60  C   UNL A   1      42.923  29.881  36.020  1.00  0.00     0.029 A 
ATOM     61  C   UNL A   1      42.678  29.447  34.727  1.00  0.00     0.049 A 
ATOM     62  H   UNL A   1      41.214  30.108  33.358  1.00  0.00     0.167 HD
ATOM     63  C   UNL A   1      43.058  28.057  32.709  1.00  0.00     0.074 A 
ATOM     64  C   UNL A   1      43.755  27.025  31.968  1.00  0.00     0.031 C 
ATOM     65  C   UNL A   1      43.365  28.427  33.977  1.00  0.00     0.037 A 
BRANCH  52  66
ATOM     66  C   UNL A   1      39.795  32.953  36.206  1.00  0.00     0.064 A 
ATOM     67  C   UNL A   1      40.456  34.185  36.336  1.00  0.00     0.173 A 
ATOM     68  C   UNL A   1      38.812  32.635  37.155  1.00  0.00     0.173 A 
ATOM     69  F   UNL A   1      41.413  34.533  35.463  1.00  0.00    -0.203 F 
ATOM     70  C   UNL A   1      40.165  35.048  37.390  1.00  0.00     0.198 A 
ATOM     71  C   UNL A   1      38.501  33.516  38.189  1.00  0.00     0.198 A 
ATOM     72  F   UNL A   1      38.145  31.474  37.075  1.00  0.00    -0.203 F 
ATOM     73  F   UNL A   1      40.846  36.195  37.522  1.00  0.00    -0.200 F 
ATOM     74  C   UNL A   1      39.183  34.717  38.311  1.00  0.00     0.200 A 
ATOM     75  F   UNL A   1      37.543  33.198  39.071  1.00  0.00    -0.200 F 
ATOM     76  F   UNL A   1      38.900  35.551  39.321  1.00  0.00    -0.200 F 
ENDBRANCH  52  66
BRANCH  53  77
ATOM     77  C   UNL A   1      41.657  27.131  28.314  1.00  0.00     0.064 A 
ATOM     78  C   UNL A   1      42.675  27.473  27.413  1.00  0.00     0.173 A 
ATOM     79  C   UNL A   1      40.931  25.958  28.063  1.00  0.00     0.173 A 
ATOM     80  F   UNL A   1      43.384  28.596  27.601  1.00  0.00    -0.203 F 
ATOM     81  C   UNL A   1      42.940  26.687  26.293  1.00  0.00     0.198 A 
ATOM     82  C   UNL A   1      41.216  25.157  26.959  1.00  0.00     0.198 A 
ATOM     83  F   UNL A   1      39.950  25.583  28.899  1.00  0.00    -0.203 F 
ATOM     84  F   UNL A   1      43.887  27.064  25.423  1.00  0.00    -0.200 F 
ATOM     85  C   UNL A   1      42.215  25.527  26.071  1.00  0.00     0.200 A 
ATOM     86  F   UNL A   1      40.521  24.029  26.755  1.00  0.00    -0.200 F 
ATOM     87  F   UNL A   1      42.472  24.770  24.996  1.00  0.00    -0.200 F 
ENDBRANCH  53  77
BRANCH  65  88
ATOM     88  C   UNL A   1      44.488  27.688  34.649  1.00  0.00     0.064 A 
ATOM     89  C   UNL A   1      45.812  28.151  34.592  1.00  0.00     0.173 A 
ATOM     90  C   UNL A   1      44.235  26.509  35.365  1.00  0.00     0.173 A 
ATOM     91  F   UNL A   1      46.109  29.266  33.908  1.00  0.00    -0.203 F 
ATOM     92  C   UNL A   1      46.846  27.438  35.193  1.00  0.00     0.198 A 
ATOM     93  C   UNL A   1      45.267  25.816  35.993  1.00  0.00     0.198 A 
ATOM     94  F   UNL A   1      42.987  26.028  35.457  1.00  0.00    -0.203 F 
ATOM     95  F   UNL A   1      48.110  27.864  35.072  1.00  0.00    -0.200 F 
ATOM     96  C   UNL A   1      46.572  26.274  35.897  1.00  0.00     0.200 A 
ATOM     97  F   UNL A   1      44.999  24.700  36.684  1.00  0.00    -0.200 F 
ATOM     98  F   UNL A   1      47.568  25.588  36.473  1.00  0.00    -0.200 F 
ENDBRANCH  65  88
ENDBRANCH  39  40
ENDBRANCH  31  34
ENDBRANCH  29  30
ENDBRANCH  28  29
ENDBRANCH  27  28
ENDBRANCH  26  27
ENDBRANCH  25  26
ENDBRANCH   1  25
TORSDOF 20
ENDMDL
MODEL 3
REMARK VINA RESULT:     -10.5      0.911      7.496
REMARK SMILES [NH3+]CCOCC(=O)N[C@H](C(=O)NCCCCCCNC(=O)c1ccc(-c2c3nc(c(-c4c(F)c(F)c(F)c(F)c4F)c4ccc([nH]4)c(-c4c(F)c(F)c(F)c(F)c4F)c4nc(c(-c5c(F)c(F)c(F)c(F)c5F)c5ccc2[nH]5)C=C4)C=C3)cc1)c1ccccc1
REMARK SMILES IDX 13 1 12 2 10 3 11 4 9 6 8 7 6 8 7 9 5 11 4 12 3 13 2 14 1 15
REMARK SMILES IDX 85 19 86 20 90 21 87 22 89 23 88 24 14 25 15 26 16 27 17 28
REMARK SMILES IDX 18 29 19 30 20 31 21 33 22 34 23 35 84 36 24 37 83 38 25 39
REMARK SMILES IDX 26 40 27 41 77 42 28 43 82 44 76 45 78 46 29 47 81 48 75 49
REMARK SMILES IDX 74 50 30 52 62 53 42 54 61 55 43 56 46 57 60 58 79 59 44 60
REMARK SMILES IDX 45 61 59 63 80 64 47 65 31 66 32 67 40 68 33 69 34 70 38 71
REMARK SMILES IDX 41 72 35 73 36 74 39 75 37 76 63 77 64 78 72 79 65 80 66 81
REMARK SMILES IDX 70 82 73 83 67 84 68 85 71 86 69 87 48 88 49 89 57 90 50 91
REMARK SMILES IDX 51 92 55 93 58 94 52 95 53 96 56 97 54 98
REMARK H PARENT 12 5 8 10 1 16 1 17 1 18 19 32 78 51 46 62
REMARK Flexibility Score: inf
ROOT
ATOM      1  C   UNL A   1      35.738  23.923  25.761  1.00  0.00     0.116 C 
ENDROOT
BRANCH   1   2
ATOM      2  N   UNL A   1      35.314  24.427  24.470  1.00  0.00    -0.354 N 
ATOM      3  C   UNL A   1      34.145  24.229  23.782  1.00  0.00     0.247 C 
ATOM      4  O   UNL A   1      34.175  24.504  22.580  1.00  0.00    -0.272 OA
ATOM      5  H   UNL A   1      35.968  25.004  24.014  1.00  0.00     0.163 HD
BRANCH   3   6
ATOM      6  C   UNL A   1      32.955  23.522  24.481  1.00  0.00     0.202 C 
BRANCH   6   7
ATOM      7  N   UNL A   1      31.674  24.235  24.404  1.00  0.00    -0.339 N 
ATOM      8  C   UNL A   1      31.154  25.238  25.156  1.00  0.00     0.246 C 
ATOM      9  O   UNL A   1      30.007  25.614  24.893  1.00  0.00    -0.272 OA
ATOM     10  H   UNL A   1      31.086  23.931  23.675  1.00  0.00     0.164 HD
BRANCH   8  11
ATOM     11  C   UNL A   1      31.939  25.883  26.302  1.00  0.00     0.260 C 
BRANCH  11  12
ATOM     12  O   UNL A   1      31.251  26.763  27.168  1.00  0.00    -0.366 OA
BRANCH  12  13
ATOM     13  C   UNL A   1      31.686  28.122  27.121  1.00  0.00     0.222 C 
BRANCH  13  14
ATOM     14  C   UNL A   1      32.205  28.559  25.742  1.00  0.00     0.287 C 
BRANCH  14  15
ATOM     15  N   UNL A   1      31.196  29.158  24.867  1.00  0.00    -0.356 N 
ATOM     16  H   UNL A   1      30.438  28.491  24.716  1.00  0.00     0.344 HD
ATOM     17  H   UNL A   1      31.621  29.397  23.972  1.00  0.00     0.344 HD
ATOM     18  H   UNL A   1      30.824  30.002  25.303  1.00  0.00     0.344 HD
ENDBRANCH  14  15
ENDBRANCH  13  14
ENDBRANCH  12  13
ENDBRANCH  11  12
ENDBRANCH   8  11
ENDBRANCH   6   7
BRANCH   6  19
ATOM     19  C   UNL A   1      32.817  22.025  24.264  1.00  0.00    -0.016 A 
ATOM     20  C   UNL A   1      32.367  21.548  23.020  1.00  0.00     0.006 A 
ATOM     21  C   UNL A   1      33.124  21.086  25.259  1.00  0.00     0.006 A 
ATOM     22  C   UNL A   1      32.222  20.179  22.784  1.00  0.00     0.000 A 
ATOM     23  C   UNL A   1      33.000  19.716  25.016  1.00  0.00     0.000 A 
ATOM     24  C   UNL A   1      32.546  19.264  23.781  1.00  0.00     0.000 A 
ENDBRANCH   6  19
ENDBRANCH   3   6
ENDBRANCH   1   2
BRANCH   1  25
ATOM     25  C   UNL A   1      37.013  23.088  25.628  1.00  0.00     0.021 C 
BRANCH  25  26
ATOM     26  C   UNL A   1      36.991  22.057  24.493  1.00  0.00     0.002 C 
BRANCH  26  27
ATOM     27  C   UNL A   1      36.724  20.614  24.929  1.00  0.00     0.002 C 
BRANCH  27  28
ATOM     28  C   UNL A   1      37.949  19.697  24.915  1.00  0.00     0.021 C 
BRANCH  28  29
ATOM     29  C   UNL A   1      39.057  20.084  25.890  1.00  0.00     0.116 C 
BRANCH  29  30
ATOM     30  N   UNL A   1      40.156  19.133  25.894  1.00  0.00    -0.352 N 
ATOM     31  C   UNL A   1      41.500  19.357  26.047  1.00  0.00     0.251 C 
ATOM     32  H   UNL A   1      39.899  18.191  25.769  1.00  0.00     0.163 HD
ATOM     33  O   UNL A   1      42.300  18.438  25.872  1.00  0.00    -0.269 OA
BRANCH  31  34
ATOM     34  C   UNL A   1      41.999  20.704  26.396  1.00  0.00     0.039 A 
ATOM     35  C   UNL A   1      42.220  21.622  25.366  1.00  0.00     0.014 A 
ATOM     36  C   UNL A   1      42.267  21.060  27.721  1.00  0.00     0.014 A 
ATOM     37  C   UNL A   1      42.658  22.912  25.670  1.00  0.00     0.010 A 
ATOM     38  C   UNL A   1      42.634  22.369  28.029  1.00  0.00     0.010 A 
ATOM     39  C   UNL A   1      42.839  23.307  27.006  1.00  0.00    -0.014 A 
BRANCH  39  40
ATOM     40  C   UNL A   1      43.237  24.699  27.334  1.00  0.00     0.031 A 
ATOM     41  C   UNL A   1      44.639  25.178  27.076  1.00  0.00     0.074 A 
ATOM     42  C   UNL A   1      42.339  25.526  27.904  1.00  0.00     0.049 A 
ATOM     43  N   UNL A   1      45.162  26.359  27.290  1.00  0.00    -0.248 NA
ATOM     44  C   UNL A   1      45.584  24.194  26.528  1.00  0.00     0.031 C 
ATOM     45  C   UNL A   1      40.967  25.161  28.264  1.00  0.00     0.029 A 
ATOM     46  N   UNL A   1      42.442  26.842  28.280  1.00  0.00    -0.354 N 
ATOM     47  C   UNL A   1      46.495  26.257  26.912  1.00  0.00     0.074 A 
ATOM     48  C   UNL A   1      46.715  24.885  26.509  1.00  0.00     0.031 C 
ATOM     49  C   UNL A   1      40.348  26.235  28.778  1.00  0.00     0.029 A 
ATOM     50  C   UNL A   1      41.284  27.355  28.810  1.00  0.00     0.049 A 
ATOM     51  H   UNL A   1      43.268  27.367  28.179  1.00  0.00     0.167 HD
ATOM     52  C   UNL A   1      47.442  27.226  26.878  1.00  0.00     0.037 A 
ATOM     53  C   UNL A   1      41.007  28.591  29.265  1.00  0.00     0.037 A 
ATOM     54  C   UNL A   1      47.215  28.596  27.259  1.00  0.00     0.049 A 
ATOM     55  C   UNL A   1      42.071  29.653  29.199  1.00  0.00     0.074 A 
ATOM     56  C   UNL A   1      48.091  29.666  27.202  1.00  0.00     0.029 A 
ATOM     57  N   UNL A   1      46.022  29.084  27.773  1.00  0.00    -0.354 N 
ATOM     58  N   UNL A   1      43.304  29.565  28.761  1.00  0.00    -0.248 NA
ATOM     59  C   UNL A   1      41.696  30.991  29.675  1.00  0.00     0.031 C 
ATOM     60  C   UNL A   1      47.444  30.791  27.726  1.00  0.00     0.029 A 
ATOM     61  C   UNL A   1      46.147  30.436  28.058  1.00  0.00     0.049 A 
ATOM     62  H   UNL A   1      45.207  28.551  27.915  1.00  0.00     0.167 HD
ATOM     63  C   UNL A   1      43.845  30.837  28.887  1.00  0.00     0.074 A 
ATOM     64  C   UNL A   1      42.796  31.685  29.419  1.00  0.00     0.031 C 
ATOM     65  C   UNL A   1      45.097  31.266  28.591  1.00  0.00     0.037 A 
BRANCH  52  66
ATOM     66  C   UNL A   1      48.814  26.837  26.406  1.00  0.00     0.064 A 
ATOM     67  C   UNL A   1      49.749  26.244  27.269  1.00  0.00     0.173 A 
ATOM     68  C   UNL A   1      49.189  27.028  25.067  1.00  0.00     0.173 A 
ATOM     69  F   UNL A   1      49.446  26.050  28.561  1.00  0.00    -0.203 F 
ATOM     70  C   UNL A   1      51.017  25.886  26.818  1.00  0.00     0.198 A 
ATOM     71  C   UNL A   1      50.447  26.639  24.612  1.00  0.00     0.198 A 
ATOM     72  F   UNL A   1      48.333  27.585  24.198  1.00  0.00    -0.203 F 
ATOM     73  F   UNL A   1      51.910  25.369  27.673  1.00  0.00    -0.200 F 
ATOM     74  C   UNL A   1      51.362  26.077  25.489  1.00  0.00     0.200 A 
ATOM     75  F   UNL A   1      50.774  26.814  23.324  1.00  0.00    -0.200 F 
ATOM     76  F   UNL A   1      52.580  25.726  25.054  1.00  0.00    -0.200 F 
ENDBRANCH  52  66
BRANCH  53  77
ATOM     77  C   UNL A   1      39.652  28.902  29.789  1.00  0.00     0.064 A 
ATOM     78  C   UNL A   1      39.344  28.718  31.145  1.00  0.00     0.173 A 
ATOM     79  C   UNL A   1      38.638  29.386  28.950  1.00  0.00     0.173 A 
ATOM     80  F   UNL A   1      40.276  28.240  31.982  1.00  0.00    -0.203 F 
ATOM     81  C   UNL A   1      38.067  28.984  31.636  1.00  0.00     0.198 A 
ATOM     82  C   UNL A   1      37.370  29.679  29.447  1.00  0.00     0.198 A 
ATOM     83  F   UNL A   1      38.884  29.585  27.646  1.00  0.00    -0.203 F 
ATOM     84  F   UNL A   1      37.788  28.753  32.926  1.00  0.00    -0.200 F 
ATOM     85  C   UNL A   1      37.084  29.470  30.788  1.00  0.00     0.200 A 
ATOM     86  F   UNL A   1      36.427  30.162  28.628  1.00  0.00    -0.200 F 
ATOM     87  F   UNL A   1      35.857  29.729  31.261  1.00  0.00    -0.200 F 
ENDBRANCH  53  77
BRANCH  65  88
ATOM     88  C   UNL A   1      45.389  32.723  28.813  1.00  0.00     0.064 A 
ATOM     89  C   UNL A   1      45.144  33.683  27.819  1.00  0.00     0.173 A 
ATOM     90  C   UNL A   1      45.911  33.164  30.038  1.00  0.00     0.173 A 
ATOM     91  F   UNL A   1      44.657  33.310  26.626  1.00  0.00    -0.203 F 
ATOM     92  C   UNL A   1      45.449  35.025  28.030  1.00  0.00     0.198 A 
ATOM     93  C   UNL A   1      46.185  34.512  30.257  1.00  0.00     0.198 A 
ATOM     94  F   UNL A   1      46.157  32.289  31.024  1.00  0.00    -0.203 F 
ATOM     95  F   UNL A   1      45.267  35.914  27.045  1.00  0.00    -0.200 F 
ATOM     96  C   UNL A   1      45.965  35.439  29.250  1.00  0.00     0.200 A 
ATOM     97  F   UNL A   1      46.670  34.912  31.440  1.00  0.00    -0.200 F 
ATOM     98  F   UNL A   1      46.261  36.730  29.449  1.00  0.00    -0.200 F 
ENDBRANCH  65  88
ENDBRANCH  39  40
ENDBRANCH  31  34
ENDBRANCH  29  30
ENDBRANCH  28  29
ENDBRANCH  27  28
ENDBRANCH  26  27
ENDBRANCH  25  26
ENDBRANCH   1  25
TORSDOF 20
ENDMDL
