MODEL 1
REMARK VINA RESULT:     -12.7      0.000      0.000
REMARK SMILES Cc1ccn2c([C@@H]3C[C@H]3C(=O)NCCCCCCNC(=O)c3ccc(-c4c5nc(c(-c6c(F)c(F)c(F)c(F)c6F)c6ccc([nH]6)c(-c6c(F)c(F)c(F)c(F)c6F)c6nc(c(-c7c(F)c(F)c(F)c(F)c7F)c7ccc4[nH]7)C=C6)C=C5)cc3)nnc2c1
REMARK SMILES IDX 16 1 15 2 14 3 13 4 12 5 10 6 11 7 9 9 7 10 8 11 6 12 1 13
REMARK SMILES IDX 2 14 3 15 88 16 4 17 87 18 5 19 86 20 85 21 17 22 18 23
REMARK SMILES IDX 19 24 20 25 21 27 22 28 23 29 84 30 24 31 83 32 25 33 26 34
REMARK SMILES IDX 27 35 77 36 28 37 82 38 76 39 78 40 29 41 81 42 75 43 74 44
REMARK SMILES IDX 30 46 62 47 42 48 61 49 43 50 46 51 60 52 79 53 44 54 45 55
REMARK SMILES IDX 59 57 80 58 47 59 31 60 32 61 40 62 33 63 34 64 38 65 41 66
REMARK SMILES IDX 35 67 36 68 39 69 37 70 63 71 64 72 72 73 65 74 66 75 70 76
REMARK SMILES IDX 73 77 67 78 68 79 71 80 69 81 48 82 49 83 57 84 50 85 51 86
REMARK SMILES IDX 55 87 58 88 52 89 53 90 56 91 54 92
REMARK H PARENT 12 8 19 26 78 45 46 56
REMARK Flexibility Score: inf
ROOT
ATOM      1  C   UNL A   1      34.212  29.203  27.299  1.00  0.00     0.002 C 
ENDROOT
BRANCH   1   2
ATOM      2  C   UNL A   1      33.978  28.560  25.927  1.00  0.00     0.002 C 
BRANCH   2   3
ATOM      3  C   UNL A   1      32.726  29.060  25.191  1.00  0.00     0.021 C 
BRANCH   3   4
ATOM      4  C   UNL A   1      32.871  29.062  23.671  1.00  0.00     0.116 C 
BRANCH   4   5
ATOM      5  N   UNL A   1      31.573  29.215  23.057  1.00  0.00    -0.356 N 
ATOM      6  C   UNL A   1      30.583  28.341  22.765  1.00  0.00     0.223 C 
ATOM      7  O   UNL A   1      29.692  28.726  21.997  1.00  0.00    -0.275 OA
ATOM      8  H   UNL A   1      31.368  30.142  22.799  1.00  0.00     0.163 HD
BRANCH   6   9
ATOM      9  C   UNL A   1      30.445  26.986  23.332  1.00  0.00     0.090 C 
ATOM     10  C   UNL A   1      30.177  26.674  24.783  1.00  0.00     0.071 C 
ATOM     11  C   UNL A   1      29.174  26.298  23.710  1.00  0.00     0.026 C 
BRANCH  10  12
ATOM     12  C   UNL A   1      30.924  25.576  25.540  1.00  0.00     0.141 A 
ATOM     13  C   UNL A   1      36.008  23.281  26.053  1.00  0.00     0.044 C 
ATOM     14  C   UNL A   1      34.637  23.859  25.877  1.00  0.00    -0.046 A 
ATOM     15  C   UNL A   1      34.483  24.826  24.798  1.00  0.00     0.022 A 
ATOM     16  C   UNL A   1      33.585  23.527  26.655  1.00  0.00     0.053 A 
ATOM     17  C   UNL A   1      33.285  25.396  24.589  1.00  0.00     0.095 A 
ATOM     18  C   UNL A   1      32.324  24.156  26.453  1.00  0.00     0.161 A 
ATOM     19  N   UNL A   1      32.212  25.087  25.424  1.00  0.00    -0.286 N 
ATOM     20  N   UNL A   1      31.182  24.058  27.094  1.00  0.00    -0.130 NA
ATOM     21  N   UNL A   1      30.314  24.964  26.539  1.00  0.00    -0.134 NA
ENDBRANCH  10  12
ENDBRANCH   6   9
ENDBRANCH   4   5
ENDBRANCH   3   4
ENDBRANCH   2   3
ENDBRANCH   1   2
BRANCH   1  22
ATOM     22  C   UNL A   1      33.383  30.467  27.560  1.00  0.00     0.021 C 
BRANCH  22  23
ATOM     23  C   UNL A   1      34.234  31.713  27.800  1.00  0.00     0.116 C 
BRANCH  23  24
ATOM     24  N   UNL A   1      34.368  32.043  29.201  1.00  0.00    -0.352 N 
ATOM     25  C   UNL A   1      35.310  31.808  30.157  1.00  0.00     0.251 C 
ATOM     26  H   UNL A   1      33.600  32.555  29.546  1.00  0.00     0.163 HD
ATOM     27  O   UNL A   1      35.096  32.294  31.270  1.00  0.00    -0.269 OA
BRANCH  25  28
ATOM     28  C   UNL A   1      36.514  30.957  29.968  1.00  0.00     0.039 A 
ATOM     29  C   UNL A   1      36.544  29.563  30.004  1.00  0.00     0.014 A 
ATOM     30  C   UNL A   1      37.722  31.655  29.794  1.00  0.00     0.014 A 
ATOM     31  C   UNL A   1      37.754  28.886  30.011  1.00  0.00     0.010 A 
ATOM     32  C   UNL A   1      38.933  30.984  29.767  1.00  0.00     0.010 A 
ATOM     33  C   UNL A   1      38.946  29.605  29.946  1.00  0.00    -0.014 A 
BRANCH  33  34
ATOM     34  C   UNL A   1      40.197  28.862  29.993  1.00  0.00     0.031 A 
ATOM     35  C   UNL A   1      40.775  28.698  31.361  1.00  0.00     0.074 A 
ATOM     36  C   UNL A   1      40.708  28.279  28.891  1.00  0.00     0.049 A 
ATOM     37  N   UNL A   1      41.956  29.019  31.785  1.00  0.00    -0.248 NA
ATOM     38  C   UNL A   1      39.875  28.205  32.420  1.00  0.00     0.031 C 
ATOM     39  C   UNL A   1      40.100  28.170  27.559  1.00  0.00     0.029 A 
ATOM     40  N   UNL A   1      41.854  27.561  28.754  1.00  0.00    -0.354 N 
ATOM     41  C   UNL A   1      42.005  28.623  33.122  1.00  0.00     0.074 A 
ATOM     42  C   UNL A   1      40.666  28.245  33.492  1.00  0.00     0.031 C 
ATOM     43  C   UNL A   1      40.759  27.233  26.841  1.00  0.00     0.029 A 
ATOM     44  C   UNL A   1      41.911  26.785  27.603  1.00  0.00     0.049 A 
ATOM     45  H   UNL A   1      42.583  27.588  29.415  1.00  0.00     0.167 HD
ATOM     46  C   UNL A   1      43.182  28.438  33.778  1.00  0.00     0.037 A 
ATOM     47  C   UNL A   1      42.802  25.795  27.347  1.00  0.00     0.037 A 
ATOM     48  C   UNL A   1      44.265  29.127  33.138  1.00  0.00     0.049 A 
ATOM     49  C   UNL A   1      43.950  25.992  28.264  1.00  0.00     0.074 A 
ATOM     50  C   UNL A   1      44.575  30.453  32.917  1.00  0.00     0.029 A 
ATOM     51  N   UNL A   1      45.080  28.411  32.299  1.00  0.00    -0.354 N 
ATOM     52  N   UNL A   1      44.779  26.995  28.188  1.00  0.00    -0.248 NA
ATOM     53  C   UNL A   1      43.909  25.307  29.547  1.00  0.00     0.031 C 
ATOM     54  C   UNL A   1      45.188  30.480  31.629  1.00  0.00     0.029 A 
ATOM     55  C   UNL A   1      45.265  29.165  31.170  1.00  0.00     0.049 A 
ATOM     56  H   UNL A   1      45.462  27.520  32.475  1.00  0.00     0.167 HD
ATOM     57  C   UNL A   1      45.048  27.330  29.505  1.00  0.00     0.074 A 
ATOM     58  C   UNL A   1      44.549  26.207  30.296  1.00  0.00     0.031 C 
ATOM     59  C   UNL A   1      45.391  28.605  29.847  1.00  0.00     0.037 A 
BRANCH  46  60
ATOM     60  C   UNL A   1      43.403  27.359  34.805  1.00  0.00     0.064 A 
ATOM     61  C   UNL A   1      43.682  27.705  36.142  1.00  0.00     0.173 A 
ATOM     62  C   UNL A   1      43.642  26.011  34.460  1.00  0.00     0.173 A 
ATOM     63  F   UNL A   1      43.527  28.967  36.567  1.00  0.00    -0.203 F 
ATOM     64  C   UNL A   1      44.208  26.777  37.047  1.00  0.00     0.198 A 
ATOM     65  C   UNL A   1      44.118  25.078  35.378  1.00  0.00     0.198 A 
ATOM     66  F   UNL A   1      43.535  25.576  33.198  1.00  0.00    -0.203 F 
ATOM     67  F   UNL A   1      44.564  27.175  38.277  1.00  0.00    -0.200 F 
ATOM     68  C   UNL A   1      44.427  25.466  36.663  1.00  0.00     0.200 A 
ATOM     69  F   UNL A   1      44.347  23.819  34.979  1.00  0.00    -0.200 F 
ATOM     70  F   UNL A   1      44.982  24.591  37.513  1.00  0.00    -0.200 F 
ENDBRANCH  46  60
BRANCH  47  71
ATOM     71  C   UNL A   1      42.567  24.503  26.657  1.00  0.00     0.064 A 
ATOM     72  C   UNL A   1      43.333  24.141  25.536  1.00  0.00     0.173 A 
ATOM     73  C   UNL A   1      41.815  23.474  27.259  1.00  0.00     0.173 A 
ATOM     74  F   UNL A   1      44.109  25.050  24.928  1.00  0.00    -0.203 F 
ATOM     75  C   UNL A   1      43.377  22.822  25.070  1.00  0.00     0.198 A 
ATOM     76  C   UNL A   1      41.854  22.160  26.789  1.00  0.00     0.198 A 
ATOM     77  F   UNL A   1      41.109  23.701  28.376  1.00  0.00    -0.203 F 
ATOM     78  F   UNL A   1      44.175  22.501  24.043  1.00  0.00    -0.200 F 
ATOM     79  C   UNL A   1      42.648  21.830  25.706  1.00  0.00     0.200 A 
ATOM     80  F   UNL A   1      41.173  21.204  27.436  1.00  0.00    -0.200 F 
ATOM     81  F   UNL A   1      42.744  20.555  25.307  1.00  0.00    -0.200 F 
ENDBRANCH  47  71
BRANCH  59  82
ATOM     82  C   UNL A   1      45.688  29.566  28.730  1.00  0.00     0.064 A 
ATOM     83  C   UNL A   1      44.709  30.344  28.086  1.00  0.00     0.173 A 
ATOM     84  C   UNL A   1      47.027  29.822  28.409  1.00  0.00     0.173 A 
ATOM     85  F   UNL A   1      43.415  30.230  28.411  1.00  0.00    -0.203 F 
ATOM     86  C   UNL A   1      45.055  31.306  27.140  1.00  0.00     0.198 A 
ATOM     87  C   UNL A   1      47.372  30.808  27.489  1.00  0.00     0.198 A 
ATOM     88  F   UNL A   1      48.005  29.150  29.034  1.00  0.00    -0.203 F 
ATOM     89  F   UNL A   1      44.101  32.034  26.539  1.00  0.00    -0.200 F 
ATOM     90  C   UNL A   1      46.388  31.543  26.849  1.00  0.00     0.200 A 
ATOM     91  F   UNL A   1      48.664  31.069  27.250  1.00  0.00    -0.200 F 
ATOM     92  F   UNL A   1      46.726  32.503  25.976  1.00  0.00    -0.200 F 
ENDBRANCH  59  82
ENDBRANCH  33  34
ENDBRANCH  25  28
ENDBRANCH  23  24
ENDBRANCH  22  23
ENDBRANCH   1  22
TORSDOF 14
ENDMDL
MODEL 2
REMARK VINA RESULT:     -12.7      3.714      8.871
REMARK SMILES Cc1ccn2c([C@@H]3C[C@H]3C(=O)NCCCCCCNC(=O)c3ccc(-c4c5nc(c(-c6c(F)c(F)c(F)c(F)c6F)c6ccc([nH]6)c(-c6c(F)c(F)c(F)c(F)c6F)c6nc(c(-c7c(F)c(F)c(F)c(F)c7F)c7ccc4[nH]7)C=C6)C=C5)cc3)nnc2c1
REMARK SMILES IDX 16 1 15 2 14 3 13 4 12 5 10 6 11 7 9 9 7 10 8 11 6 12 1 13
REMARK SMILES IDX 2 14 3 15 88 16 4 17 87 18 5 19 86 20 85 21 17 22 18 23
REMARK SMILES IDX 19 24 20 25 21 27 22 28 23 29 84 30 24 31 83 32 25 33 26 34
REMARK SMILES IDX 27 35 77 36 28 37 82 38 76 39 78 40 29 41 81 42 75 43 74 44
REMARK SMILES IDX 30 46 62 47 42 48 61 49 43 50 46 51 60 52 79 53 44 54 45 55
REMARK SMILES IDX 59 57 80 58 47 59 31 60 32 61 40 62 33 63 34 64 38 65 41 66
REMARK SMILES IDX 35 67 36 68 39 69 37 70 63 71 64 72 72 73 65 74 66 75 70 76
REMARK SMILES IDX 73 77 67 78 68 79 71 80 69 81 48 82 49 83 57 84 50 85 51 86
REMARK SMILES IDX 55 87 58 88 52 89 53 90 56 91 54 92
REMARK H PARENT 12 8 19 26 78 45 46 56
REMARK Flexibility Score: inf
ROOT
ATOM      1  C   UNL A   1      38.052  23.595  26.106  1.00  0.00     0.002 C 
ENDROOT
BRANCH   1   2
ATOM      2  C   UNL A   1      36.569  23.548  25.722  1.00  0.00     0.002 C 
BRANCH   2   3
ATOM      3  C   UNL A   1      35.984  22.133  25.598  1.00  0.00     0.021 C 
BRANCH   3   4
ATOM      4  C   UNL A   1      34.757  21.901  26.477  1.00  0.00     0.116 C 
BRANCH   4   5
ATOM      5  N   UNL A   1      33.965  20.822  25.934  1.00  0.00    -0.356 N 
ATOM      6  C   UNL A   1      32.916  20.789  25.080  1.00  0.00     0.223 C 
ATOM      7  O   UNL A   1      32.277  19.732  25.005  1.00  0.00    -0.275 OA
ATOM      8  H   UNL A   1      34.245  19.933  26.248  1.00  0.00     0.163 HD
BRANCH   6   9
ATOM      9  C   UNL A   1      32.505  21.890  24.188  1.00  0.00     0.090 C 
ATOM     10  C   UNL A   1      33.389  22.552  23.161  1.00  0.00     0.071 C 
ATOM     11  C   UNL A   1      32.151  21.785  22.741  1.00  0.00     0.026 C 
BRANCH  10  12
ATOM     12  C   UNL A   1      33.441  24.068  22.974  1.00  0.00     0.141 A 
ATOM     13  C   UNL A   1      33.798  28.836  25.892  1.00  0.00     0.044 C 
ATOM     14  C   UNL A   1      33.648  27.565  25.116  1.00  0.00    -0.046 A 
ATOM     15  C   UNL A   1      33.454  26.352  25.900  1.00  0.00     0.022 A 
ATOM     16  C   UNL A   1      33.689  27.508  23.767  1.00  0.00     0.053 A 
ATOM     17  C   UNL A   1      33.325  25.173  25.272  1.00  0.00     0.095 A 
ATOM     18  C   UNL A   1      33.586  26.252  23.104  1.00  0.00     0.161 A 
ATOM     19  N   UNL A   1      33.415  25.111  23.882  1.00  0.00    -0.286 N 
ATOM     20  N   UNL A   1      33.652  25.923  21.834  1.00  0.00    -0.130 NA
ATOM     21  N   UNL A   1      33.586  24.555  21.756  1.00  0.00    -0.134 NA
ENDBRANCH  10  12
ENDBRANCH   6   9
ENDBRANCH   4   5
ENDBRANCH   3   4
ENDBRANCH   2   3
ENDBRANCH   1   2
BRANCH   1  22
ATOM     22  C   UNL A   1      38.749  22.228  26.127  1.00  0.00     0.021 C 
BRANCH  22  23
ATOM     23  C   UNL A   1      40.091  22.242  26.858  1.00  0.00     0.116 C 
BRANCH  23  24
ATOM     24  N   UNL A   1      41.219  22.369  25.962  1.00  0.00    -0.352 N 
ATOM     25  C   UNL A   1      42.172  23.318  25.749  1.00  0.00     0.251 C 
ATOM     26  H   UNL A   1      41.321  21.590  25.368  1.00  0.00     0.163 HD
ATOM     27  O   UNL A   1      43.028  23.055  24.901  1.00  0.00    -0.269 OA
BRANCH  25  28
ATOM     28  C   UNL A   1      42.200  24.653  26.402  1.00  0.00     0.039 A 
ATOM     29  C   UNL A   1      42.935  24.992  27.539  1.00  0.00     0.014 A 
ATOM     30  C   UNL A   1      41.355  25.621  25.830  1.00  0.00     0.014 A 
ATOM     31  C   UNL A   1      42.730  26.210  28.170  1.00  0.00     0.010 A 
ATOM     32  C   UNL A   1      41.170  26.851  26.437  1.00  0.00     0.010 A 
ATOM     33  C   UNL A   1      41.807  27.112  27.645  1.00  0.00    -0.014 A 
BRANCH  33  34
ATOM     34  C   UNL A   1      41.591  28.363  28.357  1.00  0.00     0.031 A 
ATOM     35  C   UNL A   1      42.634  29.406  28.120  1.00  0.00     0.074 A 
ATOM     36  C   UNL A   1      40.468  28.578  29.070  1.00  0.00     0.049 A 
ATOM     37  N   UNL A   1      43.354  30.042  28.989  1.00  0.00    -0.248 NA
ATOM     38  C   UNL A   1      42.993  29.697  26.720  1.00  0.00     0.031 C 
ATOM     39  C   UNL A   1      39.277  27.725  29.165  1.00  0.00     0.029 A 
ATOM     40  N   UNL A   1      40.108  29.672  29.793  1.00  0.00    -0.354 N 
ATOM     41  C   UNL A   1      44.143  30.930  28.257  1.00  0.00     0.074 A 
ATOM     42  C   UNL A   1      43.972  30.590  26.868  1.00  0.00     0.031 C 
ATOM     43  C   UNL A   1      38.254  28.438  29.688  1.00  0.00     0.029 A 
ATOM     44  C   UNL A   1      38.753  29.739  30.093  1.00  0.00     0.049 A 
ATOM     45  H   UNL A   1      40.752  30.358  30.079  1.00  0.00     0.167 HD
ATOM     46  C   UNL A   1      44.727  32.018  28.828  1.00  0.00     0.037 A 
ATOM     47  C   UNL A   1      38.091  30.824  30.567  1.00  0.00     0.037 A 
ATOM     48  C   UNL A   1      44.841  31.878  30.251  1.00  0.00     0.049 A 
ATOM     49  C   UNL A   1      39.106  31.745  31.132  1.00  0.00     0.074 A 
ATOM     50  C   UNL A   1      45.544  31.037  31.090  1.00  0.00     0.029 A 
ATOM     51  N   UNL A   1      43.888  32.474  31.036  1.00  0.00    -0.354 N 
ATOM     52  N   UNL A   1      39.806  31.488  32.202  1.00  0.00    -0.248 NA
ATOM     53  C   UNL A   1      39.660  32.758  30.248  1.00  0.00     0.031 C 
ATOM     54  C   UNL A   1      44.673  30.806  32.195  1.00  0.00     0.029 A 
ATOM     55  C   UNL A   1      43.519  31.562  31.990  1.00  0.00     0.049 A 
ATOM     56  H   UNL A   1      43.535  33.388  30.935  1.00  0.00     0.167 HD
ATOM     57  C   UNL A   1      41.069  31.985  31.924  1.00  0.00     0.074 A 
ATOM     58  C   UNL A   1      40.899  32.826  30.741  1.00  0.00     0.031 C 
ATOM     59  C   UNL A   1      42.177  31.445  32.507  1.00  0.00     0.037 A 
BRANCH  46  60
ATOM     60  C   UNL A   1      44.884  33.343  28.129  1.00  0.00     0.064 A 
ATOM     61  C   UNL A   1      46.169  33.826  27.815  1.00  0.00     0.173 A 
ATOM     62  C   UNL A   1      43.835  34.283  28.026  1.00  0.00     0.173 A 
ATOM     63  F   UNL A   1      47.242  33.028  27.915  1.00  0.00    -0.203 F 
ATOM     64  C   UNL A   1      46.388  35.164  27.472  1.00  0.00     0.198 A 
ATOM     65  C   UNL A   1      44.051  35.602  27.635  1.00  0.00     0.198 A 
ATOM     66  F   UNL A   1      42.586  33.992  28.411  1.00  0.00    -0.203 F 
ATOM     67  F   UNL A   1      47.640  35.608  27.290  1.00  0.00    -0.200 F 
ATOM     68  C   UNL A   1      45.329  36.050  27.385  1.00  0.00     0.200 A 
ATOM     69  F   UNL A   1      43.014  36.450  27.582  1.00  0.00    -0.200 F 
ATOM     70  F   UNL A   1      45.544  37.344  27.111  1.00  0.00    -0.200 F 
ENDBRANCH  46  60
BRANCH  47  71
ATOM     71  C   UNL A   1      36.722  31.287  30.229  1.00  0.00     0.064 A 
ATOM     72  C   UNL A   1      35.913  31.901  31.200  1.00  0.00     0.173 A 
ATOM     73  C   UNL A   1      36.300  31.417  28.890  1.00  0.00     0.173 A 
ATOM     74  F   UNL A   1      36.264  31.859  32.493  1.00  0.00    -0.203 F 
ATOM     75  C   UNL A   1      34.776  32.637  30.850  1.00  0.00     0.198 A 
ATOM     76  C   UNL A   1      35.161  32.145  28.543  1.00  0.00     0.198 A 
ATOM     77  F   UNL A   1      37.040  30.929  27.884  1.00  0.00    -0.203 F 
ATOM     78  F   UNL A   1      34.070  33.269  31.798  1.00  0.00    -0.200 F 
ATOM     79  C   UNL A   1      34.409  32.770  29.521  1.00  0.00     0.200 A 
ATOM     80  F   UNL A   1      34.838  32.297  27.251  1.00  0.00    -0.200 F 
ATOM     81  F   UNL A   1      33.361  33.533  29.179  1.00  0.00    -0.200 F 
ENDBRANCH  47  71
BRANCH  59  82
ATOM     82  C   UNL A   1      41.964  30.459  33.621  1.00  0.00     0.064 A 
ATOM     83  C   UNL A   1      41.762  29.082  33.418  1.00  0.00     0.173 A 
ATOM     84  C   UNL A   1      42.127  30.898  34.940  1.00  0.00     0.173 A 
ATOM     85  F   UNL A   1      41.697  28.569  32.183  1.00  0.00    -0.203 F 
ATOM     86  C   UNL A   1      41.689  28.195  34.491  1.00  0.00     0.198 A 
ATOM     87  C   UNL A   1      42.089  30.005  36.008  1.00  0.00     0.198 A 
ATOM     88  F   UNL A   1      42.380  32.192  35.189  1.00  0.00    -0.203 F 
ATOM     89  F   UNL A   1      41.493  26.886  34.271  1.00  0.00    -0.200 F 
ATOM     90  C   UNL A   1      41.862  28.657  35.784  1.00  0.00     0.200 A 
ATOM     91  F   UNL A   1      42.309  30.449  37.252  1.00  0.00    -0.200 F 
ATOM     92  F   UNL A   1      41.843  27.798  36.814  1.00  0.00    -0.200 F 
ENDBRANCH  59  82
ENDBRANCH  33  34
ENDBRANCH  25  28
ENDBRANCH  23  24
ENDBRANCH  22  23
ENDBRANCH   1  22
TORSDOF 14
ENDMDL
MODEL 3
REMARK VINA RESULT:     -12.6      3.260      8.751
REMARK SMILES Cc1ccn2c([C@@H]3C[C@H]3C(=O)NCCCCCCNC(=O)c3ccc(-c4c5nc(c(-c6c(F)c(F)c(F)c(F)c6F)c6ccc([nH]6)c(-c6c(F)c(F)c(F)c(F)c6F)c6nc(c(-c7c(F)c(F)c(F)c(F)c7F)c7ccc4[nH]7)C=C6)C=C5)cc3)nnc2c1
REMARK SMILES IDX 16 1 15 2 14 3 13 4 12 5 10 6 11 7 9 9 7 10 8 11 6 12 1 13
REMARK SMILES IDX 2 14 3 15 88 16 4 17 87 18 5 19 86 20 85 21 17 22 18 23
REMARK SMILES IDX 19 24 20 25 21 27 22 28 23 29 84 30 24 31 83 32 25 33 26 34
REMARK SMILES IDX 27 35 77 36 28 37 82 38 76 39 78 40 29 41 81 42 75 43 74 44
REMARK SMILES IDX 30 46 62 47 42 48 61 49 43 50 46 51 60 52 79 53 44 54 45 55
REMARK SMILES IDX 59 57 80 58 47 59 31 60 32 61 40 62 33 63 34 64 38 65 41 66
REMARK SMILES IDX 35 67 36 68 39 69 37 70 63 71 64 72 72 73 65 74 66 75 70 76
REMARK SMILES IDX 73 77 67 78 68 79 71 80 69 81 48 82 49 83 57 84 50 85 51 86
REMARK SMILES IDX 55 87 58 88 52 89 53 90 56 91 54 92
REMARK H PARENT 12 8 19 26 78 45 46 56
REMARK Flexibility Score: inf
ROOT
ATOM      1  C   UNL A   1      41.269  21.217  27.286  1.00  0.00     0.002 C 
ENDROOT
BRANCH   1   2
ATOM      2  C   UNL A   1      40.051  22.140  27.165  1.00  0.00     0.002 C 
BRANCH   2   3
ATOM      3  C   UNL A   1      39.100  21.798  26.009  1.00  0.00     0.021 C 
BRANCH   3   4
ATOM      4  C   UNL A   1      37.951  22.791  25.849  1.00  0.00     0.116 C 
BRANCH   4   5
ATOM      5  N   UNL A   1      37.524  22.825  24.470  1.00  0.00    -0.356 N 
ATOM      6  C   UNL A   1      36.415  23.304  23.860  1.00  0.00     0.223 C 
ATOM      7  O   UNL A   1      36.213  22.953  22.691  1.00  0.00    -0.275 OA
ATOM      8  H   UNL A   1      38.170  22.418  23.849  1.00  0.00     0.163 HD
BRANCH   6   9
ATOM      9  C   UNL A   1      35.458  24.257  24.453  1.00  0.00     0.090 C 
ATOM     10  C   UNL A   1      34.095  24.580  23.895  1.00  0.00     0.071 C 
ATOM     11  C   UNL A   1      34.242  23.924  25.254  1.00  0.00     0.026 C 
BRANCH  10  12
ATOM     12  C   UNL A   1      33.562  26.009  23.798  1.00  0.00     0.141 A 
ATOM     13  C   UNL A   1      32.887  30.656  26.852  1.00  0.00     0.044 C 
ATOM     14  C   UNL A   1      33.018  29.397  26.052  1.00  0.00    -0.046 A 
ATOM     15  C   UNL A   1      33.455  28.214  26.782  1.00  0.00     0.022 A 
ATOM     16  C   UNL A   1      32.757  29.327  24.729  1.00  0.00     0.053 A 
ATOM     17  C   UNL A   1      33.608  27.053  26.126  1.00  0.00     0.095 A 
ATOM     18  C   UNL A   1      32.951  28.103  24.029  1.00  0.00     0.161 A 
ATOM     19  N   UNL A   1      33.384  26.994  24.751  1.00  0.00    -0.286 N 
ATOM     20  N   UNL A   1      32.829  27.789  22.759  1.00  0.00    -0.130 NA
ATOM     21  N   UNL A   1      33.234  26.487  22.611  1.00  0.00    -0.134 NA
ENDBRANCH  10  12
ENDBRANCH   6   9
ENDBRANCH   4   5
ENDBRANCH   3   4
ENDBRANCH   2   3
ENDBRANCH   1   2
BRANCH   1  22
ATOM     22  C   UNL A   1      41.401  20.186  26.157  1.00  0.00     0.021 C 
BRANCH  22  23
ATOM     23  C   UNL A   1      42.738  19.446  26.165  1.00  0.00     0.116 C 
BRANCH  23  24
ATOM     24  N   UNL A   1      43.548  19.734  25.002  1.00  0.00    -0.352 N 
ATOM     25  C   UNL A   1      44.257  20.814  24.571  1.00  0.00     0.251 C 
ATOM     26  H   UNL A   1      43.598  18.974  24.377  1.00  0.00     0.163 HD
ATOM     27  O   UNL A   1      44.879  20.675  23.515  1.00  0.00    -0.269 OA
BRANCH  25  28
ATOM     28  C   UNL A   1      44.266  22.142  25.236  1.00  0.00     0.039 A 
ATOM     29  C   UNL A   1      45.067  22.511  26.317  1.00  0.00     0.014 A 
ATOM     30  C   UNL A   1      43.330  23.069  24.742  1.00  0.00     0.014 A 
ATOM     31  C   UNL A   1      44.848  23.711  26.977  1.00  0.00     0.010 A 
ATOM     32  C   UNL A   1      43.128  24.283  25.376  1.00  0.00     0.010 A 
ATOM     33  C   UNL A   1      43.842  24.567  26.535  1.00  0.00    -0.014 A 
BRANCH  33  34
ATOM     34  C   UNL A   1      43.616  25.800  27.276  1.00  0.00     0.031 A 
ATOM     35  C   UNL A   1      44.596  26.890  26.990  1.00  0.00     0.074 A 
ATOM     36  C   UNL A   1      42.531  25.956  28.060  1.00  0.00     0.049 A 
ATOM     37  N   UNL A   1      45.340  27.548  27.821  1.00  0.00    -0.248 NA
ATOM     38  C   UNL A   1      44.854  27.213  25.574  1.00  0.00     0.031 C 
ATOM     39  C   UNL A   1      41.387  25.050  28.217  1.00  0.00     0.029 A 
ATOM     40  N   UNL A   1      42.169  27.025  28.819  1.00  0.00    -0.354 N 
ATOM     41  C   UNL A   1      46.042  28.478  27.054  1.00  0.00     0.074 A 
ATOM     42  C   UNL A   1      45.800  28.147  25.674  1.00  0.00     0.031 C 
ATOM     43  C   UNL A   1      40.369  25.711  28.812  1.00  0.00     0.029 A 
ATOM     44  C   UNL A   1      40.834  27.029  29.204  1.00  0.00     0.049 A 
ATOM     45  H   UNL A   1      42.800  27.736  29.074  1.00  0.00     0.167 HD
ATOM     46  C   UNL A   1      46.612  29.584  27.603  1.00  0.00     0.037 A 
ATOM     47  C   UNL A   1      40.156  28.078  29.732  1.00  0.00     0.037 A 
ATOM     48  C   UNL A   1      46.821  29.434  29.014  1.00  0.00     0.049 A 
ATOM     49  C   UNL A   1      41.164  29.036  30.247  1.00  0.00     0.074 A 
ATOM     50  C   UNL A   1      47.611  28.616  29.796  1.00  0.00     0.029 A 
ATOM     51  N   UNL A   1      45.894  29.978  29.865  1.00  0.00    -0.354 N 
ATOM     52  N   UNL A   1      41.939  28.799  31.268  1.00  0.00    -0.248 NA
ATOM     53  C   UNL A   1      41.617  30.083  29.344  1.00  0.00     0.031 C 
ATOM     54  C   UNL A   1      46.822  28.334  30.950  1.00  0.00     0.029 A 
ATOM     55  C   UNL A   1      45.626  29.040  30.827  1.00  0.00     0.049 A 
ATOM     56  H   UNL A   1      45.496  30.877  29.799  1.00  0.00     0.167 HD
ATOM     57  C   UNL A   1      43.160  29.354  30.918  1.00  0.00     0.074 A 
ATOM     58  C   UNL A   1      42.880  30.200  29.760  1.00  0.00     0.031 C 
ATOM     59  C   UNL A   1      44.325  28.857  31.424  1.00  0.00     0.037 A 
BRANCH  46  60
ATOM     60  C   UNL A   1      46.668  30.923  26.915  1.00  0.00     0.064 A 
ATOM     61  C   UNL A   1      47.876  31.647  26.876  1.00  0.00     0.173 A 
ATOM     62  C   UNL A   1      45.510  31.646  26.553  1.00  0.00     0.173 A 
ATOM     63  F   UNL A   1      49.030  31.067  27.237  1.00  0.00    -0.203 F 
ATOM     64  C   UNL A   1      47.908  33.006  26.548  1.00  0.00     0.198 A 
ATOM     65  C   UNL A   1      45.554  32.986  26.177  1.00  0.00     0.198 A 
ATOM     66  F   UNL A   1      44.285  31.116  26.661  1.00  0.00    -0.203 F 
ATOM     67  F   UNL A   1      49.062  33.683  26.633  1.00  0.00    -0.200 F 
ATOM     68  C   UNL A   1      46.748  33.674  26.201  1.00  0.00     0.200 A 
ATOM     69  F   UNL A   1      44.414  33.621  25.869  1.00  0.00    -0.200 F 
ATOM     70  F   UNL A   1      46.770  34.988  25.940  1.00  0.00    -0.200 F 
ENDBRANCH  46  60
BRANCH  47  71
ATOM     71  C   UNL A   1      38.750  28.483  29.486  1.00  0.00     0.064 A 
ATOM     72  C   UNL A   1      37.878  28.732  30.559  1.00  0.00     0.173 A 
ATOM     73  C   UNL A   1      38.326  28.930  28.218  1.00  0.00     0.173 A 
ATOM     74  F   UNL A   1      38.224  28.374  31.804  1.00  0.00    -0.203 F 
ATOM     75  C   UNL A   1      36.675  29.423  30.383  1.00  0.00     0.198 A 
ATOM     76  C   UNL A   1      37.122  29.614  28.043  1.00  0.00     0.198 A 
ATOM     77  F   UNL A   1      39.117  28.805  27.143  1.00  0.00    -0.203 F 
ATOM     78  F   UNL A   1      35.904  29.705  31.442  1.00  0.00    -0.200 F 
ATOM     79  C   UNL A   1      36.305  29.876  29.127  1.00  0.00     0.200 A 
ATOM     80  F   UNL A   1      36.793  30.079  26.829  1.00  0.00    -0.200 F 
ATOM     81  F   UNL A   1      35.188  30.600  28.969  1.00  0.00    -0.200 F 
ENDBRANCH  47  71
BRANCH  59  82
ATOM     82  C   UNL A   1      44.225  27.851  32.536  1.00  0.00     0.064 A 
ATOM     83  C   UNL A   1      44.133  26.462  32.327  1.00  0.00     0.173 A 
ATOM     84  C   UNL A   1      44.386  28.294  33.853  1.00  0.00     0.173 A 
ATOM     85  F   UNL A   1      44.078  25.954  31.090  1.00  0.00    -0.203 F 
ATOM     86  C   UNL A   1      44.164  25.566  33.394  1.00  0.00     0.198 A 
ATOM     87  C   UNL A   1      44.451  27.395  34.915  1.00  0.00     0.198 A 
ATOM     88  F   UNL A   1      44.536  29.604  34.106  1.00  0.00    -0.203 F 
ATOM     89  F   UNL A   1      44.072  24.247  33.168  1.00  0.00    -0.200 F 
ATOM     90  C   UNL A   1      44.332  26.033  34.686  1.00  0.00     0.200 A 
ATOM     91  F   UNL A   1      44.667  27.848  36.157  1.00  0.00    -0.200 F 
ATOM     92  F   UNL A   1      44.413  25.170  35.709  1.00  0.00    -0.200 F 
ENDBRANCH  59  82
ENDBRANCH  33  34
ENDBRANCH  25  28
ENDBRANCH  23  24
ENDBRANCH  22  23
ENDBRANCH   1  22
TORSDOF 14
ENDMDL
