MODEL 1
REMARK VINA RESULT:     -12.3      0.000      0.000
REMARK SMILES N#C/C(=C\c1ccc(-c2cc(C(F)(F)F)ccc2Cl)o1)C(=O)NCCCCCCNC(=O)c1ccc(-c2c3nc(c(-c4c(F)c(F)c(F)c(F)c4F)c4ccc([nH]4)c(-c4c(F)c(F)c(F)c(F)c4F)c4nc(c(-c5c(F)c(F)c(F)c(F)c5F)c5ccc2[nH]5)C=C4)C=C3)cc1
REMARK SMILES IDX 26 1 25 2 24 3 23 4 21 5 22 6 3 8 4 9 2 10 1 11 5 12 6 13
REMARK SMILES IDX 20 14 7 15 8 16 9 17 10 18 18 19 11 20 17 21 19 22 16 23
REMARK SMILES IDX 12 24 13 25 14 26 15 27 27 28 28 29 29 30 30 31 31 32 32 34
REMARK SMILES IDX 33 35 34 36 95 37 35 38 94 39 36 40 37 41 38 42 88 43 39 44
REMARK SMILES IDX 93 45 87 46 89 47 40 48 92 49 86 50 85 51 41 53 73 54 53 55
REMARK SMILES IDX 72 56 54 57 57 58 71 59 90 60 55 61 56 62 70 64 91 65 58 66
REMARK SMILES IDX 42 67 43 68 51 69 44 70 45 71 49 72 52 73 46 74 47 75 50 76
REMARK SMILES IDX 48 77 74 78 75 79 83 80 76 81 77 82 81 83 84 84 78 85 79 86
REMARK SMILES IDX 82 87 80 88 59 89 60 90 68 91 61 92 62 93 66 94 69 95 63 96
REMARK SMILES IDX 64 97 67 98 65 99
REMARK H PARENT 23 7 30 33 89 52 57 63
REMARK Flexibility Score: inf
ROOT
ATOM      1  C   UNL A   1      32.302  29.907  26.320  1.00  0.00     0.002 C 
ENDROOT
BRANCH   1   2
ATOM      2  C   UNL A   1      32.884  28.946  25.287  1.00  0.00     0.021 C 
BRANCH   2   3
ATOM      3  C   UNL A   1      31.999  28.672  24.081  1.00  0.00     0.116 C 
BRANCH   3   4
ATOM      4  N   UNL A   1      32.732  28.243  22.900  1.00  0.00    -0.351 N 
ATOM      5  C   UNL A   1      33.229  27.043  22.481  1.00  0.00     0.262 C 
ATOM      6  O   UNL A   1      33.802  27.019  21.391  1.00  0.00    -0.268 OA
ATOM      7  H   UNL A   1      32.906  28.977  22.266  1.00  0.00     0.163 HD
BRANCH   5   8
ATOM      8  C   UNL A   1      33.150  25.803  23.295  1.00  0.00     0.120 C 
ATOM      9  C   UNL A   1      33.913  25.504  24.379  1.00  0.00     0.072 C 
BRANCH   8  10
ATOM     10  C   UNL A   1      31.871  24.982  23.279  1.00  0.00     0.105 C 
ATOM     11  N   UNL A   1      30.810  24.301  23.267  1.00  0.00    -0.192 NA
ENDBRANCH   8  10
BRANCH   9  12
ATOM     12  C   UNL A   1      33.837  24.264  25.107  1.00  0.00     0.129 A 
ATOM     13  C   UNL A   1      33.242  23.971  26.334  1.00  0.00     0.051 A 
ATOM     14  O   UNL A   1      34.347  23.075  24.615  1.00  0.00    -0.457 OA
ATOM     15  C   UNL A   1      33.448  22.604  26.614  1.00  0.00     0.051 A 
ATOM     16  C   UNL A   1      34.101  22.084  25.523  1.00  0.00     0.136 A 
BRANCH  16  17
ATOM     17  C   UNL A   1      34.553  20.742  25.179  1.00  0.00     0.036 A 
ATOM     18  C   UNL A   1      33.605  19.774  24.800  1.00  0.00     0.026 A 
ATOM     19  C   UNL A   1      35.915  20.386  25.157  1.00  0.00     0.052 A 
ATOM     20  C   UNL A   1      33.996  18.484  24.389  1.00  0.00     0.056 A 
ATOM     21  C   UNL A   1      36.310  19.104  24.759  1.00  0.00     0.022 A 
ATOM     22  Cl  UNL A   1      37.174  21.474  25.638  1.00  0.00    -0.084 Cl
ATOM     23  C   UNL A   1      35.358  18.161  24.374  1.00  0.00     0.014 A 
BRANCH  20  24
ATOM     24  C   UNL A   1      32.952  17.476  23.967  1.00  0.00     0.416 C 
ATOM     25  F   UNL A   1      33.481  16.241  23.753  1.00  0.00    -0.166 F 
ATOM     26  F   UNL A   1      31.977  17.313  24.903  1.00  0.00    -0.166 F 
ATOM     27  F   UNL A   1      32.310  17.812  22.814  1.00  0.00    -0.166 F 
ENDBRANCH  20  24
ENDBRANCH  16  17
ENDBRANCH   9  12
ENDBRANCH   5   8
ENDBRANCH   3   4
ENDBRANCH   2   3
ENDBRANCH   1   2
BRANCH   1  28
ATOM     28  C   UNL A   1      31.228  30.873  25.807  1.00  0.00     0.002 C 
BRANCH  28  29
ATOM     29  C   UNL A   1      31.199  32.265  26.450  1.00  0.00     0.021 C 
BRANCH  29  30
ATOM     30  C   UNL A   1      32.478  32.689  27.167  1.00  0.00     0.116 C 
BRANCH  30  31
ATOM     31  N   UNL A   1      32.408  34.051  27.657  1.00  0.00    -0.352 N 
ATOM     32  C   UNL A   1      33.148  34.684  28.621  1.00  0.00     0.251 C 
ATOM     33  H   UNL A   1      31.721  34.612  27.228  1.00  0.00     0.163 HD
ATOM     34  O   UNL A   1      32.807  35.795  29.015  1.00  0.00    -0.269 OA
BRANCH  32  35
ATOM     35  C   UNL A   1      34.350  34.043  29.203  1.00  0.00     0.039 A 
ATOM     36  C   UNL A   1      34.167  32.996  30.111  1.00  0.00     0.014 A 
ATOM     37  C   UNL A   1      35.640  34.500  28.918  1.00  0.00     0.014 A 
ATOM     38  C   UNL A   1      35.272  32.388  30.708  1.00  0.00     0.010 A 
ATOM     39  C   UNL A   1      36.748  33.852  29.466  1.00  0.00     0.010 A 
ATOM     40  C   UNL A   1      36.574  32.800  30.377  1.00  0.00    -0.014 A 
BRANCH  40  41
ATOM     41  C   UNL A   1      37.751  32.141  30.996  1.00  0.00     0.031 A 
ATOM     42  C   UNL A   1      38.210  32.536  32.371  1.00  0.00     0.074 A 
ATOM     43  C   UNL A   1      38.419  31.196  30.307  1.00  0.00     0.049 A 
ATOM     44  N   UNL A   1      39.211  32.071  33.076  1.00  0.00    -0.248 NA
ATOM     45  C   UNL A   1      37.459  33.613  33.037  1.00  0.00     0.031 C 
ATOM     46  C   UNL A   1      38.103  30.764  28.945  1.00  0.00     0.029 A 
ATOM     47  N   UNL A   1      39.501  30.430  30.657  1.00  0.00    -0.354 N 
ATOM     48  C   UNL A   1      39.209  32.795  34.261  1.00  0.00     0.074 A 
ATOM     49  C   UNL A   1      38.146  33.771  34.159  1.00  0.00     0.031 C 
ATOM     50  C   UNL A   1      38.961  29.796  28.582  1.00  0.00     0.029 A 
ATOM     51  C   UNL A   1      39.896  29.554  29.676  1.00  0.00     0.049 A 
ATOM     52  H   UNL A   1      39.954  30.501  31.529  1.00  0.00     0.167 HD
ATOM     53  C   UNL A   1      40.004  32.641  35.349  1.00  0.00     0.037 A 
ATOM     54  C   UNL A   1      40.897  28.654  29.663  1.00  0.00     0.037 A 
ATOM     55  C   UNL A   1      41.053  31.660  35.455  1.00  0.00     0.049 A 
ATOM     56  C   UNL A   1      41.750  28.488  30.891  1.00  0.00     0.074 A 
ATOM     57  C   UNL A   1      41.895  31.407  36.523  1.00  0.00     0.029 A 
ATOM     58  N   UNL A   1      41.399  30.767  34.453  1.00  0.00    -0.354 N 
ATOM     59  N   UNL A   1      41.699  29.139  32.028  1.00  0.00    -0.248 NA
ATOM     60  C   UNL A   1      42.789  27.450  30.839  1.00  0.00     0.031 C 
ATOM     61  C   UNL A   1      42.770  30.378  36.158  1.00  0.00     0.029 A 
ATOM     62  C   UNL A   1      42.447  29.964  34.875  1.00  0.00     0.049 A 
ATOM     63  H   UNL A   1      40.964  30.710  33.572  1.00  0.00     0.167 HD
ATOM     64  C   UNL A   1      42.681  28.577  32.833  1.00  0.00     0.074 A 
ATOM     65  C   UNL A   1      43.296  27.518  32.062  1.00  0.00     0.031 C 
ATOM     66  C   UNL A   1      43.044  28.912  34.095  1.00  0.00     0.037 A 
BRANCH  53  67
ATOM     67  C   UNL A   1      39.756  33.548  36.519  1.00  0.00     0.064 A 
ATOM     68  C   UNL A   1      40.378  34.802  36.615  1.00  0.00     0.173 A 
ATOM     69  C   UNL A   1      38.862  33.180  37.535  1.00  0.00     0.173 A 
ATOM     70  F   UNL A   1      41.251  35.195  35.675  1.00  0.00    -0.203 F 
ATOM     71  C   UNL A   1      40.133  35.644  37.696  1.00  0.00     0.198 A 
ATOM     72  C   UNL A   1      38.599  34.036  38.602  1.00  0.00     0.198 A 
ATOM     73  F   UNL A   1      38.236  31.994  37.490  1.00  0.00    -0.203 F 
ATOM     74  F   UNL A   1      40.773  36.817  37.788  1.00  0.00    -0.200 F 
ATOM     75  C   UNL A   1      39.239  35.263  38.685  1.00  0.00     0.200 A 
ATOM     76  F   UNL A   1      37.726  33.673  39.551  1.00  0.00    -0.200 F 
ATOM     77  F   UNL A   1      39.000  36.078  39.722  1.00  0.00    -0.200 F 
ENDBRANCH  53  67
BRANCH  54  78
ATOM     78  C   UNL A   1      41.126  27.817  28.458  1.00  0.00     0.064 A 
ATOM     79  C   UNL A   1      42.066  28.192  27.487  1.00  0.00     0.173 A 
ATOM     80  C   UNL A   1      40.407  26.633  28.248  1.00  0.00     0.173 A 
ATOM     81  F   UNL A   1      42.766  29.326  27.636  1.00  0.00    -0.203 F 
ATOM     82  C   UNL A   1      42.261  27.424  26.341  1.00  0.00     0.198 A 
ATOM     83  C   UNL A   1      40.621  25.852  27.114  1.00  0.00     0.198 A 
ATOM     84  F   UNL A   1      39.500  26.228  29.150  1.00  0.00    -0.203 F 
ATOM     85  F   UNL A   1      43.132  27.828  25.408  1.00  0.00    -0.200 F 
ATOM     86  C   UNL A   1      41.541  26.252  26.157  1.00  0.00     0.200 A 
ATOM     87  F   UNL A   1      39.934  24.714  26.947  1.00  0.00    -0.200 F 
ATOM     88  F   UNL A   1      41.730  25.515  25.056  1.00  0.00    -0.200 F 
ENDBRANCH  54  78
BRANCH  66  89
ATOM     89  C   UNL A   1      44.141  28.106  34.725  1.00  0.00     0.064 A 
ATOM     90  C   UNL A   1      43.876  26.896  35.384  1.00  0.00     0.173 A 
ATOM     91  C   UNL A   1      45.474  28.537  34.651  1.00  0.00     0.173 A 
ATOM     92  F   UNL A   1      42.615  26.450  35.495  1.00  0.00    -0.203 F 
ATOM     93  C   UNL A   1      44.901  26.165  35.975  1.00  0.00     0.198 A 
ATOM     94  C   UNL A   1      46.501  27.789  35.218  1.00  0.00     0.198 A 
ATOM     95  F   UNL A   1      45.780  29.684  34.025  1.00  0.00    -0.203 F 
ATOM     96  F   UNL A   1      44.619  25.039  36.645  1.00  0.00    -0.200 F 
ATOM     97  C   UNL A   1      46.213  26.608  35.888  1.00  0.00     0.200 A 
ATOM     98  F   UNL A   1      47.769  28.213  35.124  1.00  0.00    -0.200 F 
ATOM     99  F   UNL A   1      47.200  25.902  36.456  1.00  0.00    -0.200 F 
ENDBRANCH  66  89
ENDBRANCH  40  41
ENDBRANCH  32  35
ENDBRANCH  30  31
ENDBRANCH  29  30
ENDBRANCH  28  29
ENDBRANCH   1  28
TORSDOF 17
ENDMDL
MODEL 2
REMARK VINA RESULT:     -12.0      3.086      4.260
REMARK SMILES N#C/C(=C\c1ccc(-c2cc(C(F)(F)F)ccc2Cl)o1)C(=O)NCCCCCCNC(=O)c1ccc(-c2c3nc(c(-c4c(F)c(F)c(F)c(F)c4F)c4ccc([nH]4)c(-c4c(F)c(F)c(F)c(F)c4F)c4nc(c(-c5c(F)c(F)c(F)c(F)c5F)c5ccc2[nH]5)C=C4)C=C3)cc1
REMARK SMILES IDX 26 1 25 2 24 3 23 4 21 5 22 6 3 8 4 9 2 10 1 11 5 12 6 13
REMARK SMILES IDX 20 14 7 15 8 16 9 17 10 18 18 19 11 20 17 21 19 22 16 23
REMARK SMILES IDX 12 24 13 25 14 26 15 27 27 28 28 29 29 30 30 31 31 32 32 34
REMARK SMILES IDX 33 35 34 36 95 37 35 38 94 39 36 40 37 41 38 42 88 43 39 44
REMARK SMILES IDX 93 45 87 46 89 47 40 48 92 49 86 50 85 51 41 53 73 54 53 55
REMARK SMILES IDX 72 56 54 57 57 58 71 59 90 60 55 61 56 62 70 64 91 65 58 66
REMARK SMILES IDX 42 67 43 68 51 69 44 70 45 71 49 72 52 73 46 74 47 75 50 76
REMARK SMILES IDX 48 77 74 78 75 79 83 80 76 81 77 82 81 83 84 84 78 85 79 86
REMARK SMILES IDX 82 87 80 88 59 89 60 90 68 91 61 92 62 93 66 94 69 95 63 96
REMARK SMILES IDX 64 97 67 98 65 99
REMARK H PARENT 23 7 30 33 89 52 57 63
REMARK Flexibility Score: inf
ROOT
ATOM      1  C   UNL A   1      31.072  27.913  24.076  1.00  0.00     0.002 C 
ENDROOT
BRANCH   1   2
ATOM      2  C   UNL A   1      30.774  26.966  25.235  1.00  0.00     0.021 C 
BRANCH   2   3
ATOM      3  C   UNL A   1      29.665  25.956  24.984  1.00  0.00     0.116 C 
BRANCH   3   4
ATOM      4  N   UNL A   1      29.492  24.993  26.060  1.00  0.00    -0.351 N 
ATOM      5  C   UNL A   1      30.245  23.956  26.528  1.00  0.00     0.262 C 
ATOM      6  O   UNL A   1      29.805  23.331  27.494  1.00  0.00    -0.268 OA
ATOM      7  H   UNL A   1      28.651  25.117  26.558  1.00  0.00     0.163 HD
BRANCH   5   8
ATOM      8  C   UNL A   1      31.522  23.531  25.900  1.00  0.00     0.120 C 
ATOM      9  C   UNL A   1      32.709  24.187  25.971  1.00  0.00     0.072 C 
BRANCH   8  10
ATOM     10  C   UNL A   1      31.722  22.069  25.537  1.00  0.00     0.105 C 
ATOM     11  N   UNL A   1      31.889  20.856  25.236  1.00  0.00    -0.192 NA
ENDBRANCH   8  10
BRANCH   9  12
ATOM     12  C   UNL A   1      33.911  23.764  25.300  1.00  0.00     0.129 A 
ATOM     13  C   UNL A   1      34.162  23.547  23.945  1.00  0.00     0.051 A 
ATOM     14  O   UNL A   1      35.105  23.547  25.968  1.00  0.00    -0.457 OA
ATOM     15  C   UNL A   1      35.504  23.135  23.800  1.00  0.00     0.051 A 
ATOM     16  C   UNL A   1      36.054  23.178  25.058  1.00  0.00     0.136 A 
BRANCH  16  17
ATOM     17  C   UNL A   1      37.395  22.916  25.567  1.00  0.00     0.036 A 
ATOM     18  C   UNL A   1      38.111  23.958  26.186  1.00  0.00     0.026 A 
ATOM     19  C   UNL A   1      37.986  21.640  25.516  1.00  0.00     0.052 A 
ATOM     20  C   UNL A   1      39.379  23.739  26.758  1.00  0.00     0.056 A 
ATOM     21  C   UNL A   1      39.249  21.416  26.074  1.00  0.00     0.022 A 
ATOM     22  Cl  UNL A   1      37.225  20.286  24.749  1.00  0.00    -0.084 Cl
ATOM     23  C   UNL A   1      39.939  22.457  26.694  1.00  0.00     0.014 A 
BRANCH  20  24
ATOM     24  C   UNL A   1      40.111  24.875  27.434  1.00  0.00     0.416 C 
ATOM     25  F   UNL A   1      39.269  25.855  27.859  1.00  0.00    -0.166 F 
ATOM     26  F   UNL A   1      40.803  24.468  28.533  1.00  0.00    -0.166 F 
ATOM     27  F   UNL A   1      41.021  25.489  26.627  1.00  0.00    -0.166 F 
ENDBRANCH  20  24
ENDBRANCH  16  17
ENDBRANCH   9  12
ENDBRANCH   5   8
ENDBRANCH   3   4
ENDBRANCH   2   3
ENDBRANCH   1   2
BRANCH   1  28
ATOM     28  C   UNL A   1      32.260  28.862  24.274  1.00  0.00     0.002 C 
BRANCH  28  29
ATOM     29  C   UNL A   1      33.576  28.220  24.730  1.00  0.00     0.021 C 
BRANCH  29  30
ATOM     30  C   UNL A   1      34.165  28.769  26.027  1.00  0.00     0.116 C 
BRANCH  30  31
ATOM     31  N   UNL A   1      33.572  30.036  26.408  1.00  0.00    -0.352 N 
ATOM     32  C   UNL A   1      33.979  30.960  27.334  1.00  0.00     0.251 C 
ATOM     33  H   UNL A   1      32.748  30.271  25.923  1.00  0.00     0.163 HD
ATOM     34  O   UNL A   1      33.232  31.886  27.634  1.00  0.00    -0.269 OA
BRANCH  32  35
ATOM     35  C   UNL A   1      35.303  30.851  27.989  1.00  0.00     0.039 A 
ATOM     36  C   UNL A   1      35.587  29.693  28.719  1.00  0.00     0.014 A 
ATOM     37  C   UNL A   1      36.234  31.894  27.947  1.00  0.00     0.014 A 
ATOM     38  C   UNL A   1      36.810  29.567  29.379  1.00  0.00     0.010 A 
ATOM     39  C   UNL A   1      37.480  31.742  28.555  1.00  0.00     0.010 A 
ATOM     40  C   UNL A   1      37.775  30.584  29.289  1.00  0.00    -0.014 A 
BRANCH  40  41
ATOM     41  C   UNL A   1      39.084  30.441  29.974  1.00  0.00     0.031 A 
ATOM     42  C   UNL A   1      39.320  31.092  31.308  1.00  0.00     0.074 A 
ATOM     43  C   UNL A   1      40.068  29.739  29.381  1.00  0.00     0.049 A 
ATOM     44  N   UNL A   1      40.393  31.075  32.059  1.00  0.00    -0.248 NA
ATOM     45  C   UNL A   1      38.213  31.886  31.864  1.00  0.00     0.031 C 
ATOM     46  C   UNL A   1      39.978  29.107  28.064  1.00  0.00     0.029 A 
ATOM     47  N   UNL A   1      41.337  29.441  29.808  1.00  0.00    -0.354 N 
ATOM     48  C   UNL A   1      40.090  31.851  33.170  1.00  0.00     0.074 A 
ATOM     49  C   UNL A   1      38.755  32.373  32.970  1.00  0.00     0.031 C 
ATOM     50  C   UNL A   1      41.135  28.479  27.800  1.00  0.00     0.029 A 
ATOM     51  C   UNL A   1      42.053  28.681  28.917  1.00  0.00     0.049 A 
ATOM     52  H   UNL A   1      41.701  29.744  30.672  1.00  0.00     0.167 HD
ATOM     53  C   UNL A   1      40.845  32.084  34.271  1.00  0.00     0.037 A 
ATOM     54  C   UNL A   1      43.307  28.197  28.995  1.00  0.00     0.037 A 
ATOM     55  C   UNL A   1      42.167  31.553  34.476  1.00  0.00     0.049 A 
ATOM     56  C   UNL A   1      44.116  28.452  30.238  1.00  0.00     0.074 A 
ATOM     57  C   UNL A   1      43.003  31.708  35.568  1.00  0.00     0.029 A 
ATOM     58  N   UNL A   1      42.845  30.757  33.565  1.00  0.00    -0.354 N 
ATOM     59  N   UNL A   1      43.794  29.139  31.307  1.00  0.00    -0.248 NA
ATOM     60  C   UNL A   1      45.455  27.850  30.290  1.00  0.00     0.031 C 
ATOM     61  C   UNL A   1      44.198  31.030  35.307  1.00  0.00     0.029 A 
ATOM     62  C   UNL A   1      44.091  30.419  34.067  1.00  0.00     0.049 A 
ATOM     63  H   UNL A   1      42.493  30.474  32.691  1.00  0.00     0.167 HD
ATOM     64  C   UNL A   1      44.879  29.033  32.167  1.00  0.00     0.074 A 
ATOM     65  C   UNL A   1      45.858  28.199  31.503  1.00  0.00     0.031 C 
ATOM     66  C   UNL A   1      45.052  29.584  33.393  1.00  0.00     0.037 A 
BRANCH  53  67
ATOM     67  C   UNL A   1      40.248  32.942  35.350  1.00  0.00     0.064 A 
ATOM     68  C   UNL A   1      39.369  32.406  36.304  1.00  0.00     0.173 A 
ATOM     69  C   UNL A   1      40.585  34.298  35.456  1.00  0.00     0.173 A 
ATOM     70  F   UNL A   1      39.006  31.117  36.238  1.00  0.00    -0.203 F 
ATOM     71  C   UNL A   1      38.829  33.204  37.310  1.00  0.00     0.198 A 
ATOM     72  C   UNL A   1      40.064  35.087  36.480  1.00  0.00     0.198 A 
ATOM     73  F   UNL A   1      41.425  34.859  34.574  1.00  0.00    -0.203 F 
ATOM     74  F   UNL A   1      37.957  32.680  38.182  1.00  0.00    -0.200 F 
ATOM     75  C   UNL A   1      39.183  34.541  37.401  1.00  0.00     0.200 A 
ATOM     76  F   UNL A   1      40.415  36.377  36.575  1.00  0.00    -0.200 F 
ATOM     77  F   UNL A   1      38.667  35.306  38.374  1.00  0.00    -0.200 F 
ENDBRANCH  53  67
BRANCH  54  78
ATOM     78  C   UNL A   1      43.863  27.395  27.875  1.00  0.00     0.064 A 
ATOM     79  C   UNL A   1      44.420  28.017  26.749  1.00  0.00     0.173 A 
ATOM     80  C   UNL A   1      43.843  25.994  27.904  1.00  0.00     0.173 A 
ATOM     81  F   UNL A   1      44.445  29.355  26.668  1.00  0.00    -0.203 F 
ATOM     82  C   UNL A   1      44.915  27.267  25.684  1.00  0.00     0.198 A 
ATOM     83  C   UNL A   1      44.362  25.245  26.851  1.00  0.00     0.198 A 
ATOM     84  F   UNL A   1      43.327  25.352  28.963  1.00  0.00    -0.203 F 
ATOM     85  F   UNL A   1      45.399  27.887  24.600  1.00  0.00    -0.200 F 
ATOM     86  C   UNL A   1      44.889  25.881  25.738  1.00  0.00     0.200 A 
ATOM     87  F   UNL A   1      44.348  23.907  26.913  1.00  0.00    -0.200 F 
ATOM     88  F   UNL A   1      45.366  25.161  24.714  1.00  0.00    -0.200 F 
ENDBRANCH  54  78
BRANCH  66  89
ATOM     89  C   UNL A   1      46.337  29.277  34.103  1.00  0.00     0.064 A 
ATOM     90  C   UNL A   1      47.470  30.091  33.953  1.00  0.00     0.173 A 
ATOM     91  C   UNL A   1      46.432  28.169  34.958  1.00  0.00     0.173 A 
ATOM     92  F   UNL A   1      47.434  31.154  33.133  1.00  0.00    -0.203 F 
ATOM     93  C   UNL A   1      48.660  29.788  34.608  1.00  0.00     0.198 A 
ATOM     94  C   UNL A   1      47.614  27.885  35.634  1.00  0.00     0.198 A 
ATOM     95  F   UNL A   1      45.373  27.364  35.140  1.00  0.00    -0.203 F 
ATOM     96  F   UNL A   1      49.744  30.549  34.410  1.00  0.00    -0.200 F 
ATOM     97  C   UNL A   1      48.730  28.689  35.451  1.00  0.00     0.200 A 
ATOM     98  F   UNL A   1      47.677  26.828  36.456  1.00  0.00    -0.200 F 
ATOM     99  F   UNL A   1      49.876  28.398  36.082  1.00  0.00    -0.200 F 
ENDBRANCH  66  89
ENDBRANCH  40  41
ENDBRANCH  32  35
ENDBRANCH  30  31
ENDBRANCH  29  30
ENDBRANCH  28  29
ENDBRANCH   1  28
TORSDOF 17
ENDMDL
MODEL 3
REMARK VINA RESULT:     -11.9      2.700      4.022
REMARK SMILES N#C/C(=C\c1ccc(-c2cc(C(F)(F)F)ccc2Cl)o1)C(=O)NCCCCCCNC(=O)c1ccc(-c2c3nc(c(-c4c(F)c(F)c(F)c(F)c4F)c4ccc([nH]4)c(-c4c(F)c(F)c(F)c(F)c4F)c4nc(c(-c5c(F)c(F)c(F)c(F)c5F)c5ccc2[nH]5)C=C4)C=C3)cc1
REMARK SMILES IDX 26 1 25 2 24 3 23 4 21 5 22 6 3 8 4 9 2 10 1 11 5 12 6 13
REMARK SMILES IDX 20 14 7 15 8 16 9 17 10 18 18 19 11 20 17 21 19 22 16 23
REMARK SMILES IDX 12 24 13 25 14 26 15 27 27 28 28 29 29 30 30 31 31 32 32 34
REMARK SMILES IDX 33 35 34 36 95 37 35 38 94 39 36 40 37 41 38 42 88 43 39 44
REMARK SMILES IDX 93 45 87 46 89 47 40 48 92 49 86 50 85 51 41 53 73 54 53 55
REMARK SMILES IDX 72 56 54 57 57 58 71 59 90 60 55 61 56 62 70 64 91 65 58 66
REMARK SMILES IDX 42 67 43 68 51 69 44 70 45 71 49 72 52 73 46 74 47 75 50 76
REMARK SMILES IDX 48 77 74 78 75 79 83 80 76 81 77 82 81 83 84 84 78 85 79 86
REMARK SMILES IDX 82 87 80 88 59 89 60 90 68 91 61 92 62 93 66 94 69 95 63 96
REMARK SMILES IDX 64 97 67 98 65 99
REMARK H PARENT 23 7 30 33 89 52 57 63
REMARK Flexibility Score: inf
ROOT
ATOM      1  C   UNL A   1      30.640  27.715  24.207  1.00  0.00     0.002 C 
ENDROOT
BRANCH   1   2
ATOM      2  C   UNL A   1      30.590  26.728  25.370  1.00  0.00     0.021 C 
BRANCH   2   3
ATOM      3  C   UNL A   1      30.633  25.258  24.981  1.00  0.00     0.116 C 
BRANCH   3   4
ATOM      4  N   UNL A   1      30.504  24.348  26.108  1.00  0.00    -0.351 N 
ATOM      5  C   UNL A   1      31.351  23.459  26.706  1.00  0.00     0.262 C 
ATOM      6  O   UNL A   1      30.921  22.838  27.678  1.00  0.00    -0.268 OA
ATOM      7  H   UNL A   1      29.615  24.380  26.531  1.00  0.00     0.163 HD
BRANCH   5   8
ATOM      8  C   UNL A   1      32.723  23.185  26.208  1.00  0.00     0.120 C 
ATOM      9  C   UNL A   1      33.745  24.077  26.136  1.00  0.00     0.072 C 
BRANCH   8  10
ATOM     10  C   UNL A   1      33.239  21.755  26.200  1.00  0.00     0.105 C 
ATOM     11  N   UNL A   1      33.668  20.569  26.193  1.00  0.00    -0.192 NA
ENDBRANCH   8  10
BRANCH   9  12
ATOM     12  C   UNL A   1      35.046  23.778  25.596  1.00  0.00     0.129 A 
ATOM     13  C   UNL A   1      35.506  23.803  24.279  1.00  0.00     0.051 A 
ATOM     14  O   UNL A   1      36.129  23.446  26.391  1.00  0.00    -0.457 OA
ATOM     15  C   UNL A   1      36.865  23.424  24.273  1.00  0.00     0.051 A 
ATOM     16  C   UNL A   1      37.216  23.243  25.589  1.00  0.00     0.136 A 
BRANCH  16  17
ATOM     17  C   UNL A   1      38.470  22.895  26.246  1.00  0.00     0.036 A 
ATOM     18  C   UNL A   1      39.033  21.626  26.021  1.00  0.00     0.026 A 
ATOM     19  C   UNL A   1      39.174  23.802  27.059  1.00  0.00     0.052 A 
ATOM     20  C   UNL A   1      40.278  21.266  26.574  1.00  0.00     0.056 A 
ATOM     21  C   UNL A   1      40.407  23.450  27.619  1.00  0.00     0.022 A 
ATOM     22  Cl  UNL A   1      38.569  25.379  27.443  1.00  0.00    -0.084 Cl
ATOM     23  C   UNL A   1      40.957  22.192  27.375  1.00  0.00     0.014 A 
BRANCH  20  24
ATOM     24  C   UNL A   1      40.865  19.902  26.294  1.00  0.00     0.416 C 
ATOM     25  F   UNL A   1      41.400  19.329  27.406  1.00  0.00    -0.166 F 
ATOM     26  F   UNL A   1      39.939  19.023  25.824  1.00  0.00    -0.166 F 
ATOM     27  F   UNL A   1      41.863  19.922  25.367  1.00  0.00    -0.166 F 
ENDBRANCH  20  24
ENDBRANCH  16  17
ENDBRANCH   9  12
ENDBRANCH   5   8
ENDBRANCH   3   4
ENDBRANCH   2   3
ENDBRANCH   1   2
BRANCH   1  28
ATOM     28  C   UNL A   1      31.731  28.789  24.286  1.00  0.00     0.002 C 
BRANCH  28  29
ATOM     29  C   UNL A   1      33.172  28.287  24.436  1.00  0.00     0.021 C 
BRANCH  29  30
ATOM     30  C   UNL A   1      33.993  28.952  25.538  1.00  0.00     0.116 C 
BRANCH  30  31
ATOM     31  N   UNL A   1      33.357  30.150  26.051  1.00  0.00    -0.352 N 
ATOM     32  C   UNL A   1      33.709  30.958  27.101  1.00  0.00     0.251 C 
ATOM     33  H   UNL A   1      32.544  30.427  25.570  1.00  0.00     0.163 HD
ATOM     34  O   UNL A   1      32.929  31.824  27.486  1.00  0.00    -0.269 OA
BRANCH  32  35
ATOM     35  C   UNL A   1      35.012  30.794  27.785  1.00  0.00     0.039 A 
ATOM     36  C   UNL A   1      35.260  29.593  28.457  1.00  0.00     0.014 A 
ATOM     37  C   UNL A   1      35.956  31.825  27.829  1.00  0.00     0.014 A 
ATOM     38  C   UNL A   1      36.462  29.413  29.143  1.00  0.00     0.010 A 
ATOM     39  C   UNL A   1      37.182  31.623  28.462  1.00  0.00     0.010 A 
ATOM     40  C   UNL A   1      37.441  30.421  29.137  1.00  0.00    -0.014 A 
BRANCH  40  41
ATOM     41  C   UNL A   1      38.728  30.222  29.850  1.00  0.00     0.031 A 
ATOM     42  C   UNL A   1      38.946  30.823  31.210  1.00  0.00     0.074 A 
ATOM     43  C   UNL A   1      39.710  29.514  29.259  1.00  0.00     0.049 A 
ATOM     44  N   UNL A   1      39.998  30.753  31.988  1.00  0.00    -0.248 NA
ATOM     45  C   UNL A   1      37.845  31.626  31.764  1.00  0.00     0.031 C 
ATOM     46  C   UNL A   1      39.638  28.928  27.920  1.00  0.00     0.029 A 
ATOM     47  N   UNL A   1      40.959  29.169  29.708  1.00  0.00    -0.354 N 
ATOM     48  C   UNL A   1      39.686  31.500  33.115  1.00  0.00     0.074 A 
ATOM     49  C   UNL A   1      38.371  32.063  32.899  1.00  0.00     0.031 C 
ATOM     50  C   UNL A   1      40.786  28.279  27.664  1.00  0.00     0.029 A 
ATOM     51  C   UNL A   1      41.678  28.421  28.810  1.00  0.00     0.049 A 
ATOM     52  H   UNL A   1      41.308  29.434  30.590  1.00  0.00     0.167 HD
ATOM     53  C   UNL A   1      40.418  31.678  34.243  1.00  0.00     0.037 A 
ATOM     54  C   UNL A   1      42.918  27.902  28.903  1.00  0.00     0.037 A 
ATOM     55  C   UNL A   1      41.720  31.106  34.463  1.00  0.00     0.049 A 
ATOM     56  C   UNL A   1      43.700  28.095  30.174  1.00  0.00     0.074 A 
ATOM     57  C   UNL A   1      42.531  31.204  35.580  1.00  0.00     0.029 A 
ATOM     58  N   UNL A   1      42.401  30.323  33.543  1.00  0.00    -0.354 N 
ATOM     59  N   UNL A   1      43.368  28.755  31.257  1.00  0.00    -0.248 NA
ATOM     60  C   UNL A   1      45.022  27.457  30.240  1.00  0.00     0.031 C 
ATOM     61  C   UNL A   1      43.715  30.504  35.326  1.00  0.00     0.029 A 
ATOM     62  C   UNL A   1      43.625  29.936  34.065  1.00  0.00     0.049 A 
ATOM     63  H   UNL A   1      42.065  30.077  32.651  1.00  0.00     0.167 HD
ATOM     64  C   UNL A   1      44.427  28.593  32.140  1.00  0.00     0.074 A 
ATOM     65  C   UNL A   1      45.402  27.756  31.473  1.00  0.00     0.031 C 
ATOM     66  C   UNL A   1      44.582  29.099  33.388  1.00  0.00     0.037 A 
BRANCH  53  67
ATOM     67  C   UNL A   1      39.814  32.515  35.334  1.00  0.00     0.064 A 
ATOM     68  C   UNL A   1      38.988  31.947  36.316  1.00  0.00     0.173 A 
ATOM     69  C   UNL A   1      40.094  33.886  35.424  1.00  0.00     0.173 A 
ATOM     70  F   UNL A   1      38.681  30.642  36.267  1.00  0.00    -0.203 F 
ATOM     71  C   UNL A   1      38.443  32.726  37.332  1.00  0.00     0.198 A 
ATOM     72  C   UNL A   1      39.569  34.657  36.458  1.00  0.00     0.198 A 
ATOM     73  F   UNL A   1      40.883  34.477  34.514  1.00  0.00    -0.203 F 
ATOM     74  F   UNL A   1      37.620  32.170  38.232  1.00  0.00    -0.200 F 
ATOM     75  C   UNL A   1      38.739  34.079  37.406  1.00  0.00     0.200 A 
ATOM     76  F   UNL A   1      39.865  35.961  36.536  1.00  0.00    -0.200 F 
ATOM     77  F   UNL A   1      38.219  34.826  38.390  1.00  0.00    -0.200 F 
ENDBRANCH  53  67
BRANCH  54  78
ATOM     78  C   UNL A   1      43.482  27.123  27.772  1.00  0.00     0.064 A 
ATOM     79  C   UNL A   1      43.393  25.724  27.744  1.00  0.00     0.173 A 
ATOM     80  C   UNL A   1      44.125  27.757  26.701  1.00  0.00     0.173 A 
ATOM     81  F   UNL A   1      42.802  25.071  28.756  1.00  0.00    -0.203 F 
ATOM     82  C   UNL A   1      43.947  24.989  26.698  1.00  0.00     0.198 A 
ATOM     83  C   UNL A   1      44.656  27.023  25.642  1.00  0.00     0.198 A 
ATOM     84  F   UNL A   1      44.231  29.095  26.677  1.00  0.00    -0.203 F 
ATOM     85  F   UNL A   1      43.889  23.650  26.720  1.00  0.00    -0.200 F 
ATOM     86  C   UNL A   1      44.575  25.639  25.646  1.00  0.00     0.200 A 
ATOM     87  F   UNL A   1      45.249  27.656  24.622  1.00  0.00    -0.200 F 
ATOM     88  F   UNL A   1      45.106  24.931  24.641  1.00  0.00    -0.200 F 
ENDBRANCH  54  78
BRANCH  66  89
ATOM     89  C   UNL A   1      45.840  28.736  34.119  1.00  0.00     0.064 A 
ATOM     90  C   UNL A   1      45.937  27.555  34.870  1.00  0.00     0.173 A 
ATOM     91  C   UNL A   1      46.967  29.569  34.053  1.00  0.00     0.173 A 
ATOM     92  F   UNL A   1      44.881  26.734  34.976  1.00  0.00    -0.203 F 
ATOM     93  C   UNL A   1      47.107  27.236  35.553  1.00  0.00     0.198 A 
ATOM     94  C   UNL A   1      48.145  29.233  34.714  1.00  0.00     0.198 A 
ATOM     95  F   UNL A   1      46.926  30.706  33.343  1.00  0.00    -0.203 F 
ATOM     96  F   UNL A   1      47.161  26.129  36.306  1.00  0.00    -0.200 F 
ATOM     97  C   UNL A   1      48.211  28.073  35.471  1.00  0.00     0.200 A 
ATOM     98  F   UNL A   1      49.214  30.037  34.626  1.00  0.00    -0.200 F 
ATOM     99  F   UNL A   1      49.337  27.765  36.129  1.00  0.00    -0.200 F 
ENDBRANCH  66  89
ENDBRANCH  40  41
ENDBRANCH  32  35
ENDBRANCH  30  31
ENDBRANCH  29  30
ENDBRANCH  28  29
ENDBRANCH   1  28
TORSDOF 17
ENDMDL
