MODEL 1
REMARK VINA RESULT:      -8.1      0.000      0.000
REMARK SMILES CCCCCCCCNC(=O)Oc1cccc(-c2ccc([C@@H](C)C(=O)NCCCCCCNC(=O)c3ccc(-c4c5nc(c(-c6c(F)c(F)c(F)c(F)c6F)c6ccc([nH]6)c(-c6c(F)c(F)c(F)c(F)c6F)c6nc(c(-c7c(F)c(F)c(F)c(F)c7F)c7ccc4[nH]7)C=C6)C=C5)cc3)cc2F)c1
REMARK SMILES IDX 22 1 23 2 21 3 18 4 19 5 100 6 20 7 99 8 101 9 17 10 13 11
REMARK SMILES IDX 14 12 102 13 15 14 16 15 12 16 10 17 9 18 11 20 8 21 7 22
REMARK SMILES IDX 6 23 5 24 4 25 3 26 2 27 1 28 24 29 25 30 26 31 27 33 28 34
REMARK SMILES IDX 29 35 30 36 31 37 32 38 33 39 34 40 35 42 36 43 37 44 98 45
REMARK SMILES IDX 38 46 97 47 39 48 40 49 41 50 91 51 42 52 96 53 90 54 92 55
REMARK SMILES IDX 43 56 95 57 89 58 88 59 44 61 76 62 56 63 75 64 57 65 60 66
REMARK SMILES IDX 74 67 93 68 58 69 59 70 73 72 94 73 61 74 45 75 46 76 54 77
REMARK SMILES IDX 47 78 48 79 52 80 55 81 49 82 50 83 53 84 51 85 77 86 78 87
REMARK SMILES IDX 86 88 79 89 80 90 84 91 87 92 81 93 82 94 85 95 83 96 62 97
REMARK SMILES IDX 63 98 71 99 64 100 65 101 69 102 72 103 66 104 67 105 70 106
REMARK SMILES IDX 68 107
REMARK H PARENT 9 19 26 32 33 41 92 60 60 71
REMARK Flexibility Score: inf
ROOT
ATOM      1  C   UNL A   1      38.707  29.342  29.075  1.00  0.00     0.105 C 
ATOM      2  C   UNL A   1      38.340  28.450  30.261  1.00  0.00     0.023 C 
ENDROOT
BRANCH   1   3
ATOM      3  C   UNL A   1      40.004  28.999  28.362  1.00  0.00    -0.033 A 
ATOM      4  C   UNL A   1      42.447  28.188  27.104  1.00  0.00     0.018 A 
ATOM      5  C   UNL A   1      41.315  28.552  26.357  1.00  0.00     0.012 A 
ATOM      6  C   UNL A   1      42.330  28.282  28.499  1.00  0.00     0.131 A 
ATOM      7  C   UNL A   1      40.131  28.980  26.971  1.00  0.00     0.005 A 
ATOM      8  C   UNL A   1      41.134  28.658  29.119  1.00  0.00     0.044 A 
ATOM      9  F   UNL A   1      43.379  28.014  29.292  1.00  0.00    -0.206 F 
BRANCH   4  10
ATOM     10  C   UNL A   1      43.673  27.709  26.428  1.00  0.00    -0.012 A 
ATOM     11  C   UNL A   1      44.876  26.035  25.137  1.00  0.00     0.133 A 
ATOM     12  C   UNL A   1      46.008  26.839  25.072  1.00  0.00     0.047 A 
ATOM     13  C   UNL A   1      43.723  26.451  25.807  1.00  0.00     0.056 A 
ATOM     14  C   UNL A   1      45.983  28.087  25.680  1.00  0.00     0.004 A 
ATOM     15  C   UNL A   1      44.832  28.511  26.356  1.00  0.00     0.009 A 
BRANCH  11  16
ATOM     16  O   UNL A   1      44.988  24.736  24.623  1.00  0.00    -0.410 OA
BRANCH  16  17
ATOM     17  C   UNL A   1      46.229  24.123  24.664  1.00  0.00     0.412 C 
ATOM     18  N   UNL A   1      46.353  23.258  25.717  1.00  0.00    -0.321 N 
ATOM     19  H   UNL A   1      47.220  22.805  25.820  1.00  0.00     0.167 HD
ATOM     20  O   UNL A   1      47.154  24.308  23.883  1.00  0.00    -0.224 OA
BRANCH  18  21
ATOM     21  C   UNL A   1      45.330  22.942  26.693  1.00  0.00     0.119 C 
BRANCH  21  22
ATOM     22  C   UNL A   1      45.540  23.699  28.005  1.00  0.00     0.021 C 
BRANCH  22  23
ATOM     23  C   UNL A   1      44.365  23.615  28.988  1.00  0.00     0.002 C 
BRANCH  23  24
ATOM     24  C   UNL A   1      43.410  24.814  28.965  1.00  0.00     0.000 C 
BRANCH  24  25
ATOM     25  C   UNL A   1      41.934  24.460  28.749  1.00  0.00    -0.000 C 
BRANCH  25  26
ATOM     26  C   UNL A   1      41.477  24.457  27.287  1.00  0.00    -0.000 C 
BRANCH  26  27
ATOM     27  C   UNL A   1      40.081  25.035  27.038  1.00  0.00    -0.003 C 
ATOM     28  C   UNL A   1      39.357  25.438  28.314  1.00  0.00     0.004 C 
ENDBRANCH  26  27
ENDBRANCH  25  26
ENDBRANCH  24  25
ENDBRANCH  23  24
ENDBRANCH  22  23
ENDBRANCH  21  22
ENDBRANCH  18  21
ENDBRANCH  16  17
ENDBRANCH  11  16
ENDBRANCH   4  10
ENDBRANCH   1   3
BRANCH   1  29
ATOM     29  C   UNL A   1      38.530  30.844  29.345  1.00  0.00     0.227 C 
ATOM     30  O   UNL A   1      39.376  31.451  30.014  1.00  0.00    -0.274 OA
ATOM     31  N   UNL A   1      37.488  31.581  28.876  1.00  0.00    -0.356 N 
ATOM     32  H   UNL A   1      37.560  32.545  29.064  1.00  0.00     0.163 HD
BRANCH  31  33
ATOM     33  C   UNL A   1      36.291  31.207  28.151  1.00  0.00     0.116 C 
BRANCH  33  34
ATOM     34  C   UNL A   1      35.027  31.442  28.982  1.00  0.00     0.021 C 
BRANCH  34  35
ATOM     35  C   UNL A   1      34.641  32.919  29.118  1.00  0.00     0.002 C 
BRANCH  35  36
ATOM     36  C   UNL A   1      34.871  33.528  30.508  1.00  0.00     0.002 C 
BRANCH  36  37
ATOM     37  C   UNL A   1      35.204  32.530  31.620  1.00  0.00     0.021 C 
BRANCH  37  38
ATOM     38  C   UNL A   1      36.594  32.692  32.230  1.00  0.00     0.116 C 
BRANCH  38  39
ATOM     39  N   UNL A   1      36.540  32.829  33.680  1.00  0.00    -0.352 N 
ATOM     40  C   UNL A   1      37.360  32.297  34.643  1.00  0.00     0.251 C 
ATOM     41  H   UNL A   1      35.802  33.385  34.019  1.00  0.00     0.163 HD
ATOM     42  O   UNL A   1      37.031  32.327  35.825  1.00  0.00    -0.269 OA
BRANCH  40  43
ATOM     43  C   UNL A   1      38.640  31.669  34.255  1.00  0.00     0.039 A 
ATOM     44  C   UNL A   1      38.620  30.512  33.473  1.00  0.00     0.014 A 
ATOM     45  C   UNL A   1      39.855  32.221  34.668  1.00  0.00     0.014 A 
ATOM     46  C   UNL A   1      39.822  29.955  33.031  1.00  0.00     0.010 A 
ATOM     47  C   UNL A   1      41.050  31.703  34.178  1.00  0.00     0.010 A 
ATOM     48  C   UNL A   1      41.044  30.575  33.344  1.00  0.00    -0.014 A 
BRANCH  48  49
ATOM     49  C   UNL A   1      42.325  30.095  32.771  1.00  0.00     0.031 A 
ATOM     50  C   UNL A   1      42.957  30.813  31.616  1.00  0.00     0.074 A 
ATOM     51  C   UNL A   1      42.867  28.954  33.236  1.00  0.00     0.049 A 
ATOM     52  N   UNL A   1      44.009  30.483  30.910  1.00  0.00    -0.248 NA
ATOM     53  C   UNL A   1      42.305  32.057  31.180  1.00  0.00     0.031 C 
ATOM     54  C   UNL A   1      42.330  28.152  34.336  1.00  0.00     0.029 A 
ATOM     55  N   UNL A   1      43.979  28.260  32.831  1.00  0.00    -0.354 N 
ATOM     56  C   UNL A   1      44.141  31.471  29.945  1.00  0.00     0.074 A 
ATOM     57  C   UNL A   1      43.032  32.386  30.123  1.00  0.00     0.031 C 
ATOM     58  C   UNL A   1      43.124  27.087  34.533  1.00  0.00     0.029 A 
ATOM     59  C   UNL A   1      44.196  27.106  33.542  1.00  0.00     0.049 A 
ATOM     60  H   UNL A   1      44.567  28.562  32.101  1.00  0.00     0.167 HD
ATOM     61  C   UNL A   1      45.110  31.611  29.008  1.00  0.00     0.037 A 
ATOM     62  C   UNL A   1      45.144  26.159  33.401  1.00  0.00     0.037 A 
ATOM     63  C   UNL A   1      46.214  30.701  28.841  1.00  0.00     0.049 A 
ATOM     64  C   UNL A   1      46.168  26.303  32.311  1.00  0.00     0.074 A 
ATOM     65  C   UNL A   1      47.282  30.789  27.967  1.00  0.00     0.029 A 
ATOM     66  N   UNL A   1      46.381  29.526  29.560  1.00  0.00    -0.354 N 
ATOM     67  N   UNL A   1      46.321  27.273  31.443  1.00  0.00    -0.248 NA
ATOM     68  C   UNL A   1      47.146  25.214  32.176  1.00  0.00     0.031 C 
ATOM     69  C   UNL A   1      48.068  29.641  28.119  1.00  0.00     0.029 A 
ATOM     70  C   UNL A   1      47.514  28.859  29.120  1.00  0.00     0.049 A 
ATOM     71  H   UNL A   1      45.783  29.211  30.276  1.00  0.00     0.167 HD
ATOM     72  C   UNL A   1      47.420  26.923  30.671  1.00  0.00     0.074 A 
ATOM     73  C   UNL A   1      47.904  25.657  31.182  1.00  0.00     0.031 C 
ATOM     74  C   UNL A   1      47.978  27.594  29.633  1.00  0.00     0.037 A 
BRANCH  61  75
ATOM     75  C   UNL A   1      45.008  32.792  28.086  1.00  0.00     0.064 A 
ATOM     76  C   UNL A   1      44.337  32.709  26.857  1.00  0.00     0.173 A 
ATOM     77  C   UNL A   1      45.578  34.024  28.440  1.00  0.00     0.173 A 
ATOM     78  F   UNL A   1      43.782  31.552  26.466  1.00  0.00    -0.203 F 
ATOM     79  C   UNL A   1      44.275  33.804  25.998  1.00  0.00     0.198 A 
ATOM     80  C   UNL A   1      45.488  35.125  27.592  1.00  0.00     0.198 A 
ATOM     81  F   UNL A   1      46.225  34.161  29.607  1.00  0.00    -0.203 F 
ATOM     82  F   UNL A   1      43.680  33.684  24.803  1.00  0.00    -0.200 F 
ATOM     83  C   UNL A   1      44.847  35.012  26.367  1.00  0.00     0.200 A 
ATOM     84  F   UNL A   1      46.030  36.296  27.956  1.00  0.00    -0.200 F 
ATOM     85  F   UNL A   1      44.788  36.064  25.540  1.00  0.00    -0.200 F 
ENDBRANCH  61  75
BRANCH  62  86
ATOM     86  C   UNL A   1      45.172  25.003  34.331  1.00  0.00     0.064 A 
ATOM     87  C   UNL A   1      44.645  23.764  33.945  1.00  0.00     0.173 A 
ATOM     88  C   UNL A   1      45.745  25.101  35.608  1.00  0.00     0.173 A 
ATOM     89  F   UNL A   1      44.069  23.629  32.740  1.00  0.00    -0.203 F 
ATOM     90  C   UNL A   1      44.685  22.666  34.800  1.00  0.00     0.198 A 
ATOM     91  C   UNL A   1      45.805  23.996  36.455  1.00  0.00     0.198 A 
ATOM     92  F   UNL A   1      46.265  26.264  36.025  1.00  0.00    -0.203 F 
ATOM     93  F   UNL A   1      44.148  21.500  34.416  1.00  0.00    -0.200 F 
ATOM     94  C   UNL A   1      45.272  22.780  36.052  1.00  0.00     0.200 A 
ATOM     95  F   UNL A   1      46.386  24.106  37.657  1.00  0.00    -0.200 F 
ATOM     96  F   UNL A   1      45.321  21.721  36.870  1.00  0.00    -0.200 F 
ENDBRANCH  62  86
BRANCH  74  97
ATOM     97  C   UNL A   1      49.181  26.975  28.983  1.00  0.00     0.064 A 
ATOM     98  C   UNL A   1      49.062  26.172  27.839  1.00  0.00     0.173 A 
ATOM     99  C   UNL A   1      50.468  27.226  29.481  1.00  0.00     0.173 A 
ATOM    100  F   UNL A   1      47.851  25.888  27.337  1.00  0.00    -0.203 F 
ATOM    101  C   UNL A   1      50.188  25.631  27.226  1.00  0.00     0.198 A 
ATOM    102  C   UNL A   1      51.594  26.705  28.849  1.00  0.00     0.198 A 
ATOM    103  F   UNL A   1      50.634  27.989  30.571  1.00  0.00    -0.203 F 
ATOM    104  F   UNL A   1      50.050  24.836  26.156  1.00  0.00    -0.200 F 
ATOM    105  C   UNL A   1      51.453  25.905  27.726  1.00  0.00     0.200 A 
ATOM    106  F   UNL A   1      52.816  26.980  29.327  1.00  0.00    -0.200 F 
ATOM    107  F   UNL A   1      52.537  25.392  27.126  1.00  0.00    -0.200 F 
ENDBRANCH  74  97
ENDBRANCH  48  49
ENDBRANCH  40  43
ENDBRANCH  38  39
ENDBRANCH  37  38
ENDBRANCH  36  37
ENDBRANCH  35  36
ENDBRANCH  34  35
ENDBRANCH  33  34
ENDBRANCH  31  33
ENDBRANCH   1  29
TORSDOF 24
ENDMDL
MODEL 2
REMARK VINA RESULT:      -7.9      3.496     10.001
REMARK SMILES CCCCCCCCNC(=O)Oc1cccc(-c2ccc([C@@H](C)C(=O)NCCCCCCNC(=O)c3ccc(-c4c5nc(c(-c6c(F)c(F)c(F)c(F)c6F)c6ccc([nH]6)c(-c6c(F)c(F)c(F)c(F)c6F)c6nc(c(-c7c(F)c(F)c(F)c(F)c7F)c7ccc4[nH]7)C=C6)C=C5)cc3)cc2F)c1
REMARK SMILES IDX 22 1 23 2 21 3 18 4 19 5 100 6 20 7 99 8 101 9 17 10 13 11
REMARK SMILES IDX 14 12 102 13 15 14 16 15 12 16 10 17 9 18 11 20 8 21 7 22
REMARK SMILES IDX 6 23 5 24 4 25 3 26 2 27 1 28 24 29 25 30 26 31 27 33 28 34
REMARK SMILES IDX 29 35 30 36 31 37 32 38 33 39 34 40 35 42 36 43 37 44 98 45
REMARK SMILES IDX 38 46 97 47 39 48 40 49 41 50 91 51 42 52 96 53 90 54 92 55
REMARK SMILES IDX 43 56 95 57 89 58 88 59 44 61 76 62 56 63 75 64 57 65 60 66
REMARK SMILES IDX 74 67 93 68 58 69 59 70 73 72 94 73 61 74 45 75 46 76 54 77
REMARK SMILES IDX 47 78 48 79 52 80 55 81 49 82 50 83 53 84 51 85 77 86 78 87
REMARK SMILES IDX 86 88 79 89 80 90 84 91 87 92 81 93 82 94 85 95 83 96 62 97
REMARK SMILES IDX 63 98 71 99 64 100 65 101 69 102 72 103 66 104 67 105 70 106
REMARK SMILES IDX 68 107
REMARK H PARENT 9 19 26 32 33 41 92 60 60 71
REMARK Flexibility Score: inf
ROOT
ATOM      1  C   UNL A   1      38.550  29.165  29.179  1.00  0.00     0.105 C 
ATOM      2  C   UNL A   1      38.497  29.498  27.688  1.00  0.00     0.023 C 
ENDROOT
BRANCH   1   3
ATOM      3  C   UNL A   1      37.967  30.212  30.114  1.00  0.00    -0.033 A 
ATOM      4  C   UNL A   1      36.793  32.267  31.728  1.00  0.00     0.018 A 
ATOM      5  C   UNL A   1      36.501  30.908  31.931  1.00  0.00     0.012 A 
ATOM      6  C   UNL A   1      37.722  32.560  30.719  1.00  0.00     0.131 A 
ATOM      7  C   UNL A   1      37.100  29.901  31.164  1.00  0.00     0.005 A 
ATOM      8  C   UNL A   1      38.283  31.563  29.914  1.00  0.00     0.044 A 
ATOM      9  F   UNL A   1      38.109  33.825  30.494  1.00  0.00    -0.206 F 
BRANCH   4  10
ATOM     10  C   UNL A   1      36.121  33.310  32.534  1.00  0.00    -0.012 A 
ATOM     11  C   UNL A   1      34.776  35.329  32.705  1.00  0.00     0.133 A 
ATOM     12  C   UNL A   1      34.775  35.261  34.093  1.00  0.00     0.047 A 
ATOM     13  C   UNL A   1      35.441  34.379  31.928  1.00  0.00     0.056 A 
ATOM     14  C   UNL A   1      35.443  34.214  34.715  1.00  0.00     0.004 A 
ATOM     15  C   UNL A   1      36.114  33.258  33.944  1.00  0.00     0.009 A 
BRANCH  11  16
ATOM     16  O   UNL A   1      34.202  36.468  32.124  1.00  0.00    -0.410 OA
BRANCH  16  17
ATOM     17  C   UNL A   1      32.828  36.491  31.952  1.00  0.00     0.412 C 
ATOM     18  N   UNL A   1      32.463  36.452  30.634  1.00  0.00    -0.321 N 
ATOM     19  H   UNL A   1      31.499  36.490  30.438  1.00  0.00     0.167 HD
ATOM     20  O   UNL A   1      31.988  36.552  32.840  1.00  0.00    -0.224 OA
BRANCH  18  21
ATOM     21  C   UNL A   1      33.358  36.361  29.497  1.00  0.00     0.119 C 
BRANCH  21  22
ATOM     22  C   UNL A   1      33.565  34.915  29.048  1.00  0.00     0.021 C 
BRANCH  22  23
ATOM     23  C   UNL A   1      35.020  34.542  28.738  1.00  0.00     0.002 C 
BRANCH  23  24
ATOM     24  C   UNL A   1      35.209  33.209  28.005  1.00  0.00     0.000 C 
BRANCH  24  25
ATOM     25  C   UNL A   1      34.639  31.986  28.731  1.00  0.00    -0.000 C 
BRANCH  25  26
ATOM     26  C   UNL A   1      35.009  30.634  28.111  1.00  0.00    -0.000 C 
BRANCH  26  27
ATOM     27  C   UNL A   1      33.934  30.007  27.221  1.00  0.00    -0.003 C 
ATOM     28  C   UNL A   1      34.360  28.686  26.599  1.00  0.00     0.004 C 
ENDBRANCH  26  27
ENDBRANCH  25  26
ENDBRANCH  24  25
ENDBRANCH  23  24
ENDBRANCH  22  23
ENDBRANCH  21  22
ENDBRANCH  18  21
ENDBRANCH  16  17
ENDBRANCH  11  16
ENDBRANCH   4  10
ENDBRANCH   1   3
BRANCH   1  29
ATOM     29  C   UNL A   1      39.902  28.606  29.646  1.00  0.00     0.227 C 
ATOM     30  O   UNL A   1      40.594  29.254  30.441  1.00  0.00    -0.274 OA
ATOM     31  N   UNL A   1      40.403  27.405  29.249  1.00  0.00    -0.356 N 
ATOM     32  H   UNL A   1      41.240  27.149  29.700  1.00  0.00     0.163 HD
BRANCH  31  33
ATOM     33  C   UNL A   1      39.930  26.434  28.284  1.00  0.00     0.116 C 
BRANCH  33  34
ATOM     34  C   UNL A   1      40.751  25.143  28.329  1.00  0.00     0.021 C 
BRANCH  34  35
ATOM     35  C   UNL A   1      41.999  25.171  27.440  1.00  0.00     0.002 C 
BRANCH  35  36
ATOM     36  C   UNL A   1      43.280  24.636  28.097  1.00  0.00     0.002 C 
BRANCH  36  37
ATOM     37  C   UNL A   1      44.321  24.052  27.137  1.00  0.00     0.021 C 
BRANCH  37  38
ATOM     38  C   UNL A   1      44.079  24.368  25.663  1.00  0.00     0.116 C 
BRANCH  38  39
ATOM     39  N   UNL A   1      45.289  24.836  25.002  1.00  0.00    -0.352 N 
ATOM     40  C   UNL A   1      45.893  26.068  25.047  1.00  0.00     0.251 C 
ATOM     41  H   UNL A   1      45.740  24.169  24.437  1.00  0.00     0.163 HD
ATOM     42  O   UNL A   1      46.778  26.355  24.246  1.00  0.00    -0.269 OA
BRANCH  40  43
ATOM     43  C   UNL A   1      45.466  27.061  26.053  1.00  0.00     0.039 A 
ATOM     44  C   UNL A   1      44.184  27.610  25.966  1.00  0.00     0.014 A 
ATOM     45  C   UNL A   1      46.333  27.452  27.076  1.00  0.00     0.014 A 
ATOM     46  C   UNL A   1      43.738  28.488  26.957  1.00  0.00     0.010 A 
ATOM     47  C   UNL A   1      45.869  28.279  28.096  1.00  0.00     0.010 A 
ATOM     48  C   UNL A   1      44.563  28.791  28.053  1.00  0.00    -0.014 A 
BRANCH  48  49
ATOM     49  C   UNL A   1      44.069  29.601  29.193  1.00  0.00     0.031 A 
ATOM     50  C   UNL A   1      43.959  31.092  29.075  1.00  0.00     0.074 A 
ATOM     51  C   UNL A   1      43.810  28.995  30.367  1.00  0.00     0.049 A 
ATOM     52  N   UNL A   1      43.658  31.976  29.992  1.00  0.00    -0.248 NA
ATOM     53  C   UNL A   1      44.250  31.669  27.753  1.00  0.00     0.031 C 
ATOM     54  C   UNL A   1      43.907  27.556  30.612  1.00  0.00     0.029 A 
ATOM     55  N   UNL A   1      43.428  29.514  31.578  1.00  0.00    -0.354 N 
ATOM     56  C   UNL A   1      43.731  33.211  29.364  1.00  0.00     0.074 A 
ATOM     57  C   UNL A   1      44.153  32.967  28.000  1.00  0.00     0.031 C 
ATOM     58  C   UNL A   1      43.573  27.304  31.888  1.00  0.00     0.029 A 
ATOM     59  C   UNL A   1      43.288  28.567  32.562  1.00  0.00     0.049 A 
ATOM     60  H   UNL A   1      43.270  30.474  31.728  1.00  0.00     0.167 HD
ATOM     61  C   UNL A   1      43.451  34.435  29.874  1.00  0.00     0.037 A 
ATOM     62  C   UNL A   1      42.979  28.703  33.866  1.00  0.00     0.037 A 
ATOM     63  C   UNL A   1      43.025  34.670  31.229  1.00  0.00     0.049 A 
ATOM     64  C   UNL A   1      42.739  30.077  34.424  1.00  0.00     0.074 A 
ATOM     65  C   UNL A   1      42.654  35.863  31.824  1.00  0.00     0.029 A 
ATOM     66  N   UNL A   1      42.925  33.689  32.205  1.00  0.00    -0.354 N 
ATOM     67  N   UNL A   1      42.749  31.233  33.807  1.00  0.00    -0.248 NA
ATOM     68  C   UNL A   1      42.455  30.165  35.863  1.00  0.00     0.031 C 
ATOM     69  C   UNL A   1      42.382  35.612  33.174  1.00  0.00     0.029 A 
ATOM     70  C   UNL A   1      42.537  34.255  33.409  1.00  0.00     0.049 A 
ATOM     71  H   UNL A   1      43.103  32.731  32.063  1.00  0.00     0.167 HD
ATOM     72  C   UNL A   1      42.456  32.184  34.775  1.00  0.00     0.074 A 
ATOM     73  C   UNL A   1      42.259  31.468  36.018  1.00  0.00     0.031 C 
ATOM     74  C   UNL A   1      42.356  33.530  34.642  1.00  0.00     0.037 A 
BRANCH  61  75
ATOM     75  C   UNL A   1      43.610  35.614  28.957  1.00  0.00     0.064 A 
ATOM     76  C   UNL A   1      44.856  36.227  28.755  1.00  0.00     0.173 A 
ATOM     77  C   UNL A   1      42.505  36.131  28.263  1.00  0.00     0.173 A 
ATOM     78  F   UNL A   1      45.943  35.777  29.402  1.00  0.00    -0.203 F 
ATOM     79  C   UNL A   1      44.983  37.337  27.925  1.00  0.00     0.198 A 
ATOM     80  C   UNL A   1      42.642  37.223  27.410  1.00  0.00     0.198 A 
ATOM     81  F   UNL A   1      41.292  35.579  28.413  1.00  0.00    -0.203 F 
ATOM     82  F   UNL A   1      46.172  37.942  27.795  1.00  0.00    -0.200 F 
ATOM     83  C   UNL A   1      43.878  37.832  27.249  1.00  0.00     0.200 A 
ATOM     84  F   UNL A   1      41.575  37.692  26.748  1.00  0.00    -0.200 F 
ATOM     85  F   UNL A   1      44.001  38.903  26.452  1.00  0.00    -0.200 F 
ENDBRANCH  61  75
BRANCH  62  86
ATOM     86  C   UNL A   1      42.863  27.497  34.723  1.00  0.00     0.064 A 
ATOM     87  C   UNL A   1      41.681  26.745  34.740  1.00  0.00     0.173 A 
ATOM     88  C   UNL A   1      43.930  27.056  35.520  1.00  0.00     0.173 A 
ATOM     89  F   UNL A   1      40.627  27.140  34.010  1.00  0.00    -0.203 F 
ATOM     90  C   UNL A   1      41.567  25.600  35.524  1.00  0.00     0.198 A 
ATOM     91  C   UNL A   1      43.824  25.897  36.286  1.00  0.00     0.198 A 
ATOM     92  F   UNL A   1      45.084  27.739  35.537  1.00  0.00    -0.203 F 
ATOM     93  F   UNL A   1      40.415  24.915  35.543  1.00  0.00    -0.200 F 
ATOM     94  C   UNL A   1      42.641  25.171  36.291  1.00  0.00     0.200 A 
ATOM     95  F   UNL A   1      44.868  25.478  37.014  1.00  0.00    -0.200 F 
ATOM     96  F   UNL A   1      42.536  24.063  37.035  1.00  0.00    -0.200 F 
ENDBRANCH  62  86
BRANCH  74  97
ATOM     97  C   UNL A   1      42.012  34.318  35.872  1.00  0.00     0.064 A 
ATOM     98  C   UNL A   1      43.009  34.892  36.675  1.00  0.00     0.173 A 
ATOM     99  C   UNL A   1      40.673  34.539  36.226  1.00  0.00     0.173 A 
ATOM    100  F   UNL A   1      44.304  34.692  36.388  1.00  0.00    -0.203 F 
ATOM    101  C   UNL A   1      42.677  35.649  37.795  1.00  0.00     0.198 A 
ATOM    102  C   UNL A   1      40.344  35.318  37.332  1.00  0.00     0.198 A 
ATOM    103  F   UNL A   1      39.683  34.012  35.489  1.00  0.00    -0.203 F 
ATOM    104  F   UNL A   1      43.645  36.158  38.569  1.00  0.00    -0.200 F 
ATOM    105  C   UNL A   1      41.345  35.868  38.117  1.00  0.00     0.200 A 
ATOM    106  F   UNL A   1      39.057  35.538  37.635  1.00  0.00    -0.200 F 
ATOM    107  F   UNL A   1      41.028  36.607  39.189  1.00  0.00    -0.200 F 
ENDBRANCH  74  97
ENDBRANCH  48  49
ENDBRANCH  40  43
ENDBRANCH  38  39
ENDBRANCH  37  38
ENDBRANCH  36  37
ENDBRANCH  35  36
ENDBRANCH  34  35
ENDBRANCH  33  34
ENDBRANCH  31  33
ENDBRANCH   1  29
TORSDOF 24
ENDMDL
MODEL 3
REMARK VINA RESULT:      -7.9      4.010     10.423
REMARK SMILES CCCCCCCCNC(=O)Oc1cccc(-c2ccc([C@@H](C)C(=O)NCCCCCCNC(=O)c3ccc(-c4c5nc(c(-c6c(F)c(F)c(F)c(F)c6F)c6ccc([nH]6)c(-c6c(F)c(F)c(F)c(F)c6F)c6nc(c(-c7c(F)c(F)c(F)c(F)c7F)c7ccc4[nH]7)C=C6)C=C5)cc3)cc2F)c1
REMARK SMILES IDX 22 1 23 2 21 3 18 4 19 5 100 6 20 7 99 8 101 9 17 10 13 11
REMARK SMILES IDX 14 12 102 13 15 14 16 15 12 16 10 17 9 18 11 20 8 21 7 22
REMARK SMILES IDX 6 23 5 24 4 25 3 26 2 27 1 28 24 29 25 30 26 31 27 33 28 34
REMARK SMILES IDX 29 35 30 36 31 37 32 38 33 39 34 40 35 42 36 43 37 44 98 45
REMARK SMILES IDX 38 46 97 47 39 48 40 49 41 50 91 51 42 52 96 53 90 54 92 55
REMARK SMILES IDX 43 56 95 57 89 58 88 59 44 61 76 62 56 63 75 64 57 65 60 66
REMARK SMILES IDX 74 67 93 68 58 69 59 70 73 72 94 73 61 74 45 75 46 76 54 77
REMARK SMILES IDX 47 78 48 79 52 80 55 81 49 82 50 83 53 84 51 85 77 86 78 87
REMARK SMILES IDX 86 88 79 89 80 90 84 91 87 92 81 93 82 94 85 95 83 96 62 97
REMARK SMILES IDX 63 98 71 99 64 100 65 101 69 102 72 103 66 104 67 105 70 106
REMARK SMILES IDX 68 107
REMARK H PARENT 9 19 26 32 33 41 92 60 60 71
REMARK Flexibility Score: inf
ROOT
ATOM      1  C   UNL A   1      33.469  24.680  25.637  1.00  0.00     0.105 C 
ATOM      2  C   UNL A   1      32.654  23.721  26.504  1.00  0.00     0.023 C 
ENDROOT
BRANCH   1   3
ATOM      3  C   UNL A   1      33.228  26.161  25.879  1.00  0.00    -0.033 A 
ATOM      4  C   UNL A   1      32.812  28.924  26.515  1.00  0.00     0.018 A 
ATOM      5  C   UNL A   1      33.780  28.516  25.582  1.00  0.00     0.012 A 
ATOM      6  C   UNL A   1      32.032  27.907  27.088  1.00  0.00     0.131 A 
ATOM      7  C   UNL A   1      33.961  27.169  25.247  1.00  0.00     0.005 A 
ATOM      8  C   UNL A   1      32.244  26.556  26.797  1.00  0.00     0.044 A 
ATOM      9  F   UNL A   1      31.042  28.206  27.943  1.00  0.00    -0.206 F 
BRANCH   4  10
ATOM     10  C   UNL A   1      32.665  30.351  26.873  1.00  0.00    -0.012 A 
ATOM     11  C   UNL A   1      33.492  32.374  27.941  1.00  0.00     0.133 A 
ATOM     12  C   UNL A   1      32.403  33.109  27.487  1.00  0.00     0.047 A 
ATOM     13  C   UNL A   1      33.627  31.015  27.650  1.00  0.00     0.056 A 
ATOM     14  C   UNL A   1      31.437  32.474  26.718  1.00  0.00     0.004 A 
ATOM     15  C   UNL A   1      31.563  31.112  26.424  1.00  0.00     0.009 A 
BRANCH  11  16
ATOM     16  O   UNL A   1      34.374  33.019  28.819  1.00  0.00    -0.410 OA
BRANCH  16  17
ATOM     17  C   UNL A   1      34.688  34.345  28.570  1.00  0.00     0.412 C 
ATOM     18  N   UNL A   1      36.015  34.616  28.763  1.00  0.00    -0.321 N 
ATOM     19  H   UNL A   1      36.303  35.547  28.627  1.00  0.00     0.167 HD
ATOM     20  O   UNL A   1      33.905  35.223  28.228  1.00  0.00    -0.224 OA
BRANCH  18  21
ATOM     21  C   UNL A   1      37.038  33.664  29.148  1.00  0.00     0.119 C 
BRANCH  21  22
ATOM     22  C   UNL A   1      38.429  34.297  29.166  1.00  0.00     0.021 C 
BRANCH  22  23
ATOM     23  C   UNL A   1      39.502  33.466  29.879  1.00  0.00     0.002 C 
BRANCH  23  24
ATOM     24  C   UNL A   1      40.833  34.188  30.120  1.00  0.00     0.000 C 
BRANCH  24  25
ATOM     25  C   UNL A   1      40.985  35.524  29.385  1.00  0.00    -0.000 C 
BRANCH  25  26
ATOM     26  C   UNL A   1      42.248  35.651  28.526  1.00  0.00    -0.000 C 
BRANCH  26  27
ATOM     27  C   UNL A   1      42.003  35.919  27.040  1.00  0.00    -0.003 C 
ATOM     28  C   UNL A   1      43.024  35.254  26.129  1.00  0.00     0.004 C 
ENDBRANCH  26  27
ENDBRANCH  25  26
ENDBRANCH  24  25
ENDBRANCH  23  24
ENDBRANCH  22  23
ENDBRANCH  21  22
ENDBRANCH  18  21
ENDBRANCH  16  17
ENDBRANCH  11  16
ENDBRANCH   4  10
ENDBRANCH   1   3
BRANCH   1  29
ATOM     29  C   UNL A   1      33.509  24.298  24.150  1.00  0.00     0.227 C 
ATOM     30  O   UNL A   1      32.475  24.354  23.472  1.00  0.00    -0.274 OA
ATOM     31  N   UNL A   1      34.636  23.903  23.499  1.00  0.00    -0.356 N 
ATOM     32  H   UNL A   1      34.517  23.773  22.530  1.00  0.00     0.163 HD
BRANCH  31  33
ATOM     33  C   UNL A   1      35.980  23.640  23.970  1.00  0.00     0.116 C 
BRANCH  33  34
ATOM     34  C   UNL A   1      36.331  22.153  23.884  1.00  0.00     0.021 C 
BRANCH  34  35
ATOM     35  C   UNL A   1      36.801  21.549  25.211  1.00  0.00     0.002 C 
BRANCH  35  36
ATOM     36  C   UNL A   1      38.324  21.444  25.376  1.00  0.00     0.002 C 
BRANCH  36  37
ATOM     37  C   UNL A   1      38.912  20.040  25.212  1.00  0.00     0.021 C 
BRANCH  37  38
ATOM     38  C   UNL A   1      39.608  19.489  26.454  1.00  0.00     0.116 C 
BRANCH  38  39
ATOM     39  N   UNL A   1      40.860  18.822  26.125  1.00  0.00    -0.352 N 
ATOM     40  C   UNL A   1      42.113  19.350  25.935  1.00  0.00     0.251 C 
ATOM     41  H   UNL A   1      40.798  17.845  26.023  1.00  0.00     0.163 HD
ATOM     42  O   UNL A   1      43.005  18.670  25.438  1.00  0.00    -0.269 OA
BRANCH  40  43
ATOM     43  C   UNL A   1      42.386  20.751  26.314  1.00  0.00     0.039 A 
ATOM     44  C   UNL A   1      42.676  21.050  27.648  1.00  0.00     0.014 A 
ATOM     45  C   UNL A   1      42.352  21.766  25.355  1.00  0.00     0.014 A 
ATOM     46  C   UNL A   1      43.017  22.357  28.006  1.00  0.00     0.010 A 
ATOM     47  C   UNL A   1      42.750  23.055  25.699  1.00  0.00     0.010 A 
ATOM     48  C   UNL A   1      43.101  23.358  27.023  1.00  0.00    -0.014 A 
BRANCH  48  49
ATOM     49  C   UNL A   1      43.600  24.717  27.344  1.00  0.00     0.031 A 
ATOM     50  C   UNL A   1      42.664  25.767  27.865  1.00  0.00     0.074 A 
ATOM     51  C   UNL A   1      44.881  25.028  27.073  1.00  0.00     0.049 A 
ATOM     52  N   UNL A   1      42.888  27.037  28.094  1.00  0.00    -0.248 NA
ATOM     53  C   UNL A   1      41.285  25.337  28.144  1.00  0.00     0.031 C 
ATOM     54  C   UNL A   1      45.879  24.101  26.538  1.00  0.00     0.029 A 
ATOM     55  N   UNL A   1      45.560  26.214  27.193  1.00  0.00    -0.354 N 
ATOM     56  C   UNL A   1      41.680  27.558  28.535  1.00  0.00     0.074 A 
ATOM     57  C   UNL A   1      40.714  26.480  28.494  1.00  0.00     0.031 C 
ATOM     58  C   UNL A   1      47.048  24.747  26.396  1.00  0.00     0.029 A 
ATOM     59  C   UNL A   1      46.868  26.143  26.782  1.00  0.00     0.049 A 
ATOM     60  H   UNL A   1      45.149  27.038  27.541  1.00  0.00     0.167 HD
ATOM     61  C   UNL A   1      41.408  28.818  28.954  1.00  0.00     0.037 A 
ATOM     62  C   UNL A   1      47.813  27.100  26.709  1.00  0.00     0.037 A 
ATOM     63  C   UNL A   1      42.376  29.883  28.999  1.00  0.00     0.049 A 
ATOM     64  C   UNL A   1      47.468  28.505  27.116  1.00  0.00     0.074 A 
ATOM     65  C   UNL A   1      42.218  31.175  29.469  1.00  0.00     0.029 A 
ATOM     66  N   UNL A   1      43.682  29.781  28.545  1.00  0.00    -0.354 N 
ATOM     67  N   UNL A   1      46.341  28.974  27.590  1.00  0.00    -0.248 NA
ATOM     68  C   UNL A   1      48.526  29.514  26.968  1.00  0.00     0.031 C 
ATOM     69  C   UNL A   1      43.413  31.870  29.249  1.00  0.00     0.029 A 
ATOM     70  C   UNL A   1      44.330  30.998  28.685  1.00  0.00     0.049 A 
ATOM     71  H   UNL A   1      44.090  28.964  28.176  1.00  0.00     0.167 HD
ATOM     72  C   UNL A   1      46.556  30.327  27.815  1.00  0.00     0.074 A 
ATOM     73  C   UNL A   1      47.928  30.600  27.437  1.00  0.00     0.031 C 
ATOM     74  C   UNL A   1      45.694  31.257  28.294  1.00  0.00     0.037 A 
BRANCH  61  75
ATOM     75  C   UNL A   1      40.000  29.109  29.388  1.00  0.00     0.064 A 
ATOM     76  C   UNL A   1      39.030  29.564  28.483  1.00  0.00     0.173 A 
ATOM     77  C   UNL A   1      39.612  28.918  30.724  1.00  0.00     0.173 A 
ATOM     78  F   UNL A   1      39.351  29.772  27.197  1.00  0.00    -0.203 F 
ATOM     79  C   UNL A   1      37.736  29.858  28.905  1.00  0.00     0.198 A 
ATOM     80  C   UNL A   1      38.309  29.183  31.136  1.00  0.00     0.198 A 
ATOM     81  F   UNL A   1      40.497  28.476  31.630  1.00  0.00    -0.203 F 
ATOM     82  F   UNL A   1      36.844  30.349  28.034  1.00  0.00    -0.200 F 
ATOM     83  C   UNL A   1      37.375  29.663  30.230  1.00  0.00     0.200 A 
ATOM     84  F   UNL A   1      37.958  28.983  32.414  1.00  0.00    -0.200 F 
ATOM     85  F   UNL A   1      36.129  29.948  30.635  1.00  0.00    -0.200 F 
ENDBRANCH  61  75
BRANCH  62  86
ATOM     86  C   UNL A   1      49.179  26.750  26.246  1.00  0.00     0.064 A 
ATOM     87  C   UNL A   1      49.533  26.891  24.898  1.00  0.00     0.173 A 
ATOM     88  C   UNL A   1      50.163  26.295  27.136  1.00  0.00     0.173 A 
ATOM     89  F   UNL A   1      48.619  27.304  24.006  1.00  0.00    -0.203 F 
ATOM     90  C   UNL A   1      50.818  26.586  24.455  1.00  0.00     0.198 A 
ATOM     91  C   UNL A   1      51.455  26.012  26.697  1.00  0.00     0.198 A 
ATOM     92  F   UNL A   1      49.875  26.145  28.437  1.00  0.00    -0.203 F 
ATOM     93  F   UNL A   1      51.122  26.703  23.155  1.00  0.00    -0.200 F 
ATOM     94  C   UNL A   1      51.781  26.155  25.356  1.00  0.00     0.200 A 
ATOM     95  F   UNL A   1      52.385  25.610  27.572  1.00  0.00    -0.200 F 
ATOM     96  F   UNL A   1      53.019  25.873  24.932  1.00  0.00    -0.200 F 
ENDBRANCH  62  86
BRANCH  74  97
ATOM     97  C   UNL A   1      46.209  32.659  28.443  1.00  0.00     0.064 A 
ATOM     98  C   UNL A   1      46.064  33.604  27.417  1.00  0.00     0.173 A 
ATOM     99  C   UNL A   1      46.811  33.073  29.640  1.00  0.00     0.173 A 
ATOM    100  F   UNL A   1      45.512  33.250  26.247  1.00  0.00    -0.203 F 
ATOM    101  C   UNL A   1      46.517  34.910  27.580  1.00  0.00     0.198 A 
ATOM    102  C   UNL A   1      47.239  34.387  29.809  1.00  0.00     0.198 A 
ATOM    103  F   UNL A   1      46.971  32.207  30.652  1.00  0.00    -0.203 F 
ATOM    104  F   UNL A   1      46.402  35.788  26.573  1.00  0.00    -0.200 F 
ATOM    105  C   UNL A   1      47.095  35.303  28.778  1.00  0.00     0.200 A 
ATOM    106  F   UNL A   1      47.787  34.768  30.972  1.00  0.00    -0.200 F 
ATOM    107  F   UNL A   1      47.519  36.565  28.937  1.00  0.00    -0.200 F 
ENDBRANCH  74  97
ENDBRANCH  48  49
ENDBRANCH  40  43
ENDBRANCH  38  39
ENDBRANCH  37  38
ENDBRANCH  36  37
ENDBRANCH  35  36
ENDBRANCH  34  35
ENDBRANCH  33  34
ENDBRANCH  31  33
ENDBRANCH   1  29
TORSDOF 24
ENDMDL
