MODEL 1
REMARK VINA RESULT:     -13.3      0.000      0.000
REMARK SMILES Cc1cc(C(=O)NCCCCCCNC(=O)c2ccc(-c3c4nc(c(-c5c(F)c(F)c(F)c(F)c5F)c5ccc([nH]5)c(-c5c(F)c(F)c(F)c(F)c5F)c5nc(c(-c6c(F)c(F)c(F)c(F)c6F)c6ccc3[nH]6)C=C5)C=C4)cc2)ccc1-c1ccc(C(=O)N2CCCCC2)cc1
REMARK SMILES IDX 10 1 9 2 8 3 7 4 5 5 6 6 4 8 1 9 2 10 3 11 82 12 81 13 80 14
REMARK SMILES IDX 83 15 84 16 96 17 85 18 95 19 86 20 87 21 88 22 89 23 90 24
REMARK SMILES IDX 94 25 91 26 93 27 92 28 11 29 12 30 13 31 14 32 15 33 16 35
REMARK SMILES IDX 17 36 18 37 79 38 19 39 78 40 20 41 21 42 22 43 72 44 23 45
REMARK SMILES IDX 77 46 71 47 73 48 24 49 76 50 70 51 69 52 25 54 57 55 37 56
REMARK SMILES IDX 56 57 38 58 41 59 55 60 74 61 39 62 40 63 54 65 75 66 42 67
REMARK SMILES IDX 26 68 27 69 35 70 28 71 29 72 33 73 36 74 30 75 31 76 34 77
REMARK SMILES IDX 32 78 58 79 59 80 67 81 60 82 61 83 65 84 68 85 62 86 63 87
REMARK SMILES IDX 66 88 64 89 43 90 44 91 52 92 45 93 46 94 50 95 53 96 47 97
REMARK SMILES IDX 48 98 51 99 49 100
REMARK H PARENT 7 7 14 34 73 53 41 64
REMARK Flexibility Score: inf
ROOT
ATOM      1  C   UNL A   1      31.063  31.394  26.327  1.00  0.00     0.002 C 
ENDROOT
BRANCH   1   2
ATOM      2  C   UNL A   1      30.601  31.828  24.928  1.00  0.00     0.021 C 
BRANCH   2   3
ATOM      3  C   UNL A   1      29.171  31.410  24.575  1.00  0.00     0.116 C 
BRANCH   3   4
ATOM      4  N   UNL A   1      29.031  31.209  23.149  1.00  0.00    -0.352 N 
ATOM      5  C   UNL A   1      29.520  30.257  22.294  1.00  0.00     0.251 C 
ATOM      6  O   UNL A   1      29.168  30.324  21.115  1.00  0.00    -0.269 OA
ATOM      7  H   UNL A   1      28.475  31.890  22.706  1.00  0.00     0.163 HD
BRANCH   5   8
ATOM      8  C   UNL A   1      30.406  29.136  22.719  1.00  0.00     0.040 A 
ATOM      9  C   UNL A   1      34.179  28.642  22.678  1.00  0.00     0.045 C 
ATOM     10  C   UNL A   1      32.719  28.321  22.874  1.00  0.00    -0.042 A 
ATOM     11  C   UNL A   1      31.782  29.304  22.504  1.00  0.00     0.018 A 
ATOM     12  C   UNL A   1      32.268  27.126  23.475  1.00  0.00    -0.015 A 
ATOM     13  C   UNL A   1      30.890  26.976  23.708  1.00  0.00     0.010 A 
ATOM     14  C   UNL A   1      29.977  27.980  23.367  1.00  0.00     0.014 A 
BRANCH  12  15
ATOM     15  C   UNL A   1      33.182  26.056  23.896  1.00  0.00    -0.018 A 
ATOM     16  C   UNL A   1      33.765  25.209  22.943  1.00  0.00     0.009 A 
ATOM     17  C   UNL A   1      33.460  25.829  25.253  1.00  0.00     0.009 A 
ATOM     18  C   UNL A   1      34.553  24.126  23.336  1.00  0.00     0.014 A 
ATOM     19  C   UNL A   1      34.272  24.758  25.647  1.00  0.00     0.014 A 
ATOM     20  C   UNL A   1      34.820  23.895  24.690  1.00  0.00     0.040 A 
BRANCH  20  21
ATOM     21  C   UNL A   1      35.483  22.640  25.150  1.00  0.00     0.253 C 
ATOM     22  O   UNL A   1      34.770  21.668  25.395  1.00  0.00    -0.269 OA
ATOM     23  N   UNL A   1      36.872  22.560  25.156  1.00  0.00    -0.339 N 
ATOM     24  C   UNL A   1      37.491  21.302  24.760  1.00  0.00     0.120 C 
ATOM     25  C   UNL A   1      37.774  23.641  25.554  1.00  0.00     0.120 C 
ATOM     26  C   UNL A   1      38.489  20.803  25.794  1.00  0.00     0.022 C 
ATOM     27  C   UNL A   1      38.783  23.162  26.599  1.00  0.00     0.022 C 
ATOM     28  C   UNL A   1      39.500  21.892  26.142  1.00  0.00     0.004 C 
ENDBRANCH  20  21
ENDBRANCH  12  15
ENDBRANCH   5   8
ENDBRANCH   3   4
ENDBRANCH   2   3
ENDBRANCH   1   2
BRANCH   1  29
ATOM     29  C   UNL A   1      31.828  30.060  26.410  1.00  0.00     0.002 C 
BRANCH  29  30
ATOM     30  C   UNL A   1      33.354  30.154  26.317  1.00  0.00     0.021 C 
BRANCH  30  31
ATOM     31  C   UNL A   1      34.076  29.680  27.572  1.00  0.00     0.116 C 
BRANCH  31  32
ATOM     32  N   UNL A   1      34.536  30.762  28.434  1.00  0.00    -0.352 N 
ATOM     33  C   UNL A   1      35.733  30.891  29.117  1.00  0.00     0.251 C 
ATOM     34  H   UNL A   1      33.905  31.509  28.546  1.00  0.00     0.163 HD
ATOM     35  O   UNL A   1      35.935  31.854  29.838  1.00  0.00    -0.269 OA
BRANCH  33  36
ATOM     36  C   UNL A   1      36.816  29.908  28.869  1.00  0.00     0.039 A 
ATOM     37  C   UNL A   1      37.106  28.980  29.876  1.00  0.00     0.014 A 
ATOM     38  C   UNL A   1      37.643  30.015  27.755  1.00  0.00     0.014 A 
ATOM     39  C   UNL A   1      38.342  28.335  29.877  1.00  0.00     0.010 A 
ATOM     40  C   UNL A   1      38.903  29.450  27.800  1.00  0.00     0.010 A 
ATOM     41  C   UNL A   1      39.276  28.665  28.894  1.00  0.00    -0.014 A 
BRANCH  41  42
ATOM     42  C   UNL A   1      40.692  28.327  28.990  1.00  0.00     0.031 A 
ATOM     43  C   UNL A   1      41.216  27.083  28.388  1.00  0.00     0.074 A 
ATOM     44  C   UNL A   1      41.541  29.206  29.566  1.00  0.00     0.049 A 
ATOM     45  N   UNL A   1      42.339  26.536  28.712  1.00  0.00    -0.248 NA
ATOM     46  C   UNL A   1      40.480  26.334  27.377  1.00  0.00     0.031 C 
ATOM     47  C   UNL A   1      43.002  29.186  29.537  1.00  0.00     0.029 A 
ATOM     48  N   UNL A   1      41.228  30.199  30.509  1.00  0.00    -0.354 N 
ATOM     49  C   UNL A   1      42.588  25.515  27.825  1.00  0.00     0.074 A 
ATOM     50  C   UNL A   1      41.384  25.411  27.030  1.00  0.00     0.031 C 
ATOM     51  C   UNL A   1      43.461  29.852  30.609  1.00  0.00     0.029 A 
ATOM     52  C   UNL A   1      42.310  30.195  31.424  1.00  0.00     0.049 A 
ATOM     53  H   UNL A   1      40.429  30.775  30.530  1.00  0.00     0.167 HD
ATOM     54  C   UNL A   1      43.822  24.936  27.799  1.00  0.00     0.037 A 
ATOM     55  C   UNL A   1      42.122  29.826  32.724  1.00  0.00     0.037 A 
ATOM     56  C   UNL A   1      44.685  25.456  28.855  1.00  0.00     0.049 A 
ATOM     57  C   UNL A   1      42.926  28.621  33.164  1.00  0.00     0.074 A 
ATOM     58  C   UNL A   1      45.663  26.436  28.912  1.00  0.00     0.029 A 
ATOM     59  N   UNL A   1      44.381  25.140  30.166  1.00  0.00    -0.354 N 
ATOM     60  N   UNL A   1      43.639  27.878  32.363  1.00  0.00    -0.248 NA
ATOM     61  C   UNL A   1      42.895  28.095  34.531  1.00  0.00     0.031 C 
ATOM     62  C   UNL A   1      45.918  26.727  30.283  1.00  0.00     0.029 A 
ATOM     63  C   UNL A   1      45.099  25.920  31.051  1.00  0.00     0.049 A 
ATOM     64  H   UNL A   1      43.736  24.447  30.434  1.00  0.00     0.167 HD
ATOM     65  C   UNL A   1      44.107  26.795  33.054  1.00  0.00     0.074 A 
ATOM     66  C   UNL A   1      43.617  26.970  34.406  1.00  0.00     0.031 C 
ATOM     67  C   UNL A   1      44.830  25.801  32.469  1.00  0.00     0.037 A 
BRANCH  54  68
ATOM     68  C   UNL A   1      44.317  24.047  26.684  1.00  0.00     0.064 A 
ATOM     69  C   UNL A   1      43.798  22.745  26.517  1.00  0.00     0.173 A 
ATOM     70  C   UNL A   1      45.330  24.401  25.775  1.00  0.00     0.173 A 
ATOM     71  F   UNL A   1      42.764  22.305  27.246  1.00  0.00    -0.203 F 
ATOM     72  C   UNL A   1      44.330  21.838  25.596  1.00  0.00     0.198 A 
ATOM     73  C   UNL A   1      45.905  23.475  24.898  1.00  0.00     0.198 A 
ATOM     74  F   UNL A   1      45.757  25.666  25.669  1.00  0.00    -0.203 F 
ATOM     75  F   UNL A   1      43.796  20.614  25.485  1.00  0.00    -0.200 F 
ATOM     76  C   UNL A   1      45.412  22.189  24.816  1.00  0.00     0.200 A 
ATOM     77  F   UNL A   1      46.942  23.841  24.131  1.00  0.00    -0.200 F 
ATOM     78  F   UNL A   1      45.959  21.302  23.974  1.00  0.00    -0.200 F 
ENDBRANCH  54  68
BRANCH  55  79
ATOM     79  C   UNL A   1      40.766  30.167  33.233  1.00  0.00     0.064 A 
ATOM     80  C   UNL A   1      40.442  31.524  33.431  1.00  0.00     0.173 A 
ATOM     81  C   UNL A   1      39.710  29.250  33.179  1.00  0.00     0.173 A 
ATOM     82  F   UNL A   1      41.417  32.445  33.490  1.00  0.00    -0.203 F 
ATOM     83  C   UNL A   1      39.119  31.958  33.443  1.00  0.00     0.198 A 
ATOM     84  C   UNL A   1      38.385  29.687  33.219  1.00  0.00     0.198 A 
ATOM     85  F   UNL A   1      39.949  27.947  32.974  1.00  0.00    -0.203 F 
ATOM     86  F   UNL A   1      38.845  33.268  33.505  1.00  0.00    -0.200 F 
ATOM     87  C   UNL A   1      38.092  31.039  33.311  1.00  0.00     0.200 A 
ATOM     88  F   UNL A   1      37.392  28.800  33.067  1.00  0.00    -0.200 F 
ATOM     89  F   UNL A   1      36.822  31.459  33.231  1.00  0.00    -0.200 F 
ENDBRANCH  55  79
BRANCH  67  90
ATOM     90  C   UNL A   1      45.350  24.628  33.231  1.00  0.00     0.064 A 
ATOM     91  C   UNL A   1      44.544  23.514  33.512  1.00  0.00     0.173 A 
ATOM     92  C   UNL A   1      46.637  24.642  33.803  1.00  0.00     0.173 A 
ATOM     93  F   UNL A   1      43.293  23.440  33.031  1.00  0.00    -0.203 F 
ATOM     94  C   UNL A   1      45.008  22.464  34.303  1.00  0.00     0.198 A 
ATOM     95  C   UNL A   1      47.081  23.612  34.628  1.00  0.00     0.198 A 
ATOM     96  F   UNL A   1      47.492  25.645  33.556  1.00  0.00    -0.203 F 
ATOM     97  F   UNL A   1      44.226  21.397  34.518  1.00  0.00    -0.200 F 
ATOM     98  C   UNL A   1      46.270  22.519  34.871  1.00  0.00     0.200 A 
ATOM     99  F   UNL A   1      48.300  23.683  35.183  1.00  0.00    -0.200 F 
ATOM    100  F   UNL A   1      46.706  21.519  35.649  1.00  0.00    -0.200 F 
ENDBRANCH  67  90
ENDBRANCH  41  42
ENDBRANCH  33  36
ENDBRANCH  31  32
ENDBRANCH  30  31
ENDBRANCH  29  30
ENDBRANCH   1  29
TORSDOF 15
ENDMDL
MODEL 2
REMARK VINA RESULT:     -12.8      1.250      2.159
REMARK SMILES Cc1cc(C(=O)NCCCCCCNC(=O)c2ccc(-c3c4nc(c(-c5c(F)c(F)c(F)c(F)c5F)c5ccc([nH]5)c(-c5c(F)c(F)c(F)c(F)c5F)c5nc(c(-c6c(F)c(F)c(F)c(F)c6F)c6ccc3[nH]6)C=C5)C=C4)cc2)ccc1-c1ccc(C(=O)N2CCCCC2)cc1
REMARK SMILES IDX 10 1 9 2 8 3 7 4 5 5 6 6 4 8 1 9 2 10 3 11 82 12 81 13 80 14
REMARK SMILES IDX 83 15 84 16 96 17 85 18 95 19 86 20 87 21 88 22 89 23 90 24
REMARK SMILES IDX 94 25 91 26 93 27 92 28 11 29 12 30 13 31 14 32 15 33 16 35
REMARK SMILES IDX 17 36 18 37 79 38 19 39 78 40 20 41 21 42 22 43 72 44 23 45
REMARK SMILES IDX 77 46 71 47 73 48 24 49 76 50 70 51 69 52 25 54 57 55 37 56
REMARK SMILES IDX 56 57 38 58 41 59 55 60 74 61 39 62 40 63 54 65 75 66 42 67
REMARK SMILES IDX 26 68 27 69 35 70 28 71 29 72 33 73 36 74 30 75 31 76 34 77
REMARK SMILES IDX 32 78 58 79 59 80 67 81 60 82 61 83 65 84 68 85 62 86 63 87
REMARK SMILES IDX 66 88 64 89 43 90 44 91 52 92 45 93 46 94 50 95 53 96 47 97
REMARK SMILES IDX 48 98 51 99 49 100
REMARK H PARENT 7 7 14 34 73 53 41 64
REMARK Flexibility Score: inf
ROOT
ATOM      1  C   UNL A   1      30.645  32.477  25.779  1.00  0.00     0.002 C 
ENDROOT
BRANCH   1   2
ATOM      2  C   UNL A   1      30.213  31.490  24.683  1.00  0.00     0.021 C 
BRANCH   2   3
ATOM      3  C   UNL A   1      28.787  31.701  24.167  1.00  0.00     0.116 C 
BRANCH   3   4
ATOM      4  N   UNL A   1      28.706  31.416  22.750  1.00  0.00    -0.352 N 
ATOM      5  C   UNL A   1      29.040  30.317  22.005  1.00  0.00     0.251 C 
ATOM      6  O   UNL A   1      28.791  30.356  20.799  1.00  0.00    -0.269 OA
ATOM      7  H   UNL A   1      28.338  32.158  22.218  1.00  0.00     0.163 HD
BRANCH   5   8
ATOM      8  C   UNL A   1      29.639  29.077  22.576  1.00  0.00     0.040 A 
ATOM      9  C   UNL A   1      33.227  27.918  23.093  1.00  0.00     0.045 C 
ATOM     10  C   UNL A   1      31.720  27.871  23.082  1.00  0.00    -0.042 A 
ATOM     11  C   UNL A   1      31.039  28.987  22.560  1.00  0.00     0.018 A 
ATOM     12  C   UNL A   1      30.979  26.804  23.635  1.00  0.00    -0.015 A 
ATOM     13  C   UNL A   1      29.578  26.912  23.669  1.00  0.00     0.010 A 
ATOM     14  C   UNL A   1      28.920  28.046  23.179  1.00  0.00     0.014 A 
BRANCH  12  15
ATOM     15  C   UNL A   1      31.615  25.610  24.206  1.00  0.00    -0.018 A 
ATOM     16  C   UNL A   1      32.162  25.649  25.495  1.00  0.00     0.009 A 
ATOM     17  C   UNL A   1      31.732  24.423  23.465  1.00  0.00     0.009 A 
ATOM     18  C   UNL A   1      32.860  24.554  26.010  1.00  0.00     0.014 A 
ATOM     19  C   UNL A   1      32.409  23.316  23.990  1.00  0.00     0.014 A 
ATOM     20  C   UNL A   1      32.983  23.376  25.266  1.00  0.00     0.040 A 
BRANCH  20  21
ATOM     21  C   UNL A   1      33.889  22.273  25.699  1.00  0.00     0.253 C 
ATOM     22  O   UNL A   1      33.424  21.400  26.432  1.00  0.00    -0.269 OA
ATOM     23  N   UNL A   1      35.170  22.185  25.163  1.00  0.00    -0.339 N 
ATOM     24  C   UNL A   1      35.699  20.862  24.859  1.00  0.00     0.120 C 
ATOM     25  C   UNL A   1      36.049  23.323  24.897  1.00  0.00     0.120 C 
ATOM     26  C   UNL A   1      37.065  20.632  25.487  1.00  0.00     0.022 C 
ATOM     27  C   UNL A   1      37.427  23.115  25.527  1.00  0.00     0.022 C 
ATOM     28  C   UNL A   1      38.024  21.765  25.131  1.00  0.00     0.004 C 
ENDBRANCH  20  21
ENDBRANCH  12  15
ENDBRANCH   5   8
ENDBRANCH   3   4
ENDBRANCH   2   3
ENDBRANCH   1   2
BRANCH   1  29
ATOM     29  C   UNL A   1      31.785  32.012  26.704  1.00  0.00     0.002 C 
BRANCH  29  30
ATOM     30  C   UNL A   1      32.178  30.535  26.595  1.00  0.00     0.021 C 
BRANCH  30  31
ATOM     31  C   UNL A   1      33.345  30.143  27.492  1.00  0.00     0.116 C 
BRANCH  31  32
ATOM     32  N   UNL A   1      33.950  31.265  28.199  1.00  0.00    -0.352 N 
ATOM     33  C   UNL A   1      35.170  31.338  28.849  1.00  0.00     0.251 C 
ATOM     34  H   UNL A   1      33.413  32.089  28.219  1.00  0.00     0.163 HD
ATOM     35  O   UNL A   1      35.501  32.355  29.435  1.00  0.00    -0.269 OA
BRANCH  33  36
ATOM     36  C   UNL A   1      36.125  30.209  28.721  1.00  0.00     0.039 A 
ATOM     37  C   UNL A   1      36.510  29.538  29.887  1.00  0.00     0.014 A 
ATOM     38  C   UNL A   1      36.763  29.940  27.513  1.00  0.00     0.014 A 
ATOM     39  C   UNL A   1      37.680  28.780  29.885  1.00  0.00     0.010 A 
ATOM     40  C   UNL A   1      37.969  29.268  27.530  1.00  0.00     0.010 A 
ATOM     41  C   UNL A   1      38.461  28.747  28.729  1.00  0.00    -0.014 A 
BRANCH  41  42
ATOM     42  C   UNL A   1      39.846  28.288  28.711  1.00  0.00     0.031 A 
ATOM     43  C   UNL A   1      40.172  26.874  28.429  1.00  0.00     0.074 A 
ATOM     44  C   UNL A   1      40.840  29.188  28.876  1.00  0.00     0.049 A 
ATOM     45  N   UNL A   1      41.294  26.313  28.730  1.00  0.00    -0.248 NA
ATOM     46  C   UNL A   1      39.223  25.965  27.799  1.00  0.00     0.031 C 
ATOM     47  C   UNL A   1      42.269  28.993  28.641  1.00  0.00     0.029 A 
ATOM     48  N   UNL A   1      40.763  30.433  29.523  1.00  0.00    -0.354 N 
ATOM     49  C   UNL A   1      41.315  25.065  28.153  1.00  0.00     0.074 A 
ATOM     50  C   UNL A   1      39.988  24.884  27.608  1.00  0.00     0.031 C 
ATOM     51  C   UNL A   1      42.951  29.872  29.392  1.00  0.00     0.029 A 
ATOM     52  C   UNL A   1      41.984  30.557  30.231  1.00  0.00     0.049 A 
ATOM     53  H   UNL A   1      40.021  31.079  29.492  1.00  0.00     0.167 HD
ATOM     54  C   UNL A   1      42.484  24.363  28.116  1.00  0.00     0.037 A 
ATOM     55  C   UNL A   1      41.999  30.586  31.595  1.00  0.00     0.037 A 
ATOM     56  C   UNL A   1      43.550  25.052  28.837  1.00  0.00     0.049 A 
ATOM     57  C   UNL A   1      42.783  29.465  32.245  1.00  0.00     0.074 A 
ATOM     58  C   UNL A   1      44.587  25.890  28.463  1.00  0.00     0.029 A 
ATOM     59  N   UNL A   1      43.457  25.148  30.213  1.00  0.00    -0.354 N 
ATOM     60  N   UNL A   1      43.294  28.454  31.600  1.00  0.00    -0.248 NA
ATOM     61  C   UNL A   1      42.953  29.346  33.695  1.00  0.00     0.031 C 
ATOM     62  C   UNL A   1      45.095  26.518  29.636  1.00  0.00     0.029 A 
ATOM     63  C   UNL A   1      44.368  26.055  30.717  1.00  0.00     0.049 A 
ATOM     64  H   UNL A   1      42.822  24.636  30.763  1.00  0.00     0.167 HD
ATOM     65  C   UNL A   1      43.799  27.557  32.500  1.00  0.00     0.074 A 
ATOM     66  C   UNL A   1      43.564  28.155  33.799  1.00  0.00     0.031 C 
ATOM     67  C   UNL A   1      44.341  26.364  32.132  1.00  0.00     0.037 A 
BRANCH  54  68
ATOM     68  C   UNL A   1      42.717  23.150  27.250  1.00  0.00     0.064 A 
ATOM     69  C   UNL A   1      42.089  21.922  27.547  1.00  0.00     0.173 A 
ATOM     70  C   UNL A   1      43.580  23.120  26.138  1.00  0.00     0.173 A 
ATOM     71  F   UNL A   1      41.169  21.822  28.515  1.00  0.00    -0.203 F 
ATOM     72  C   UNL A   1      42.391  20.740  26.863  1.00  0.00     0.198 A 
ATOM     73  C   UNL A   1      43.929  21.928  25.496  1.00  0.00     0.198 A 
ATOM     74  F   UNL A   1      44.067  24.249  25.608  1.00  0.00    -0.203 F 
ATOM     75  F   UNL A   1      41.763  19.603  27.193  1.00  0.00    -0.200 F 
ATOM     76  C   UNL A   1      43.343  20.735  25.866  1.00  0.00     0.200 A 
ATOM     77  F   UNL A   1      44.841  21.946  24.513  1.00  0.00    -0.200 F 
ATOM     78  F   UNL A   1      43.674  19.593  25.248  1.00  0.00    -0.200 F 
ENDBRANCH  54  68
BRANCH  55  79
ATOM     79  C   UNL A   1      40.778  31.208  32.175  1.00  0.00     0.064 A 
ATOM     80  C   UNL A   1      39.760  30.365  32.665  1.00  0.00     0.173 A 
ATOM     81  C   UNL A   1      40.756  32.549  32.575  1.00  0.00     0.173 A 
ATOM     82  F   UNL A   1      39.734  29.069  32.313  1.00  0.00    -0.203 F 
ATOM     83  C   UNL A   1      38.843  30.813  33.612  1.00  0.00     0.198 A 
ATOM     84  C   UNL A   1      39.818  33.000  33.504  1.00  0.00     0.198 A 
ATOM     85  F   UNL A   1      41.706  33.398  32.160  1.00  0.00    -0.203 F 
ATOM     86  F   UNL A   1      37.968  29.955  34.154  1.00  0.00    -0.200 F 
ATOM     87  C   UNL A   1      38.890  32.126  34.049  1.00  0.00     0.200 A 
ATOM     88  F   UNL A   1      39.880  34.264  33.945  1.00  0.00    -0.200 F 
ATOM     89  F   UNL A   1      38.070  32.537  35.025  1.00  0.00    -0.200 F 
ENDBRANCH  55  79
BRANCH  67  90
ATOM     90  C   UNL A   1      44.904  25.395  33.118  1.00  0.00     0.064 A 
ATOM     91  C   UNL A   1      46.276  25.111  33.173  1.00  0.00     0.173 A 
ATOM     92  C   UNL A   1      44.063  24.636  33.955  1.00  0.00     0.173 A 
ATOM     93  F   UNL A   1      47.141  25.768  32.384  1.00  0.00    -0.203 F 
ATOM     94  C   UNL A   1      46.782  24.137  34.034  1.00  0.00     0.198 A 
ATOM     95  C   UNL A   1      44.566  23.635  34.780  1.00  0.00     0.198 A 
ATOM     96  F   UNL A   1      42.743  24.866  34.000  1.00  0.00    -0.203 F 
ATOM     97  F   UNL A   1      48.103  23.920  34.090  1.00  0.00    -0.200 F 
ATOM     98  C   UNL A   1      45.926  23.391  34.827  1.00  0.00     0.200 A 
ATOM     99  F   UNL A   1      43.726  22.909  35.533  1.00  0.00    -0.200 F 
ATOM    100  F   UNL A   1      46.411  22.440  35.637  1.00  0.00    -0.200 F 
ENDBRANCH  67  90
ENDBRANCH  41  42
ENDBRANCH  33  36
ENDBRANCH  31  32
ENDBRANCH  30  31
ENDBRANCH  29  30
ENDBRANCH   1  29
TORSDOF 15
ENDMDL
MODEL 3
REMARK VINA RESULT:     -12.0      1.916      2.413
REMARK SMILES Cc1cc(C(=O)NCCCCCCNC(=O)c2ccc(-c3c4nc(c(-c5c(F)c(F)c(F)c(F)c5F)c5ccc([nH]5)c(-c5c(F)c(F)c(F)c(F)c5F)c5nc(c(-c6c(F)c(F)c(F)c(F)c6F)c6ccc3[nH]6)C=C5)C=C4)cc2)ccc1-c1ccc(C(=O)N2CCCCC2)cc1
REMARK SMILES IDX 10 1 9 2 8 3 7 4 5 5 6 6 4 8 1 9 2 10 3 11 82 12 81 13 80 14
REMARK SMILES IDX 83 15 84 16 96 17 85 18 95 19 86 20 87 21 88 22 89 23 90 24
REMARK SMILES IDX 94 25 91 26 93 27 92 28 11 29 12 30 13 31 14 32 15 33 16 35
REMARK SMILES IDX 17 36 18 37 79 38 19 39 78 40 20 41 21 42 22 43 72 44 23 45
REMARK SMILES IDX 77 46 71 47 73 48 24 49 76 50 70 51 69 52 25 54 57 55 37 56
REMARK SMILES IDX 56 57 38 58 41 59 55 60 74 61 39 62 40 63 54 65 75 66 42 67
REMARK SMILES IDX 26 68 27 69 35 70 28 71 29 72 33 73 36 74 30 75 31 76 34 77
REMARK SMILES IDX 32 78 58 79 59 80 67 81 60 82 61 83 65 84 68 85 62 86 63 87
REMARK SMILES IDX 66 88 64 89 43 90 44 91 52 92 45 93 46 94 50 95 53 96 47 97
REMARK SMILES IDX 48 98 51 99 49 100
REMARK H PARENT 7 7 14 34 73 53 41 64
REMARK Flexibility Score: inf
ROOT
ATOM      1  C   UNL A   1      31.377  31.865  26.982  1.00  0.00     0.002 C 
ENDROOT
BRANCH   1   2
ATOM      2  C   UNL A   1      30.805  31.747  25.561  1.00  0.00     0.021 C 
BRANCH   2   3
ATOM      3  C   UNL A   1      31.033  30.385  24.898  1.00  0.00     0.116 C 
BRANCH   3   4
ATOM      4  N   UNL A   1      30.213  30.247  23.714  1.00  0.00    -0.352 N 
ATOM      5  C   UNL A   1      29.973  29.196  22.869  1.00  0.00     0.251 C 
ATOM      6  O   UNL A   1      29.159  29.376  21.961  1.00  0.00    -0.269 OA
ATOM      7  H   UNL A   1      29.732  31.070  23.467  1.00  0.00     0.163 HD
BRANCH   5   8
ATOM      8  C   UNL A   1      30.602  27.852  23.016  1.00  0.00     0.040 A 
ATOM      9  C   UNL A   1      31.258  25.598  26.011  1.00  0.00     0.045 C 
ATOM     10  C   UNL A   1      31.274  26.083  24.583  1.00  0.00    -0.042 A 
ATOM     11  C   UNL A   1      30.709  27.345  24.319  1.00  0.00     0.018 A 
ATOM     12  C   UNL A   1      31.754  25.301  23.510  1.00  0.00    -0.015 A 
ATOM     13  C   UNL A   1      31.621  25.806  22.206  1.00  0.00     0.010 A 
ATOM     14  C   UNL A   1      31.024  27.048  21.959  1.00  0.00     0.014 A 
BRANCH  12  15
ATOM     15  C   UNL A   1      32.348  23.972  23.702  1.00  0.00    -0.018 A 
ATOM     16  C   UNL A   1      31.555  22.898  24.127  1.00  0.00     0.009 A 
ATOM     17  C   UNL A   1      33.722  23.755  23.511  1.00  0.00     0.009 A 
ATOM     18  C   UNL A   1      32.126  21.656  24.413  1.00  0.00     0.014 A 
ATOM     19  C   UNL A   1      34.292  22.503  23.772  1.00  0.00     0.014 A 
ATOM     20  C   UNL A   1      33.497  21.445  24.231  1.00  0.00     0.040 A 
BRANCH  20  21
ATOM     21  C   UNL A   1      34.165  20.202  24.717  1.00  0.00     0.253 C 
ATOM     22  O   UNL A   1      35.189  20.323  25.389  1.00  0.00    -0.269 OA
ATOM     23  N   UNL A   1      33.549  18.970  24.522  1.00  0.00    -0.339 N 
ATOM     24  C   UNL A   1      33.637  17.980  25.587  1.00  0.00     0.120 C 
ATOM     25  C   UNL A   1      32.831  18.573  23.311  1.00  0.00     0.120 C 
ATOM     26  C   UNL A   1      34.151  16.640  25.083  1.00  0.00     0.022 C 
ATOM     27  C   UNL A   1      33.338  17.230  22.783  1.00  0.00     0.022 C 
ATOM     28  C   UNL A   1      33.342  16.165  23.879  1.00  0.00     0.004 C 
ENDBRANCH  20  21
ENDBRANCH  12  15
ENDBRANCH   5   8
ENDBRANCH   3   4
ENDBRANCH   2   3
ENDBRANCH   1   2
BRANCH   1  29
ATOM     29  C   UNL A   1      32.842  31.428  27.166  1.00  0.00     0.002 C 
BRANCH  29  30
ATOM     30  C   UNL A   1      33.752  32.421  27.898  1.00  0.00     0.021 C 
BRANCH  30  31
ATOM     31  C   UNL A   1      35.064  31.813  28.377  1.00  0.00     0.116 C 
BRANCH  31  32
ATOM     32  N   UNL A   1      35.290  31.953  29.811  1.00  0.00    -0.352 N 
ATOM     33  C   UNL A   1      36.090  31.197  30.651  1.00  0.00     0.251 C 
ATOM     34  H   UNL A   1      34.805  32.691  30.244  1.00  0.00     0.163 HD
ATOM     35  O   UNL A   1      36.127  31.429  31.847  1.00  0.00    -0.269 OA
BRANCH  33  36
ATOM     36  C   UNL A   1      36.996  30.180  30.062  1.00  0.00     0.039 A 
ATOM     37  C   UNL A   1      37.163  28.971  30.748  1.00  0.00     0.014 A 
ATOM     38  C   UNL A   1      37.800  30.481  28.966  1.00  0.00     0.014 A 
ATOM     39  C   UNL A   1      38.280  28.181  30.481  1.00  0.00     0.010 A 
ATOM     40  C   UNL A   1      38.955  29.751  28.763  1.00  0.00     0.010 A 
ATOM     41  C   UNL A   1      39.229  28.641  29.566  1.00  0.00    -0.014 A 
BRANCH  41  42
ATOM     42  C   UNL A   1      40.575  28.088  29.463  1.00  0.00     0.031 A 
ATOM     43  C   UNL A   1      40.795  26.718  28.957  1.00  0.00     0.074 A 
ATOM     44  C   UNL A   1      41.633  28.875  29.760  1.00  0.00     0.049 A 
ATOM     45  N   UNL A   1      41.871  26.034  29.156  1.00  0.00    -0.248 NA
ATOM     46  C   UNL A   1      39.783  25.993  28.199  1.00  0.00     0.031 C 
ATOM     47  C   UNL A   1      43.044  28.614  29.484  1.00  0.00     0.029 A 
ATOM     48  N   UNL A   1      41.647  30.003  30.597  1.00  0.00    -0.354 N 
ATOM     49  C   UNL A   1      41.800  24.895  28.387  1.00  0.00     0.074 A 
ATOM     50  C   UNL A   1      40.465  24.903  27.832  1.00  0.00     0.031 C 
ATOM     51  C   UNL A   1      43.788  29.309  30.359  1.00  0.00     0.029 A 
ATOM     52  C   UNL A   1      42.873  29.922  31.305  1.00  0.00     0.049 A 
ATOM     53  H   UNL A   1      40.956  30.700  30.675  1.00  0.00     0.167 HD
ATOM     54  C   UNL A   1      42.914  24.123  28.229  1.00  0.00     0.037 A 
ATOM     55  C   UNL A   1      42.885  29.733  32.656  1.00  0.00     0.037 A 
ATOM     56  C   UNL A   1      44.026  24.607  29.041  1.00  0.00     0.049 A 
ATOM     57  C   UNL A   1      43.581  28.468  33.112  1.00  0.00     0.074 A 
ATOM     58  C   UNL A   1      45.125  25.415  28.796  1.00  0.00     0.029 A 
ATOM     59  N   UNL A   1      43.936  24.490  30.415  1.00  0.00    -0.354 N 
ATOM     60  N   UNL A   1      44.017  27.536  32.311  1.00  0.00    -0.248 NA
ATOM     61  C   UNL A   1      43.737  28.107  34.524  1.00  0.00     0.031 C 
ATOM     62  C   UNL A   1      45.674  25.809  30.049  1.00  0.00     0.029 A 
ATOM     63  C   UNL A   1      44.911  25.235  31.049  1.00  0.00     0.049 A 
ATOM     64  H   UNL A   1      43.263  23.946  30.883  1.00  0.00     0.167 HD
ATOM     65  C   UNL A   1      44.451  26.473  33.053  1.00  0.00     0.074 A 
ATOM     66  C   UNL A   1      44.257  26.872  34.432  1.00  0.00     0.031 C 
ATOM     67  C   UNL A   1      44.903  25.317  32.495  1.00  0.00     0.037 A 
BRANCH  54  68
ATOM     68  C   UNL A   1      43.058  23.049  27.179  1.00  0.00     0.064 A 
ATOM     69  C   UNL A   1      42.358  21.830  27.296  1.00  0.00     0.173 A 
ATOM     70  C   UNL A   1      43.902  23.142  26.057  1.00  0.00     0.173 A 
ATOM     71  F   UNL A   1      41.446  21.635  28.258  1.00  0.00    -0.203 F 
ATOM     72  C   UNL A   1      42.575  20.754  26.430  1.00  0.00     0.198 A 
ATOM     73  C   UNL A   1      44.166  22.047  25.229  1.00  0.00     0.198 A 
ATOM     74  F   UNL A   1      44.452  24.309  25.698  1.00  0.00    -0.203 F 
ATOM     75  F   UNL A   1      41.881  19.619  26.592  1.00  0.00    -0.200 F 
ATOM     76  C   UNL A   1      43.511  20.848  25.422  1.00  0.00     0.200 A 
ATOM     77  F   UNL A   1      45.064  22.164  24.240  1.00  0.00    -0.200 F 
ATOM     78  F   UNL A   1      43.761  19.800  24.626  1.00  0.00    -0.200 F 
ENDBRANCH  54  68
BRANCH  55  79
ATOM     79  C   UNL A   1      41.712  30.344  33.339  1.00  0.00     0.064 A 
ATOM     80  C   UNL A   1      41.687  31.742  33.511  1.00  0.00     0.173 A 
ATOM     81  C   UNL A   1      40.506  29.650  33.486  1.00  0.00     0.173 A 
ATOM     82  F   UNL A   1      42.816  32.456  33.381  1.00  0.00    -0.203 F 
ATOM     83  C   UNL A   1      40.488  32.426  33.693  1.00  0.00     0.198 A 
ATOM     84  C   UNL A   1      39.310  30.338  33.695  1.00  0.00     0.198 A 
ATOM     85  F   UNL A   1      40.459  28.322  33.315  1.00  0.00    -0.203 F 
ATOM     86  F   UNL A   1      40.481  33.766  33.726  1.00  0.00    -0.200 F 
ATOM     87  C   UNL A   1      39.296  31.724  33.759  1.00  0.00     0.200 A 
ATOM     88  F   UNL A   1      38.155  29.660  33.733  1.00  0.00    -0.200 F 
ATOM     89  F   UNL A   1      38.133  32.382  33.842  1.00  0.00    -0.200 F 
ENDBRANCH  55  79
BRANCH  67  90
ATOM     90  C   UNL A   1      45.389  24.164  33.310  1.00  0.00     0.064 A 
ATOM     91  C   UNL A   1      44.556  23.081  33.626  1.00  0.00     0.173 A 
ATOM     92  C   UNL A   1      46.668  24.175  33.898  1.00  0.00     0.173 A 
ATOM     93  F   UNL A   1      43.309  23.013  33.132  1.00  0.00    -0.203 F 
ATOM     94  C   UNL A   1      44.987  22.053  34.464  1.00  0.00     0.198 A 
ATOM     95  C   UNL A   1      47.080  23.170  34.769  1.00  0.00     0.198 A 
ATOM     96  F   UNL A   1      47.548  25.149  33.622  1.00  0.00    -0.203 F 
ATOM     97  F   UNL A   1      44.180  21.013  34.711  1.00  0.00    -0.200 F 
ATOM     98  C   UNL A   1      46.243  22.105  35.045  1.00  0.00     0.200 A 
ATOM     99  F   UNL A   1      48.294  23.238  35.337  1.00  0.00    -0.200 F 
ATOM    100  F   UNL A   1      46.649  21.129  35.868  1.00  0.00    -0.200 F 
ENDBRANCH  67  90
ENDBRANCH  41  42
ENDBRANCH  33  36
ENDBRANCH  31  32
ENDBRANCH  30  31
ENDBRANCH  29  30
ENDBRANCH   1  29
TORSDOF 15
ENDMDL
