MODEL 1
REMARK VINA RESULT:     -13.2      0.000      0.000
REMARK SMILES NC(=O)c1cc(NC(=O)/C=C\C(=O)NCCCCCCNC(=O)c2ccc(-c3c4nc(c(-c5c(F)c(F)c(F)c(F)c5F)c5ccc([nH]5)c(-c5c(F)c(F)c(F)c(F)c5F)c5nc(c(-c6c(F)c(F)c(F)c(F)c6F)c6ccc3[nH]6)C=C5)C=C4)cc2)ccc1N1CCOCC1
REMARK SMILES IDX 17 1 16 2 15 3 14 4 12 5 13 6 11 8 10 9 8 10 7 11 9 13 6 14
REMARK SMILES IDX 4 15 5 16 89 17 88 18 87 19 2 20 1 21 3 24 90 25 91 26 95 27
REMARK SMILES IDX 92 28 94 29 93 30 18 31 19 32 20 33 21 34 22 35 23 37 24 38
REMARK SMILES IDX 25 39 86 40 26 41 85 42 27 43 28 44 29 45 79 46 30 47 84 48
REMARK SMILES IDX 78 49 80 50 31 51 83 52 77 53 76 54 32 56 64 57 44 58 63 59
REMARK SMILES IDX 45 60 48 61 62 62 81 63 46 64 47 65 61 67 82 68 49 69 33 70
REMARK SMILES IDX 34 71 42 72 35 73 36 74 40 75 43 76 37 77 38 78 41 79 39 80
REMARK SMILES IDX 65 81 66 82 74 83 67 84 68 85 72 86 75 87 69 88 70 89 73 90
REMARK SMILES IDX 71 91 50 92 51 93 59 94 52 95 53 96 57 97 60 98 54 99 55 100
REMARK SMILES IDX 58 101 56 102
REMARK H PARENT 14 7 7 12 1 22 1 23 21 36 80 55 48 66
REMARK Flexibility Score: inf
ROOT
ATOM      1  C   UNL A   1      35.915  21.628  25.544  1.00  0.00     0.002 C 
ENDROOT
BRANCH   1   2
ATOM      2  C   UNL A   1      34.892  20.648  24.966  1.00  0.00     0.021 C 
BRANCH   2   3
ATOM      3  C   UNL A   1      33.447  20.869  25.396  1.00  0.00     0.116 C 
BRANCH   3   4
ATOM      4  N   UNL A   1      32.467  20.753  24.339  1.00  0.00    -0.353 N 
ATOM      5  C   UNL A   1      32.337  21.527  23.234  1.00  0.00     0.244 C 
ATOM      6  O   UNL A   1      31.948  21.026  22.183  1.00  0.00    -0.270 OA
ATOM      7  H   UNL A   1      31.814  20.022  24.435  1.00  0.00     0.163 HD
BRANCH   5   8
ATOM      8  C   UNL A   1      32.688  22.958  23.258  1.00  0.00     0.077 C 
ATOM      9  C   UNL A   1      32.069  23.961  23.898  1.00  0.00     0.077 C 
BRANCH   9  10
ATOM     10  C   UNL A   1      30.970  23.963  24.894  1.00  0.00     0.248 C 
ATOM     11  N   UNL A   1      30.047  24.952  25.008  1.00  0.00    -0.322 N 
ATOM     12  H   UNL A   1      29.230  24.683  25.487  1.00  0.00     0.170 HD
ATOM     13  O   UNL A   1      30.865  22.968  25.617  1.00  0.00    -0.270 OA
BRANCH  11  14
ATOM     14  C   UNL A   1      30.037  26.281  24.571  1.00  0.00     0.042 A 
ATOM     15  C   UNL A   1      30.978  28.509  24.410  1.00  0.00     0.064 A 
ATOM     16  C   UNL A   1      31.003  27.206  24.936  1.00  0.00     0.042 A 
ATOM     17  C   UNL A   1      29.956  28.933  23.543  1.00  0.00     0.050 A 
ATOM     18  C   UNL A   1      28.982  27.973  23.209  1.00  0.00     0.029 A 
ATOM     19  C   UNL A   1      28.995  26.685  23.742  1.00  0.00     0.028 A 
BRANCH  15  20
ATOM     20  C   UNL A   1      32.054  29.380  24.916  1.00  0.00     0.250 C 
ATOM     21  N   UNL A   1      33.178  29.418  24.139  1.00  0.00    -0.366 N 
ATOM     22  H   UNL A   1      33.943  29.977  24.409  1.00  0.00     0.159 HD
ATOM     23  H   UNL A   1      33.223  28.888  23.311  1.00  0.00     0.159 HD
ATOM     24  O   UNL A   1      31.950  30.056  25.931  1.00  0.00    -0.269 OA
ENDBRANCH  15  20
BRANCH  17  25
ATOM     25  N   UNL A   1      29.736  30.216  23.072  1.00  0.00    -0.366 N 
ATOM     26  C   UNL A   1      29.072  31.281  23.839  1.00  0.00     0.145 C 
ATOM     27  C   UNL A   1      29.604  30.358  21.614  1.00  0.00     0.145 C 
ATOM     28  C   UNL A   1      27.639  31.545  23.329  1.00  0.00     0.181 C 
ATOM     29  C   UNL A   1      28.117  30.486  21.267  1.00  0.00     0.181 C 
ATOM     30  O   UNL A   1      27.562  31.653  21.893  1.00  0.00    -0.378 OA
ENDBRANCH  17  25
ENDBRANCH  11  14
ENDBRANCH   9  10
ENDBRANCH   5   8
ENDBRANCH   3   4
ENDBRANCH   2   3
ENDBRANCH   1   2
BRANCH   1  31
ATOM     31  C   UNL A   1      37.293  21.631  24.884  1.00  0.00     0.002 C 
BRANCH  31  32
ATOM     32  C   UNL A   1      38.092  20.351  25.094  1.00  0.00     0.021 C 
BRANCH  32  33
ATOM     33  C   UNL A   1      39.408  20.562  25.829  1.00  0.00     0.116 C 
BRANCH  33  34
ATOM     34  N   UNL A   1      40.187  19.335  25.917  1.00  0.00    -0.352 N 
ATOM     35  C   UNL A   1      41.547  19.225  26.083  1.00  0.00     0.251 C 
ATOM     36  H   UNL A   1      39.684  18.491  25.851  1.00  0.00     0.163 HD
ATOM     37  O   UNL A   1      42.131  18.157  25.953  1.00  0.00    -0.269 OA
BRANCH  35  38
ATOM     38  C   UNL A   1      42.293  20.457  26.401  1.00  0.00     0.039 A 
ATOM     39  C   UNL A   1      42.855  21.202  25.365  1.00  0.00     0.014 A 
ATOM     40  C   UNL A   1      42.298  20.929  27.717  1.00  0.00     0.014 A 
ATOM     41  C   UNL A   1      43.369  22.470  25.642  1.00  0.00     0.010 A 
ATOM     42  C   UNL A   1      42.744  22.219  27.974  1.00  0.00     0.010 A 
ATOM     43  C   UNL A   1      43.277  23.003  26.939  1.00  0.00    -0.014 A 
BRANCH  43  44
ATOM     44  C   UNL A   1      43.719  24.389  27.234  1.00  0.00     0.031 A 
ATOM     45  C   UNL A   1      42.724  25.399  27.728  1.00  0.00     0.074 A 
ATOM     46  C   UNL A   1      44.992  24.753  26.985  1.00  0.00     0.049 A 
ATOM     47  N   UNL A   1      42.887  26.676  27.962  1.00  0.00    -0.248 NA
ATOM     48  C   UNL A   1      41.356  24.914  27.969  1.00  0.00     0.031 C 
ATOM     49  C   UNL A   1      46.038  23.873  26.463  1.00  0.00     0.029 A 
ATOM     50  N   UNL A   1      45.619  25.967  27.123  1.00  0.00    -0.354 N 
ATOM     51  C   UNL A   1      41.644  27.146  28.364  1.00  0.00     0.074 A 
ATOM     52  C   UNL A   1      40.724  26.032  28.291  1.00  0.00     0.031 C 
ATOM     53  C   UNL A   1      47.179  24.568  26.340  1.00  0.00     0.029 A 
ATOM     54  C   UNL A   1      46.936  25.955  26.729  1.00  0.00     0.049 A 
ATOM     55  H   UNL A   1      45.169  26.770  27.471  1.00  0.00     0.167 HD
ATOM     56  C   UNL A   1      41.308  28.390  28.777  1.00  0.00     0.037 A 
ATOM     57  C   UNL A   1      47.838  26.953  26.670  1.00  0.00     0.037 A 
ATOM     58  C   UNL A   1      42.232  29.490  28.860  1.00  0.00     0.049 A 
ATOM     59  C   UNL A   1      47.427  28.336  27.104  1.00  0.00     0.074 A 
ATOM     60  C   UNL A   1      42.005  30.773  29.326  1.00  0.00     0.029 A 
ATOM     61  N   UNL A   1      43.559  29.440  28.455  1.00  0.00    -0.354 N 
ATOM     62  N   UNL A   1      46.270  28.752  27.559  1.00  0.00    -0.248 NA
ATOM     63  C   UNL A   1      48.449  29.388  27.019  1.00  0.00     0.031 C 
ATOM     64  C   UNL A   1      43.175  31.518  29.143  1.00  0.00     0.029 A 
ATOM     65  C   UNL A   1      44.151  30.681  28.625  1.00  0.00     0.049 A 
ATOM     66  H   UNL A   1      44.011  28.642  28.100  1.00  0.00     0.167 HD
ATOM     67  C   UNL A   1      46.431  30.103  27.835  1.00  0.00     0.074 A 
ATOM     68  C   UNL A   1      47.805  30.432  27.519  1.00  0.00     0.031 C 
ATOM     69  C   UNL A   1      45.522  30.992  28.305  1.00  0.00     0.037 A 
BRANCH  56  70
ATOM     70  C   UNL A   1      39.878  28.633  29.167  1.00  0.00     0.064 A 
ATOM     71  C   UNL A   1      39.422  28.415  30.475  1.00  0.00     0.173 A 
ATOM     72  C   UNL A   1      38.962  29.131  28.229  1.00  0.00     0.173 A 
ATOM     73  F   UNL A   1      40.253  27.928  31.409  1.00  0.00    -0.203 F 
ATOM     74  C   UNL A   1      38.096  28.660  30.822  1.00  0.00     0.198 A 
ATOM     75  C   UNL A   1      37.645  29.407  28.587  1.00  0.00     0.198 A 
ATOM     76  F   UNL A   1      39.345  29.362  26.963  1.00  0.00    -0.203 F 
ATOM     77  F   UNL A   1      37.670  28.397  32.066  1.00  0.00    -0.200 F 
ATOM     78  C   UNL A   1      37.211  29.165  29.882  1.00  0.00     0.200 A 
ATOM     79  F   UNL A   1      36.796  29.910  27.680  1.00  0.00    -0.200 F 
ATOM     80  F   UNL A   1      35.939  29.412  30.220  1.00  0.00    -0.200 F 
ENDBRANCH  56  70
BRANCH  57  81
ATOM     81  C   UNL A   1      49.217  26.687  26.180  1.00  0.00     0.064 A 
ATOM     82  C   UNL A   1      49.568  26.920  24.843  1.00  0.00     0.173 A 
ATOM     83  C   UNL A   1      50.209  26.176  27.031  1.00  0.00     0.173 A 
ATOM     84  F   UNL A   1      48.651  27.388  23.983  1.00  0.00    -0.203 F 
ATOM     85  C   UNL A   1      50.846  26.629  24.370  1.00  0.00     0.198 A 
ATOM     86  C   UNL A   1      51.496  25.915  26.566  1.00  0.00     0.198 A 
ATOM     87  F   UNL A   1      49.930  25.937  28.322  1.00  0.00    -0.203 F 
ATOM     88  F   UNL A   1      51.136  26.809  23.075  1.00  0.00    -0.200 F 
ATOM     89  C   UNL A   1      51.811  26.132  25.233  1.00  0.00     0.200 A 
ATOM     90  F   UNL A   1      52.430  25.452  27.408  1.00  0.00    -0.200 F 
ATOM     91  F   UNL A   1      53.040  25.854  24.780  1.00  0.00    -0.200 F 
ENDBRANCH  57  81
BRANCH  69  92
ATOM     92  C   UNL A   1      45.988  32.403  28.527  1.00  0.00     0.064 A 
ATOM     93  C   UNL A   1      45.868  33.385  27.533  1.00  0.00     0.173 A 
ATOM     94  C   UNL A   1      46.521  32.787  29.768  1.00  0.00     0.173 A 
ATOM     95  F   UNL A   1      45.379  33.066  26.325  1.00  0.00    -0.203 F 
ATOM     96  C   UNL A   1      46.290  34.692  27.762  1.00  0.00     0.198 A 
ATOM     97  C   UNL A   1      46.909  34.103  30.006  1.00  0.00     0.198 A 
ATOM     98  F   UNL A   1      46.651  31.889  30.756  1.00  0.00    -0.203 F 
ATOM     99  F   UNL A   1      46.213  35.600  26.781  1.00  0.00    -0.200 F 
ATOM    100  C   UNL A   1      46.801  35.052  29.001  1.00  0.00     0.200 A 
ATOM    101  F   UNL A   1      47.385  34.453  31.209  1.00  0.00    -0.200 F 
ATOM    102  F   UNL A   1      47.195  36.313  29.224  1.00  0.00    -0.200 F 
ENDBRANCH  69  92
ENDBRANCH  43  44
ENDBRANCH  35  38
ENDBRANCH  33  34
ENDBRANCH  32  33
ENDBRANCH  31  32
ENDBRANCH   1  31
TORSDOF 17
ENDMDL
MODEL 2
REMARK VINA RESULT:     -13.1      3.627      8.566
REMARK SMILES NC(=O)c1cc(NC(=O)/C=C\C(=O)NCCCCCCNC(=O)c2ccc(-c3c4nc(c(-c5c(F)c(F)c(F)c(F)c5F)c5ccc([nH]5)c(-c5c(F)c(F)c(F)c(F)c5F)c5nc(c(-c6c(F)c(F)c(F)c(F)c6F)c6ccc3[nH]6)C=C5)C=C4)cc2)ccc1N1CCOCC1
REMARK SMILES IDX 17 1 16 2 15 3 14 4 12 5 13 6 11 8 10 9 8 10 7 11 9 13 6 14
REMARK SMILES IDX 4 15 5 16 89 17 88 18 87 19 2 20 1 21 3 24 90 25 91 26 95 27
REMARK SMILES IDX 92 28 94 29 93 30 18 31 19 32 20 33 21 34 22 35 23 37 24 38
REMARK SMILES IDX 25 39 86 40 26 41 85 42 27 43 28 44 29 45 79 46 30 47 84 48
REMARK SMILES IDX 78 49 80 50 31 51 83 52 77 53 76 54 32 56 64 57 44 58 63 59
REMARK SMILES IDX 45 60 48 61 62 62 81 63 46 64 47 65 61 67 82 68 49 69 33 70
REMARK SMILES IDX 34 71 42 72 35 73 36 74 40 75 43 76 37 77 38 78 41 79 39 80
REMARK SMILES IDX 65 81 66 82 74 83 67 84 68 85 72 86 75 87 69 88 70 89 73 90
REMARK SMILES IDX 71 91 50 92 51 93 59 94 52 95 53 96 57 97 60 98 54 99 55 100
REMARK SMILES IDX 58 101 56 102
REMARK H PARENT 14 7 7 12 1 22 1 23 21 36 80 55 48 66
REMARK Flexibility Score: inf
ROOT
ATOM      1  C   UNL A   1      34.333  24.615  24.027  1.00  0.00     0.002 C 
ENDROOT
BRANCH   1   2
ATOM      2  C   UNL A   1      34.307  23.308  23.231  1.00  0.00     0.021 C 
BRANCH   2   3
ATOM      3  C   UNL A   1      32.966  22.586  23.187  1.00  0.00     0.116 C 
BRANCH   3   4
ATOM      4  N   UNL A   1      32.982  21.230  23.688  1.00  0.00    -0.353 N 
ATOM      5  C   UNL A   1      32.594  20.787  24.909  1.00  0.00     0.244 C 
ATOM      6  O   UNL A   1      32.078  19.679  25.019  1.00  0.00    -0.270 OA
ATOM      7  H   UNL A   1      33.317  20.544  23.066  1.00  0.00     0.163 HD
BRANCH   5   8
ATOM      8  C   UNL A   1      32.746  21.627  26.111  1.00  0.00     0.077 C 
ATOM      9  C   UNL A   1      31.879  22.509  26.630  1.00  0.00     0.077 C 
BRANCH   9  10
ATOM     10  C   UNL A   1      30.467  22.813  26.296  1.00  0.00     0.248 C 
ATOM     11  N   UNL A   1      30.062  23.933  25.642  1.00  0.00    -0.322 N 
ATOM     12  H   UNL A   1      29.169  23.857  25.234  1.00  0.00     0.170 HD
ATOM     13  O   UNL A   1      29.625  21.957  26.582  1.00  0.00    -0.270 OA
BRANCH  11  14
ATOM     14  C   UNL A   1      30.676  25.173  25.438  1.00  0.00     0.042 A 
ATOM     15  C   UNL A   1      31.333  27.057  24.062  1.00  0.00     0.064 A 
ATOM     16  C   UNL A   1      30.765  25.778  24.194  1.00  0.00     0.042 A 
ATOM     17  C   UNL A   1      31.870  27.741  25.167  1.00  0.00     0.050 A 
ATOM     18  C   UNL A   1      31.779  27.088  26.410  1.00  0.00     0.029 A 
ATOM     19  C   UNL A   1      31.232  25.813  26.541  1.00  0.00     0.028 A 
BRANCH  15  20
ATOM     20  C   UNL A   1      31.380  27.551  22.675  1.00  0.00     0.250 C 
ATOM     21  N   UNL A   1      32.556  27.317  22.019  1.00  0.00    -0.366 N 
ATOM     22  H   UNL A   1      32.667  27.617  21.087  1.00  0.00     0.159 HD
ATOM     23  H   UNL A   1      33.291  26.850  22.477  1.00  0.00     0.159 HD
ATOM     24  O   UNL A   1      30.433  28.095  22.123  1.00  0.00    -0.269 OA
ENDBRANCH  15  20
BRANCH  17  25
ATOM     25  N   UNL A   1      32.579  28.930  25.151  1.00  0.00    -0.366 N 
ATOM     26  C   UNL A   1      34.006  29.053  25.486  1.00  0.00     0.145 C 
ATOM     27  C   UNL A   1      31.799  30.153  25.399  1.00  0.00     0.145 C 
ATOM     28  C   UNL A   1      34.215  29.697  26.872  1.00  0.00     0.181 C 
ATOM     29  C   UNL A   1      32.022  30.589  26.852  1.00  0.00     0.181 C 
ATOM     30  O   UNL A   1      33.412  30.878  27.072  1.00  0.00    -0.378 OA
ENDBRANCH  17  25
ENDBRANCH  11  14
ENDBRANCH   9  10
ENDBRANCH   5   8
ENDBRANCH   3   4
ENDBRANCH   2   3
ENDBRANCH   1   2
BRANCH   1  31
ATOM     31  C   UNL A   1      34.875  24.525  25.451  1.00  0.00     0.002 C 
BRANCH  31  32
ATOM     32  C   UNL A   1      35.904  23.421  25.664  1.00  0.00     0.021 C 
BRANCH  32  33
ATOM     33  C   UNL A   1      37.280  23.748  25.104  1.00  0.00     0.116 C 
BRANCH  33  34
ATOM     34  N   UNL A   1      38.290  22.796  25.546  1.00  0.00    -0.352 N 
ATOM     35  C   UNL A   1      39.409  23.062  26.298  1.00  0.00     0.251 C 
ATOM     36  H   UNL A   1      38.155  21.859  25.276  1.00  0.00     0.163 HD
ATOM     37  O   UNL A   1      40.295  22.232  26.455  1.00  0.00    -0.269 OA
BRANCH  35  38
ATOM     38  C   UNL A   1      39.521  24.406  26.895  1.00  0.00     0.039 A 
ATOM     39  C   UNL A   1      39.043  24.621  28.187  1.00  0.00     0.014 A 
ATOM     40  C   UNL A   1      40.233  25.396  26.212  1.00  0.00     0.014 A 
ATOM     41  C   UNL A   1      39.340  25.824  28.830  1.00  0.00     0.010 A 
ATOM     42  C   UNL A   1      40.589  26.561  26.882  1.00  0.00     0.010 A 
ATOM     43  C   UNL A   1      40.151  26.782  28.197  1.00  0.00    -0.014 A 
BRANCH  43  44
ATOM     44  C   UNL A   1      40.570  28.021  28.900  1.00  0.00     0.031 A 
ATOM     45  C   UNL A   1      41.965  28.133  29.445  1.00  0.00     0.074 A 
ATOM     46  C   UNL A   1      39.675  29.005  29.113  1.00  0.00     0.049 A 
ATOM     47  N   UNL A   1      42.500  29.089  30.161  1.00  0.00    -0.248 NA
ATOM     48  C   UNL A   1      42.873  27.009  29.169  1.00  0.00     0.031 C 
ATOM     49  C   UNL A   1      38.280  28.991  28.671  1.00  0.00     0.029 A 
ATOM     50  N   UNL A   1      39.802  30.204  29.770  1.00  0.00    -0.354 N 
ATOM     51  C   UNL A   1      43.798  28.677  30.428  1.00  0.00     0.074 A 
ATOM     52  C   UNL A   1      43.955  27.362  29.846  1.00  0.00     0.031 C 
ATOM     53  C   UNL A   1      37.685  30.131  29.053  1.00  0.00     0.029 A 
ATOM     54  C   UNL A   1      38.640  30.937  29.809  1.00  0.00     0.049 A 
ATOM     55  H   UNL A   1      40.645  30.509  30.177  1.00  0.00     0.167 HD
ATOM     56  C   UNL A   1      44.776  29.346  31.082  1.00  0.00     0.037 A 
ATOM     57  C   UNL A   1      38.371  32.116  30.402  1.00  0.00     0.037 A 
ATOM     58  C   UNL A   1      44.616  30.659  31.647  1.00  0.00     0.049 A 
ATOM     59  C   UNL A   1      39.470  32.823  31.153  1.00  0.00     0.074 A 
ATOM     60  C   UNL A   1      45.563  31.449  32.273  1.00  0.00     0.029 A 
ATOM     61  N   UNL A   1      43.426  31.373  31.664  1.00  0.00    -0.354 N 
ATOM     62  N   UNL A   1      40.718  32.461  31.331  1.00  0.00    -0.248 NA
ATOM     63  C   UNL A   1      39.124  34.104  31.782  1.00  0.00     0.031 C 
ATOM     64  C   UNL A   1      44.932  32.613  32.727  1.00  0.00     0.029 A 
ATOM     65  C   UNL A   1      43.607  32.578  32.325  1.00  0.00     0.049 A 
ATOM     66  H   UNL A   1      42.579  31.069  31.266  1.00  0.00     0.167 HD
ATOM     67  C   UNL A   1      41.309  33.477  32.070  1.00  0.00     0.074 A 
ATOM     68  C   UNL A   1      40.289  34.482  32.287  1.00  0.00     0.031 C 
ATOM     69  C   UNL A   1      42.580  33.567  32.532  1.00  0.00     0.037 A 
BRANCH  56  70
ATOM     70  C   UNL A   1      46.107  28.667  31.230  1.00  0.00     0.064 A 
ATOM     71  C   UNL A   1      46.406  27.860  32.338  1.00  0.00     0.173 A 
ATOM     72  C   UNL A   1      47.082  28.789  30.228  1.00  0.00     0.173 A 
ATOM     73  F   UNL A   1      45.514  27.718  33.331  1.00  0.00    -0.203 F 
ATOM     74  C   UNL A   1      47.640  27.225  32.451  1.00  0.00     0.198 A 
ATOM     75  C   UNL A   1      48.301  28.126  30.328  1.00  0.00     0.198 A 
ATOM     76  F   UNL A   1      46.847  29.545  29.144  1.00  0.00    -0.203 F 
ATOM     77  F   UNL A   1      47.922  26.500  33.543  1.00  0.00    -0.200 F 
ATOM     78  C   UNL A   1      48.583  27.350  31.442  1.00  0.00     0.200 A 
ATOM     79  F   UNL A   1      49.205  28.236  29.344  1.00  0.00    -0.200 F 
ATOM     80  F   UNL A   1      49.765  26.729  31.546  1.00  0.00    -0.200 F 
ENDBRANCH  56  70
BRANCH  57  81
ATOM     81  C   UNL A   1      37.008  32.703  30.316  1.00  0.00     0.064 A 
ATOM     82  C   UNL A   1      36.621  33.476  29.212  1.00  0.00     0.173 A 
ATOM     83  C   UNL A   1      36.068  32.522  31.342  1.00  0.00     0.173 A 
ATOM     84  F   UNL A   1      37.489  33.698  28.213  1.00  0.00    -0.203 F 
ATOM     85  C   UNL A   1      35.359  34.065  29.149  1.00  0.00     0.198 A 
ATOM     86  C   UNL A   1      34.796  33.084  31.264  1.00  0.00     0.198 A 
ATOM     87  F   UNL A   1      36.383  31.788  32.421  1.00  0.00    -0.203 F 
ATOM     88  F   UNL A   1      35.038  34.845  28.108  1.00  0.00    -0.200 F 
ATOM     89  C   UNL A   1      34.446  33.865  30.173  1.00  0.00     0.200 A 
ATOM     90  F   UNL A   1      33.910  32.872  32.247  1.00  0.00    -0.200 F 
ATOM     91  F   UNL A   1      33.233  34.429  30.112  1.00  0.00    -0.200 F 
ENDBRANCH  57  81
BRANCH  69  92
ATOM     92  C   UNL A   1      42.949  34.807  33.298  1.00  0.00     0.064 A 
ATOM     93  C   UNL A   1      42.873  34.858  34.698  1.00  0.00     0.173 A 
ATOM     94  C   UNL A   1      43.425  35.942  32.625  1.00  0.00     0.173 A 
ATOM     95  F   UNL A   1      42.410  33.804  35.388  1.00  0.00    -0.203 F 
ATOM     96  C   UNL A   1      43.236  36.008  35.393  1.00  0.00     0.198 A 
ATOM     97  C   UNL A   1      43.821  37.079  33.325  1.00  0.00     0.198 A 
ATOM     98  F   UNL A   1      43.524  35.944  31.287  1.00  0.00    -0.203 F 
ATOM     99  F   UNL A   1      43.107  36.051  36.726  1.00  0.00    -0.200 F 
ATOM    100  C   UNL A   1      43.717  37.114  34.708  1.00  0.00     0.200 A 
ATOM    101  F   UNL A   1      44.303  38.139  32.663  1.00  0.00    -0.200 F 
ATOM    102  F   UNL A   1      44.077  38.216  35.379  1.00  0.00    -0.200 F 
ENDBRANCH  69  92
ENDBRANCH  43  44
ENDBRANCH  35  38
ENDBRANCH  33  34
ENDBRANCH  32  33
ENDBRANCH  31  32
ENDBRANCH   1  31
TORSDOF 17
ENDMDL
MODEL 3
REMARK VINA RESULT:     -13.1      5.495     11.520
REMARK SMILES NC(=O)c1cc(NC(=O)/C=C\C(=O)NCCCCCCNC(=O)c2ccc(-c3c4nc(c(-c5c(F)c(F)c(F)c(F)c5F)c5ccc([nH]5)c(-c5c(F)c(F)c(F)c(F)c5F)c5nc(c(-c6c(F)c(F)c(F)c(F)c6F)c6ccc3[nH]6)C=C5)C=C4)cc2)ccc1N1CCOCC1
REMARK SMILES IDX 17 1 16 2 15 3 14 4 12 5 13 6 11 8 10 9 8 10 7 11 9 13 6 14
REMARK SMILES IDX 4 15 5 16 89 17 88 18 87 19 2 20 1 21 3 24 90 25 91 26 95 27
REMARK SMILES IDX 92 28 94 29 93 30 18 31 19 32 20 33 21 34 22 35 23 37 24 38
REMARK SMILES IDX 25 39 86 40 26 41 85 42 27 43 28 44 29 45 79 46 30 47 84 48
REMARK SMILES IDX 78 49 80 50 31 51 83 52 77 53 76 54 32 56 64 57 44 58 63 59
REMARK SMILES IDX 45 60 48 61 62 62 81 63 46 64 47 65 61 67 82 68 49 69 33 70
REMARK SMILES IDX 34 71 42 72 35 73 36 74 40 75 43 76 37 77 38 78 41 79 39 80
REMARK SMILES IDX 65 81 66 82 74 83 67 84 68 85 72 86 75 87 69 88 70 89 73 90
REMARK SMILES IDX 71 91 50 92 51 93 59 94 52 95 53 96 57 97 60 98 54 99 55 100
REMARK SMILES IDX 58 101 56 102
REMARK H PARENT 14 7 7 12 1 22 1 23 21 36 80 55 48 66
REMARK Flexibility Score: inf
ROOT
ATOM      1  C   UNL A   1      33.080  29.599  25.805  1.00  0.00     0.002 C 
ENDROOT
BRANCH   1   2
ATOM      2  C   UNL A   1      32.445  28.514  24.934  1.00  0.00     0.021 C 
BRANCH   2   3
ATOM      3  C   UNL A   1      31.416  27.628  25.625  1.00  0.00     0.116 C 
BRANCH   3   4
ATOM      4  N   UNL A   1      31.963  26.507  26.356  1.00  0.00    -0.353 N 
ATOM      5  C   UNL A   1      31.897  25.192  26.036  1.00  0.00     0.244 C 
ATOM      6  O   UNL A   1      32.834  24.449  26.317  1.00  0.00    -0.270 OA
ATOM      7  H   UNL A   1      32.441  26.726  27.188  1.00  0.00     0.163 HD
BRANCH   5   8
ATOM      8  C   UNL A   1      30.734  24.635  25.321  1.00  0.00     0.077 C 
ATOM      9  C   UNL A   1      30.581  24.431  24.005  1.00  0.00     0.077 C 
BRANCH   9  10
ATOM     10  C   UNL A   1      31.538  24.528  22.876  1.00  0.00     0.248 C 
ATOM     11  N   UNL A   1      32.353  23.515  22.480  1.00  0.00    -0.322 N 
ATOM     12  H   UNL A   1      32.697  23.616  21.563  1.00  0.00     0.170 HD
ATOM     13  O   UNL A   1      31.540  25.578  22.228  1.00  0.00    -0.270 OA
BRANCH  11  14
ATOM     14  C   UNL A   1      32.793  22.357  23.128  1.00  0.00     0.042 A 
ATOM     15  C   UNL A   1      34.200  21.162  24.699  1.00  0.00     0.064 A 
ATOM     16  C   UNL A   1      33.847  22.346  24.027  1.00  0.00     0.042 A 
ATOM     17  C   UNL A   1      33.535  19.949  24.450  1.00  0.00     0.050 A 
ATOM     18  C   UNL A   1      32.482  19.994  23.518  1.00  0.00     0.029 A 
ATOM     19  C   UNL A   1      32.141  21.162  22.837  1.00  0.00     0.028 A 
BRANCH  15  20
ATOM     20  C   UNL A   1      35.358  21.307  25.599  1.00  0.00     0.250 C 
ATOM     21  N   UNL A   1      35.118  22.027  26.736  1.00  0.00    -0.366 N 
ATOM     22  H   UNL A   1      35.841  22.170  27.389  1.00  0.00     0.159 HD
ATOM     23  H   UNL A   1      34.224  22.404  26.901  1.00  0.00     0.159 HD
ATOM     24  O   UNL A   1      36.446  20.793  25.381  1.00  0.00    -0.269 OA
ENDBRANCH  15  20
BRANCH  17  25
ATOM     25  N   UNL A   1      33.872  18.696  24.931  1.00  0.00    -0.366 N 
ATOM     26  C   UNL A   1      34.794  17.767  24.261  1.00  0.00     0.145 C 
ATOM     27  C   UNL A   1      32.866  18.033  25.775  1.00  0.00     0.145 C 
ATOM     28  C   UNL A   1      34.043  16.596  23.593  1.00  0.00     0.181 C 
ATOM     29  C   UNL A   1      32.129  16.988  24.930  1.00  0.00     0.181 C 
ATOM     30  O   UNL A   1      33.053  15.997  24.455  1.00  0.00    -0.378 OA
ENDBRANCH  17  25
ENDBRANCH  11  14
ENDBRANCH   9  10
ENDBRANCH   5   8
ENDBRANCH   3   4
ENDBRANCH   2   3
ENDBRANCH   1   2
BRANCH   1  31
ATOM     31  C   UNL A   1      32.217  30.143  26.941  1.00  0.00     0.002 C 
BRANCH  31  32
ATOM     32  C   UNL A   1      31.937  31.639  26.857  1.00  0.00     0.021 C 
BRANCH  32  33
ATOM     33  C   UNL A   1      32.981  32.499  27.551  1.00  0.00     0.116 C 
BRANCH  33  34
ATOM     34  N   UNL A   1      32.559  33.889  27.660  1.00  0.00    -0.352 N 
ATOM     35  C   UNL A   1      33.007  34.825  28.562  1.00  0.00     0.251 C 
ATOM     36  H   UNL A   1      31.879  34.191  27.016  1.00  0.00     0.163 HD
ATOM     37  O   UNL A   1      32.454  35.908  28.698  1.00  0.00    -0.269 OA
BRANCH  35  38
ATOM     38  C   UNL A   1      34.173  34.465  29.389  1.00  0.00     0.039 A 
ATOM     39  C   UNL A   1      33.971  33.843  30.622  1.00  0.00     0.014 A 
ATOM     40  C   UNL A   1      35.458  34.621  28.860  1.00  0.00     0.014 A 
ATOM     41  C   UNL A   1      35.067  33.311  31.302  1.00  0.00     0.010 A 
ATOM     42  C   UNL A   1      36.535  34.026  29.504  1.00  0.00     0.010 A 
ATOM     43  C   UNL A   1      36.349  33.361  30.727  1.00  0.00    -0.014 A 
BRANCH  43  44
ATOM     44  C   UNL A   1      37.511  32.707  31.379  1.00  0.00     0.031 A 
ATOM     45  C   UNL A   1      38.181  31.540  30.713  1.00  0.00     0.074 A 
ATOM     46  C   UNL A   1      37.910  33.116  32.600  1.00  0.00     0.049 A 
ATOM     47  N   UNL A   1      39.151  30.780  31.154  1.00  0.00    -0.248 NA
ATOM     48  C   UNL A   1      37.678  31.161  29.384  1.00  0.00     0.031 C 
ATOM     49  C   UNL A   1      37.309  34.209  33.365  1.00  0.00     0.029 A 
ATOM     50  N   UNL A   1      38.907  32.647  33.419  1.00  0.00    -0.354 N 
ATOM     51  C   UNL A   1      39.364  29.830  30.164  1.00  0.00     0.074 A 
ATOM     52  C   UNL A   1      38.387  30.074  29.125  1.00  0.00     0.031 C 
ATOM     53  C   UNL A   1      37.959  34.338  34.533  1.00  0.00     0.029 A 
ATOM     54  C   UNL A   1      38.990  33.308  34.621  1.00  0.00     0.049 A 
ATOM     55  H   UNL A   1      39.506  31.906  33.170  1.00  0.00     0.167 HD
ATOM     56  C   UNL A   1      40.303  28.857  30.119  1.00  0.00     0.037 A 
ATOM     57  C   UNL A   1      39.794  33.095  35.681  1.00  0.00     0.037 A 
ATOM     58  C   UNL A   1      41.279  28.630  31.151  1.00  0.00     0.049 A 
ATOM     59  C   UNL A   1      40.808  31.983  35.617  1.00  0.00     0.074 A 
ATOM     60  C   UNL A   1      42.313  27.711  31.172  1.00  0.00     0.029 A 
ATOM     61  N   UNL A   1      41.335  29.321  32.353  1.00  0.00    -0.354 N 
ATOM     62  N   UNL A   1      41.054  31.141  34.642  1.00  0.00    -0.248 NA
ATOM     63  C   UNL A   1      41.658  31.793  36.799  1.00  0.00     0.031 C 
ATOM     64  C   UNL A   1      42.954  27.802  32.412  1.00  0.00     0.029 A 
ATOM     65  C   UNL A   1      42.362  28.822  33.138  1.00  0.00     0.049 A 
ATOM     66  H   UNL A   1      40.734  30.057  32.610  1.00  0.00     0.167 HD
ATOM     67  C   UNL A   1      42.098  30.340  35.083  1.00  0.00     0.074 A 
ATOM     68  C   UNL A   1      42.456  30.812  36.405  1.00  0.00     0.031 C 
ATOM     69  C   UNL A   1      42.704  29.304  34.452  1.00  0.00     0.037 A 
BRANCH  56  70
ATOM     70  C   UNL A   1      40.318  27.958  28.917  1.00  0.00     0.064 A 
ATOM     71  C   UNL A   1      41.056  28.274  27.767  1.00  0.00     0.173 A 
ATOM     72  C   UNL A   1      39.617  26.742  28.930  1.00  0.00     0.173 A 
ATOM     73  F   UNL A   1      41.735  29.429  27.696  1.00  0.00    -0.203 F 
ATOM     74  C   UNL A   1      41.071  27.421  26.666  1.00  0.00     0.198 A 
ATOM     75  C   UNL A   1      39.661  25.876  27.842  1.00  0.00     0.198 A 
ATOM     76  F   UNL A   1      38.897  26.388  30.005  1.00  0.00    -0.203 F 
ATOM     77  F   UNL A   1      41.744  27.768  25.560  1.00  0.00    -0.200 F 
ATOM     78  C   UNL A   1      40.382  26.218  26.708  1.00  0.00     0.200 A 
ATOM     79  F   UNL A   1      39.007  24.707  27.890  1.00  0.00    -0.200 F 
ATOM     80  F   UNL A   1      40.407  25.393  25.653  1.00  0.00    -0.200 F 
ENDBRANCH  56  70
BRANCH  57  81
ATOM     81  C   UNL A   1      39.674  33.948  36.894  1.00  0.00     0.064 A 
ATOM     82  C   UNL A   1      38.871  33.560  37.975  1.00  0.00     0.173 A 
ATOM     83  C   UNL A   1      40.343  35.178  36.990  1.00  0.00     0.173 A 
ATOM     84  F   UNL A   1      38.194  32.403  37.924  1.00  0.00    -0.203 F 
ATOM     85  C   UNL A   1      38.721  34.377  39.093  1.00  0.00     0.198 A 
ATOM     86  C   UNL A   1      40.218  35.980  38.122  1.00  0.00     0.198 A 
ATOM     87  F   UNL A   1      41.128  35.598  35.986  1.00  0.00    -0.203 F 
ATOM     88  F   UNL A   1      37.903  34.006  40.087  1.00  0.00    -0.200 F 
ATOM     89  C   UNL A   1      39.399  35.584  39.169  1.00  0.00     0.200 A 
ATOM     90  F   UNL A   1      40.890  37.137  38.198  1.00  0.00    -0.200 F 
ATOM     91  F   UNL A   1      39.257  36.370  40.244  1.00  0.00    -0.200 F 
ENDBRANCH  57  81
BRANCH  69  92
ATOM     92  C   UNL A   1      43.834  28.623  35.174  1.00  0.00     0.064 A 
ATOM     93  C   UNL A   1      45.156  29.082  35.073  1.00  0.00     0.173 A 
ATOM     94  C   UNL A   1      43.582  27.524  36.010  1.00  0.00     0.173 A 
ATOM     95  F   UNL A   1      45.452  30.118  34.275  1.00  0.00    -0.203 F 
ATOM     96  C   UNL A   1      46.187  28.449  35.762  1.00  0.00     0.198 A 
ATOM     97  C   UNL A   1      44.610  26.916  36.725  1.00  0.00     0.198 A 
ATOM     98  F   UNL A   1      42.334  27.050  36.148  1.00  0.00    -0.203 F 
ATOM     99  F   UNL A   1      47.449  28.872  35.610  1.00  0.00    -0.200 F 
ATOM    100  C   UNL A   1      45.912  27.373  36.594  1.00  0.00     0.200 A 
ATOM    101  F   UNL A   1      44.340  25.890  37.543  1.00  0.00    -0.200 F 
ATOM    102  F   UNL A   1      46.905  26.774  37.266  1.00  0.00    -0.200 F 
ENDBRANCH  69  92
ENDBRANCH  43  44
ENDBRANCH  35  38
ENDBRANCH  33  34
ENDBRANCH  32  33
ENDBRANCH  31  32
ENDBRANCH   1  31
TORSDOF 17
ENDMDL
