MODEL 1
REMARK VINA RESULT:     -11.0      0.000      0.000
REMARK SMILES CCNC(=O)N1CC[C@H](Cc2cccc(C(=O)NCCCCCCNC(=O)c3ccc(-c4c5nc(c(-c6c(F)c(F)c(F)c(F)c6F)c6ccc([nH]6)c(-c6c(F)c(F)c(F)c(F)c6F)c6nc(c(-c7c(F)c(F)c(F)c(F)c7F)c7ccc4[nH]7)C=C6)C=C5)cc3)c2)C1
REMARK SMILES IDX 20 1 19 2 18 3 16 4 17 5 15 7 11 8 12 9 91 10 13 11 14 12
REMARK SMILES IDX 10 13 9 14 6 15 7 16 92 17 8 18 4 19 3 20 5 22 2 23 1 24
REMARK SMILES IDX 21 25 22 26 23 27 24 28 25 29 26 30 27 32 28 33 29 34 90 35
REMARK SMILES IDX 30 36 89 37 31 38 32 39 33 40 83 41 34 42 88 43 82 44 84 45
REMARK SMILES IDX 35 46 87 47 81 48 80 49 36 51 68 52 48 53 67 54 49 55 52 56
REMARK SMILES IDX 66 57 85 58 50 59 51 60 65 62 86 63 53 64 37 65 38 66 46 67
REMARK SMILES IDX 39 68 40 69 44 70 47 71 41 72 42 73 45 74 43 75 69 76 70 77
REMARK SMILES IDX 78 78 71 79 72 80 76 81 79 82 73 83 74 84 77 85 75 86 54 87
REMARK SMILES IDX 55 88 63 89 56 90 57 91 61 92 64 93 58 94 59 95 62 96 60 97
REMARK H PARENT 18 6 3 21 25 31 84 50 52 61
REMARK Flexibility Score: inf
ROOT
ATOM      1  C   UNL A   1      31.978  29.309  26.713  1.00  0.00     0.021 C 
ENDROOT
BRANCH   1   2
ATOM      2  C   UNL A   1      31.663  29.148  25.233  1.00  0.00     0.116 C 
BRANCH   2   3
ATOM      3  N   UNL A   1      32.784  29.400  24.339  1.00  0.00    -0.352 N 
ATOM      4  C   UNL A   1      33.447  28.575  23.452  1.00  0.00     0.251 C 
ATOM      5  O   UNL A   1      34.394  29.038  22.816  1.00  0.00    -0.269 OA
ATOM      6  H   UNL A   1      33.129  30.321  24.373  1.00  0.00     0.163 HD
BRANCH   4   7
ATOM      7  C   UNL A   1      33.091  27.139  23.279  1.00  0.00     0.040 A 
ATOM      8  C   UNL A   1      33.594  24.779  23.643  1.00  0.00    -0.047 A 
ATOM      9  C   UNL A   1      32.623  24.439  22.695  1.00  0.00     0.004 A 
ATOM     10  C   UNL A   1      33.739  26.129  23.986  1.00  0.00     0.017 A 
ATOM     11  C   UNL A   1      31.845  25.432  22.093  1.00  0.00     0.001 A 
ATOM     12  C   UNL A   1      32.098  26.780  22.363  1.00  0.00     0.014 A 
BRANCH   8  13
ATOM     13  C   UNL A   1      34.554  23.734  24.170  1.00  0.00     0.041 C 
BRANCH  13  14
ATOM     14  C   UNL A   1      33.981  22.798  25.242  1.00  0.00     0.015 C 
ATOM     15  N   UNL A   1      31.894  22.891  26.325  1.00  0.00    -0.325 N 
ATOM     16  C   UNL A   1      32.896  22.840  27.369  1.00  0.00     0.121 C 
ATOM     17  C   UNL A   1      32.479  22.535  25.053  1.00  0.00     0.125 C 
ATOM     18  C   UNL A   1      34.104  23.399  26.656  1.00  0.00     0.027 C 
BRANCH  15  19
ATOM     19  C   UNL A   1      30.557  23.076  26.460  1.00  0.00     0.317 C 
ATOM     20  N   UNL A   1      30.085  24.348  26.513  1.00  0.00    -0.338 N 
ATOM     21  H   UNL A   1      29.287  24.497  27.068  1.00  0.00     0.165 HD
ATOM     22  O   UNL A   1      29.757  22.143  26.471  1.00  0.00    -0.249 OA
BRANCH  20  23
ATOM     23  C   UNL A   1      30.633  25.513  25.839  1.00  0.00     0.114 C 
ATOM     24  C   UNL A   1      29.620  26.117  24.881  1.00  0.00     0.027 C 
ENDBRANCH  20  23
ENDBRANCH  15  19
ENDBRANCH  13  14
ENDBRANCH   8  13
ENDBRANCH   4   7
ENDBRANCH   2   3
ENDBRANCH   1   2
BRANCH   1  25
ATOM     25  C   UNL A   1      33.434  29.591  27.075  1.00  0.00     0.002 C 
BRANCH  25  26
ATOM     26  C   UNL A   1      33.722  30.947  27.726  1.00  0.00     0.002 C 
BRANCH  26  27
ATOM     27  C   UNL A   1      32.629  32.011  27.597  1.00  0.00     0.021 C 
BRANCH  27  28
ATOM     28  C   UNL A   1      33.062  33.339  26.982  1.00  0.00     0.116 C 
BRANCH  28  29
ATOM     29  N   UNL A   1      32.661  34.485  27.781  1.00  0.00    -0.352 N 
ATOM     30  C   UNL A   1      33.120  34.907  29.003  1.00  0.00     0.251 C 
ATOM     31  H   UNL A   1      31.954  35.043  27.384  1.00  0.00     0.163 HD
ATOM     32  O   UNL A   1      32.546  35.814  29.595  1.00  0.00    -0.269 OA
BRANCH  30  33
ATOM     33  C   UNL A   1      34.294  34.255  29.626  1.00  0.00     0.039 A 
ATOM     34  C   UNL A   1      34.085  33.369  30.688  1.00  0.00     0.014 A 
ATOM     35  C   UNL A   1      35.593  34.523  29.187  1.00  0.00     0.014 A 
ATOM     36  C   UNL A   1      35.172  32.709  31.267  1.00  0.00     0.010 A 
ATOM     37  C   UNL A   1      36.667  33.810  29.715  1.00  0.00     0.010 A 
ATOM     38  C   UNL A   1      36.469  32.896  30.761  1.00  0.00    -0.014 A 
BRANCH  38  39
ATOM     39  C   UNL A   1      37.627  32.152  31.322  1.00  0.00     0.031 A 
ATOM     40  C   UNL A   1      38.169  32.506  32.680  1.00  0.00     0.074 A 
ATOM     41  C   UNL A   1      38.219  31.188  30.589  1.00  0.00     0.049 A 
ATOM     42  N   UNL A   1      39.213  32.026  33.308  1.00  0.00    -0.248 NA
ATOM     43  C   UNL A   1      37.454  33.556  33.425  1.00  0.00     0.031 C 
ATOM     44  C   UNL A   1      37.808  30.772  29.247  1.00  0.00     0.029 A 
ATOM     45  N   UNL A   1      39.300  30.387  30.866  1.00  0.00    -0.354 N 
ATOM     46  C   UNL A   1      39.276  32.709  34.515  1.00  0.00     0.074 A 
ATOM     47  C   UNL A   1      38.208  33.683  34.507  1.00  0.00     0.031 C 
ATOM     48  C   UNL A   1      38.611  29.781  28.827  1.00  0.00     0.029 A 
ATOM     49  C   UNL A   1      39.622  29.522  29.849  1.00  0.00     0.049 A 
ATOM     50  H   UNL A   1      39.798  30.429  31.715  1.00  0.00     0.167 HD
ATOM     51  C   UNL A   1      40.130  32.519  35.550  1.00  0.00     0.037 A 
ATOM     52  C   UNL A   1      40.626  28.631  29.746  1.00  0.00     0.037 A 
ATOM     53  C   UNL A   1      41.188  31.545  35.562  1.00  0.00     0.049 A 
ATOM     54  C   UNL A   1      41.592  28.481  30.894  1.00  0.00     0.074 A 
ATOM     55  C   UNL A   1      42.097  31.268  36.568  1.00  0.00     0.029 A 
ATOM     56  N   UNL A   1      41.478  30.683  34.514  1.00  0.00    -0.354 N 
ATOM     57  N   UNL A   1      41.607  29.096  32.053  1.00  0.00    -0.248 NA
ATOM     58  C   UNL A   1      42.678  27.506  30.723  1.00  0.00     0.031 C 
ATOM     59  C   UNL A   1      42.962  30.267  36.115  1.00  0.00     0.029 A 
ATOM     60  C   UNL A   1      42.559  29.882  34.846  1.00  0.00     0.049 A 
ATOM     61  H   UNL A   1      40.989  30.646  33.661  1.00  0.00     0.167 HD
ATOM     62  C   UNL A   1      42.672  28.553  32.758  1.00  0.00     0.074 A 
ATOM     63  C   UNL A   1      43.269  27.547  31.906  1.00  0.00     0.031 C 
ATOM     64  C   UNL A   1      43.121  28.864  33.999  1.00  0.00     0.037 A 
BRANCH  51  65
ATOM     65  C   UNL A   1      39.941  33.370  36.774  1.00  0.00     0.064 A 
ATOM     66  C   UNL A   1      39.054  32.990  37.794  1.00  0.00     0.173 A 
ATOM     67  C   UNL A   1      40.692  34.539  36.960  1.00  0.00     0.173 A 
ATOM     68  F   UNL A   1      38.304  31.887  37.661  1.00  0.00    -0.203 F 
ATOM     69  C   UNL A   1      38.915  33.760  38.947  1.00  0.00     0.198 A 
ATOM     70  C   UNL A   1      40.573  35.290  38.128  1.00  0.00     0.198 A 
ATOM     71  F   UNL A   1      41.558  34.945  36.019  1.00  0.00    -0.203 F 
ATOM     72  F   UNL A   1      38.034  33.398  39.889  1.00  0.00    -0.200 F 
ATOM     73  C   UNL A   1      39.681  34.903  39.116  1.00  0.00     0.200 A 
ATOM     74  F   UNL A   1      41.325  36.387  38.297  1.00  0.00    -0.200 F 
ATOM     75  F   UNL A   1      39.558  35.634  40.233  1.00  0.00    -0.200 F 
ENDBRANCH  51  65
BRANCH  52  76
ATOM     76  C   UNL A   1      40.782  27.798  28.522  1.00  0.00     0.064 A 
ATOM     77  C   UNL A   1      41.533  28.256  27.430  1.00  0.00     0.173 A 
ATOM     78  C   UNL A   1      40.137  26.559  28.393  1.00  0.00     0.173 A 
ATOM     79  F   UNL A   1      42.152  29.443  27.494  1.00  0.00    -0.203 F 
ATOM     80  C   UNL A   1      41.596  27.529  26.242  1.00  0.00     0.198 A 
ATOM     81  C   UNL A   1      40.232  25.815  27.218  1.00  0.00     0.198 A 
ATOM     82  F   UNL A   1      39.412  26.069  29.409  1.00  0.00    -0.203 F 
ATOM     83  F   UNL A   1      42.260  28.027  25.190  1.00  0.00    -0.200 F 
ATOM     84  C   UNL A   1      40.947  26.309  26.138  1.00  0.00     0.200 A 
ATOM     85  F   UNL A   1      39.618  24.628  27.126  1.00  0.00    -0.200 F 
ATOM     86  F   UNL A   1      41.000  25.615  24.992  1.00  0.00    -0.200 F 
ENDBRANCH  52  76
BRANCH  64  87
ATOM     87  C   UNL A   1      44.273  28.063  34.536  1.00  0.00     0.064 A 
ATOM     88  C   UNL A   1      45.601  28.489  34.392  1.00  0.00     0.173 A 
ATOM     89  C   UNL A   1      44.039  26.869  35.236  1.00  0.00     0.173 A 
ATOM     90  F   UNL A   1      45.881  29.615  33.720  1.00  0.00    -0.203 F 
ATOM     91  C   UNL A   1      46.655  27.732  34.901  1.00  0.00     0.198 A 
ATOM     92  C   UNL A   1      45.091  26.134  35.773  1.00  0.00     0.198 A 
ATOM     93  F   UNL A   1      42.786  26.422  35.410  1.00  0.00    -0.203 F 
ATOM     94  F   UNL A   1      47.919  28.130  34.703  1.00  0.00    -0.200 F 
ATOM     95  C   UNL A   1      46.398  26.561  35.597  1.00  0.00     0.200 A 
ATOM     96  F   UNL A   1      44.840  25.011  36.460  1.00  0.00    -0.200 F 
ATOM     97  F   UNL A   1      47.412  25.839  36.092  1.00  0.00    -0.200 F 
ENDBRANCH  64  87
ENDBRANCH  38  39
ENDBRANCH  30  33
ENDBRANCH  28  29
ENDBRANCH  27  28
ENDBRANCH  26  27
ENDBRANCH  25  26
ENDBRANCH   1  25
TORSDOF 17
ENDMDL
MODEL 2
REMARK VINA RESULT:     -10.7      0.995      7.539
REMARK SMILES CCNC(=O)N1CC[C@H](Cc2cccc(C(=O)NCCCCCCNC(=O)c3ccc(-c4c5nc(c(-c6c(F)c(F)c(F)c(F)c6F)c6ccc([nH]6)c(-c6c(F)c(F)c(F)c(F)c6F)c6nc(c(-c7c(F)c(F)c(F)c(F)c7F)c7ccc4[nH]7)C=C6)C=C5)cc3)c2)C1
REMARK SMILES IDX 20 1 19 2 18 3 16 4 17 5 15 7 11 8 12 9 91 10 13 11 14 12
REMARK SMILES IDX 10 13 9 14 6 15 7 16 92 17 8 18 4 19 3 20 5 22 2 23 1 24
REMARK SMILES IDX 21 25 22 26 23 27 24 28 25 29 26 30 27 32 28 33 29 34 90 35
REMARK SMILES IDX 30 36 89 37 31 38 32 39 33 40 83 41 34 42 88 43 82 44 84 45
REMARK SMILES IDX 35 46 87 47 81 48 80 49 36 51 68 52 48 53 67 54 49 55 52 56
REMARK SMILES IDX 66 57 85 58 50 59 51 60 65 62 86 63 53 64 37 65 38 66 46 67
REMARK SMILES IDX 39 68 40 69 44 70 47 71 41 72 42 73 45 74 43 75 69 76 70 77
REMARK SMILES IDX 78 78 71 79 72 80 76 81 79 82 73 83 74 84 77 85 75 86 54 87
REMARK SMILES IDX 55 88 63 89 56 90 57 91 61 92 64 93 58 94 59 95 62 96 60 97
REMARK H PARENT 18 6 3 21 25 31 84 50 52 61
REMARK Flexibility Score: inf
ROOT
ATOM      1  C   UNL A   1      33.074  29.393  27.109  1.00  0.00     0.021 C 
ENDROOT
BRANCH   1   2
ATOM      2  C   UNL A   1      32.397  29.876  25.835  1.00  0.00     0.116 C 
BRANCH   2   3
ATOM      3  N   UNL A   1      33.182  29.703  24.622  1.00  0.00    -0.352 N 
ATOM      4  C   UNL A   1      33.141  28.734  23.638  1.00  0.00     0.251 C 
ATOM      5  O   UNL A   1      33.943  28.808  22.708  1.00  0.00    -0.269 OA
ATOM      6  H   UNL A   1      33.861  30.400  24.477  1.00  0.00     0.163 HD
BRANCH   4   7
ATOM      7  C   UNL A   1      32.201  27.580  23.694  1.00  0.00     0.040 A 
ATOM      8  C   UNL A   1      31.773  25.190  23.453  1.00  0.00    -0.047 A 
ATOM      9  C   UNL A   1      30.398  25.446  23.475  1.00  0.00     0.004 A 
ATOM     10  C   UNL A   1      32.649  26.261  23.662  1.00  0.00     0.017 A 
ATOM     11  C   UNL A   1      29.926  26.747  23.673  1.00  0.00     0.001 A 
ATOM     12  C   UNL A   1      30.824  27.814  23.753  1.00  0.00     0.014 A 
BRANCH   8  13
ATOM     13  C   UNL A   1      32.294  23.821  23.070  1.00  0.00     0.041 C 
BRANCH  13  14
ATOM     14  C   UNL A   1      31.892  22.678  24.012  1.00  0.00     0.015 C 
ATOM     15  N   UNL A   1      33.117  21.716  25.775  1.00  0.00    -0.325 N 
ATOM     16  C   UNL A   1      32.717  20.625  24.911  1.00  0.00     0.121 C 
ATOM     17  C   UNL A   1      32.368  22.908  25.455  1.00  0.00     0.125 C 
ATOM     18  C   UNL A   1      32.528  21.338  23.593  1.00  0.00     0.027 C 
BRANCH  15  19
ATOM     19  C   UNL A   1      33.941  21.667  26.852  1.00  0.00     0.317 C 
ATOM     20  N   UNL A   1      35.272  21.499  26.637  1.00  0.00    -0.338 N 
ATOM     21  H   UNL A   1      35.766  20.996  27.323  1.00  0.00     0.165 HD
ATOM     22  O   UNL A   1      33.539  21.833  28.002  1.00  0.00    -0.249 OA
BRANCH  20  23
ATOM     23  C   UNL A   1      36.042  21.982  25.503  1.00  0.00     0.114 C 
ATOM     24  C   UNL A   1      36.116  23.499  25.500  1.00  0.00     0.027 C 
ENDBRANCH  20  23
ENDBRANCH  15  19
ENDBRANCH  13  14
ENDBRANCH   8  13
ENDBRANCH   4   7
ENDBRANCH   2   3
ENDBRANCH   1   2
BRANCH   1  25
ATOM     25  C   UNL A   1      34.494  29.893  27.359  1.00  0.00     0.002 C 
BRANCH  25  26
ATOM     26  C   UNL A   1      34.629  31.339  27.848  1.00  0.00     0.002 C 
BRANCH  26  27
ATOM     27  C   UNL A   1      33.327  32.126  28.011  1.00  0.00     0.021 C 
BRANCH  27  28
ATOM     28  C   UNL A   1      33.225  33.419  27.207  1.00  0.00     0.116 C 
BRANCH  28  29
ATOM     29  N   UNL A   1      32.752  34.540  28.001  1.00  0.00    -0.352 N 
ATOM     30  C   UNL A   1      33.157  34.972  29.239  1.00  0.00     0.251 C 
ATOM     31  H   UNL A   1      32.032  35.070  27.589  1.00  0.00     0.163 HD
ATOM     32  O   UNL A   1      32.528  35.848  29.821  1.00  0.00    -0.269 OA
BRANCH  30  33
ATOM     33  C   UNL A   1      34.341  34.366  29.891  1.00  0.00     0.039 A 
ATOM     34  C   UNL A   1      34.152  33.580  31.031  1.00  0.00     0.014 A 
ATOM     35  C   UNL A   1      35.631  34.583  29.399  1.00  0.00     0.014 A 
ATOM     36  C   UNL A   1      35.247  32.964  31.641  1.00  0.00     0.010 A 
ATOM     37  C   UNL A   1      36.713  33.910  29.963  1.00  0.00     0.010 A 
ATOM     38  C   UNL A   1      36.533  33.094  31.092  1.00  0.00    -0.014 A 
BRANCH  38  39
ATOM     39  C   UNL A   1      37.699  32.392  31.689  1.00  0.00     0.031 A 
ATOM     40  C   UNL A   1      38.371  31.271  30.943  1.00  0.00     0.074 A 
ATOM     41  C   UNL A   1      38.126  32.734  32.920  1.00  0.00     0.049 A 
ATOM     42  N   UNL A   1      39.351  30.490  31.324  1.00  0.00    -0.248 NA
ATOM     43  C   UNL A   1      37.859  30.973  29.595  1.00  0.00     0.031 C 
ATOM     44  C   UNL A   1      37.541  33.782  33.758  1.00  0.00     0.029 A 
ATOM     45  N   UNL A   1      39.147  32.230  33.688  1.00  0.00    -0.354 N 
ATOM     46  C   UNL A   1      39.572  29.617  30.268  1.00  0.00     0.074 A 
ATOM     47  C   UNL A   1      38.584  29.916  29.256  1.00  0.00     0.031 C 
ATOM     48  C   UNL A   1      38.223  33.858  34.912  1.00  0.00     0.029 A 
ATOM     49  C   UNL A   1      39.265  32.834  34.916  1.00  0.00     0.049 A 
ATOM     50  H   UNL A   1      39.739  31.503  33.386  1.00  0.00     0.167 HD
ATOM     51  C   UNL A   1      40.534  28.671  30.140  1.00  0.00     0.037 A 
ATOM     52  C   UNL A   1      40.109  32.583  35.935  1.00  0.00     0.037 A 
ATOM     53  C   UNL A   1      41.523  28.378  31.144  1.00  0.00     0.049 A 
ATOM     54  C   UNL A   1      41.134  31.487  35.783  1.00  0.00     0.074 A 
ATOM     55  C   UNL A   1      42.546  27.447  31.103  1.00  0.00     0.029 A 
ATOM     56  N   UNL A   1      41.613  29.016  32.372  1.00  0.00    -0.354 N 
ATOM     57  N   UNL A   1      41.367  30.705  34.756  1.00  0.00    -0.248 NA
ATOM     58  C   UNL A   1      42.018  31.244  36.931  1.00  0.00     0.031 C 
ATOM     59  C   UNL A   1      43.231  27.494  32.321  1.00  0.00     0.029 A 
ATOM     60  C   UNL A   1      42.668  28.491  33.101  1.00  0.00     0.049 A 
ATOM     61  H   UNL A   1      41.016  29.736  32.680  1.00  0.00     0.167 HD
ATOM     62  C   UNL A   1      42.447  29.911  35.120  1.00  0.00     0.074 A 
ATOM     63  C   UNL A   1      42.834  30.317  36.454  1.00  0.00     0.031 C 
ATOM     64  C   UNL A   1      43.060  28.929  34.416  1.00  0.00     0.037 A 
BRANCH  51  65
ATOM     65  C   UNL A   1      40.582  27.894  28.856  1.00  0.00     0.064 A 
ATOM     66  C   UNL A   1      41.381  28.314  27.780  1.00  0.00     0.173 A 
ATOM     67  C   UNL A   1      39.874  26.691  28.716  1.00  0.00     0.173 A 
ATOM     68  F   UNL A   1      42.069  29.462  27.858  1.00  0.00    -0.203 F 
ATOM     69  C   UNL A   1      41.455  27.567  26.607  1.00  0.00     0.198 A 
ATOM     70  C   UNL A   1      39.975  25.930  27.553  1.00  0.00     0.198 A 
ATOM     71  F   UNL A   1      39.100  26.241  29.716  1.00  0.00    -0.203 F 
ATOM     72  F   UNL A   1      42.193  28.008  25.580  1.00  0.00    -0.200 F 
ATOM     73  C   UNL A   1      40.760  26.371  26.499  1.00  0.00     0.200 A 
ATOM     74  F   UNL A   1      39.315  24.768  27.455  1.00  0.00    -0.200 F 
ATOM     75  F   UNL A   1      40.845  25.646  25.376  1.00  0.00    -0.200 F 
ENDBRANCH  51  65
BRANCH  52  76
ATOM     76  C   UNL A   1      40.040  33.376  37.193  1.00  0.00     0.064 A 
ATOM     77  C   UNL A   1      39.093  33.076  38.182  1.00  0.00     0.173 A 
ATOM     78  C   UNL A   1      40.876  34.482  37.407  1.00  0.00     0.173 A 
ATOM     79  F   UNL A   1      38.257  32.041  38.017  1.00  0.00    -0.203 F 
ATOM     80  C   UNL A   1      38.953  33.878  39.314  1.00  0.00     0.198 A 
ATOM     81  C   UNL A   1      40.761  35.261  38.557  1.00  0.00     0.198 A 
ATOM     82  F   UNL A   1      41.805  34.809  36.497  1.00  0.00    -0.203 F 
ATOM     83  F   UNL A   1      37.989  33.611  40.206  1.00  0.00    -0.200 F 
ATOM     84  C   UNL A   1      39.788  34.969  39.501  1.00  0.00     0.200 A 
ATOM     85  F   UNL A   1      41.580  36.305  38.743  1.00  0.00    -0.200 F 
ATOM     86  F   UNL A   1      39.647  35.746  40.584  1.00  0.00    -0.200 F 
ENDBRANCH  52  76
BRANCH  64  87
ATOM     87  C   UNL A   1      44.254  28.270  35.045  1.00  0.00     0.064 A 
ATOM     88  C   UNL A   1      44.138  27.099  35.807  1.00  0.00     0.173 A 
ATOM     89  C   UNL A   1      45.539  28.803  34.853  1.00  0.00     0.173 A 
ATOM     90  F   UNL A   1      42.932  26.557  36.033  1.00  0.00    -0.203 F 
ATOM     91  C   UNL A   1      45.259  26.503  36.380  1.00  0.00     0.198 A 
ATOM     92  C   UNL A   1      46.660  28.186  35.397  1.00  0.00     0.198 A 
ATOM     93  F   UNL A   1      45.706  29.917  34.124  1.00  0.00    -0.203 F 
ATOM     94  F   UNL A   1      45.117  25.416  37.151  1.00  0.00    -0.200 F 
ATOM     95  C   UNL A   1      46.519  27.042  36.168  1.00  0.00     0.200 A 
ATOM     96  F   UNL A   1      47.879  28.698  35.177  1.00  0.00    -0.200 F 
ATOM     97  F   UNL A   1      47.597  26.463  36.713  1.00  0.00    -0.200 F 
ENDBRANCH  64  87
ENDBRANCH  38  39
ENDBRANCH  30  33
ENDBRANCH  28  29
ENDBRANCH  27  28
ENDBRANCH  26  27
ENDBRANCH  25  26
ENDBRANCH   1  25
TORSDOF 17
ENDMDL
MODEL 3
REMARK VINA RESULT:     -10.6      1.491      7.584
REMARK SMILES CCNC(=O)N1CC[C@H](Cc2cccc(C(=O)NCCCCCCNC(=O)c3ccc(-c4c5nc(c(-c6c(F)c(F)c(F)c(F)c6F)c6ccc([nH]6)c(-c6c(F)c(F)c(F)c(F)c6F)c6nc(c(-c7c(F)c(F)c(F)c(F)c7F)c7ccc4[nH]7)C=C6)C=C5)cc3)c2)C1
REMARK SMILES IDX 20 1 19 2 18 3 16 4 17 5 15 7 11 8 12 9 91 10 13 11 14 12
REMARK SMILES IDX 10 13 9 14 6 15 7 16 92 17 8 18 4 19 3 20 5 22 2 23 1 24
REMARK SMILES IDX 21 25 22 26 23 27 24 28 25 29 26 30 27 32 28 33 29 34 90 35
REMARK SMILES IDX 30 36 89 37 31 38 32 39 33 40 83 41 34 42 88 43 82 44 84 45
REMARK SMILES IDX 35 46 87 47 81 48 80 49 36 51 68 52 48 53 67 54 49 55 52 56
REMARK SMILES IDX 66 57 85 58 50 59 51 60 65 62 86 63 53 64 37 65 38 66 46 67
REMARK SMILES IDX 39 68 40 69 44 70 47 71 41 72 42 73 45 74 43 75 69 76 70 77
REMARK SMILES IDX 78 78 71 79 72 80 76 81 79 82 73 83 74 84 77 85 75 86 54 87
REMARK SMILES IDX 55 88 63 89 56 90 57 91 61 92 64 93 58 94 59 95 62 96 60 97
REMARK H PARENT 18 6 3 21 25 31 84 50 52 61
REMARK Flexibility Score: inf
ROOT
ATOM      1  C   UNL A   1      32.480  29.903  25.497  1.00  0.00     0.021 C 
ENDROOT
BRANCH   1   2
ATOM      2  C   UNL A   1      32.992  29.245  24.224  1.00  0.00     0.116 C 
BRANCH   2   3
ATOM      3  N   UNL A   1      31.982  29.031  23.198  1.00  0.00    -0.352 N 
ATOM      4  C   UNL A   1      31.062  28.017  23.020  1.00  0.00     0.251 C 
ATOM      5  O   UNL A   1      30.320  28.063  22.040  1.00  0.00    -0.269 OA
ATOM      6  H   UNL A   1      31.949  29.735  22.511  1.00  0.00     0.163 HD
BRANCH   4   7
ATOM      7  C   UNL A   1      30.976  26.847  23.939  1.00  0.00     0.040 A 
ATOM      8  C   UNL A   1      31.426  24.497  24.415  1.00  0.00    -0.047 A 
ATOM      9  C   UNL A   1      30.546  24.561  25.500  1.00  0.00     0.004 A 
ATOM     10  C   UNL A   1      31.697  25.677  23.712  1.00  0.00     0.017 A 
ATOM     11  C   UNL A   1      29.938  25.771  25.846  1.00  0.00     0.001 A 
ATOM     12  C   UNL A   1      30.130  26.904  25.050  1.00  0.00     0.014 A 
BRANCH   8  13
ATOM     13  C   UNL A   1      31.952  23.163  23.929  1.00  0.00     0.041 C 
BRANCH  13  14
ATOM     14  C   UNL A   1      33.083  22.558  24.771  1.00  0.00     0.015 C 
ATOM     15  N   UNL A   1      35.369  22.354  24.251  1.00  0.00    -0.325 N 
ATOM     16  C   UNL A   1      34.912  21.030  24.616  1.00  0.00     0.121 C 
ATOM     17  C   UNL A   1      34.397  23.346  24.648  1.00  0.00     0.125 C 
ATOM     18  C   UNL A   1      33.434  21.127  24.318  1.00  0.00     0.027 C 
BRANCH  15  19
ATOM     19  C   UNL A   1      36.581  22.711  23.757  1.00  0.00     0.317 C 
ATOM     20  N   UNL A   1      37.629  22.791  24.618  1.00  0.00    -0.338 N 
ATOM     21  H   UNL A   1      38.312  23.468  24.414  1.00  0.00     0.165 HD
ATOM     22  O   UNL A   1      36.779  22.900  22.558  1.00  0.00    -0.249 OA
BRANCH  20  23
ATOM     23  C   UNL A   1      37.848  21.982  25.805  1.00  0.00     0.114 C 
ATOM     24  C   UNL A   1      39.331  21.757  26.047  1.00  0.00     0.027 C 
ENDBRANCH  20  23
ENDBRANCH  15  19
ENDBRANCH  13  14
ENDBRANCH   8  13
ENDBRANCH   4   7
ENDBRANCH   2   3
ENDBRANCH   1   2
BRANCH   1  25
ATOM     25  C   UNL A   1      33.318  29.697  26.756  1.00  0.00     0.002 C 
BRANCH  25  26
ATOM     26  C   UNL A   1      33.549  30.935  27.629  1.00  0.00     0.002 C 
BRANCH  26  27
ATOM     27  C   UNL A   1      32.471  32.020  27.570  1.00  0.00     0.021 C 
BRANCH  27  28
ATOM     28  C   UNL A   1      32.890  33.342  26.933  1.00  0.00     0.116 C 
BRANCH  28  29
ATOM     29  N   UNL A   1      32.567  34.492  27.760  1.00  0.00    -0.352 N 
ATOM     30  C   UNL A   1      33.094  34.883  28.965  1.00  0.00     0.251 C 
ATOM     31  H   UNL A   1      31.864  35.080  27.401  1.00  0.00     0.163 HD
ATOM     32  O   UNL A   1      32.581  35.803  29.591  1.00  0.00    -0.269 OA
BRANCH  30  33
ATOM     33  C   UNL A   1      34.270  34.181  29.529  1.00  0.00     0.039 A 
ATOM     34  C   UNL A   1      35.536  34.468  29.011  1.00  0.00     0.014 A 
ATOM     35  C   UNL A   1      34.131  33.233  30.546  1.00  0.00     0.014 A 
ATOM     36  C   UNL A   1      36.666  33.851  29.553  1.00  0.00     0.010 A 
ATOM     37  C   UNL A   1      35.263  32.673  31.135  1.00  0.00     0.010 A 
ATOM     38  C   UNL A   1      36.543  32.975  30.644  1.00  0.00    -0.014 A 
BRANCH  38  39
ATOM     39  C   UNL A   1      37.740  32.360  31.275  1.00  0.00     0.031 A 
ATOM     40  C   UNL A   1      38.460  31.229  30.592  1.00  0.00     0.074 A 
ATOM     41  C   UNL A   1      38.152  32.790  32.484  1.00  0.00     0.049 A 
ATOM     42  N   UNL A   1      39.474  30.516  31.013  1.00  0.00    -0.248 NA
ATOM     43  C   UNL A   1      37.960  30.833  29.264  1.00  0.00     0.031 C 
ATOM     44  C   UNL A   1      37.522  33.857  33.263  1.00  0.00     0.029 A 
ATOM     45  N   UNL A   1      39.196  32.376  33.276  1.00  0.00    -0.354 N 
ATOM     46  C   UNL A   1      39.733  29.595  30.007  1.00  0.00     0.074 A 
ATOM     47  C   UNL A   1      38.731  29.793  28.983  1.00  0.00     0.031 C 
ATOM     48  C   UNL A   1      38.202  34.028  34.409  1.00  0.00     0.029 A 
ATOM     49  C   UNL A   1      39.288  33.053  34.467  1.00  0.00     0.049 A 
ATOM     50  H   UNL A   1      39.819  31.660  33.013  1.00  0.00     0.167 HD
ATOM     51  C   UNL A   1      40.735  28.687  29.930  1.00  0.00     0.037 A 
ATOM     52  C   UNL A   1      40.144  32.897  35.496  1.00  0.00     0.037 A 
ATOM     53  C   UNL A   1      41.737  28.495  30.945  1.00  0.00     0.049 A 
ATOM     54  C   UNL A   1      41.215  31.841  35.402  1.00  0.00     0.074 A 
ATOM     55  C   UNL A   1      42.801  27.609  30.953  1.00  0.00     0.029 A 
ATOM     56  N   UNL A   1      41.800  29.205  32.135  1.00  0.00    -0.354 N 
ATOM     57  N   UNL A   1      41.483  31.013  34.420  1.00  0.00    -0.248 NA
ATOM     58  C   UNL A   1      42.111  31.703  36.559  1.00  0.00     0.031 C 
ATOM     59  C   UNL A   1      43.484  27.755  32.164  1.00  0.00     0.029 A 
ATOM     60  C   UNL A   1      42.878  28.769  32.889  1.00  0.00     0.049 A 
ATOM     61  H   UNL A   1      41.172  29.914  32.404  1.00  0.00     0.167 HD
ATOM     62  C   UNL A   1      42.597  30.290  34.825  1.00  0.00     0.074 A 
ATOM     63  C   UNL A   1      42.967  30.788  36.132  1.00  0.00     0.031 C 
ATOM     64  C   UNL A   1      43.252  29.297  34.175  1.00  0.00     0.037 A 
BRANCH  51  65
ATOM     65  C   UNL A   1      40.816  27.841  28.691  1.00  0.00     0.064 A 
ATOM     66  C   UNL A   1      40.043  26.678  28.552  1.00  0.00     0.173 A 
ATOM     67  C   UNL A   1      41.623  28.225  27.609  1.00  0.00     0.173 A 
ATOM     68  F   UNL A   1      39.263  26.261  29.561  1.00  0.00    -0.203 F 
ATOM     69  C   UNL A   1      40.088  25.920  27.384  1.00  0.00     0.198 A 
ATOM     70  C   UNL A   1      41.642  27.482  26.431  1.00  0.00     0.198 A 
ATOM     71  F   UNL A   1      42.378  29.331  27.686  1.00  0.00    -0.203 F 
ATOM     72  F   UNL A   1      39.372  24.793  27.291  1.00  0.00    -0.200 F 
ATOM     73  C   UNL A   1      40.880  26.328  26.321  1.00  0.00     0.200 A 
ATOM     74  F   UNL A   1      42.396  27.885  25.399  1.00  0.00    -0.200 F 
ATOM     75  F   UNL A   1      40.911  25.608  25.192  1.00  0.00    -0.200 F 
ENDBRANCH  51  65
BRANCH  52  76
ATOM     76  C   UNL A   1      40.041  33.757  36.707  1.00  0.00     0.064 A 
ATOM     77  C   UNL A   1      39.230  33.383  37.788  1.00  0.00     0.173 A 
ATOM     78  C   UNL A   1      40.701  34.992  36.786  1.00  0.00     0.173 A 
ATOM     79  F   UNL A   1      38.562  32.221  37.755  1.00  0.00    -0.203 F 
ATOM     80  C   UNL A   1      39.047  34.231  38.880  1.00  0.00     0.198 A 
ATOM     81  C   UNL A   1      40.547  35.822  37.895  1.00  0.00     0.198 A 
ATOM     82  F   UNL A   1      41.495  35.396  35.784  1.00  0.00    -0.203 F 
ATOM     83  F   UNL A   1      38.207  33.881  39.864  1.00  0.00    -0.200 F 
ATOM     84  C   UNL A   1      39.707  35.449  38.932  1.00  0.00     0.200 A 
ATOM     85  F   UNL A   1      41.199  36.992  37.950  1.00  0.00    -0.200 F 
ATOM     86  F   UNL A   1      39.522  36.269  39.977  1.00  0.00    -0.200 F 
ENDBRANCH  52  76
BRANCH  64  87
ATOM     87  C   UNL A   1      44.475  28.729  34.836  1.00  0.00     0.064 A 
ATOM     88  C   UNL A   1      45.748  29.283  34.639  1.00  0.00     0.173 A 
ATOM     89  C   UNL A   1      44.363  27.633  35.707  1.00  0.00     0.173 A 
ATOM     90  F   UNL A   1      45.911  30.322  33.805  1.00  0.00    -0.203 F 
ATOM     91  C   UNL A   1      46.869  28.742  35.264  1.00  0.00     0.198 A 
ATOM     92  C   UNL A   1      45.480  27.118  36.357  1.00  0.00     0.198 A 
ATOM     93  F   UNL A   1      43.167  27.072  35.937  1.00  0.00    -0.203 F 
ATOM     94  F   UNL A   1      48.083  29.253  35.017  1.00  0.00    -0.200 F 
ATOM     95  C   UNL A   1      46.733  27.666  36.128  1.00  0.00     0.200 A 
ATOM     96  F   UNL A   1      45.344  26.088  37.205  1.00  0.00    -0.200 F 
ATOM     97  F   UNL A   1      47.811  27.152  36.735  1.00  0.00    -0.200 F 
ENDBRANCH  64  87
ENDBRANCH  38  39
ENDBRANCH  30  33
ENDBRANCH  28  29
ENDBRANCH  27  28
ENDBRANCH  26  27
ENDBRANCH  25  26
ENDBRANCH   1  25
TORSDOF 17
ENDMDL
