MODEL 1
REMARK VINA RESULT:     -12.9      0.000      0.000
REMARK SMILES CC(C)(C)OC(=O)N1C[C@@H](C(=O)NCCCCCCNC(=O)c2ccc(-c3c4nc(c(-c5c(F)c(F)c(F)c(F)c5F)c5ccc([nH]5)c(-c5c(F)c(F)c(F)c(F)c5F)c5nc(c(-c6c(F)c(F)c(F)c(F)c6F)c6ccc3[nH]6)C=C5)C=C4)cc2)[C@@]2(C1)C(=O)Nc1ccccc12
REMARK SMILES IDX 16 1 15 2 14 3 13 4 11 5 12 6 10 8 8 9 9 10 87 11 86 12
REMARK SMILES IDX 88 13 96 14 89 15 90 16 91 17 95 18 92 20 94 21 93 22 6 23
REMARK SMILES IDX 7 24 5 25 2 26 1 27 3 28 4 29 17 30 18 31 19 32 20 33 21 34
REMARK SMILES IDX 22 36 23 37 24 38 85 39 25 40 84 41 26 42 27 43 28 44 78 45
REMARK SMILES IDX 29 46 83 47 77 48 79 49 30 50 82 51 76 52 75 53 31 55 63 56
REMARK SMILES IDX 43 57 62 58 44 59 47 60 61 61 80 62 45 63 46 64 60 66 81 67
REMARK SMILES IDX 48 68 32 69 33 70 41 71 34 72 35 73 39 74 42 75 36 76 37 77
REMARK SMILES IDX 40 78 38 79 64 80 65 81 73 82 66 83 67 84 71 85 74 86 68 87
REMARK SMILES IDX 69 88 72 89 70 90 49 91 50 92 58 93 51 94 52 95 56 96 59 97
REMARK SMILES IDX 53 98 54 99 57 100 55 101
REMARK H PARENT 13 7 90 19 20 35 79 54 47 65
REMARK Flexibility Score: inf
ROOT
ATOM      1  C   UNL A   1      32.388  29.995  25.693  1.00  0.00     0.002 C 
ENDROOT
BRANCH   1   2
ATOM      2  C   UNL A   1      32.515  28.512  26.068  1.00  0.00     0.021 C 
BRANCH   2   3
ATOM      3  C   UNL A   1      33.953  28.056  26.339  1.00  0.00     0.116 C 
BRANCH   3   4
ATOM      4  N   UNL A   1      34.373  26.978  25.458  1.00  0.00    -0.356 N 
ATOM      5  C   UNL A   1      33.966  25.706  25.228  1.00  0.00     0.226 C 
ATOM      6  O   UNL A   1      34.617  25.096  24.369  1.00  0.00    -0.275 OA
ATOM      7  H   UNL A   1      35.136  27.234  24.891  1.00  0.00     0.163 HD
BRANCH   5   8
ATOM      8  C   UNL A   1      32.819  24.981  25.923  1.00  0.00     0.120 C 
ATOM      9  N   UNL A   1      32.641  22.624  25.717  1.00  0.00    -0.306 N 
ATOM     10  C   UNL A   1      33.251  23.661  26.527  1.00  0.00     0.138 C 
ATOM     11  C   UNL A   1      31.727  23.178  24.706  1.00  0.00     0.145 C 
ATOM     12  C   UNL A   1      31.538  24.652  25.140  1.00  0.00     0.107 C 
ATOM     13  C   UNL A   1      30.322  24.595  26.126  1.00  0.00     0.237 C 
ATOM     14  C   UNL A   1      31.041  25.713  24.171  1.00  0.00    -0.006 A 
ATOM     15  O   UNL A   1      30.232  23.958  27.163  1.00  0.00    -0.274 OA
ATOM     16  N   UNL A   1      29.313  25.387  25.617  1.00  0.00    -0.325 N 
ATOM     17  C   UNL A   1      29.732  26.075  24.499  1.00  0.00     0.045 A 
ATOM     18  C   UNL A   1      31.685  26.456  23.193  1.00  0.00     0.007 A 
ATOM     19  H   UNL A   1      28.409  25.452  26.003  1.00  0.00     0.169 HD
ATOM     20  C   UNL A   1      29.020  27.075  23.861  1.00  0.00     0.026 A 
ATOM     21  C   UNL A   1      31.000  27.491  22.538  1.00  0.00     0.000 A 
ATOM     22  C   UNL A   1      29.672  27.791  22.862  1.00  0.00     0.002 A 
BRANCH   9  23
ATOM     23  C   UNL A   1      32.802  21.319  26.127  1.00  0.00     0.410 C 
ATOM     24  O   UNL A   1      33.531  21.035  27.070  1.00  0.00    -0.224 OA
BRANCH  23  25
ATOM     25  O   UNL A   1      32.155  20.409  25.354  1.00  0.00    -0.444 OA
BRANCH  25  26
ATOM     26  C   UNL A   1      32.926  19.325  24.744  1.00  0.00     0.106 C 
ATOM     27  C   UNL A   1      32.399  19.195  23.306  1.00  0.00     0.056 C 
ATOM     28  C   UNL A   1      32.643  18.028  25.507  1.00  0.00     0.056 C 
ATOM     29  C   UNL A   1      34.444  19.580  24.643  1.00  0.00     0.056 C 
ENDBRANCH  25  26
ENDBRANCH  23  25
ENDBRANCH   9  23
ENDBRANCH   5   8
ENDBRANCH   3   4
ENDBRANCH   2   3
ENDBRANCH   1   2
BRANCH   1  30
ATOM     30  C   UNL A   1      31.299  30.753  26.461  1.00  0.00     0.002 C 
BRANCH  30  31
ATOM     31  C   UNL A   1      31.430  32.278  26.435  1.00  0.00     0.021 C 
BRANCH  31  32
ATOM     32  C   UNL A   1      32.577  32.832  27.275  1.00  0.00     0.116 C 
BRANCH  32  33
ATOM     33  N   UNL A   1      32.382  34.238  27.594  1.00  0.00    -0.352 N 
ATOM     34  C   UNL A   1      33.005  34.982  28.566  1.00  0.00     0.251 C 
ATOM     35  H   UNL A   1      31.721  34.715  27.044  1.00  0.00     0.163 HD
ATOM     36  O   UNL A   1      32.597  36.100  28.860  1.00  0.00    -0.269 OA
BRANCH  34  37
ATOM     37  C   UNL A   1      34.173  34.413  29.268  1.00  0.00     0.039 A 
ATOM     38  C   UNL A   1      33.976  33.675  30.437  1.00  0.00     0.014 A 
ATOM     39  C   UNL A   1      35.462  34.615  28.764  1.00  0.00     0.014 A 
ATOM     40  C   UNL A   1      35.073  33.099  31.083  1.00  0.00     0.010 A 
ATOM     41  C   UNL A   1      36.546  33.998  29.378  1.00  0.00     0.010 A 
ATOM     42  C   UNL A   1      36.363  33.243  30.547  1.00  0.00    -0.014 A 
BRANCH  42  43
ATOM     43  C   UNL A   1      37.548  32.644  31.209  1.00  0.00     0.031 A 
ATOM     44  C   UNL A   1      38.292  31.529  30.529  1.00  0.00     0.074 A 
ATOM     45  C   UNL A   1      37.903  33.042  32.445  1.00  0.00     0.049 A 
ATOM     46  N   UNL A   1      39.266  30.783  30.983  1.00  0.00    -0.248 NA
ATOM     47  C   UNL A   1      37.861  31.191  29.164  1.00  0.00     0.031 C 
ATOM     48  C   UNL A   1      37.239  34.089  33.220  1.00  0.00     0.029 A 
ATOM     49  N   UNL A   1      38.902  32.594  33.274  1.00  0.00    -0.354 N 
ATOM     50  C   UNL A   1      39.544  29.871  29.974  1.00  0.00     0.074 A 
ATOM     51  C   UNL A   1      38.611  30.132  28.898  1.00  0.00     0.031 C 
ATOM     52  C   UNL A   1      37.853  34.210  34.410  1.00  0.00     0.029 A 
ATOM     53  C   UNL A   1      38.929  33.226  34.493  1.00  0.00     0.049 A 
ATOM     54  H   UNL A   1      39.539  31.888  33.018  1.00  0.00     0.167 HD
ATOM     55  C   UNL A   1      40.500  28.914  29.940  1.00  0.00     0.037 A 
ATOM     56  C   UNL A   1      39.726  33.024  35.560  1.00  0.00     0.037 A 
ATOM     57  C   UNL A   1      41.451  28.683  30.995  1.00  0.00     0.049 A 
ATOM     58  C   UNL A   1      40.794  31.967  35.490  1.00  0.00     0.074 A 
ATOM     59  C   UNL A   1      42.495  27.776  31.034  1.00  0.00     0.029 A 
ATOM     60  N   UNL A   1      41.474  29.375  32.197  1.00  0.00    -0.354 N 
ATOM     61  N   UNL A   1      41.079  31.141  34.512  1.00  0.00    -0.248 NA
ATOM     62  C   UNL A   1      41.657  31.817  36.671  1.00  0.00     0.031 C 
ATOM     63  C   UNL A   1      43.132  27.897  32.275  1.00  0.00     0.029 A 
ATOM     64  C   UNL A   1      42.509  28.908  32.990  1.00  0.00     0.049 A 
ATOM     65  H   UNL A   1      40.848  30.091  32.450  1.00  0.00     0.167 HD
ATOM     66  C   UNL A   1      42.168  30.398  34.945  1.00  0.00     0.074 A 
ATOM     67  C   UNL A   1      42.499  30.874  36.271  1.00  0.00     0.031 C 
ATOM     68  C   UNL A   1      42.835  29.410  34.300  1.00  0.00     0.037 A 
BRANCH  55  69
ATOM     69  C   UNL A   1      40.567  28.044  28.720  1.00  0.00     0.064 A 
ATOM     70  C   UNL A   1      41.335  28.403  27.602  1.00  0.00     0.173 A 
ATOM     71  C   UNL A   1      39.877  26.823  28.678  1.00  0.00     0.173 A 
ATOM     72  F   UNL A   1      42.002  29.567  27.588  1.00  0.00    -0.203 F 
ATOM     73  C   UNL A   1      41.385  27.585  26.476  1.00  0.00     0.198 A 
ATOM     74  C   UNL A   1      39.952  25.995  27.561  1.00  0.00     0.198 A 
ATOM     75  F   UNL A   1      39.131  26.431  29.722  1.00  0.00    -0.203 F 
ATOM     76  F   UNL A   1      42.086  27.973  25.401  1.00  0.00    -0.200 F 
ATOM     77  C   UNL A   1      40.700  26.381  26.458  1.00  0.00     0.200 A 
ATOM     78  F   UNL A   1      39.298  24.826  27.550  1.00  0.00    -0.200 F 
ATOM     79  F   UNL A   1      40.754  25.593  25.375  1.00  0.00    -0.200 F 
ENDBRANCH  55  69
BRANCH  56  80
ATOM     80  C   UNL A   1      39.561  33.859  36.776  1.00  0.00     0.064 A 
ATOM     81  C   UNL A   1      40.191  35.107  36.880  1.00  0.00     0.173 A 
ATOM     82  C   UNL A   1      38.774  33.433  37.855  1.00  0.00     0.173 A 
ATOM     83  F   UNL A   1      40.971  35.547  35.881  1.00  0.00    -0.203 F 
ATOM     84  C   UNL A   1      40.057  35.889  38.025  1.00  0.00     0.198 A 
ATOM     85  C   UNL A   1      38.619  34.227  38.990  1.00  0.00     0.198 A 
ATOM     86  F   UNL A   1      38.146  32.250  37.802  1.00  0.00    -0.203 F 
ATOM     87  F   UNL A   1      40.703  37.059  38.115  1.00  0.00    -0.200 F 
ATOM     88  C   UNL A   1      39.267  35.450  39.077  1.00  0.00     0.200 A 
ATOM     89  F   UNL A   1      37.845  33.805  39.999  1.00  0.00    -0.200 F 
ATOM     90  F   UNL A   1      39.133  36.204  40.177  1.00  0.00    -0.200 F 
ENDBRANCH  56  80
BRANCH  68  91
ATOM     91  C   UNL A   1      44.017  28.808  34.999  1.00  0.00     0.064 A 
ATOM     92  C   UNL A   1      43.889  27.684  35.826  1.00  0.00     0.173 A 
ATOM     93  C   UNL A   1      45.302  29.333  34.794  1.00  0.00     0.173 A 
ATOM     94  F   UNL A   1      42.679  27.155  36.064  1.00  0.00    -0.203 F 
ATOM     95  C   UNL A   1      45.004  27.118  36.438  1.00  0.00     0.198 A 
ATOM     96  C   UNL A   1      46.417  28.751  35.387  1.00  0.00     0.198 A 
ATOM     97  F   UNL A   1      45.475  30.405  34.005  1.00  0.00    -0.203 F 
ATOM     98  F   UNL A   1      44.856  26.065  37.255  1.00  0.00    -0.200 F 
ATOM     99  C   UNL A   1      46.267  27.646  36.212  1.00  0.00     0.200 A 
ATOM    100  F   UNL A   1      47.637  29.256  35.159  1.00  0.00    -0.200 F 
ATOM    101  F   UNL A   1      47.340  27.094  36.796  1.00  0.00    -0.200 F 
ENDBRANCH  68  91
ENDBRANCH  42  43
ENDBRANCH  34  37
ENDBRANCH  32  33
ENDBRANCH  31  32
ENDBRANCH  30  31
ENDBRANCH   1  30
TORSDOF 16
ENDMDL
MODEL 2
REMARK VINA RESULT:     -12.8      0.292      1.635
REMARK SMILES CC(C)(C)OC(=O)N1C[C@@H](C(=O)NCCCCCCNC(=O)c2ccc(-c3c4nc(c(-c5c(F)c(F)c(F)c(F)c5F)c5ccc([nH]5)c(-c5c(F)c(F)c(F)c(F)c5F)c5nc(c(-c6c(F)c(F)c(F)c(F)c6F)c6ccc3[nH]6)C=C5)C=C4)cc2)[C@@]2(C1)C(=O)Nc1ccccc12
REMARK SMILES IDX 16 1 15 2 14 3 13 4 11 5 12 6 10 8 8 9 9 10 87 11 86 12
REMARK SMILES IDX 88 13 96 14 89 15 90 16 91 17 95 18 92 20 94 21 93 22 6 23
REMARK SMILES IDX 7 24 5 25 2 26 1 27 3 28 4 29 17 30 18 31 19 32 20 33 21 34
REMARK SMILES IDX 22 36 23 37 24 38 85 39 25 40 84 41 26 42 27 43 28 44 78 45
REMARK SMILES IDX 29 46 83 47 77 48 79 49 30 50 82 51 76 52 75 53 31 55 63 56
REMARK SMILES IDX 43 57 62 58 44 59 47 60 61 61 80 62 45 63 46 64 60 66 81 67
REMARK SMILES IDX 48 68 32 69 33 70 41 71 34 72 35 73 39 74 42 75 36 76 37 77
REMARK SMILES IDX 40 78 38 79 64 80 65 81 73 82 66 83 67 84 71 85 74 86 68 87
REMARK SMILES IDX 69 88 72 89 70 90 49 91 50 92 58 93 51 94 52 95 56 96 59 97
REMARK SMILES IDX 53 98 54 99 57 100 55 101
REMARK H PARENT 13 7 90 19 20 35 79 54 47 65
REMARK Flexibility Score: inf
ROOT
ATOM      1  C   UNL A   1      32.338  29.841  26.658  1.00  0.00     0.002 C 
ENDROOT
BRANCH   1   2
ATOM      2  C   UNL A   1      33.209  28.954  25.758  1.00  0.00     0.021 C 
BRANCH   2   3
ATOM      3  C   UNL A   1      33.996  27.876  26.511  1.00  0.00     0.116 C 
BRANCH   3   4
ATOM      4  N   UNL A   1      34.458  26.809  25.639  1.00  0.00    -0.356 N 
ATOM      5  C   UNL A   1      34.071  25.535  25.385  1.00  0.00     0.226 C 
ATOM      6  O   UNL A   1      34.760  24.937  24.547  1.00  0.00    -0.275 OA
ATOM      7  H   UNL A   1      35.241  27.075  25.104  1.00  0.00     0.163 HD
BRANCH   5   8
ATOM      8  C   UNL A   1      32.905  24.796  26.030  1.00  0.00     0.120 C 
ATOM      9  N   UNL A   1      32.712  22.450  25.735  1.00  0.00    -0.306 N 
ATOM     10  C   UNL A   1      33.313  23.451  26.594  1.00  0.00     0.138 C 
ATOM     11  C   UNL A   1      31.822  23.048  24.727  1.00  0.00     0.145 C 
ATOM     12  C   UNL A   1      31.637  24.507  25.211  1.00  0.00     0.107 C 
ATOM     13  C   UNL A   1      30.401  24.425  26.170  1.00  0.00     0.237 C 
ATOM     14  C   UNL A   1      31.169  25.607  24.271  1.00  0.00    -0.006 A 
ATOM     15  O   UNL A   1      30.285  23.752  27.181  1.00  0.00    -0.274 OA
ATOM     16  N   UNL A   1      29.409  25.244  25.670  1.00  0.00    -0.325 N 
ATOM     17  C   UNL A   1      29.856  25.968  24.586  1.00  0.00     0.045 A 
ATOM     18  C   UNL A   1      31.838  26.379  23.334  1.00  0.00     0.007 A 
ATOM     19  H   UNL A   1      28.499  25.303  26.040  1.00  0.00     0.169 HD
ATOM     20  C   UNL A   1      29.166  26.997  23.971  1.00  0.00     0.026 A 
ATOM     21  C   UNL A   1      31.175  27.444  22.704  1.00  0.00     0.000 A 
ATOM     22  C   UNL A   1      29.844  27.744  23.012  1.00  0.00     0.002 A 
BRANCH   9  23
ATOM     23  C   UNL A   1      32.854  21.130  26.100  1.00  0.00     0.410 C 
ATOM     24  O   UNL A   1      33.602  20.799  27.013  1.00  0.00    -0.224 OA
BRANCH  23  25
ATOM     25  O   UNL A   1      32.163  20.259  25.319  1.00  0.00    -0.444 OA
BRANCH  25  26
ATOM     26  C   UNL A   1      32.881  19.141  24.703  1.00  0.00     0.106 C 
ATOM     27  C   UNL A   1      32.355  19.051  23.262  1.00  0.00     0.056 C 
ATOM     28  C   UNL A   1      32.527  17.854  25.453  1.00  0.00     0.056 C 
ATOM     29  C   UNL A   1      34.411  19.319  24.611  1.00  0.00     0.056 C 
ENDBRANCH  25  26
ENDBRANCH  23  25
ENDBRANCH   9  23
ENDBRANCH   5   8
ENDBRANCH   3   4
ENDBRANCH   2   3
ENDBRANCH   1   2
BRANCH   1  30
ATOM     30  C   UNL A   1      31.271  30.649  25.913  1.00  0.00     0.002 C 
BRANCH  30  31
ATOM     31  C   UNL A   1      31.231  32.141  26.255  1.00  0.00     0.021 C 
BRANCH  31  32
ATOM     32  C   UNL A   1      32.328  32.603  27.210  1.00  0.00     0.116 C 
BRANCH  32  33
ATOM     33  N   UNL A   1      32.207  34.017  27.525  1.00  0.00    -0.352 N 
ATOM     34  C   UNL A   1      32.926  34.747  28.440  1.00  0.00     0.251 C 
ATOM     35  H   UNL A   1      31.525  34.514  27.019  1.00  0.00     0.163 HD
ATOM     36  O   UNL A   1      32.582  35.883  28.750  1.00  0.00    -0.269 OA
BRANCH  34  37
ATOM     37  C   UNL A   1      34.121  34.143  29.062  1.00  0.00     0.039 A 
ATOM     38  C   UNL A   1      35.390  34.586  28.679  1.00  0.00     0.014 A 
ATOM     39  C   UNL A   1      33.981  33.137  30.023  1.00  0.00     0.014 A 
ATOM     40  C   UNL A   1      36.523  34.048  29.293  1.00  0.00     0.010 A 
ATOM     41  C   UNL A   1      35.108  32.640  30.670  1.00  0.00     0.010 A 
ATOM     42  C   UNL A   1      36.388  33.084  30.305  1.00  0.00    -0.014 A 
BRANCH  42  43
ATOM     43  C   UNL A   1      37.572  32.494  30.976  1.00  0.00     0.031 A 
ATOM     44  C   UNL A   1      38.321  31.376  30.307  1.00  0.00     0.074 A 
ATOM     45  C   UNL A   1      37.922  32.902  32.210  1.00  0.00     0.049 A 
ATOM     46  N   UNL A   1      39.296  30.635  30.771  1.00  0.00    -0.248 NA
ATOM     47  C   UNL A   1      37.896  31.026  28.943  1.00  0.00     0.031 C 
ATOM     48  C   UNL A   1      37.252  33.954  32.974  1.00  0.00     0.029 A 
ATOM     49  N   UNL A   1      38.919  32.464  33.045  1.00  0.00    -0.354 N 
ATOM     50  C   UNL A   1      39.579  29.717  29.769  1.00  0.00     0.074 A 
ATOM     51  C   UNL A   1      38.650  29.967  28.688  1.00  0.00     0.031 C 
ATOM     52  C   UNL A   1      37.861  34.086  34.165  1.00  0.00     0.029 A 
ATOM     53  C   UNL A   1      38.939  33.106  34.260  1.00  0.00     0.049 A 
ATOM     54  H   UNL A   1      39.558  31.758  32.798  1.00  0.00     0.167 HD
ATOM     55  C   UNL A   1      40.539  28.762  29.747  1.00  0.00     0.037 A 
ATOM     56  C   UNL A   1      39.734  32.915  35.331  1.00  0.00     0.037 A 
ATOM     57  C   UNL A   1      41.486  28.542  30.807  1.00  0.00     0.049 A 
ATOM     58  C   UNL A   1      40.805  31.859  35.274  1.00  0.00     0.074 A 
ATOM     59  C   UNL A   1      42.532  27.638  30.857  1.00  0.00     0.029 A 
ATOM     60  N   UNL A   1      41.503  29.244  32.004  1.00  0.00    -0.354 N 
ATOM     61  N   UNL A   1      41.095  31.027  34.303  1.00  0.00    -0.248 NA
ATOM     62  C   UNL A   1      41.664  31.722  36.458  1.00  0.00     0.031 C 
ATOM     63  C   UNL A   1      43.165  27.771  32.098  1.00  0.00     0.029 A 
ATOM     64  C   UNL A   1      42.537  28.786  32.804  1.00  0.00     0.049 A 
ATOM     65  H   UNL A   1      40.875  29.960  32.248  1.00  0.00     0.167 HD
ATOM     66  C   UNL A   1      42.184  30.290  34.745  1.00  0.00     0.074 A 
ATOM     67  C   UNL A   1      42.510  30.777  36.069  1.00  0.00     0.031 C 
ATOM     68  C   UNL A   1      42.856  29.299  34.111  1.00  0.00     0.037 A 
BRANCH  55  69
ATOM     69  C   UNL A   1      40.612  27.882  28.534  1.00  0.00     0.064 A 
ATOM     70  C   UNL A   1      39.937  26.653  28.476  1.00  0.00     0.173 A 
ATOM     71  C   UNL A   1      41.341  28.285  27.405  1.00  0.00     0.173 A 
ATOM     72  F   UNL A   1      39.237  26.217  29.534  1.00  0.00    -0.203 F 
ATOM     73  C   UNL A   1      40.015  25.847  27.343  1.00  0.00     0.198 A 
ATOM     74  C   UNL A   1      41.394  27.488  26.265  1.00  0.00     0.198 A 
ATOM     75  F   UNL A   1      42.001  29.453  27.408  1.00  0.00    -0.203 F 
ATOM     76  F   UNL A   1      39.404  24.655  27.329  1.00  0.00    -0.200 F 
ATOM     77  C   UNL A   1      40.738  26.267  26.238  1.00  0.00     0.200 A 
ATOM     78  F   UNL A   1      42.084  27.901  25.193  1.00  0.00    -0.200 F 
ATOM     79  F   UNL A   1      40.808  25.491  25.147  1.00  0.00    -0.200 F 
ENDBRANCH  55  69
BRANCH  56  80
ATOM     80  C   UNL A   1      39.562  33.759  36.539  1.00  0.00     0.064 A 
ATOM     81  C   UNL A   1      38.745  33.338  37.598  1.00  0.00     0.173 A 
ATOM     82  C   UNL A   1      40.207  34.998  36.665  1.00  0.00     0.173 A 
ATOM     83  F   UNL A   1      38.092  32.170  37.513  1.00  0.00    -0.203 F 
ATOM     84  C   UNL A   1      38.564  34.132  38.728  1.00  0.00     0.198 A 
ATOM     85  C   UNL A   1      40.046  35.780  37.807  1.00  0.00     0.198 A 
ATOM     86  F   UNL A   1      41.004  35.442  35.682  1.00  0.00    -0.203 F 
ATOM     87  F   UNL A   1      37.746  33.724  39.707  1.00  0.00    -0.200 F 
ATOM     88  C   UNL A   1      39.218  35.350  38.834  1.00  0.00     0.200 A 
ATOM     89  F   UNL A   1      40.689  36.950  37.910  1.00  0.00    -0.200 F 
ATOM     90  F   UNL A   1      39.048  36.112  39.922  1.00  0.00    -0.200 F 
ENDBRANCH  56  80
BRANCH  68  91
ATOM     91  C   UNL A   1      44.038  28.705  34.819  1.00  0.00     0.064 A 
ATOM     92  C   UNL A   1      43.917  27.564  35.621  1.00  0.00     0.173 A 
ATOM     93  C   UNL A   1      45.316  29.259  34.646  1.00  0.00     0.173 A 
ATOM     94  F   UNL A   1      42.714  27.008  35.828  1.00  0.00    -0.203 F 
ATOM     95  C   UNL A   1      45.032  27.007  36.242  1.00  0.00     0.198 A 
ATOM     96  C   UNL A   1      46.431  28.686  35.247  1.00  0.00     0.198 A 
ATOM     97  F   UNL A   1      45.482  30.349  33.881  1.00  0.00    -0.203 F 
ATOM     98  F   UNL A   1      44.890  25.936  37.036  1.00  0.00    -0.200 F 
ATOM     99  C   UNL A   1      46.288  27.563  36.048  1.00  0.00     0.200 A 
ATOM    100  F   UNL A   1      47.646  29.218  35.050  1.00  0.00    -0.200 F 
ATOM    101  F   UNL A   1      47.362  27.020  36.640  1.00  0.00    -0.200 F 
ENDBRANCH  68  91
ENDBRANCH  42  43
ENDBRANCH  34  37
ENDBRANCH  32  33
ENDBRANCH  31  32
ENDBRANCH  30  31
ENDBRANCH   1  30
TORSDOF 16
ENDMDL
MODEL 3
REMARK VINA RESULT:     -12.8      1.398      3.682
REMARK SMILES CC(C)(C)OC(=O)N1C[C@@H](C(=O)NCCCCCCNC(=O)c2ccc(-c3c4nc(c(-c5c(F)c(F)c(F)c(F)c5F)c5ccc([nH]5)c(-c5c(F)c(F)c(F)c(F)c5F)c5nc(c(-c6c(F)c(F)c(F)c(F)c6F)c6ccc3[nH]6)C=C5)C=C4)cc2)[C@@]2(C1)C(=O)Nc1ccccc12
REMARK SMILES IDX 16 1 15 2 14 3 13 4 11 5 12 6 10 8 8 9 9 10 87 11 86 12
REMARK SMILES IDX 88 13 96 14 89 15 90 16 91 17 95 18 92 20 94 21 93 22 6 23
REMARK SMILES IDX 7 24 5 25 2 26 1 27 3 28 4 29 17 30 18 31 19 32 20 33 21 34
REMARK SMILES IDX 22 36 23 37 24 38 85 39 25 40 84 41 26 42 27 43 28 44 78 45
REMARK SMILES IDX 29 46 83 47 77 48 79 49 30 50 82 51 76 52 75 53 31 55 63 56
REMARK SMILES IDX 43 57 62 58 44 59 47 60 61 61 80 62 45 63 46 64 60 66 81 67
REMARK SMILES IDX 48 68 32 69 33 70 41 71 34 72 35 73 39 74 42 75 36 76 37 77
REMARK SMILES IDX 40 78 38 79 64 80 65 81 73 82 66 83 67 84 71 85 74 86 68 87
REMARK SMILES IDX 69 88 72 89 70 90 49 91 50 92 58 93 51 94 52 95 56 96 59 97
REMARK SMILES IDX 53 98 54 99 57 100 55 101
REMARK H PARENT 13 7 90 19 20 35 79 54 47 65
REMARK Flexibility Score: inf
ROOT
ATOM      1  C   UNL A   1      32.360  29.663  26.981  1.00  0.00     0.002 C 
ENDROOT
BRANCH   1   2
ATOM      2  C   UNL A   1      31.453  28.482  27.352  1.00  0.00     0.021 C 
BRANCH   2   3
ATOM      3  C   UNL A   1      31.440  27.352  26.317  1.00  0.00     0.116 C 
BRANCH   3   4
ATOM      4  N   UNL A   1      32.629  26.518  26.386  1.00  0.00    -0.356 N 
ATOM      5  C   UNL A   1      33.452  25.935  25.479  1.00  0.00     0.226 C 
ATOM      6  O   UNL A   1      34.381  25.277  25.965  1.00  0.00    -0.275 OA
ATOM      7  H   UNL A   1      32.903  26.332  27.313  1.00  0.00     0.163 HD
BRANCH   5   8
ATOM      8  C   UNL A   1      33.328  26.010  23.963  1.00  0.00     0.120 C 
ATOM      9  N   UNL A   1      31.657  27.394  23.002  1.00  0.00    -0.306 N 
ATOM     10  C   UNL A   1      33.028  27.412  23.475  1.00  0.00     0.138 C 
ATOM     11  C   UNL A   1      31.084  26.039  23.019  1.00  0.00     0.145 C 
ATOM     12  C   UNL A   1      32.309  25.118  23.235  1.00  0.00     0.107 C 
ATOM     13  C   UNL A   1      32.813  24.825  21.781  1.00  0.00     0.237 C 
ATOM     14  C   UNL A   1      32.158  23.696  23.753  1.00  0.00    -0.006 A 
ATOM     15  O   UNL A   1      33.183  25.631  20.943  1.00  0.00    -0.274 OA
ATOM     16  N   UNL A   1      32.754  23.462  21.568  1.00  0.00    -0.325 N 
ATOM     17  C   UNL A   1      32.411  22.789  22.721  1.00  0.00     0.045 A 
ATOM     18  C   UNL A   1      31.994  23.183  25.031  1.00  0.00     0.007 A 
ATOM     19  H   UNL A   1      32.933  23.027  20.703  1.00  0.00     0.169 HD
ATOM     20  C   UNL A   1      32.435  21.416  22.883  1.00  0.00     0.026 A 
ATOM     21  C   UNL A   1      32.033  21.795  25.236  1.00  0.00     0.000 A 
ATOM     22  C   UNL A   1      32.241  20.916  24.167  1.00  0.00     0.002 A 
BRANCH   9  23
ATOM     23  C   UNL A   1      31.173  28.539  22.409  1.00  0.00     0.410 C 
ATOM     24  O   UNL A   1      31.843  29.564  22.367  1.00  0.00    -0.224 OA
BRANCH  23  25
ATOM     25  O   UNL A   1      29.894  28.437  21.964  1.00  0.00    -0.444 OA
BRANCH  25  26
ATOM     26  C   UNL A   1      28.894  29.379  22.469  1.00  0.00     0.106 C 
ATOM     27  C   UNL A   1      27.746  28.515  23.015  1.00  0.00     0.056 C 
ATOM     28  C   UNL A   1      28.379  30.227  21.302  1.00  0.00     0.056 C 
ATOM     29  C   UNL A   1      29.370  30.276  23.630  1.00  0.00     0.056 C 
ENDBRANCH  25  26
ENDBRANCH  23  25
ENDBRANCH   9  23
ENDBRANCH   5   8
ENDBRANCH   3   4
ENDBRANCH   2   3
ENDBRANCH   1   2
BRANCH   1  30
ATOM     30  C   UNL A   1      31.686  30.737  26.120  1.00  0.00     0.002 C 
BRANCH  30  31
ATOM     31  C   UNL A   1      31.458  32.079  26.819  1.00  0.00     0.021 C 
BRANCH  31  32
ATOM     32  C   UNL A   1      32.735  32.837  27.170  1.00  0.00     0.116 C 
BRANCH  32  33
ATOM     33  N   UNL A   1      32.456  34.207  27.571  1.00  0.00    -0.352 N 
ATOM     34  C   UNL A   1      33.005  34.915  28.612  1.00  0.00     0.251 C 
ATOM     35  H   UNL A   1      31.791  34.687  27.027  1.00  0.00     0.163 HD
ATOM     36  O   UNL A   1      32.530  35.991  28.962  1.00  0.00    -0.269 OA
BRANCH  34  37
ATOM     37  C   UNL A   1      34.174  34.360  29.321  1.00  0.00     0.039 A 
ATOM     38  C   UNL A   1      33.979  33.628  30.495  1.00  0.00     0.014 A 
ATOM     39  C   UNL A   1      35.464  34.567  28.820  1.00  0.00     0.014 A 
ATOM     40  C   UNL A   1      35.079  33.065  31.148  1.00  0.00     0.010 A 
ATOM     41  C   UNL A   1      36.550  33.962  29.442  1.00  0.00     0.010 A 
ATOM     42  C   UNL A   1      36.369  33.214  30.616  1.00  0.00    -0.014 A 
BRANCH  42  43
ATOM     43  C   UNL A   1      37.556  32.627  31.285  1.00  0.00     0.031 A 
ATOM     44  C   UNL A   1      38.305  31.508  30.618  1.00  0.00     0.074 A 
ATOM     45  C   UNL A   1      37.909  33.042  32.516  1.00  0.00     0.049 A 
ATOM     46  N   UNL A   1      39.282  30.771  31.082  1.00  0.00    -0.248 NA
ATOM     47  C   UNL A   1      37.876  31.152  29.257  1.00  0.00     0.031 C 
ATOM     48  C   UNL A   1      37.240  34.096  33.278  1.00  0.00     0.029 A 
ATOM     49  N   UNL A   1      38.909  32.608  33.351  1.00  0.00    -0.354 N 
ATOM     50  C   UNL A   1      39.564  29.849  30.084  1.00  0.00     0.074 A 
ATOM     51  C   UNL A   1      38.631  30.093  29.004  1.00  0.00     0.031 C 
ATOM     52  C   UNL A   1      37.853  34.233  34.466  1.00  0.00     0.029 A 
ATOM     53  C   UNL A   1      38.933  33.255  34.562  1.00  0.00     0.049 A 
ATOM     54  H   UNL A   1      39.549  31.902  33.104  1.00  0.00     0.167 HD
ATOM     55  C   UNL A   1      40.524  28.895  30.062  1.00  0.00     0.037 A 
ATOM     56  C   UNL A   1      39.730  33.069  35.631  1.00  0.00     0.037 A 
ATOM     57  C   UNL A   1      41.476  28.681  31.120  1.00  0.00     0.049 A 
ATOM     58  C   UNL A   1      40.803  32.015  35.575  1.00  0.00     0.074 A 
ATOM     59  C   UNL A   1      42.523  27.779  31.171  1.00  0.00     0.029 A 
ATOM     60  N   UNL A   1      41.495  29.388  32.314  1.00  0.00    -0.354 N 
ATOM     61  N   UNL A   1      41.091  31.179  34.608  1.00  0.00    -0.248 NA
ATOM     62  C   UNL A   1      41.666  31.883  36.758  1.00  0.00     0.031 C 
ATOM     63  C   UNL A   1      43.159  27.917  32.410  1.00  0.00     0.029 A 
ATOM     64  C   UNL A   1      42.531  28.934  33.113  1.00  0.00     0.049 A 
ATOM     65  H   UNL A   1      40.866  30.104  32.557  1.00  0.00     0.167 HD
ATOM     66  C   UNL A   1      42.183  30.446  35.049  1.00  0.00     0.074 A 
ATOM     67  C   UNL A   1      42.511  30.939  36.370  1.00  0.00     0.031 C 
ATOM     68  C   UNL A   1      42.855  29.453  34.417  1.00  0.00     0.037 A 
BRANCH  55  69
ATOM     69  C   UNL A   1      40.595  28.010  28.852  1.00  0.00     0.064 A 
ATOM     70  C   UNL A   1      41.392  28.341  27.746  1.00  0.00     0.173 A 
ATOM     71  C   UNL A   1      39.879  26.805  28.810  1.00  0.00     0.173 A 
ATOM     72  F   UNL A   1      42.085  29.490  27.733  1.00  0.00    -0.203 F 
ATOM     73  C   UNL A   1      41.446  27.510  26.630  1.00  0.00     0.198 A 
ATOM     74  C   UNL A   1      39.958  25.964  27.703  1.00  0.00     0.198 A 
ATOM     75  F   UNL A   1      39.105  26.441  29.843  1.00  0.00    -0.203 F 
ATOM     76  F   UNL A   1      42.175  27.871  25.565  1.00  0.00    -0.200 F 
ATOM     77  C   UNL A   1      40.735  26.321  26.611  1.00  0.00     0.200 A 
ATOM     78  F   UNL A   1      39.278  24.809  27.691  1.00  0.00    -0.200 F 
ATOM     79  F   UNL A   1      40.792  25.521  25.537  1.00  0.00    -0.200 F 
ENDBRANCH  55  69
BRANCH  56  80
ATOM     80  C   UNL A   1      39.561  33.918  36.837  1.00  0.00     0.064 A 
ATOM     81  C   UNL A   1      38.788  33.478  37.921  1.00  0.00     0.173 A 
ATOM     82  C   UNL A   1      40.165  35.180  36.935  1.00  0.00     0.173 A 
ATOM     83  F   UNL A   1      38.174  32.287  37.864  1.00  0.00    -0.203 F 
ATOM     84  C   UNL A   1      38.609  34.276  39.049  1.00  0.00     0.198 A 
ATOM     85  C   UNL A   1      40.006  35.967  38.074  1.00  0.00     0.198 A 
ATOM     86  F   UNL A   1      40.919  35.643  35.928  1.00  0.00    -0.203 F 
ATOM     87  F   UNL A   1      37.832  33.849  40.053  1.00  0.00    -0.200 F 
ATOM     88  C   UNL A   1      39.223  35.517  39.127  1.00  0.00     0.200 A 
ATOM     89  F   UNL A   1      40.610  37.160  38.151  1.00  0.00    -0.200 F 
ATOM     90  F   UNL A   1      39.054  36.283  40.213  1.00  0.00    -0.200 F 
ENDBRANCH  56  80
BRANCH  68  91
ATOM     91  C   UNL A   1      44.039  28.864  35.123  1.00  0.00     0.064 A 
ATOM     92  C   UNL A   1      43.912  27.763  35.980  1.00  0.00     0.173 A 
ATOM     93  C   UNL A   1      45.325  29.379  34.896  1.00  0.00     0.173 A 
ATOM     94  F   UNL A   1      42.701  27.245  36.239  1.00  0.00    -0.203 F 
ATOM     95  C   UNL A   1      45.028  27.208  36.599  1.00  0.00     0.198 A 
ATOM     96  C   UNL A   1      46.441  28.807  35.497  1.00  0.00     0.198 A 
ATOM     97  F   UNL A   1      45.497  30.429  34.079  1.00  0.00    -0.203 F 
ATOM     98  F   UNL A   1      44.881  26.177  37.444  1.00  0.00    -0.200 F 
ATOM     99  C   UNL A   1      46.292  27.725  36.352  1.00  0.00     0.200 A 
ATOM    100  F   UNL A   1      47.662  29.301  35.248  1.00  0.00    -0.200 F 
ATOM    101  F   UNL A   1      47.367  27.183  36.942  1.00  0.00    -0.200 F 
ENDBRANCH  68  91
ENDBRANCH  42  43
ENDBRANCH  34  37
ENDBRANCH  32  33
ENDBRANCH  31  32
ENDBRANCH  30  31
ENDBRANCH   1  30
TORSDOF 16
ENDMDL
