MODEL 1
REMARK VINA RESULT:     -10.2      0.000      0.000
REMARK SMILES C[C@@H](CCCO)Nc1ccc(C(=O)NCCCCCCNC(=O)c2ccc(-c3c4nc(c(-c5c(F)c(F)c(F)c(F)c5F)c5ccc([nH]5)c(-c5c(F)c(F)c(F)c(F)c5F)c5nc(c(-c6c(F)c(F)c(F)c(F)c6F)c6ccc3[nH]6)C=C5)C=C4)cc2)o1
REMARK SMILES IDX 15 1 14 2 12 3 13 4 11 6 8 7 9 8 87 9 10 10 7 11 2 13 1 14
REMARK SMILES IDX 3 15 4 16 5 17 6 18 16 20 17 21 18 22 19 23 20 24 21 25
REMARK SMILES IDX 22 26 23 28 24 29 25 30 86 31 26 32 85 33 27 34 28 35 29 36
REMARK SMILES IDX 79 37 30 38 84 39 78 40 80 41 31 42 83 43 77 44 76 45 32 47
REMARK SMILES IDX 64 48 44 49 63 50 45 51 48 52 62 53 81 54 46 55 47 56 61 58
REMARK SMILES IDX 82 59 49 60 33 61 34 62 42 63 35 64 36 65 40 66 43 67 37 68
REMARK SMILES IDX 38 69 41 70 39 71 65 72 66 73 74 74 67 75 68 76 72 77 75 78
REMARK SMILES IDX 69 79 70 80 73 81 71 82 50 83 51 84 59 85 52 86 53 87 57 88
REMARK SMILES IDX 60 89 54 90 55 91 58 92 56 93
REMARK H PARENT 14 5 7 12 6 19 21 27 80 46 48 57
REMARK Flexibility Score: inf
ROOT
ATOM      1  C   UNL A   1      34.511  30.830  27.677  1.00  0.00     0.116 C 
ENDROOT
BRANCH   1   2
ATOM      2  N   UNL A   1      33.253  31.426  27.292  1.00  0.00    -0.349 N 
ATOM      3  C   UNL A   1      32.102  30.881  26.774  1.00  0.00     0.287 C 
ATOM      4  O   UNL A   1      31.188  31.683  26.566  1.00  0.00    -0.266 OA
ATOM      5  H   UNL A   1      33.212  32.401  27.426  1.00  0.00     0.163 HD
BRANCH   3   6
ATOM      6  C   UNL A   1      31.971  29.456  26.537  1.00  0.00     0.194 A 
ATOM      7  C   UNL A   1      32.069  27.707  25.191  1.00  0.00     0.194 A 
ATOM      8  C   UNL A   1      31.554  27.242  26.373  1.00  0.00     0.070 A 
ATOM      9  O   UNL A   1      32.357  29.023  25.291  1.00  0.00    -0.436 OA
ATOM     10  C   UNL A   1      31.545  28.352  27.258  1.00  0.00     0.058 A 
BRANCH   7  11
ATOM     11  N   UNL A   1      32.333  27.163  23.995  1.00  0.00    -0.354 N 
ATOM     12  H   UNL A   1      33.163  26.648  23.882  1.00  0.00     0.163 HD
BRANCH  11  13
ATOM     13  C   UNL A   1      31.438  27.306  22.859  1.00  0.00     0.079 C 
ATOM     14  C   UNL A   1      31.502  26.030  22.019  1.00  0.00     0.031 C 
BRANCH  13  15
ATOM     15  C   UNL A   1      30.008  27.667  23.289  1.00  0.00     0.027 C 
BRANCH  15  16
ATOM     16  C   UNL A   1      29.599  29.145  23.224  1.00  0.00     0.030 C 
BRANCH  16  17
ATOM     17  C   UNL A   1      29.668  29.797  21.848  1.00  0.00     0.156 C 
BRANCH  17  18
ATOM     18  O   UNL A   1      31.010  30.088  21.490  1.00  0.00    -0.396 OA
ATOM     19  H   UNL A   1      31.202  31.020  21.682  1.00  0.00     0.210 HD
ENDBRANCH  17  18
ENDBRANCH  16  17
ENDBRANCH  15  16
ENDBRANCH  13  15
ENDBRANCH  11  13
ENDBRANCH   7  11
ENDBRANCH   3   6
ENDBRANCH   1   2
BRANCH   1  20
ATOM     20  C   UNL A   1      35.465  31.898  28.208  1.00  0.00     0.021 C 
BRANCH  20  21
ATOM     21  C   UNL A   1      34.789  32.877  29.179  1.00  0.00     0.002 C 
BRANCH  21  22
ATOM     22  C   UNL A   1      34.747  34.335  28.699  1.00  0.00     0.002 C 
BRANCH  22  23
ATOM     23  C   UNL A   1      33.403  35.039  28.899  1.00  0.00     0.021 C 
BRANCH  23  24
ATOM     24  C   UNL A   1      33.481  36.301  29.752  1.00  0.00     0.116 C 
BRANCH  24  25
ATOM     25  N   UNL A   1      32.502  36.284  30.826  1.00  0.00    -0.352 N 
ATOM     26  C   UNL A   1      32.513  35.578  32.002  1.00  0.00     0.251 C 
ATOM     27  H   UNL A   1      31.717  36.862  30.690  1.00  0.00     0.163 HD
ATOM     28  O   UNL A   1      31.499  35.499  32.687  1.00  0.00    -0.269 OA
BRANCH  26  29
ATOM     29  C   UNL A   1      33.752  34.902  32.439  1.00  0.00     0.039 A 
ATOM     30  C   UNL A   1      33.678  33.586  32.900  1.00  0.00     0.014 A 
ATOM     31  C   UNL A   1      34.978  35.572  32.413  1.00  0.00     0.014 A 
ATOM     32  C   UNL A   1      34.845  32.923  33.284  1.00  0.00     0.010 A 
ATOM     33  C   UNL A   1      36.148  34.886  32.724  1.00  0.00     0.010 A 
ATOM     34  C   UNL A   1      36.093  33.558  33.170  1.00  0.00    -0.014 A 
BRANCH  34  35
ATOM     35  C   UNL A   1      37.349  32.852  33.523  1.00  0.00     0.031 A 
ATOM     36  C   UNL A   1      38.045  33.155  34.821  1.00  0.00     0.074 A 
ATOM     37  C   UNL A   1      37.890  31.978  32.652  1.00  0.00     0.049 A 
ATOM     38  N   UNL A   1      39.182  32.696  35.278  1.00  0.00    -0.248 NA
ATOM     39  C   UNL A   1      37.387  34.122  35.713  1.00  0.00     0.031 C 
ATOM     40  C   UNL A   1      37.328  31.629  31.346  1.00  0.00     0.029 A 
ATOM     41  N   UNL A   1      39.039  31.231  32.729  1.00  0.00    -0.354 N 
ATOM     42  C   UNL A   1      39.377  33.321  36.503  1.00  0.00     0.074 A 
ATOM     43  C   UNL A   1      38.274  34.238  36.691  1.00  0.00     0.031 C 
ATOM     44  C   UNL A   1      38.118  30.717  30.757  1.00  0.00     0.029 A 
ATOM     45  C   UNL A   1      39.262  30.449  31.622  1.00  0.00     0.049 A 
ATOM     46  H   UNL A   1      39.644  31.254  33.504  1.00  0.00     0.167 HD
ATOM     47  C   UNL A   1      40.371  33.126  37.403  1.00  0.00     0.037 A 
ATOM     48  C   UNL A   1      40.282  29.617  31.335  1.00  0.00     0.037 A 
ATOM     49  C   UNL A   1      41.458  32.201  37.219  1.00  0.00     0.049 A 
ATOM     50  C   UNL A   1      41.391  29.448  32.339  1.00  0.00     0.074 A 
ATOM     51  C   UNL A   1      42.494  31.903  38.087  1.00  0.00     0.029 A 
ATOM     52  N   UNL A   1      41.649  31.424  36.086  1.00  0.00    -0.354 N 
ATOM     53  N   UNL A   1      41.533  29.999  33.520  1.00  0.00    -0.248 NA
ATOM     54  C   UNL A   1      42.480  28.532  31.970  1.00  0.00     0.031 C 
ATOM     55  C   UNL A   1      43.339  30.982  37.459  1.00  0.00     0.029 A 
ATOM     56  C   UNL A   1      42.799  30.663  36.223  1.00  0.00     0.049 A 
ATOM     57  H   UNL A   1      41.056  31.415  35.299  1.00  0.00     0.167 HD
ATOM     58  C   UNL A   1      42.704  29.472  34.049  1.00  0.00     0.074 A 
ATOM     59  C   UNL A   1      43.226  28.546  33.066  1.00  0.00     0.031 C 
ATOM     60  C   UNL A   1      43.295  29.733  35.240  1.00  0.00     0.037 A 
BRANCH  47  61
ATOM     61  C   UNL A   1      40.323  33.925  38.674  1.00  0.00     0.064 A 
ATOM     62  C   UNL A   1      40.995  35.151  38.796  1.00  0.00     0.173 A 
ATOM     63  C   UNL A   1      39.564  33.484  39.768  1.00  0.00     0.173 A 
ATOM     64  F   UNL A   1      41.745  35.613  37.784  1.00  0.00    -0.203 F 
ATOM     65  C   UNL A   1      40.934  35.889  39.975  1.00  0.00     0.198 A 
ATOM     66  C   UNL A   1      39.477  34.241  40.934  1.00  0.00     0.198 A 
ATOM     67  F   UNL A   1      38.895  32.322  39.704  1.00  0.00    -0.203 F 
ATOM     68  F   UNL A   1      41.627  37.031  40.085  1.00  0.00    -0.200 F 
ATOM     69  C   UNL A   1      40.169  35.438  41.040  1.00  0.00     0.200 A 
ATOM     70  F   UNL A   1      38.725  33.810  41.957  1.00  0.00    -0.200 F 
ATOM     71  F   UNL A   1      40.104  36.154  42.170  1.00  0.00    -0.200 F 
ENDBRANCH  47  61
BRANCH  48  72
ATOM     72  C   UNL A   1      40.296  28.864  30.054  1.00  0.00     0.064 A 
ATOM     73  C   UNL A   1      40.964  29.370  28.930  1.00  0.00     0.173 A 
ATOM     74  C   UNL A   1      39.626  27.639  29.916  1.00  0.00     0.173 A 
ATOM     75  F   UNL A   1      41.603  30.547  29.004  1.00  0.00    -0.203 F 
ATOM     76  C   UNL A   1      40.935  28.697  27.710  1.00  0.00     0.198 A 
ATOM     77  C   UNL A   1      39.626  26.951  28.705  1.00  0.00     0.198 A 
ATOM     78  F   UNL A   1      38.976  27.106  30.962  1.00  0.00    -0.203 F 
ATOM     79  F   UNL A   1      41.532  29.233  26.638  1.00  0.00    -0.200 F 
ATOM     80  C   UNL A   1      40.270  27.485  27.600  1.00  0.00     0.200 A 
ATOM     81  F   UNL A   1      38.995  25.773  28.607  1.00  0.00    -0.200 F 
ATOM     82  F   UNL A   1      40.240  26.839  26.426  1.00  0.00    -0.200 F 
ENDBRANCH  48  72
BRANCH  60  83
ATOM     83  C   UNL A   1      44.547  28.971  35.569  1.00  0.00     0.064 A 
ATOM     84  C   UNL A   1      45.819  29.461  35.239  1.00  0.00     0.173 A 
ATOM     85  C   UNL A   1      44.472  27.750  36.259  1.00  0.00     0.173 A 
ATOM     86  F   UNL A   1      45.944  30.615  34.567  1.00  0.00    -0.203 F 
ATOM     87  C   UNL A   1      46.968  28.743  35.560  1.00  0.00     0.198 A 
ATOM     88  C   UNL A   1      45.624  27.053  36.609  1.00  0.00     0.198 A 
ATOM     89  F   UNL A   1      43.280  27.241  36.605  1.00  0.00    -0.203 F 
ATOM     90  F   UNL A   1      48.170  29.204  35.188  1.00  0.00    -0.200 F 
ATOM     91  C   UNL A   1      46.870  27.545  36.252  1.00  0.00     0.200 A 
ATOM     92  F   UNL A   1      45.528  25.902  37.290  1.00  0.00    -0.200 F 
ATOM     93  F   UNL A   1      47.977  26.859  36.567  1.00  0.00    -0.200 F 
ENDBRANCH  60  83
ENDBRANCH  34  35
ENDBRANCH  26  29
ENDBRANCH  24  25
ENDBRANCH  23  24
ENDBRANCH  22  23
ENDBRANCH  21  22
ENDBRANCH  20  21
ENDBRANCH   1  20
TORSDOF 19
ENDMDL
MODEL 2
REMARK VINA RESULT:     -10.2      4.300      6.760
REMARK SMILES C[C@@H](CCCO)Nc1ccc(C(=O)NCCCCCCNC(=O)c2ccc(-c3c4nc(c(-c5c(F)c(F)c(F)c(F)c5F)c5ccc([nH]5)c(-c5c(F)c(F)c(F)c(F)c5F)c5nc(c(-c6c(F)c(F)c(F)c(F)c6F)c6ccc3[nH]6)C=C5)C=C4)cc2)o1
REMARK SMILES IDX 15 1 14 2 12 3 13 4 11 6 8 7 9 8 87 9 10 10 7 11 2 13 1 14
REMARK SMILES IDX 3 15 4 16 5 17 6 18 16 20 17 21 18 22 19 23 20 24 21 25
REMARK SMILES IDX 22 26 23 28 24 29 25 30 86 31 26 32 85 33 27 34 28 35 29 36
REMARK SMILES IDX 79 37 30 38 84 39 78 40 80 41 31 42 83 43 77 44 76 45 32 47
REMARK SMILES IDX 64 48 44 49 63 50 45 51 48 52 62 53 81 54 46 55 47 56 61 58
REMARK SMILES IDX 82 59 49 60 33 61 34 62 42 63 35 64 36 65 40 66 43 67 37 68
REMARK SMILES IDX 38 69 41 70 39 71 65 72 66 73 74 74 67 75 68 76 72 77 75 78
REMARK SMILES IDX 69 79 70 80 73 81 71 82 50 83 51 84 59 85 52 86 53 87 57 88
REMARK SMILES IDX 60 89 54 90 55 91 58 92 56 93
REMARK H PARENT 14 5 7 12 6 19 21 27 80 46 48 57
REMARK Flexibility Score: inf
ROOT
ATOM      1  C   UNL A   1      32.340  24.301  23.885  1.00  0.00     0.116 C 
ENDROOT
BRANCH   1   2
ATOM      2  N   UNL A   1      32.660  24.493  22.489  1.00  0.00    -0.349 N 
ATOM      3  C   UNL A   1      32.860  25.632  21.745  1.00  0.00     0.287 C 
ATOM      4  O   UNL A   1      33.137  25.442  20.559  1.00  0.00    -0.266 OA
ATOM      5  H   UNL A   1      32.754  23.657  21.979  1.00  0.00     0.163 HD
BRANCH   3   6
ATOM      6  C   UNL A   1      32.790  26.954  22.338  1.00  0.00     0.194 A 
ATOM      7  C   UNL A   1      31.630  28.614  23.219  1.00  0.00     0.194 A 
ATOM      8  C   UNL A   1      32.912  29.081  23.088  1.00  0.00     0.070 A 
ATOM      9  O   UNL A   1      31.555  27.330  22.807  1.00  0.00    -0.436 OA
ATOM     10  C   UNL A   1      33.671  27.996  22.576  1.00  0.00     0.058 A 
BRANCH   7  11
ATOM     11  N   UNL A   1      30.471  29.137  23.643  1.00  0.00    -0.354 N 
ATOM     12  H   UNL A   1      30.314  29.216  24.611  1.00  0.00     0.163 HD
BRANCH  11  13
ATOM     13  C   UNL A   1      29.440  29.594  22.726  1.00  0.00     0.079 C 
ATOM     14  C   UNL A   1      28.251  28.637  22.807  1.00  0.00     0.031 C 
BRANCH  13  15
ATOM     15  C   UNL A   1      29.046  31.057  22.978  1.00  0.00     0.027 C 
BRANCH  15  16
ATOM     16  C   UNL A   1      27.820  31.601  22.233  1.00  0.00     0.030 C 
BRANCH  16  17
ATOM     17  C   UNL A   1      28.081  32.163  20.840  1.00  0.00     0.156 C 
BRANCH  17  18
ATOM     18  O   UNL A   1      27.483  33.441  20.689  1.00  0.00    -0.396 OA
ATOM     19  H   UNL A   1      27.054  33.498  19.821  1.00  0.00     0.210 HD
ENDBRANCH  17  18
ENDBRANCH  16  17
ENDBRANCH  15  16
ENDBRANCH  13  15
ENDBRANCH  11  13
ENDBRANCH   7  11
ENDBRANCH   3   6
ENDBRANCH   1   2
BRANCH   1  20
ATOM     20  C   UNL A   1      33.611  24.345  24.732  1.00  0.00     0.021 C 
BRANCH  20  21
ATOM     21  C   UNL A   1      33.787  25.674  25.480  1.00  0.00     0.002 C 
BRANCH  21  22
ATOM     22  C   UNL A   1      32.561  26.127  26.287  1.00  0.00     0.002 C 
BRANCH  22  23
ATOM     23  C   UNL A   1      32.480  27.634  26.543  1.00  0.00     0.021 C 
BRANCH  23  24
ATOM     24  C   UNL A   1      33.826  28.290  26.828  1.00  0.00     0.116 C 
BRANCH  24  25
ATOM     25  N   UNL A   1      33.673  29.689  27.192  1.00  0.00    -0.352 N 
ATOM     26  C   UNL A   1      34.504  30.492  27.932  1.00  0.00     0.251 C 
ATOM     27  H   UNL A   1      32.854  30.124  26.860  1.00  0.00     0.163 HD
ATOM     28  O   UNL A   1      34.112  31.579  28.342  1.00  0.00    -0.269 OA
BRANCH  26  29
ATOM     29  C   UNL A   1      35.875  30.037  28.243  1.00  0.00     0.039 A 
ATOM     30  C   UNL A   1      36.877  30.202  27.285  1.00  0.00     0.014 A 
ATOM     31  C   UNL A   1      36.165  29.433  29.470  1.00  0.00     0.014 A 
ATOM     32  C   UNL A   1      38.184  29.808  27.577  1.00  0.00     0.010 A 
ATOM     33  C   UNL A   1      37.480  29.111  29.788  1.00  0.00     0.010 A 
ATOM     34  C   UNL A   1      38.501  29.288  28.843  1.00  0.00    -0.014 A 
BRANCH  34  35
ATOM     35  C   UNL A   1      39.895  28.913  29.192  1.00  0.00     0.031 A 
ATOM     36  C   UNL A   1      40.742  29.843  30.015  1.00  0.00     0.074 A 
ATOM     37  C   UNL A   1      40.411  27.761  28.723  1.00  0.00     0.049 A 
ATOM     38  N   UNL A   1      41.998  29.727  30.366  1.00  0.00    -0.248 NA
ATOM     39  C   UNL A   1      40.100  31.081  30.484  1.00  0.00     0.031 C 
ATOM     40  C   UNL A   1      39.700  26.794  27.885  1.00  0.00     0.029 A 
ATOM     41  N   UNL A   1      41.659  27.211  28.877  1.00  0.00    -0.354 N 
ATOM     42  C   UNL A   1      42.295  30.875  31.090  1.00  0.00     0.074 A 
ATOM     43  C   UNL A   1      41.110  31.704  31.075  1.00  0.00     0.031 C 
ATOM     44  C   UNL A   1      40.512  25.759  27.621  1.00  0.00     0.029 A 
ATOM     45  C   UNL A   1      41.813  26.007  28.233  1.00  0.00     0.049 A 
ATOM     46  H   UNL A   1      42.375  27.639  29.399  1.00  0.00     0.167 HD
ATOM     47  C   UNL A   1      43.444  31.195  31.732  1.00  0.00     0.037 A 
ATOM     48  C   UNL A   1      42.887  25.200  28.142  1.00  0.00     0.037 A 
ATOM     49  C   UNL A   1      44.616  30.360  31.757  1.00  0.00     0.049 A 
ATOM     50  C   UNL A   1      44.162  25.598  28.836  1.00  0.00     0.074 A 
ATOM     51  C   UNL A   1      45.817  30.576  32.410  1.00  0.00     0.029 A 
ATOM     52  N   UNL A   1      44.733  29.146  31.096  1.00  0.00    -0.354 N 
ATOM     53  N   UNL A   1      44.413  26.657  29.568  1.00  0.00    -0.248 NA
ATOM     54  C   UNL A   1      45.303  24.683  28.698  1.00  0.00     0.031 C 
ATOM     55  C   UNL A   1      46.677  29.517  32.104  1.00  0.00     0.029 A 
ATOM     56  C   UNL A   1      45.994  28.612  31.308  1.00  0.00     0.049 A 
ATOM     57  H   UNL A   1      44.025  28.725  30.555  1.00  0.00     0.167 HD
ATOM     58  C   UNL A   1      45.723  26.519  30.004  1.00  0.00     0.074 A 
ATOM     59  C   UNL A   1      46.211  25.266  29.468  1.00  0.00     0.031 C 
ATOM     60  C   UNL A   1      46.458  27.354  30.779  1.00  0.00     0.037 A 
BRANCH  47  61
ATOM     61  C   UNL A   1      43.486  32.503  32.469  1.00  0.00     0.064 A 
ATOM     62  C   UNL A   1      43.110  32.598  33.818  1.00  0.00     0.173 A 
ATOM     63  C   UNL A   1      43.944  33.667  31.834  1.00  0.00     0.173 A 
ATOM     64  F   UNL A   1      42.653  31.518  34.469  1.00  0.00    -0.203 F 
ATOM     65  C   UNL A   1      43.163  33.814  34.494  1.00  0.00     0.198 A 
ATOM     66  C   UNL A   1      44.028  34.874  32.523  1.00  0.00     0.198 A 
ATOM     67  F   UNL A   1      44.322  33.632  30.547  1.00  0.00    -0.203 F 
ATOM     68  F   UNL A   1      42.751  33.889  35.767  1.00  0.00    -0.200 F 
ATOM     69  C   UNL A   1      43.630  34.949  33.849  1.00  0.00     0.200 A 
ATOM     70  F   UNL A   1      44.493  35.968  31.901  1.00  0.00    -0.200 F 
ATOM     71  F   UNL A   1      43.689  36.117  34.504  1.00  0.00    -0.200 F 
ENDBRANCH  47  61
BRANCH  48  72
ATOM     72  C   UNL A   1      42.804  23.925  27.382  1.00  0.00     0.064 A 
ATOM     73  C   UNL A   1      42.340  22.752  27.994  1.00  0.00     0.173 A 
ATOM     74  C   UNL A   1      43.208  23.843  26.041  1.00  0.00     0.173 A 
ATOM     75  F   UNL A   1      41.961  22.774  29.281  1.00  0.00    -0.203 F 
ATOM     76  C   UNL A   1      42.312  21.541  27.305  1.00  0.00     0.198 A 
ATOM     77  C   UNL A   1      43.148  22.639  25.344  1.00  0.00     0.198 A 
ATOM     78  F   UNL A   1      43.655  24.936  25.405  1.00  0.00    -0.203 F 
ATOM     79  F   UNL A   1      41.919  20.426  27.934  1.00  0.00    -0.200 F 
ATOM     80  C   UNL A   1      42.712  21.487  25.979  1.00  0.00     0.200 A 
ATOM     81  F   UNL A   1      43.521  22.593  24.057  1.00  0.00    -0.200 F 
ATOM     82  F   UNL A   1      42.686  20.322  25.317  1.00  0.00    -0.200 F 
ENDBRANCH  48  72
BRANCH  60  83
ATOM     83  C   UNL A   1      47.851  26.918  31.133  1.00  0.00     0.064 A 
ATOM     84  C   UNL A   1      48.113  26.128  32.262  1.00  0.00     0.173 A 
ATOM     85  C   UNL A   1      48.933  27.265  30.309  1.00  0.00     0.173 A 
ATOM     86  F   UNL A   1      47.116  25.782  33.091  1.00  0.00    -0.203 F 
ATOM     87  C   UNL A   1      49.411  25.727  32.569  1.00  0.00     0.198 A 
ATOM     88  C   UNL A   1      50.223  26.833  30.600  1.00  0.00     0.198 A 
ATOM     89  F   UNL A   1      48.736  28.013  29.213  1.00  0.00    -0.203 F 
ATOM     90  F   UNL A   1      49.645  25.018  33.682  1.00  0.00    -0.200 F 
ATOM     91  C   UNL A   1      50.463  26.072  31.734  1.00  0.00     0.200 A 
ATOM     92  F   UNL A   1      51.236  27.156  29.784  1.00  0.00    -0.200 F 
ATOM     93  F   UNL A   1      51.710  25.679  32.027  1.00  0.00    -0.200 F 
ENDBRANCH  60  83
ENDBRANCH  34  35
ENDBRANCH  26  29
ENDBRANCH  24  25
ENDBRANCH  23  24
ENDBRANCH  22  23
ENDBRANCH  21  22
ENDBRANCH  20  21
ENDBRANCH   1  20
TORSDOF 19
ENDMDL
MODEL 3
REMARK VINA RESULT:     -10.2      0.778      2.160
REMARK SMILES C[C@@H](CCCO)Nc1ccc(C(=O)NCCCCCCNC(=O)c2ccc(-c3c4nc(c(-c5c(F)c(F)c(F)c(F)c5F)c5ccc([nH]5)c(-c5c(F)c(F)c(F)c(F)c5F)c5nc(c(-c6c(F)c(F)c(F)c(F)c6F)c6ccc3[nH]6)C=C5)C=C4)cc2)o1
REMARK SMILES IDX 15 1 14 2 12 3 13 4 11 6 8 7 9 8 87 9 10 10 7 11 2 13 1 14
REMARK SMILES IDX 3 15 4 16 5 17 6 18 16 20 17 21 18 22 19 23 20 24 21 25
REMARK SMILES IDX 22 26 23 28 24 29 25 30 86 31 26 32 85 33 27 34 28 35 29 36
REMARK SMILES IDX 79 37 30 38 84 39 78 40 80 41 31 42 83 43 77 44 76 45 32 47
REMARK SMILES IDX 64 48 44 49 63 50 45 51 48 52 62 53 81 54 46 55 47 56 61 58
REMARK SMILES IDX 82 59 49 60 33 61 34 62 42 63 35 64 36 65 40 66 43 67 37 68
REMARK SMILES IDX 38 69 41 70 39 71 65 72 66 73 74 74 67 75 68 76 72 77 75 78
REMARK SMILES IDX 69 79 70 80 73 81 71 82 50 83 51 84 59 85 52 86 53 87 57 88
REMARK SMILES IDX 60 89 54 90 55 91 58 92 56 93
REMARK H PARENT 14 5 7 12 6 19 21 27 80 46 48 57
REMARK Flexibility Score: inf
ROOT
ATOM      1  C   UNL A   1      35.061  30.507  27.635  1.00  0.00     0.116 C 
ENDROOT
BRANCH   1   2
ATOM      2  N   UNL A   1      33.618  30.578  27.683  1.00  0.00    -0.349 N 
ATOM      3  C   UNL A   1      32.651  30.126  26.818  1.00  0.00     0.287 C 
ATOM      4  O   UNL A   1      31.489  30.341  27.170  1.00  0.00    -0.266 OA
ATOM      5  H   UNL A   1      33.264  31.031  28.482  1.00  0.00     0.163 HD
BRANCH   3   6
ATOM      6  C   UNL A   1      32.987  29.409  25.602  1.00  0.00     0.194 A 
ATOM      7  C   UNL A   1      32.471  28.703  23.574  1.00  0.00     0.194 A 
ATOM      8  C   UNL A   1      33.668  28.113  23.883  1.00  0.00     0.070 A 
ATOM      9  O   UNL A   1      32.073  29.509  24.581  1.00  0.00    -0.436 OA
ATOM     10  C   UNL A   1      34.030  28.611  25.162  1.00  0.00     0.058 A 
BRANCH   7  11
ATOM     11  N   UNL A   1      31.631  28.650  22.531  1.00  0.00    -0.354 N 
ATOM     12  H   UNL A   1      31.848  29.167  21.722  1.00  0.00     0.163 HD
BRANCH  11  13
ATOM     13  C   UNL A   1      30.413  27.857  22.549  1.00  0.00     0.079 C 
ATOM     14  C   UNL A   1      30.487  26.869  23.713  1.00  0.00     0.031 C 
BRANCH  13  15
ATOM     15  C   UNL A   1      29.152  28.733  22.589  1.00  0.00     0.027 C 
BRANCH  15  16
ATOM     16  C   UNL A   1      29.345  30.255  22.595  1.00  0.00     0.030 C 
BRANCH  16  17
ATOM     17  C   UNL A   1      28.621  31.025  21.496  1.00  0.00     0.156 C 
BRANCH  17  18
ATOM     18  O   UNL A   1      27.804  30.160  20.724  1.00  0.00    -0.396 OA
ATOM     19  H   UNL A   1      27.367  30.667  20.021  1.00  0.00     0.210 HD
ENDBRANCH  17  18
ENDBRANCH  16  17
ENDBRANCH  15  16
ENDBRANCH  13  15
ENDBRANCH  11  13
ENDBRANCH   7  11
ENDBRANCH   3   6
ENDBRANCH   1   2
BRANCH   1  20
ATOM     20  C   UNL A   1      35.671  31.866  27.975  1.00  0.00     0.021 C 
BRANCH  20  21
ATOM     21  C   UNL A   1      34.784  32.706  28.905  1.00  0.00     0.002 C 
BRANCH  21  22
ATOM     22  C   UNL A   1      34.505  34.134  28.414  1.00  0.00     0.002 C 
BRANCH  22  23
ATOM     23  C   UNL A   1      33.215  34.759  28.950  1.00  0.00     0.021 C 
BRANCH  23  24
ATOM     24  C   UNL A   1      33.410  36.114  29.619  1.00  0.00     0.116 C 
BRANCH  24  25
ATOM     25  N   UNL A   1      32.514  36.287  30.751  1.00  0.00    -0.352 N 
ATOM     26  C   UNL A   1      32.563  35.712  31.995  1.00  0.00     0.251 C 
ATOM     27  H   UNL A   1      31.764  36.907  30.603  1.00  0.00     0.163 HD
ATOM     28  O   UNL A   1      31.600  35.785  32.750  1.00  0.00    -0.269 OA
BRANCH  26  29
ATOM     29  C   UNL A   1      33.781  34.992  32.421  1.00  0.00     0.039 A 
ATOM     30  C   UNL A   1      33.681  33.646  32.779  1.00  0.00     0.014 A 
ATOM     31  C   UNL A   1      35.013  35.649  32.487  1.00  0.00     0.014 A 
ATOM     32  C   UNL A   1      34.828  32.943  33.151  1.00  0.00     0.010 A 
ATOM     33  C   UNL A   1      36.166  34.929  32.785  1.00  0.00     0.010 A 
ATOM     34  C   UNL A   1      36.084  33.572  33.127  1.00  0.00    -0.014 A 
BRANCH  34  35
ATOM     35  C   UNL A   1      37.323  32.828  33.469  1.00  0.00     0.031 A 
ATOM     36  C   UNL A   1      38.057  33.133  34.744  1.00  0.00     0.074 A 
ATOM     37  C   UNL A   1      37.812  31.917  32.605  1.00  0.00     0.049 A 
ATOM     38  N   UNL A   1      39.187  32.642  35.187  1.00  0.00    -0.248 NA
ATOM     39  C   UNL A   1      37.455  34.142  35.629  1.00  0.00     0.031 C 
ATOM     40  C   UNL A   1      37.209  31.562  31.319  1.00  0.00     0.029 A 
ATOM     41  N   UNL A   1      38.934  31.130  32.673  1.00  0.00    -0.354 N 
ATOM     42  C   UNL A   1      39.432  33.285  36.394  1.00  0.00     0.074 A 
ATOM     43  C   UNL A   1      38.367  34.245  36.585  1.00  0.00     0.031 C 
ATOM     44  C   UNL A   1      37.952  30.610  30.733  1.00  0.00     0.029 A 
ATOM     45  C   UNL A   1      39.105  30.318  31.578  1.00  0.00     0.049 A 
ATOM     46  H   UNL A   1      39.558  31.147  33.434  1.00  0.00     0.167 HD
ATOM     47  C   UNL A   1      40.438  33.072  37.276  1.00  0.00     0.037 A 
ATOM     48  C   UNL A   1      40.088  29.444  31.288  1.00  0.00     0.037 A 
ATOM     49  C   UNL A   1      41.486  32.105  37.088  1.00  0.00     0.049 A 
ATOM     50  C   UNL A   1      41.212  29.255  32.271  1.00  0.00     0.074 A 
ATOM     51  C   UNL A   1      42.531  31.787  37.939  1.00  0.00     0.029 A 
ATOM     52  N   UNL A   1      41.624  31.298  35.968  1.00  0.00    -0.354 N 
ATOM     53  N   UNL A   1      41.400  29.825  33.436  1.00  0.00    -0.248 NA
ATOM     54  C   UNL A   1      42.259  28.293  31.899  1.00  0.00     0.031 C 
ATOM     55  C   UNL A   1      43.327  30.823  37.313  1.00  0.00     0.029 A 
ATOM     56  C   UNL A   1      42.748  30.498  36.097  1.00  0.00     0.049 A 
ATOM     57  H   UNL A   1      41.014  31.294  35.195  1.00  0.00     0.167 HD
ATOM     58  C   UNL A   1      42.563  29.267  33.951  1.00  0.00     0.074 A 
ATOM     59  C   UNL A   1      43.029  28.303  32.978  1.00  0.00     0.031 C 
ATOM     60  C   UNL A   1      43.189  29.531  35.124  1.00  0.00     0.037 A 
BRANCH  47  61
ATOM     61  C   UNL A   1      40.447  33.899  38.530  1.00  0.00     0.064 A 
ATOM     62  C   UNL A   1      39.754  33.495  39.681  1.00  0.00     0.173 A 
ATOM     63  C   UNL A   1      41.188  35.088  38.597  1.00  0.00     0.173 A 
ATOM     64  F   UNL A   1      39.019  32.372  39.667  1.00  0.00    -0.203 F 
ATOM     65  C   UNL A   1      39.778  34.264  40.841  1.00  0.00     0.198 A 
ATOM     66  C   UNL A   1      41.239  35.837  39.769  1.00  0.00     0.198 A 
ATOM     67  F   UNL A   1      41.875  35.518  37.527  1.00  0.00    -0.203 F 
ATOM     68  F   UNL A   1      39.067  33.882  41.911  1.00  0.00    -0.200 F 
ATOM     69  C   UNL A   1      40.527  35.430  40.887  1.00  0.00     0.200 A 
ATOM     70  F   UNL A   1      41.975  36.957  39.816  1.00  0.00    -0.200 F 
ATOM     71  F   UNL A   1      40.557  36.164  42.008  1.00  0.00    -0.200 F 
ENDBRANCH  47  61
BRANCH  48  72
ATOM     72  C   UNL A   1      40.046  28.664  30.023  1.00  0.00     0.064 A 
ATOM     73  C   UNL A   1      39.435  27.404  29.975  1.00  0.00     0.173 A 
ATOM     74  C   UNL A   1      40.636  29.147  28.845  1.00  0.00     0.173 A 
ATOM     75  F   UNL A   1      38.874  26.890  31.080  1.00  0.00    -0.203 F 
ATOM     76  C   UNL A   1      39.441  26.643  28.808  1.00  0.00     0.198 A 
ATOM     77  C   UNL A   1      40.613  28.398  27.670  1.00  0.00     0.198 A 
ATOM     78  F   UNL A   1      41.230  30.349  28.833  1.00  0.00    -0.203 F 
ATOM     79  F   UNL A   1      38.900  25.417  28.808  1.00  0.00    -0.200 F 
ATOM     80  C   UNL A   1      40.026  27.143  27.655  1.00  0.00     0.200 A 
ATOM     81  F   UNL A   1      41.167  28.892  26.554  1.00  0.00    -0.200 F 
ATOM     82  F   UNL A   1      40.034  26.410  26.533  1.00  0.00    -0.200 F 
ENDBRANCH  48  72
BRANCH  60  83
ATOM     83  C   UNL A   1      44.420  28.731  35.442  1.00  0.00     0.064 A 
ATOM     84  C   UNL A   1      44.348  27.498  36.108  1.00  0.00     0.173 A 
ATOM     85  C   UNL A   1      45.685  29.187  35.041  1.00  0.00     0.173 A 
ATOM     86  F   UNL A   1      43.164  27.024  36.526  1.00  0.00    -0.203 F 
ATOM     87  C   UNL A   1      45.500  26.767  36.386  1.00  0.00     0.198 A 
ATOM     88  C   UNL A   1      46.830  28.438  35.291  1.00  0.00     0.198 A 
ATOM     89  F   UNL A   1      45.808  30.356  34.394  1.00  0.00    -0.203 F 
ATOM     90  F   UNL A   1      45.413  25.618  37.071  1.00  0.00    -0.200 F 
ATOM     91  C   UNL A   1      46.738  27.233  35.971  1.00  0.00     0.200 A 
ATOM     92  F   UNL A   1      48.024  28.883  34.875  1.00  0.00    -0.200 F 
ATOM     93  F   UNL A   1      47.845  26.525  36.233  1.00  0.00    -0.200 F 
ENDBRANCH  60  83
ENDBRANCH  34  35
ENDBRANCH  26  29
ENDBRANCH  24  25
ENDBRANCH  23  24
ENDBRANCH  22  23
ENDBRANCH  21  22
ENDBRANCH  20  21
ENDBRANCH   1  20
TORSDOF 19
ENDMDL
