MODEL 1
REMARK VINA RESULT:     -12.5      0.000      0.000
REMARK SMILES O=C(NCCCCCCNC(=O)[C@@H]1CN(C(=O)[C@H]2CC=CCC2)c2ccccc2O1)c1ccc(-c2c3nc(c(-c4c(F)c(F)c(F)c(F)c4F)c4ccc([nH]4)c(-c4c(F)c(F)c(F)c(F)c4F)c4nc(c(-c5c(F)c(F)c(F)c(F)c5F)c5ccc2[nH]5)C=C4)C=C3)cc1
REMARK SMILES IDX 6 1 5 2 4 3 3 4 1 5 2 6 31 8 32 9 93 10 33 11 92 12 34 13
REMARK SMILES IDX 35 14 36 15 86 16 37 17 91 18 85 19 87 20 38 21 90 22 84 23
REMARK SMILES IDX 83 24 39 26 71 27 51 28 70 29 52 30 55 31 69 32 88 33 53 34
REMARK SMILES IDX 54 35 68 37 89 38 56 39 40 40 41 41 49 42 42 43 43 44 47 45
REMARK SMILES IDX 50 46 44 47 45 48 48 49 46 50 72 51 73 52 81 53 74 54 75 55
REMARK SMILES IDX 79 56 82 57 76 58 77 59 80 60 78 61 57 62 58 63 66 64 59 65
REMARK SMILES IDX 60 66 64 67 67 68 61 69 62 70 65 71 63 72 7 73 8 74 9 75
REMARK SMILES IDX 10 76 11 77 12 79 13 80 14 81 30 82 15 83 29 84 24 85 28 86
REMARK SMILES IDX 25 87 27 88 26 89 16 90 17 91 18 92 19 93 23 94 20 95 22 96
REMARK SMILES IDX 21 97
REMARK H PARENT 3 7 87 25 55 36 10 78
REMARK Flexibility Score: inf
ROOT
ATOM      1  C   UNL A   1      34.698  34.242  28.911  1.00  0.00     0.002 C 
ENDROOT
BRANCH   1   2
ATOM      2  C   UNL A   1      33.339  34.946  28.917  1.00  0.00     0.021 C 
BRANCH   2   3
ATOM      3  C   UNL A   1      33.260  36.263  29.675  1.00  0.00     0.116 C 
BRANCH   3   4
ATOM      4  N   UNL A   1      32.369  36.196  30.822  1.00  0.00    -0.352 N 
ATOM      5  O   UNL A   1      31.530  35.476  32.779  1.00  0.00    -0.269 OA
ATOM      6  C   UNL A   1      32.496  35.543  32.024  1.00  0.00     0.251 C 
ATOM      7  H   UNL A   1      31.533  36.706  30.719  1.00  0.00     0.163 HD
BRANCH   6   8
ATOM      8  C   UNL A   1      33.772  34.894  32.415  1.00  0.00     0.039 A 
ATOM      9  C   UNL A   1      34.980  35.590  32.397  1.00  0.00     0.014 A 
ATOM     10  C   UNL A   1      33.748  33.567  32.860  1.00  0.00     0.014 A 
ATOM     11  C   UNL A   1      36.174  34.920  32.655  1.00  0.00     0.010 A 
ATOM     12  C   UNL A   1      34.938  32.925  33.222  1.00  0.00     0.010 A 
ATOM     13  C   UNL A   1      36.170  33.583  33.084  1.00  0.00    -0.014 A 
BRANCH  13  14
ATOM     14  C   UNL A   1      37.459  32.919  33.420  1.00  0.00     0.031 A 
ATOM     15  C   UNL A   1      38.166  33.198  34.719  1.00  0.00     0.074 A 
ATOM     16  C   UNL A   1      37.979  32.027  32.554  1.00  0.00     0.049 A 
ATOM     17  N   UNL A   1      39.271  32.672  35.189  1.00  0.00    -0.248 NA
ATOM     18  C   UNL A   1      37.563  34.205  35.605  1.00  0.00     0.031 C 
ATOM     19  C   UNL A   1      37.401  31.682  31.253  1.00  0.00     0.029 A 
ATOM     20  N   UNL A   1      39.094  31.231  32.640  1.00  0.00    -0.354 N 
ATOM     21  C   UNL A   1      39.505  33.295  36.408  1.00  0.00     0.074 A 
ATOM     22  C   UNL A   1      38.445  34.265  36.592  1.00  0.00     0.031 C 
ATOM     23  C   UNL A   1      38.130  30.708  30.690  1.00  0.00     0.029 A 
ATOM     24  C   UNL A   1      39.263  30.404  31.557  1.00  0.00     0.049 A 
ATOM     25  H   UNL A   1      39.713  31.251  33.405  1.00  0.00     0.167 HD
ATOM     26  C   UNL A   1      40.505  33.074  37.297  1.00  0.00     0.037 A 
ATOM     27  C   UNL A   1      40.227  29.506  31.282  1.00  0.00     0.037 A 
ATOM     28  C   UNL A   1      41.550  32.097  37.116  1.00  0.00     0.049 A 
ATOM     29  C   UNL A   1      41.336  29.297  32.276  1.00  0.00     0.074 A 
ATOM     30  C   UNL A   1      42.582  31.767  37.979  1.00  0.00     0.029 A 
ATOM     31  N   UNL A   1      41.703  31.297  35.992  1.00  0.00    -0.354 N 
ATOM     32  N   UNL A   1      41.514  29.856  33.448  1.00  0.00    -0.248 NA
ATOM     33  C   UNL A   1      42.374  28.327  31.909  1.00  0.00     0.031 C 
ATOM     34  C   UNL A   1      43.392  30.814  37.352  1.00  0.00     0.029 A 
ATOM     35  C   UNL A   1      42.827  30.497  36.127  1.00  0.00     0.049 A 
ATOM     36  H   UNL A   1      41.102  31.299  35.212  1.00  0.00     0.167 HD
ATOM     37  C   UNL A   1      42.665  29.284  33.972  1.00  0.00     0.074 A 
ATOM     38  C   UNL A   1      43.131  28.320  32.996  1.00  0.00     0.031 C 
ATOM     39  C   UNL A   1      43.278  29.533  35.155  1.00  0.00     0.037 A 
BRANCH  26  40
ATOM     40  C   UNL A   1      40.538  33.919  38.540  1.00  0.00     0.064 A 
ATOM     41  C   UNL A   1      39.834  33.562  39.701  1.00  0.00     0.173 A 
ATOM     42  C   UNL A   1      41.322  35.083  38.586  1.00  0.00     0.173 A 
ATOM     43  F   UNL A   1      39.062  32.465  39.712  1.00  0.00    -0.203 F 
ATOM     44  C   UNL A   1      39.888  34.354  40.846  1.00  0.00     0.198 A 
ATOM     45  C   UNL A   1      41.401  35.853  39.744  1.00  0.00     0.198 A 
ATOM     46  F   UNL A   1      42.025  35.468  37.510  1.00  0.00    -0.203 F 
ATOM     47  F   UNL A   1      39.166  34.019  41.925  1.00  0.00    -0.200 F 
ATOM     48  C   UNL A   1      40.677  35.493  40.870  1.00  0.00     0.200 A 
ATOM     49  F   UNL A   1      42.178  36.946  39.769  1.00  0.00    -0.200 F 
ATOM     50  F   UNL A   1      40.735  36.248  41.976  1.00  0.00    -0.200 F 
ENDBRANCH  26  40
BRANCH  27  51
ATOM     51  C   UNL A   1      40.181  28.730  30.015  1.00  0.00     0.064 A 
ATOM     52  C   UNL A   1      39.501  27.506  29.942  1.00  0.00     0.173 A 
ATOM     53  C   UNL A   1      40.820  29.190  28.853  1.00  0.00     0.173 A 
ATOM     54  F   UNL A   1      38.891  27.014  31.031  1.00  0.00    -0.203 F 
ATOM     55  C   UNL A   1      39.482  26.762  28.765  1.00  0.00     0.198 A 
ATOM     56  C   UNL A   1      40.770  28.462  27.668  1.00  0.00     0.198 A 
ATOM     57  F   UNL A   1      41.479  30.358  28.868  1.00  0.00    -0.203 F 
ATOM     58  F   UNL A   1      38.870  25.570  28.738  1.00  0.00    -0.200 F 
ATOM     59  C   UNL A   1      40.110  27.244  27.627  1.00  0.00     0.200 A 
ATOM     60  F   UNL A   1      41.363  28.941  26.566  1.00  0.00    -0.200 F 
ATOM     61  F   UNL A   1      40.089  26.529  26.494  1.00  0.00    -0.200 F 
ENDBRANCH  27  51
BRANCH  39  62
ATOM     62  C   UNL A   1      44.490  28.708  35.486  1.00  0.00     0.064 A 
ATOM     63  C   UNL A   1      45.786  29.119  35.144  1.00  0.00     0.173 A 
ATOM     64  C   UNL A   1      44.348  27.490  36.170  1.00  0.00     0.173 A 
ATOM     65  F   UNL A   1      45.977  30.267  34.476  1.00  0.00    -0.203 F 
ATOM     66  C   UNL A   1      46.891  28.323  35.438  1.00  0.00     0.198 A 
ATOM     67  C   UNL A   1      45.458  26.716  36.496  1.00  0.00     0.198 A 
ATOM     68  F   UNL A   1      43.132  27.053  36.529  1.00  0.00    -0.203 F 
ATOM     69  F   UNL A   1      48.114  28.705  35.042  1.00  0.00    -0.200 F 
ATOM     70  C   UNL A   1      46.727  27.127  36.119  1.00  0.00     0.200 A 
ATOM     71  F   UNL A   1      45.298  25.568  37.169  1.00  0.00    -0.200 F 
ATOM     72  F   UNL A   1      47.792  26.364  36.403  1.00  0.00    -0.200 F 
ENDBRANCH  39  62
ENDBRANCH  13  14
ENDBRANCH   6   8
ENDBRANCH   3   4
ENDBRANCH   2   3
ENDBRANCH   1   2
BRANCH   1  73
ATOM     73  C   UNL A   1      34.692  32.715  29.090  1.00  0.00     0.002 C 
BRANCH  73  74
ATOM     74  C   UNL A   1      35.502  31.909  28.068  1.00  0.00     0.021 C 
BRANCH  74  75
ATOM     75  C   UNL A   1      34.845  30.592  27.654  1.00  0.00     0.116 C 
BRANCH  75  76
ATOM     76  N   UNL A   1      33.458  30.701  27.280  1.00  0.00    -0.353 N 
ATOM     77  C   UNL A   1      32.720  30.040  26.351  1.00  0.00     0.262 C 
ATOM     78  H   UNL A   1      32.954  31.376  27.789  1.00  0.00     0.163 HD
ATOM     79  O   UNL A   1      31.495  30.075  26.549  1.00  0.00    -0.271 OA
BRANCH  77  80
ATOM     80  C   UNL A   1      33.250  29.297  25.091  1.00  0.00     0.281 C 
ATOM     81  C   UNL A   1      32.572  29.283  23.730  1.00  0.00     0.181 C 
ATOM     82  O   UNL A   1      33.533  27.940  25.447  1.00  0.00    -0.477 OA
ATOM     83  N   UNL A   1      31.288  28.585  23.703  1.00  0.00    -0.304 N 
ATOM     84  C   UNL A   1      32.389  27.175  25.439  1.00  0.00     0.144 A 
ATOM     85  C   UNL A   1      31.256  27.453  24.633  1.00  0.00     0.086 A 
ATOM     86  C   UNL A   1      32.448  26.073  26.302  1.00  0.00     0.049 A 
ATOM     87  C   UNL A   1      30.174  26.573  24.776  1.00  0.00     0.030 A 
ATOM     88  C   UNL A   1      31.358  25.223  26.416  1.00  0.00     0.004 A 
ATOM     89  C   UNL A   1      30.222  25.477  25.658  1.00  0.00     0.002 A 
BRANCH  83  90
ATOM     90  C   UNL A   1      30.232  28.927  22.852  1.00  0.00     0.230 C 
ATOM     91  O   UNL A   1      30.196  28.550  21.670  1.00  0.00    -0.274 OA
BRANCH  90  92
ATOM     92  C   UNL A   1      29.018  29.835  23.255  1.00  0.00     0.083 C 
ATOM     93  C   UNL A   1      29.144  31.241  23.860  1.00  0.00     0.040 C 
ATOM     94  C   UNL A   1      27.860  29.784  22.257  1.00  0.00     0.018 C 
ATOM     95  C   UNL A   1      28.939  32.376  22.906  1.00  0.00    -0.030 C 
ATOM     96  C   UNL A   1      27.915  30.875  21.189  1.00  0.00     0.028 C 
ATOM     97  C   UNL A   1      28.403  32.202  21.691  1.00  0.00    -0.031 C 
ENDBRANCH  90  92
ENDBRANCH  83  90
ENDBRANCH  77  80
ENDBRANCH  75  76
ENDBRANCH  74  75
ENDBRANCH  73  74
ENDBRANCH   1  73
TORSDOF 15
ENDMDL
MODEL 2
REMARK VINA RESULT:     -12.2      3.762      6.557
REMARK SMILES O=C(NCCCCCCNC(=O)[C@@H]1CN(C(=O)[C@H]2CC=CCC2)c2ccccc2O1)c1ccc(-c2c3nc(c(-c4c(F)c(F)c(F)c(F)c4F)c4ccc([nH]4)c(-c4c(F)c(F)c(F)c(F)c4F)c4nc(c(-c5c(F)c(F)c(F)c(F)c5F)c5ccc2[nH]5)C=C4)C=C3)cc1
REMARK SMILES IDX 6 1 5 2 4 3 3 4 1 5 2 6 31 8 32 9 93 10 33 11 92 12 34 13
REMARK SMILES IDX 35 14 36 15 86 16 37 17 91 18 85 19 87 20 38 21 90 22 84 23
REMARK SMILES IDX 83 24 39 26 71 27 51 28 70 29 52 30 55 31 69 32 88 33 53 34
REMARK SMILES IDX 54 35 68 37 89 38 56 39 40 40 41 41 49 42 42 43 43 44 47 45
REMARK SMILES IDX 50 46 44 47 45 48 48 49 46 50 72 51 73 52 81 53 74 54 75 55
REMARK SMILES IDX 79 56 82 57 76 58 77 59 80 60 78 61 57 62 58 63 66 64 59 65
REMARK SMILES IDX 60 66 64 67 67 68 61 69 62 70 65 71 63 72 7 73 8 74 9 75
REMARK SMILES IDX 10 76 11 77 12 79 13 80 14 81 30 82 15 83 29 84 24 85 28 86
REMARK SMILES IDX 25 87 27 88 26 89 16 90 17 91 18 92 19 93 23 94 20 95 22 96
REMARK SMILES IDX 21 97
REMARK H PARENT 3 7 87 25 55 36 10 78
REMARK Flexibility Score: inf
ROOT
ATOM      1  C   UNL A   1      30.987  27.841  24.542  1.00  0.00     0.002 C 
ENDROOT
BRANCH   1   2
ATOM      2  C   UNL A   1      32.090  28.037  25.585  1.00  0.00     0.021 C 
BRANCH   2   3
ATOM      3  C   UNL A   1      33.093  29.148  25.313  1.00  0.00     0.116 C 
BRANCH   3   4
ATOM      4  N   UNL A   1      32.657  30.435  25.830  1.00  0.00    -0.352 N 
ATOM      5  O   UNL A   1      32.488  32.169  27.250  1.00  0.00    -0.269 OA
ATOM      6  C   UNL A   1      33.130  31.194  26.873  1.00  0.00     0.251 C 
ATOM      7  H   UNL A   1      31.893  30.830  25.351  1.00  0.00     0.163 HD
BRANCH   6   8
ATOM      8  C   UNL A   1      34.391  30.840  27.570  1.00  0.00     0.039 A 
ATOM      9  C   UNL A   1      34.631  29.548  28.036  1.00  0.00     0.014 A 
ATOM     10  C   UNL A   1      35.382  31.818  27.715  1.00  0.00     0.014 A 
ATOM     11  C   UNL A   1      35.771  29.278  28.789  1.00  0.00     0.010 A 
ATOM     12  C   UNL A   1      36.576  31.517  28.381  1.00  0.00     0.010 A 
ATOM     13  C   UNL A   1      36.766  30.254  28.961  1.00  0.00    -0.014 A 
BRANCH  13  14
ATOM     14  C   UNL A   1      38.005  29.911  29.712  1.00  0.00     0.031 A 
ATOM     15  C   UNL A   1      38.240  30.422  31.107  1.00  0.00     0.074 A 
ATOM     16  C   UNL A   1      38.913  29.099  29.135  1.00  0.00     0.049 A 
ATOM     17  N   UNL A   1      39.241  30.182  31.919  1.00  0.00    -0.248 NA
ATOM     18  C   UNL A   1      37.228  31.330  31.666  1.00  0.00     0.031 C 
ATOM     19  C   UNL A   1      38.811  28.551  27.781  1.00  0.00     0.029 A 
ATOM     20  N   UNL A   1      40.086  28.572  29.616  1.00  0.00    -0.354 N 
ATOM     21  C   UNL A   1      38.991  30.921  33.068  1.00  0.00     0.074 A 
ATOM     22  C   UNL A   1      37.759  31.646  32.838  1.00  0.00     0.031 C 
ATOM     23  C   UNL A   1      39.843  27.724  27.560  1.00  0.00     0.029 A 
ATOM     24  C   UNL A   1      40.714  27.732  28.730  1.00  0.00     0.049 A 
ATOM     25  H   UNL A   1      40.442  28.777  30.511  1.00  0.00     0.167 HD
ATOM     26  C   UNL A   1      39.715  30.982  34.213  1.00  0.00     0.037 A 
ATOM     27  C   UNL A   1      41.869  27.049  28.839  1.00  0.00     0.037 A 
ATOM     28  C   UNL A   1      40.934  30.246  34.443  1.00  0.00     0.049 A 
ATOM     29  C   UNL A   1      42.662  27.153  30.112  1.00  0.00     0.074 A 
ATOM     30  C   UNL A   1      41.716  30.207  35.585  1.00  0.00     0.029 A 
ATOM     31  N   UNL A   1      41.554  29.426  33.510  1.00  0.00    -0.354 N 
ATOM     32  N   UNL A   1      42.385  27.814  31.209  1.00  0.00    -0.248 NA
ATOM     33  C   UNL A   1      43.928  26.410  30.161  1.00  0.00     0.031 C 
ATOM     34  C   UNL A   1      42.839  29.414  35.322  1.00  0.00     0.029 A 
ATOM     35  C   UNL A   1      42.722  28.901  34.041  1.00  0.00     0.049 A 
ATOM     36  H   UNL A   1      41.214  29.246  32.604  1.00  0.00     0.167 HD
ATOM     37  C   UNL A   1      43.423  27.542  32.090  1.00  0.00     0.074 A 
ATOM     38  C   UNL A   1      44.326  26.641  31.403  1.00  0.00     0.031 C 
ATOM     39  C   UNL A   1      43.609  27.996  33.354  1.00  0.00     0.037 A 
BRANCH  26  40
ATOM     40  C   UNL A   1      39.226  31.893  35.304  1.00  0.00     0.064 A 
ATOM     41  C   UNL A   1      39.488  33.272  35.294  1.00  0.00     0.173 A 
ATOM     42  C   UNL A   1      38.444  31.386  36.354  1.00  0.00     0.173 A 
ATOM     43  F   UNL A   1      40.237  33.810  34.320  1.00  0.00    -0.203 F 
ATOM     44  C   UNL A   1      39.014  34.100  36.309  1.00  0.00     0.198 A 
ATOM     45  C   UNL A   1      37.943  32.224  37.349  1.00  0.00     0.198 A 
ATOM     46  F   UNL A   1      38.152  30.078  36.410  1.00  0.00    -0.203 F 
ATOM     47  F   UNL A   1      39.322  35.406  36.305  1.00  0.00    -0.200 F 
ATOM     48  C   UNL A   1      38.236  33.578  37.330  1.00  0.00     0.200 A 
ATOM     49  F   UNL A   1      37.177  31.717  38.326  1.00  0.00    -0.200 F 
ATOM     50  F   UNL A   1      37.774  34.379  38.301  1.00  0.00    -0.200 F 
ENDBRANCH  26  40
BRANCH  27  51
ATOM     51  C   UNL A   1      42.340  26.200  27.713  1.00  0.00     0.064 A 
ATOM     52  C   UNL A   1      43.292  26.675  26.800  1.00  0.00     0.173 A 
ATOM     53  C   UNL A   1      41.845  24.901  27.522  1.00  0.00     0.173 A 
ATOM     54  F   UNL A   1      43.782  27.917  26.929  1.00  0.00    -0.203 F 
ATOM     55  C   UNL A   1      43.712  25.893  25.726  1.00  0.00     0.198 A 
ATOM     56  C   UNL A   1      42.292  24.108  26.468  1.00  0.00     0.198 A 
ATOM     57  F   UNL A   1      40.937  24.398  28.370  1.00  0.00    -0.203 F 
ATOM     58  F   UNL A   1      44.584  26.391  24.838  1.00  0.00    -0.200 F 
ATOM     59  C   UNL A   1      43.217  24.609  25.565  1.00  0.00     0.200 A 
ATOM     60  F   UNL A   1      41.824  22.860  26.327  1.00  0.00    -0.200 F 
ATOM     61  F   UNL A   1      43.624  23.855  24.534  1.00  0.00    -0.200 F 
ENDBRANCH  27  51
BRANCH  39  62
ATOM     62  C   UNL A   1      44.808  27.479  34.098  1.00  0.00     0.064 A 
ATOM     63  C   UNL A   1      46.038  28.153  34.089  1.00  0.00     0.173 A 
ATOM     64  C   UNL A   1      44.717  26.293  34.843  1.00  0.00     0.173 A 
ATOM     65  F   UNL A   1      46.184  29.283  33.380  1.00  0.00    -0.203 F 
ATOM     66  C   UNL A   1      47.142  27.639  34.766  1.00  0.00     0.198 A 
ATOM     67  C   UNL A   1      45.812  25.802  35.549  1.00  0.00     0.198 A 
ATOM     68  F   UNL A   1      43.562  25.612  34.894  1.00  0.00    -0.203 F 
ATOM     69  F   UNL A   1      48.324  28.266  34.688  1.00  0.00    -0.200 F 
ATOM     70  C   UNL A   1      47.026  26.468  35.499  1.00  0.00     0.200 A 
ATOM     71  F   UNL A   1      45.693  24.679  36.272  1.00  0.00    -0.200 F 
ATOM     72  F   UNL A   1      48.089  25.976  36.151  1.00  0.00    -0.200 F 
ENDBRANCH  39  62
ENDBRANCH  13  14
ENDBRANCH   6   8
ENDBRANCH   3   4
ENDBRANCH   2   3
ENDBRANCH   1   2
BRANCH   1  73
ATOM     73  C   UNL A   1      30.316  26.460  24.489  1.00  0.00     0.002 C 
BRANCH  73  74
ATOM     74  C   UNL A   1      29.939  25.837  25.839  1.00  0.00     0.021 C 
BRANCH  74  75
ATOM     75  C   UNL A   1      30.478  24.420  26.041  1.00  0.00     0.116 C 
BRANCH  75  76
ATOM     76  N   UNL A   1      31.899  24.341  26.265  1.00  0.00    -0.353 N 
ATOM     77  C   UNL A   1      32.926  24.009  25.439  1.00  0.00     0.262 C 
ATOM     78  H   UNL A   1      32.177  24.569  27.182  1.00  0.00     0.163 HD
ATOM     79  O   UNL A   1      34.036  24.421  25.811  1.00  0.00    -0.271 OA
BRANCH  77  80
ATOM     80  C   UNL A   1      32.841  23.163  24.137  1.00  0.00     0.281 C 
ATOM     81  C   UNL A   1      32.405  21.708  24.062  1.00  0.00     0.181 C 
ATOM     82  O   UNL A   1      34.084  23.279  23.437  1.00  0.00    -0.477 OA
ATOM     83  N   UNL A   1      33.321  20.770  24.710  1.00  0.00    -0.304 N 
ATOM     84  C   UNL A   1      35.028  22.421  23.954  1.00  0.00     0.144 A 
ATOM     85  C   UNL A   1      34.718  21.202  24.606  1.00  0.00     0.086 A 
ATOM     86  C   UNL A   1      36.345  22.861  23.765  1.00  0.00     0.049 A 
ATOM     87  C   UNL A   1      35.812  20.470  25.087  1.00  0.00     0.030 A 
ATOM     88  C   UNL A   1      37.403  22.109  24.254  1.00  0.00     0.004 A 
ATOM     89  C   UNL A   1      37.135  20.920  24.918  1.00  0.00     0.002 A 
BRANCH  83  90
ATOM     90  C   UNL A   1      32.914  19.576  25.314  1.00  0.00     0.230 C 
ATOM     91  O   UNL A   1      32.896  19.440  26.547  1.00  0.00    -0.274 OA
BRANCH  90  92
ATOM     92  C   UNL A   1      32.484  18.284  24.536  1.00  0.00     0.083 C 
ATOM     93  C   UNL A   1      32.911  17.948  23.100  1.00  0.00     0.040 C 
ATOM     94  C   UNL A   1      32.481  17.023  25.402  1.00  0.00     0.018 C 
ATOM     95  C   UNL A   1      34.028  16.959  22.972  1.00  0.00    -0.030 C 
ATOM     96  C   UNL A   1      33.789  16.235  25.353  1.00  0.00     0.028 C 
ATOM     97  C   UNL A   1      34.437  16.204  24.000  1.00  0.00    -0.031 C 
ENDBRANCH  90  92
ENDBRANCH  83  90
ENDBRANCH  77  80
ENDBRANCH  75  76
ENDBRANCH  74  75
ENDBRANCH  73  74
ENDBRANCH   1  73
TORSDOF 15
ENDMDL
MODEL 3
REMARK VINA RESULT:     -12.1      1.085      3.286
REMARK SMILES O=C(NCCCCCCNC(=O)[C@@H]1CN(C(=O)[C@H]2CC=CCC2)c2ccccc2O1)c1ccc(-c2c3nc(c(-c4c(F)c(F)c(F)c(F)c4F)c4ccc([nH]4)c(-c4c(F)c(F)c(F)c(F)c4F)c4nc(c(-c5c(F)c(F)c(F)c(F)c5F)c5ccc2[nH]5)C=C4)C=C3)cc1
REMARK SMILES IDX 6 1 5 2 4 3 3 4 1 5 2 6 31 8 32 9 93 10 33 11 92 12 34 13
REMARK SMILES IDX 35 14 36 15 86 16 37 17 91 18 85 19 87 20 38 21 90 22 84 23
REMARK SMILES IDX 83 24 39 26 71 27 51 28 70 29 52 30 55 31 69 32 88 33 53 34
REMARK SMILES IDX 54 35 68 37 89 38 56 39 40 40 41 41 49 42 42 43 43 44 47 45
REMARK SMILES IDX 50 46 44 47 45 48 48 49 46 50 72 51 73 52 81 53 74 54 75 55
REMARK SMILES IDX 79 56 82 57 76 58 77 59 80 60 78 61 57 62 58 63 66 64 59 65
REMARK SMILES IDX 60 66 64 67 67 68 61 69 62 70 65 71 63 72 7 73 8 74 9 75
REMARK SMILES IDX 10 76 11 77 12 79 13 80 14 81 30 82 15 83 29 84 24 85 28 86
REMARK SMILES IDX 25 87 27 88 26 89 16 90 17 91 18 92 19 93 23 94 20 95 22 96
REMARK SMILES IDX 21 97
REMARK H PARENT 3 7 87 25 55 36 10 78
REMARK Flexibility Score: inf
ROOT
ATOM      1  C   UNL A   1      34.582  33.790  29.009  1.00  0.00     0.002 C 
ENDROOT
BRANCH   1   2
ATOM      2  C   UNL A   1      33.278  34.582  28.891  1.00  0.00     0.021 C 
BRANCH   2   3
ATOM      3  C   UNL A   1      33.277  35.983  29.485  1.00  0.00     0.116 C 
BRANCH   3   4
ATOM      4  N   UNL A   1      32.444  36.088  30.671  1.00  0.00    -0.352 N 
ATOM      5  O   UNL A   1      31.677  35.634  32.735  1.00  0.00    -0.269 OA
ATOM      6  C   UNL A   1      32.604  35.569  31.933  1.00  0.00     0.251 C 
ATOM      7  H   UNL A   1      31.627  36.623  30.550  1.00  0.00     0.163 HD
BRANCH   6   8
ATOM      8  C   UNL A   1      33.870  34.908  32.337  1.00  0.00     0.039 A 
ATOM      9  C   UNL A   1      35.085  35.592  32.329  1.00  0.00     0.014 A 
ATOM     10  C   UNL A   1      33.830  33.582  32.784  1.00  0.00     0.014 A 
ATOM     11  C   UNL A   1      36.270  34.911  32.599  1.00  0.00     0.010 A 
ATOM     12  C   UNL A   1      35.010  32.929  33.157  1.00  0.00     0.010 A 
ATOM     13  C   UNL A   1      36.249  33.574  33.030  1.00  0.00    -0.014 A 
BRANCH  13  14
ATOM     14  C   UNL A   1      37.529  32.898  33.378  1.00  0.00     0.031 A 
ATOM     15  C   UNL A   1      38.230  33.177  34.681  1.00  0.00     0.074 A 
ATOM     16  C   UNL A   1      38.044  31.995  32.521  1.00  0.00     0.049 A 
ATOM     17  N   UNL A   1      39.325  32.642  35.161  1.00  0.00    -0.248 NA
ATOM     18  C   UNL A   1      37.633  34.197  35.556  1.00  0.00     0.031 C 
ATOM     19  C   UNL A   1      37.471  31.649  31.219  1.00  0.00     0.029 A 
ATOM     20  N   UNL A   1      39.150  31.187  32.620  1.00  0.00    -0.354 N 
ATOM     21  C   UNL A   1      39.558  33.270  36.378  1.00  0.00     0.074 A 
ATOM     22  C   UNL A   1      38.509  34.253  36.549  1.00  0.00     0.031 C 
ATOM     23  C   UNL A   1      38.192  30.663  30.667  1.00  0.00     0.029 A 
ATOM     24  C   UNL A   1      39.316  30.352  31.543  1.00  0.00     0.049 A 
ATOM     25  H   UNL A   1      39.764  31.205  33.389  1.00  0.00     0.167 HD
ATOM     26  C   UNL A   1      40.550  33.043  37.275  1.00  0.00     0.037 A 
ATOM     27  C   UNL A   1      40.272  29.440  31.281  1.00  0.00     0.037 A 
ATOM     28  C   UNL A   1      41.586  32.053  37.107  1.00  0.00     0.049 A 
ATOM     29  C   UNL A   1      41.371  29.225  32.283  1.00  0.00     0.074 A 
ATOM     30  C   UNL A   1      42.608  31.717  37.978  1.00  0.00     0.029 A 
ATOM     31  N   UNL A   1      41.737  31.245  35.989  1.00  0.00    -0.354 N 
ATOM     32  N   UNL A   1      41.548  29.790  33.453  1.00  0.00    -0.248 NA
ATOM     33  C   UNL A   1      42.401  28.241  31.929  1.00  0.00     0.031 C 
ATOM     34  C   UNL A   1      43.411  30.751  37.363  1.00  0.00     0.029 A 
ATOM     35  C   UNL A   1      42.851  30.433  36.137  1.00  0.00     0.049 A 
ATOM     36  H   UNL A   1      41.141  31.249  35.205  1.00  0.00     0.167 HD
ATOM     37  C   UNL A   1      42.690  29.208  33.988  1.00  0.00     0.074 A 
ATOM     38  C   UNL A   1      43.151  28.233  33.021  1.00  0.00     0.031 C 
ATOM     39  C   UNL A   1      43.297  29.457  35.174  1.00  0.00     0.037 A 
BRANCH  26  40
ATOM     40  C   UNL A   1      40.584  33.895  38.513  1.00  0.00     0.064 A 
ATOM     41  C   UNL A   1      41.337  35.078  38.582  1.00  0.00     0.173 A 
ATOM     42  C   UNL A   1      39.815  33.546  39.635  1.00  0.00     0.173 A 
ATOM     43  F   UNL A   1      42.097  35.455  37.543  1.00  0.00    -0.203 F 
ATOM     44  C   UNL A   1      41.344  35.858  39.736  1.00  0.00     0.198 A 
ATOM     45  C   UNL A   1      39.797  34.348  40.774  1.00  0.00     0.198 A 
ATOM     46  F   UNL A   1      39.067  32.433  39.623  1.00  0.00    -0.203 F 
ATOM     47  F   UNL A   1      42.112  36.956  39.795  1.00  0.00    -0.200 F 
ATOM     48  C   UNL A   1      40.569  35.498  40.827  1.00  0.00     0.200 A 
ATOM     49  F   UNL A   1      39.034  34.006  41.821  1.00  0.00    -0.200 F 
ATOM     50  F   UNL A   1      40.570  36.256  41.933  1.00  0.00    -0.200 F 
ENDBRANCH  26  40
BRANCH  27  51
ATOM     51  C   UNL A   1      40.226  28.657  30.018  1.00  0.00     0.064 A 
ATOM     52  C   UNL A   1      40.844  29.131  28.852  1.00  0.00     0.173 A 
ATOM     53  C   UNL A   1      39.559  27.425  29.947  1.00  0.00     0.173 A 
ATOM     54  F   UNL A   1      41.478  30.313  28.863  1.00  0.00    -0.203 F 
ATOM     55  C   UNL A   1      40.776  28.414  27.659  1.00  0.00     0.198 A 
ATOM     56  C   UNL A   1      39.523  26.693  28.763  1.00  0.00     0.198 A 
ATOM     57  F   UNL A   1      38.956  26.924  31.035  1.00  0.00    -0.203 F 
ATOM     58  F   UNL A   1      41.330  28.915  26.547  1.00  0.00    -0.200 F 
ATOM     59  C   UNL A   1      40.122  27.193  27.618  1.00  0.00     0.200 A 
ATOM     60  F   UNL A   1      38.904  25.504  28.733  1.00  0.00    -0.200 F 
ATOM     61  F   UNL A   1      40.060  26.502  26.472  1.00  0.00    -0.200 F 
ENDBRANCH  27  51
BRANCH  39  62
ATOM     62  C   UNL A   1      44.498  28.621  35.518  1.00  0.00     0.064 A 
ATOM     63  C   UNL A   1      44.386  27.409  36.213  1.00  0.00     0.173 A 
ATOM     64  C   UNL A   1      45.781  29.040  35.133  1.00  0.00     0.173 A 
ATOM     65  F   UNL A   1      43.185  26.970  36.619  1.00  0.00    -0.203 F 
ATOM     66  C   UNL A   1      45.517  26.666  36.544  1.00  0.00     0.198 A 
ATOM     67  C   UNL A   1      46.906  28.276  35.432  1.00  0.00     0.198 A 
ATOM     68  F   UNL A   1      45.946  30.188  34.458  1.00  0.00    -0.203 F 
ATOM     69  F   UNL A   1      45.392  25.544  37.266  1.00  0.00    -0.200 F 
ATOM     70  C   UNL A   1      46.774  27.096  36.148  1.00  0.00     0.200 A 
ATOM     71  F   UNL A   1      48.118  28.686  35.033  1.00  0.00    -0.200 F 
ATOM     72  F   UNL A   1      47.861  26.379  36.465  1.00  0.00    -0.200 F 
ENDBRANCH  39  62
ENDBRANCH  13  14
ENDBRANCH   6   8
ENDBRANCH   3   4
ENDBRANCH   2   3
ENDBRANCH   1   2
BRANCH   1  73
ATOM     73  C   UNL A   1      34.476  32.259  28.942  1.00  0.00     0.002 C 
BRANCH  73  74
ATOM     74  C   UNL A   1      35.389  31.560  27.927  1.00  0.00     0.021 C 
BRANCH  74  75
ATOM     75  C   UNL A   1      35.322  30.033  27.979  1.00  0.00     0.116 C 
BRANCH  75  76
ATOM     76  N   UNL A   1      35.037  29.398  26.718  1.00  0.00    -0.353 N 
ATOM     77  C   UNL A   1      33.863  29.118  26.093  1.00  0.00     0.262 C 
ATOM     78  H   UNL A   1      35.837  29.116  26.218  1.00  0.00     0.163 HD
ATOM     79  O   UNL A   1      33.965  28.941  24.869  1.00  0.00    -0.271 OA
BRANCH  77  80
ATOM     80  C   UNL A   1      32.463  28.975  26.755  1.00  0.00     0.281 C 
ATOM     81  C   UNL A   1      31.859  27.673  27.257  1.00  0.00     0.181 C 
ATOM     82  O   UNL A   1      31.493  29.605  25.910  1.00  0.00    -0.477 OA
ATOM     83  N   UNL A   1      31.553  26.705  26.205  1.00  0.00    -0.304 N 
ATOM     84  C   UNL A   1      31.113  28.772  24.883  1.00  0.00     0.144 A 
ATOM     85  C   UNL A   1      31.145  27.356  24.957  1.00  0.00     0.086 A 
ATOM     86  C   UNL A   1      30.674  29.457  23.743  1.00  0.00     0.049 A 
ATOM     87  C   UNL A   1      30.741  26.674  23.801  1.00  0.00     0.030 A 
ATOM     88  C   UNL A   1      30.280  28.748  22.618  1.00  0.00     0.004 A 
ATOM     89  C   UNL A   1      30.319  27.360  22.647  1.00  0.00     0.002 A 
BRANCH  83  90
ATOM     90  C   UNL A   1      31.596  25.318  26.386  1.00  0.00     0.230 C 
ATOM     91  O   UNL A   1      30.659  24.699  26.914  1.00  0.00    -0.274 OA
BRANCH  90  92
ATOM     92  C   UNL A   1      32.808  24.404  25.995  1.00  0.00     0.083 C 
ATOM     93  C   UNL A   1      32.705  23.142  25.126  1.00  0.00     0.040 C 
ATOM     94  C   UNL A   1      34.076  25.188  25.651  1.00  0.00     0.018 C 
ATOM     95  C   UNL A   1      33.107  23.309  23.693  1.00  0.00    -0.030 C 
ATOM     96  C   UNL A   1      34.232  25.492  24.162  1.00  0.00     0.028 C 
ATOM     97  C   UNL A   1      33.777  24.383  23.258  1.00  0.00    -0.031 C 
ENDBRANCH  90  92
ENDBRANCH  83  90
ENDBRANCH  77  80
ENDBRANCH  75  76
ENDBRANCH  74  75
ENDBRANCH  73  74
ENDBRANCH   1  73
TORSDOF 15
ENDMDL
