MODEL 1
REMARK VINA RESULT:     -10.1      0.000      0.000
REMARK SMILES C[C@@H]([NH2+]CC(C)(C)C(=O)NCCCCCCNC(=O)c1ccc(-c2c3nc(c(-c4c(F)c(F)c(F)c(F)c4F)c4ccc([nH]4)c(-c4c(F)c(F)c(F)c(F)c4F)c4nc(c(-c5c(F)c(F)c(F)c(F)c5F)c5ccc2[nH]5)C=C4)C=C3)cc1)C1CC1
REMARK SMILES IDX 12 1 11 2 10 3 8 4 9 5 5 7 6 8 7 9 4 10 3 11 2 14 1 15 83 16
REMARK SMILES IDX 84 17 85 18 13 19 14 20 15 21 16 22 17 23 18 24 19 26 20 27
REMARK SMILES IDX 21 28 82 29 22 30 81 31 23 32 24 33 25 34 75 35 26 36 80 37
REMARK SMILES IDX 74 38 76 39 27 40 79 41 73 42 72 43 28 45 60 46 40 47 59 48
REMARK SMILES IDX 41 49 44 50 58 51 77 52 42 53 43 54 57 56 78 57 45 58 29 59
REMARK SMILES IDX 30 60 38 61 31 62 32 63 36 64 39 65 33 66 34 67 37 68 35 69
REMARK SMILES IDX 61 70 62 71 70 72 63 73 64 74 68 75 71 76 65 77 66 78 69 79
REMARK SMILES IDX 67 80 46 81 47 82 55 83 48 84 49 85 53 86 56 87 50 88 51 89
REMARK SMILES IDX 54 90 52 91
REMARK H PARENT 10 6 3 12 3 13 17 25 76 44 44 55
REMARK Flexibility Score: inf
ROOT
ATOM      1  C   UNL A   1      34.796  20.630  24.937  1.00  0.00     0.021 C 
ENDROOT
BRANCH   1   2
ATOM      2  C   UNL A   1      33.720  21.595  24.437  1.00  0.00     0.116 C 
BRANCH   2   3
ATOM      3  N   UNL A   1      34.306  22.552  23.526  1.00  0.00    -0.355 N 
ATOM      4  C   UNL A   1      33.812  23.786  23.234  1.00  0.00     0.231 C 
ATOM      5  O   UNL A   1      33.681  24.044  22.037  1.00  0.00    -0.274 OA
ATOM      6  H   UNL A   1      35.140  22.286  23.075  1.00  0.00     0.163 HD
BRANCH   4   7
ATOM      7  C   UNL A   1      33.416  24.767  24.350  1.00  0.00     0.092 C 
ATOM      8  C   UNL A   1      34.413  24.808  25.520  1.00  0.00     0.027 C 
ATOM      9  C   UNL A   1      32.012  24.360  24.846  1.00  0.00     0.027 C 
BRANCH   7  10
ATOM     10  C   UNL A   1      33.276  26.205  23.752  1.00  0.00     0.277 C 
BRANCH  10  11
ATOM     11  N   UNL A   1      32.570  27.271  24.490  1.00  0.00    -0.343 N 
ATOM     12  H   UNL A   1      31.622  27.331  24.117  1.00  0.00     0.346 HD
ATOM     13  H   UNL A   1      32.618  27.001  25.471  1.00  0.00     0.346 HD
BRANCH  11  14
ATOM     14  C   UNL A   1      33.164  28.607  24.419  1.00  0.00     0.182 C 
ATOM     15  C   UNL A   1      34.107  28.685  23.208  1.00  0.00     0.075 C 
BRANCH  14  16
ATOM     16  C   UNL A   1      33.880  29.081  25.661  1.00  0.00     0.047 C 
ATOM     17  C   UNL A   1      33.233  29.750  26.861  1.00  0.00     0.010 C 
ATOM     18  C   UNL A   1      33.768  28.359  26.987  1.00  0.00     0.010 C 
ENDBRANCH  14  16
ENDBRANCH  11  14
ENDBRANCH  10  11
ENDBRANCH   7  10
ENDBRANCH   4   7
ENDBRANCH   2   3
ENDBRANCH   1   2
BRANCH   1  19
ATOM     19  C   UNL A   1      36.089  21.321  25.389  1.00  0.00     0.002 C 
BRANCH  19  20
ATOM     20  C   UNL A   1      37.310  21.034  24.509  1.00  0.00     0.002 C 
BRANCH  20  21
ATOM     21  C   UNL A   1      38.143  19.828  24.947  1.00  0.00     0.021 C 
BRANCH  21  22
ATOM     22  C   UNL A   1      39.240  20.159  25.949  1.00  0.00     0.116 C 
BRANCH  22  23
ATOM     23  N   UNL A   1      40.268  19.134  25.983  1.00  0.00    -0.352 N 
ATOM     24  C   UNL A   1      41.629  19.284  26.079  1.00  0.00     0.251 C 
ATOM     25  H   UNL A   1      39.946  18.206  25.928  1.00  0.00     0.163 HD
ATOM     26  O   UNL A   1      42.375  18.333  25.884  1.00  0.00    -0.269 OA
BRANCH  24  27
ATOM     27  C   UNL A   1      42.190  20.612  26.401  1.00  0.00     0.039 A 
ATOM     28  C   UNL A   1      42.550  21.464  25.355  1.00  0.00     0.014 A 
ATOM     29  C   UNL A   1      42.351  21.017  27.730  1.00  0.00     0.014 A 
ATOM     30  C   UNL A   1      43.026  22.744  25.643  1.00  0.00     0.010 A 
ATOM     31  C   UNL A   1      42.750  22.319  28.013  1.00  0.00     0.010 A 
ATOM     32  C   UNL A   1      43.100  23.192  26.972  1.00  0.00    -0.014 A 
BRANCH  32  33
ATOM     33  C   UNL A   1      43.553  24.569  27.292  1.00  0.00     0.031 A 
ATOM     34  C   UNL A   1      42.560  25.599  27.753  1.00  0.00     0.074 A 
ATOM     35  C   UNL A   1      44.844  24.904  27.116  1.00  0.00     0.049 A 
ATOM     36  N   UNL A   1      42.748  26.866  28.028  1.00  0.00    -0.248 NA
ATOM     37  C   UNL A   1      41.166  25.155  27.900  1.00  0.00     0.031 C 
ATOM     38  C   UNL A   1      45.892  24.002  26.633  1.00  0.00     0.029 A 
ATOM     39  N   UNL A   1      45.497  26.094  27.315  1.00  0.00    -0.354 N 
ATOM     40  C   UNL A   1      41.499  27.367  28.368  1.00  0.00     0.074 A 
ATOM     41  C   UNL A   1      40.550  26.288  28.207  1.00  0.00     0.031 C 
ATOM     42  C   UNL A   1      47.060  24.664  26.600  1.00  0.00     0.029 A 
ATOM     43  C   UNL A   1      46.836  26.045  27.018  1.00  0.00     0.049 A 
ATOM     44  H   UNL A   1      45.047  26.906  27.642  1.00  0.00     0.167 HD
ATOM     45  C   UNL A   1      41.177  28.609  28.803  1.00  0.00     0.037 A 
ATOM     46  C   UNL A   1      47.776  27.008  27.069  1.00  0.00     0.037 A 
ATOM     47  C   UNL A   1      42.128  29.676  28.977  1.00  0.00     0.049 A 
ATOM     48  C   UNL A   1      47.386  28.387  27.532  1.00  0.00     0.074 A 
ATOM     49  C   UNL A   1      41.913  30.954  29.460  1.00  0.00     0.029 A 
ATOM     50  N   UNL A   1      43.478  29.587  28.669  1.00  0.00    -0.354 N 
ATOM     51  N   UNL A   1      46.216  28.832  27.918  1.00  0.00    -0.248 NA
ATOM     52  C   UNL A   1      48.454  29.396  27.571  1.00  0.00     0.031 C 
ATOM     53  C   UNL A   1      43.120  31.657  29.393  1.00  0.00     0.029 A 
ATOM     54  C   UNL A   1      44.102  30.798  28.925  1.00  0.00     0.049 A 
ATOM     55  H   UNL A   1      43.926  28.783  28.319  1.00  0.00     0.167 HD
ATOM     56  C   UNL A   1      46.409  30.159  28.274  1.00  0.00     0.074 A 
ATOM     57  C   UNL A   1      47.815  30.443  28.075  1.00  0.00     0.031 C 
ATOM     58  C   UNL A   1      45.505  31.062  28.727  1.00  0.00     0.037 A 
BRANCH  45  59
ATOM     59  C   UNL A   1      39.733  28.882  29.120  1.00  0.00     0.064 A 
ATOM     60  C   UNL A   1      38.839  29.343  28.140  1.00  0.00     0.173 A 
ATOM     61  C   UNL A   1      39.229  28.650  30.408  1.00  0.00     0.173 A 
ATOM     62  F   UNL A   1      39.271  29.592  26.895  1.00  0.00    -0.203 F 
ATOM     63  C   UNL A   1      37.505  29.594  28.449  1.00  0.00     0.198 A 
ATOM     64  C   UNL A   1      37.887  28.869  30.704  1.00  0.00     0.198 A 
ATOM     65  F   UNL A   1      40.038  28.203  31.381  1.00  0.00    -0.203 F 
ATOM     66  F   UNL A   1      36.684  30.089  27.510  1.00  0.00    -0.200 F 
ATOM     67  C   UNL A   1      37.028  29.350  29.726  1.00  0.00     0.200 A 
ATOM     68  F   UNL A   1      37.423  28.618  31.936  1.00  0.00    -0.200 F 
ATOM     69  F   UNL A   1      35.742  29.585  30.020  1.00  0.00    -0.200 F 
ENDBRANCH  45  59
BRANCH  46  70
ATOM     70  C   UNL A   1      49.181  26.698  26.694  1.00  0.00     0.064 A 
ATOM     71  C   UNL A   1      49.627  26.859  25.374  1.00  0.00     0.173 A 
ATOM     72  C   UNL A   1      50.103  26.228  27.640  1.00  0.00     0.173 A 
ATOM     73  F   UNL A   1      48.777  27.287  24.429  1.00  0.00    -0.203 F 
ATOM     74  C   UNL A   1      50.932  26.538  25.011  1.00  0.00     0.198 A 
ATOM     75  C   UNL A   1      51.417  25.938  27.281  1.00  0.00     0.198 A 
ATOM     76  F   UNL A   1      49.731  26.062  28.918  1.00  0.00    -0.203 F 
ATOM     77  F   UNL A   1      51.316  26.654  23.732  1.00  0.00    -0.200 F 
ATOM     78  C   UNL A   1      51.829  26.084  25.965  1.00  0.00     0.200 A 
ATOM     79  F   UNL A   1      52.285  25.515  28.211  1.00  0.00    -0.200 F 
ATOM     80  F   UNL A   1      53.086  25.779  25.615  1.00  0.00    -0.200 F 
ENDBRANCH  46  70
BRANCH  58  81
ATOM     81  C   UNL A   1      46.014  32.432  29.074  1.00  0.00     0.064 A 
ATOM     82  C   UNL A   1      46.510  32.735  30.351  1.00  0.00     0.173 A 
ATOM     83  C   UNL A   1      46.040  33.446  28.103  1.00  0.00     0.173 A 
ATOM     84  F   UNL A   1      46.493  31.806  31.319  1.00  0.00    -0.203 F 
ATOM     85  C   UNL A   1      46.987  34.008  30.650  1.00  0.00     0.198 A 
ATOM     86  C   UNL A   1      46.549  34.707  28.397  1.00  0.00     0.198 A 
ATOM     87  F   UNL A   1      45.584  33.207  26.864  1.00  0.00    -0.203 F 
ATOM     88  F   UNL A   1      47.406  34.289  31.892  1.00  0.00    -0.200 F 
ATOM     89  C   UNL A   1      47.013  34.991  29.672  1.00  0.00     0.200 A 
ATOM     90  F   UNL A   1      46.589  35.650  27.444  1.00  0.00    -0.200 F 
ATOM     91  F   UNL A   1      47.480  36.213  29.961  1.00  0.00    -0.200 F 
ENDBRANCH  58  81
ENDBRANCH  32  33
ENDBRANCH  24  27
ENDBRANCH  22  23
ENDBRANCH  21  22
ENDBRANCH  20  21
ENDBRANCH  19  20
ENDBRANCH   1  19
TORSDOF 17
ENDMDL
MODEL 2
REMARK VINA RESULT:     -10.1      1.044      2.112
REMARK SMILES C[C@@H]([NH2+]CC(C)(C)C(=O)NCCCCCCNC(=O)c1ccc(-c2c3nc(c(-c4c(F)c(F)c(F)c(F)c4F)c4ccc([nH]4)c(-c4c(F)c(F)c(F)c(F)c4F)c4nc(c(-c5c(F)c(F)c(F)c(F)c5F)c5ccc2[nH]5)C=C4)C=C3)cc1)C1CC1
REMARK SMILES IDX 12 1 11 2 10 3 8 4 9 5 5 7 6 8 7 9 4 10 3 11 2 14 1 15 83 16
REMARK SMILES IDX 84 17 85 18 13 19 14 20 15 21 16 22 17 23 18 24 19 26 20 27
REMARK SMILES IDX 21 28 82 29 22 30 81 31 23 32 24 33 25 34 75 35 26 36 80 37
REMARK SMILES IDX 74 38 76 39 27 40 79 41 73 42 72 43 28 45 60 46 40 47 59 48
REMARK SMILES IDX 41 49 44 50 58 51 77 52 42 53 43 54 57 56 78 57 45 58 29 59
REMARK SMILES IDX 30 60 38 61 31 62 32 63 36 64 39 65 33 66 34 67 37 68 35 69
REMARK SMILES IDX 61 70 62 71 70 72 63 73 64 74 68 75 71 76 65 77 66 78 69 79
REMARK SMILES IDX 67 80 46 81 47 82 55 83 48 84 49 85 53 86 56 87 50 88 51 89
REMARK SMILES IDX 54 90 52 91
REMARK H PARENT 10 6 3 12 3 13 17 25 76 44 44 55
REMARK Flexibility Score: inf
ROOT
ATOM      1  C   UNL A   1      36.839  23.266  24.934  1.00  0.00     0.021 C 
ENDROOT
BRANCH   1   2
ATOM      2  C   UNL A   1      35.557  23.355  25.764  1.00  0.00     0.116 C 
BRANCH   2   3
ATOM      3  N   UNL A   1      34.791  24.512  25.358  1.00  0.00    -0.355 N 
ATOM      4  C   UNL A   1      33.828  24.538  24.397  1.00  0.00     0.231 C 
ATOM      5  O   UNL A   1      33.952  25.407  23.533  1.00  0.00    -0.274 OA
ATOM      6  H   UNL A   1      34.985  25.360  25.820  1.00  0.00     0.163 HD
BRANCH   4   7
ATOM      7  C   UNL A   1      32.683  23.511  24.394  1.00  0.00     0.092 C 
ATOM      8  C   UNL A   1      32.422  22.870  25.767  1.00  0.00     0.027 C 
ATOM      9  C   UNL A   1      33.034  22.431  23.348  1.00  0.00     0.027 C 
BRANCH   7  10
ATOM     10  C   UNL A   1      31.370  24.199  23.897  1.00  0.00     0.277 C 
BRANCH  10  11
ATOM     11  N   UNL A   1      30.259  24.481  24.827  1.00  0.00    -0.343 N 
ATOM     12  H   UNL A   1      29.410  24.078  24.429  1.00  0.00     0.346 HD
ATOM     13  H   UNL A   1      30.538  24.072  25.718  1.00  0.00     0.346 HD
BRANCH  11  14
ATOM     14  C   UNL A   1      29.994  25.894  25.108  1.00  0.00     0.182 C 
ATOM     15  C   UNL A   1      29.117  26.481  23.992  1.00  0.00     0.075 C 
BRANCH  14  16
ATOM     16  C   UNL A   1      31.209  26.766  25.323  1.00  0.00     0.047 C 
ATOM     17  C   UNL A   1      31.279  27.989  26.219  1.00  0.00     0.010 C 
ATOM     18  C   UNL A   1      32.007  26.742  26.609  1.00  0.00     0.010 C 
ENDBRANCH  14  16
ENDBRANCH  11  14
ENDBRANCH  10  11
ENDBRANCH   7  10
ENDBRANCH   4   7
ENDBRANCH   2   3
ENDBRANCH   1   2
BRANCH   1  19
ATOM     19  C   UNL A   1      36.985  21.953  24.155  1.00  0.00     0.002 C 
BRANCH  19  20
ATOM     20  C   UNL A   1      36.780  20.685  24.991  1.00  0.00     0.002 C 
BRANCH  20  21
ATOM     21  C   UNL A   1      37.957  19.708  24.967  1.00  0.00     0.021 C 
BRANCH  21  22
ATOM     22  C   UNL A   1      39.189  20.197  25.712  1.00  0.00     0.116 C 
BRANCH  22  23
ATOM     23  N   UNL A   1      40.175  19.144  25.879  1.00  0.00    -0.352 N 
ATOM     24  C   UNL A   1      41.527  19.255  26.089  1.00  0.00     0.251 C 
ATOM     25  H   UNL A   1      39.827  18.224  25.832  1.00  0.00     0.163 HD
ATOM     26  O   UNL A   1      42.254  18.274  25.998  1.00  0.00    -0.269 OA
BRANCH  24  27
ATOM     27  C   UNL A   1      42.102  20.578  26.407  1.00  0.00     0.039 A 
ATOM     28  C   UNL A   1      42.552  21.387  25.361  1.00  0.00     0.014 A 
ATOM     29  C   UNL A   1      42.190  21.021  27.731  1.00  0.00     0.014 A 
ATOM     30  C   UNL A   1      43.044  22.663  25.640  1.00  0.00     0.010 A 
ATOM     31  C   UNL A   1      42.606  22.320  27.999  1.00  0.00     0.010 A 
ATOM     32  C   UNL A   1      43.046  23.150  26.957  1.00  0.00    -0.014 A 
BRANCH  32  33
ATOM     33  C   UNL A   1      43.515  24.524  27.264  1.00  0.00     0.031 A 
ATOM     34  C   UNL A   1      42.553  25.546  27.802  1.00  0.00     0.074 A 
ATOM     35  C   UNL A   1      44.792  24.866  27.007  1.00  0.00     0.049 A 
ATOM     36  N   UNL A   1      42.756  26.810  28.080  1.00  0.00    -0.248 NA
ATOM     37  C   UNL A   1      41.172  25.096  28.036  1.00  0.00     0.031 C 
ATOM     38  C   UNL A   1      45.808  23.974  26.446  1.00  0.00     0.029 A 
ATOM     39  N   UNL A   1      45.453  26.056  27.179  1.00  0.00    -0.354 N 
ATOM     40  C   UNL A   1      41.530  27.303  28.509  1.00  0.00     0.074 A 
ATOM     41  C   UNL A   1      40.576  26.222  28.396  1.00  0.00     0.031 C 
ATOM     42  C   UNL A   1      46.969  24.640  26.344  1.00  0.00     0.029 A 
ATOM     43  C   UNL A   1      46.770  26.014  26.794  1.00  0.00     0.049 A 
ATOM     44  H   UNL A   1      45.023  26.862  27.545  1.00  0.00     0.167 HD
ATOM     45  C   UNL A   1      41.235  28.538  28.980  1.00  0.00     0.037 A 
ATOM     46  C   UNL A   1      47.710  26.980  26.795  1.00  0.00     0.037 A 
ATOM     47  C   UNL A   1      42.193  29.605  29.105  1.00  0.00     0.049 A 
ATOM     48  C   UNL A   1      47.347  28.351  27.300  1.00  0.00     0.074 A 
ATOM     49  C   UNL A   1      42.007  30.877  29.617  1.00  0.00     0.029 A 
ATOM     50  N   UNL A   1      43.520  29.525  28.707  1.00  0.00    -0.354 N 
ATOM     51  N   UNL A   1      46.204  28.788  27.767  1.00  0.00    -0.248 NA
ATOM     52  C   UNL A   1      48.413  29.364  27.281  1.00  0.00     0.031 C 
ATOM     53  C   UNL A   1      43.205  31.584  29.479  1.00  0.00     0.029 A 
ATOM     54  C   UNL A   1      44.157  30.734  28.937  1.00  0.00     0.049 A 
ATOM     55  H   UNL A   1      43.946  28.727  28.318  1.00  0.00     0.167 HD
ATOM     56  C   UNL A   1      46.417  30.111  28.128  1.00  0.00     0.074 A 
ATOM     57  C   UNL A   1      47.806  30.402  27.839  1.00  0.00     0.031 C 
ATOM     58  C   UNL A   1      45.543  31.005  28.650  1.00  0.00     0.037 A 
BRANCH  45  59
ATOM     59  C   UNL A   1      39.814  28.802  29.394  1.00  0.00     0.064 A 
ATOM     60  C   UNL A   1      38.866  29.310  28.491  1.00  0.00     0.173 A 
ATOM     61  C   UNL A   1      39.387  28.516  30.699  1.00  0.00     0.173 A 
ATOM     62  F   UNL A   1      39.225  29.612  27.234  1.00  0.00    -0.203 F 
ATOM     63  C   UNL A   1      37.554  29.552  28.890  1.00  0.00     0.198 A 
ATOM     64  C   UNL A   1      38.066  28.727  31.084  1.00  0.00     0.198 A 
ATOM     65  F   UNL A   1      40.249  28.023  31.601  1.00  0.00    -0.203 F 
ATOM     66  F   UNL A   1      36.682  30.091  28.025  1.00  0.00    -0.200 F 
ATOM     67  C   UNL A   1      37.153  29.254  30.182  1.00  0.00     0.200 A 
ATOM     68  F   UNL A   1      37.675  28.424  32.330  1.00  0.00    -0.200 F 
ATOM     69  F   UNL A   1      35.888  29.481  30.562  1.00  0.00    -0.200 F 
ENDBRANCH  45  59
BRANCH  46  70
ATOM     70  C   UNL A   1      49.087  26.679  26.324  1.00  0.00     0.064 A 
ATOM     71  C   UNL A   1      50.053  26.169  27.204  1.00  0.00     0.173 A 
ATOM     72  C   UNL A   1      49.471  26.902  24.994  1.00  0.00     0.173 A 
ATOM     73  F   UNL A   1      49.741  25.959  28.491  1.00  0.00    -0.203 F 
ATOM     74  C   UNL A   1      51.355  25.918  26.777  1.00  0.00     0.198 A 
ATOM     75  C   UNL A   1      50.764  26.619  24.561  1.00  0.00     0.198 A 
ATOM     76  F   UNL A   1      48.584  27.382  24.110  1.00  0.00    -0.203 F 
ATOM     77  F   UNL A   1      52.271  25.480  27.651  1.00  0.00    -0.200 F 
ATOM     78  C   UNL A   1      51.708  26.137  25.455  1.00  0.00     0.200 A 
ATOM     79  F   UNL A   1      51.096  26.817  23.278  1.00  0.00    -0.200 F 
ATOM     80  F   UNL A   1      52.960  25.891  25.043  1.00  0.00    -0.200 F 
ENDBRANCH  46  70
BRANCH  58  81
ATOM     81  C   UNL A   1      46.070  32.372  28.981  1.00  0.00     0.064 A 
ATOM     82  C   UNL A   1      46.013  33.430  28.060  1.00  0.00     0.173 A 
ATOM     83  C   UNL A   1      46.607  32.638  30.251  1.00  0.00     0.173 A 
ATOM     84  F   UNL A   1      45.525  33.225  26.827  1.00  0.00    -0.203 F 
ATOM     85  C   UNL A   1      46.499  34.692  28.389  1.00  0.00     0.198 A 
ATOM     86  C   UNL A   1      47.059  33.910  30.587  1.00  0.00     0.198 A 
ATOM     87  F   UNL A   1      46.677  31.664  31.171  1.00  0.00    -0.203 F 
ATOM     88  F   UNL A   1      46.483  35.673  27.475  1.00  0.00    -0.200 F 
ATOM     89  C   UNL A   1      47.014  34.934  29.654  1.00  0.00     0.200 A 
ATOM     90  F   UNL A   1      47.540  34.144  31.816  1.00  0.00    -0.200 F 
ATOM     91  F   UNL A   1      47.473  36.152  29.970  1.00  0.00    -0.200 F 
ENDBRANCH  58  81
ENDBRANCH  32  33
ENDBRANCH  24  27
ENDBRANCH  22  23
ENDBRANCH  21  22
ENDBRANCH  20  21
ENDBRANCH  19  20
ENDBRANCH   1  19
TORSDOF 17
ENDMDL
MODEL 3
REMARK VINA RESULT:     -10.0      1.523      3.205
REMARK SMILES C[C@@H]([NH2+]CC(C)(C)C(=O)NCCCCCCNC(=O)c1ccc(-c2c3nc(c(-c4c(F)c(F)c(F)c(F)c4F)c4ccc([nH]4)c(-c4c(F)c(F)c(F)c(F)c4F)c4nc(c(-c5c(F)c(F)c(F)c(F)c5F)c5ccc2[nH]5)C=C4)C=C3)cc1)C1CC1
REMARK SMILES IDX 12 1 11 2 10 3 8 4 9 5 5 7 6 8 7 9 4 10 3 11 2 14 1 15 83 16
REMARK SMILES IDX 84 17 85 18 13 19 14 20 15 21 16 22 17 23 18 24 19 26 20 27
REMARK SMILES IDX 21 28 82 29 22 30 81 31 23 32 24 33 25 34 75 35 26 36 80 37
REMARK SMILES IDX 74 38 76 39 27 40 79 41 73 42 72 43 28 45 60 46 40 47 59 48
REMARK SMILES IDX 41 49 44 50 58 51 77 52 42 53 43 54 57 56 78 57 45 58 29 59
REMARK SMILES IDX 30 60 38 61 31 62 32 63 36 64 39 65 33 66 34 67 37 68 35 69
REMARK SMILES IDX 61 70 62 71 70 72 63 73 64 74 68 75 71 76 65 77 66 78 69 79
REMARK SMILES IDX 67 80 46 81 47 82 55 83 48 84 49 85 53 86 56 87 50 88 51 89
REMARK SMILES IDX 54 90 52 91
REMARK H PARENT 10 6 3 12 3 13 17 25 76 44 44 55
REMARK Flexibility Score: inf
ROOT
ATOM      1  C   UNL A   1      36.121  22.596  23.548  1.00  0.00     0.021 C 
ENDROOT
BRANCH   1   2
ATOM      2  C   UNL A   1      35.361  23.803  24.099  1.00  0.00     0.116 C 
BRANCH   2   3
ATOM      3  N   UNL A   1      34.662  23.431  25.309  1.00  0.00    -0.355 N 
ATOM      4  C   UNL A   1      33.315  23.470  25.500  1.00  0.00     0.231 C 
ATOM      5  O   UNL A   1      32.931  24.070  26.505  1.00  0.00    -0.274 OA
ATOM      6  H   UNL A   1      35.212  23.121  26.064  1.00  0.00     0.163 HD
BRANCH   4   7
ATOM      7  C   UNL A   1      32.351  22.827  24.489  1.00  0.00     0.092 C 
ATOM      8  C   UNL A   1      32.014  23.731  23.292  1.00  0.00     0.027 C 
ATOM      9  C   UNL A   1      31.069  22.439  25.256  1.00  0.00     0.027 C 
BRANCH   7  10
ATOM     10  C   UNL A   1      32.971  21.493  23.958  1.00  0.00     0.277 C 
BRANCH  10  11
ATOM     11  N   UNL A   1      32.221  20.224  24.029  1.00  0.00    -0.343 N 
ATOM     12  H   UNL A   1      31.297  20.430  24.411  1.00  0.00     0.346 HD
ATOM     13  H   UNL A   1      32.208  19.861  23.076  1.00  0.00     0.346 HD
BRANCH  11  14
ATOM     14  C   UNL A   1      32.818  19.165  24.846  1.00  0.00     0.182 C 
ATOM     15  C   UNL A   1      33.480  19.787  26.085  1.00  0.00     0.075 C 
BRANCH  14  16
ATOM     16  C   UNL A   1      33.794  18.254  24.141  1.00  0.00     0.047 C 
ATOM     17  C   UNL A   1      33.842  16.742  24.255  1.00  0.00     0.010 C 
ATOM     18  C   UNL A   1      33.389  17.374  22.978  1.00  0.00     0.010 C 
ENDBRANCH  14  16
ENDBRANCH  11  14
ENDBRANCH  10  11
ENDBRANCH   7  10
ENDBRANCH   4   7
ENDBRANCH   2   3
ENDBRANCH   1   2
BRANCH   1  19
ATOM     19  C   UNL A   1      37.171  22.029  24.513  1.00  0.00     0.002 C 
BRANCH  19  20
ATOM     20  C   UNL A   1      36.909  20.591  24.973  1.00  0.00     0.002 C 
BRANCH  20  21
ATOM     21  C   UNL A   1      38.129  19.671  24.916  1.00  0.00     0.021 C 
BRANCH  21  22
ATOM     22  C   UNL A   1      39.282  20.108  25.807  1.00  0.00     0.116 C 
BRANCH  22  23
ATOM     23  N   UNL A   1      40.292  19.072  25.935  1.00  0.00    -0.352 N 
ATOM     24  C   UNL A   1      41.647  19.207  26.100  1.00  0.00     0.251 C 
ATOM     25  H   UNL A   1      39.959  18.147  25.895  1.00  0.00     0.163 HD
ATOM     26  O   UNL A   1      42.388  18.240  25.980  1.00  0.00    -0.269 OA
BRANCH  24  27
ATOM     27  C   UNL A   1      42.210  20.539  26.405  1.00  0.00     0.039 A 
ATOM     28  C   UNL A   1      42.648  21.343  25.351  1.00  0.00     0.014 A 
ATOM     29  C   UNL A   1      42.297  20.993  27.725  1.00  0.00     0.014 A 
ATOM     30  C   UNL A   1      43.127  22.626  25.618  1.00  0.00     0.010 A 
ATOM     31  C   UNL A   1      42.699  22.299  27.982  1.00  0.00     0.010 A 
ATOM     32  C   UNL A   1      43.128  23.125  26.931  1.00  0.00    -0.014 A 
BRANCH  32  33
ATOM     33  C   UNL A   1      43.583  24.506  27.226  1.00  0.00     0.031 A 
ATOM     34  C   UNL A   1      42.613  25.521  27.762  1.00  0.00     0.074 A 
ATOM     35  C   UNL A   1      44.855  24.860  26.958  1.00  0.00     0.049 A 
ATOM     36  N   UNL A   1      42.803  26.789  28.030  1.00  0.00    -0.248 NA
ATOM     37  C   UNL A   1      41.239  25.057  28.007  1.00  0.00     0.031 C 
ATOM     38  C   UNL A   1      45.877  23.976  26.397  1.00  0.00     0.029 A 
ATOM     39  N   UNL A   1      45.503  26.059  27.117  1.00  0.00    -0.354 N 
ATOM     40  C   UNL A   1      41.575  27.271  28.462  1.00  0.00     0.074 A 
ATOM     41  C   UNL A   1      40.632  26.179  28.363  1.00  0.00     0.031 C 
ATOM     42  C   UNL A   1      47.030  24.654  26.283  1.00  0.00     0.029 A 
ATOM     43  C   UNL A   1      46.819  26.029  26.724  1.00  0.00     0.049 A 
ATOM     44  H   UNL A   1      45.067  26.863  27.480  1.00  0.00     0.167 HD
ATOM     45  C   UNL A   1      41.268  28.507  28.926  1.00  0.00     0.037 A 
ATOM     46  C   UNL A   1      47.747  27.005  26.712  1.00  0.00     0.037 A 
ATOM     47  C   UNL A   1      42.215  29.586  29.037  1.00  0.00     0.049 A 
ATOM     48  C   UNL A   1      47.372  28.376  27.209  1.00  0.00     0.074 A 
ATOM     49  C   UNL A   1      42.018  30.859  29.541  1.00  0.00     0.029 A 
ATOM     50  N   UNL A   1      43.540  29.517  28.632  1.00  0.00    -0.354 N 
ATOM     51  N   UNL A   1      46.227  28.804  27.681  1.00  0.00    -0.248 NA
ATOM     52  C   UNL A   1      48.426  29.400  27.177  1.00  0.00     0.031 C 
ATOM     53  C   UNL A   1      43.207  31.578  29.390  1.00  0.00     0.029 A 
ATOM     54  C   UNL A   1      44.165  30.735  28.849  1.00  0.00     0.049 A 
ATOM     55  H   UNL A   1      43.973  28.721  28.246  1.00  0.00     0.167 HD
ATOM     56  C   UNL A   1      46.428  30.131  28.030  1.00  0.00     0.074 A 
ATOM     57  C   UNL A   1      47.811  30.436  27.731  1.00  0.00     0.031 C 
ATOM     58  C   UNL A   1      45.546  31.020  28.552  1.00  0.00     0.037 A 
BRANCH  45  59
ATOM     59  C   UNL A   1      39.848  28.758  29.347  1.00  0.00     0.064 A 
ATOM     60  C   UNL A   1      38.887  29.243  28.444  1.00  0.00     0.173 A 
ATOM     61  C   UNL A   1      39.433  28.481  30.658  1.00  0.00     0.173 A 
ATOM     62  F   UNL A   1      39.233  29.535  27.182  1.00  0.00    -0.203 F 
ATOM     63  C   UNL A   1      37.575  29.474  28.850  1.00  0.00     0.198 A 
ATOM     64  C   UNL A   1      38.111  28.680  31.050  1.00  0.00     0.198 A 
ATOM     65  F   UNL A   1      40.307  28.010  31.560  1.00  0.00    -0.203 F 
ATOM     66  F   UNL A   1      36.691  29.991  27.985  1.00  0.00    -0.200 F 
ATOM     67  C   UNL A   1      37.186  29.185  30.148  1.00  0.00     0.200 A 
ATOM     68  F   UNL A   1      37.734  28.386  32.302  1.00  0.00    -0.200 F 
ATOM     69  F   UNL A   1      35.922  29.401  30.534  1.00  0.00    -0.200 F 
ENDBRANCH  45  59
BRANCH  46  70
ATOM     70  C   UNL A   1      49.125  26.717  26.236  1.00  0.00     0.064 A 
ATOM     71  C   UNL A   1      49.491  26.954  24.903  1.00  0.00     0.173 A 
ATOM     72  C   UNL A   1      50.101  26.192  27.095  1.00  0.00     0.173 A 
ATOM     73  F   UNL A   1      48.587  27.436  24.037  1.00  0.00    -0.203 F 
ATOM     74  C   UNL A   1      50.770  26.653  24.443  1.00  0.00     0.198 A 
ATOM     75  C   UNL A   1      51.389  25.922  26.641  1.00  0.00     0.198 A 
ATOM     76  F   UNL A   1      49.806  25.953  28.382  1.00  0.00    -0.203 F 
ATOM     77  F   UNL A   1      51.077  26.842  23.152  1.00  0.00    -0.200 F 
ATOM     78  C   UNL A   1      51.721  26.144  25.313  1.00  0.00     0.200 A 
ATOM     79  F   UNL A   1      52.310  25.445  27.490  1.00  0.00    -0.200 F 
ATOM     80  F   UNL A   1      52.954  25.858  24.871  1.00  0.00    -0.200 F 
ENDBRANCH  46  70
BRANCH  58  81
ATOM     81  C   UNL A   1      46.060  32.395  28.869  1.00  0.00     0.064 A 
ATOM     82  C   UNL A   1      45.990  33.444  27.939  1.00  0.00     0.173 A 
ATOM     83  C   UNL A   1      46.596  32.677  30.136  1.00  0.00     0.173 A 
ATOM     84  F   UNL A   1      45.501  33.223  26.709  1.00  0.00    -0.203 F 
ATOM     85  C   UNL A   1      46.464  34.714  28.256  1.00  0.00     0.198 A 
ATOM     86  C   UNL A   1      47.036  33.956  30.460  1.00  0.00     0.198 A 
ATOM     87  F   UNL A   1      46.679  31.713  31.064  1.00  0.00    -0.203 F 
ATOM     88  F   UNL A   1      46.436  35.686  27.333  1.00  0.00    -0.200 F 
ATOM     89  C   UNL A   1      46.978  34.972  29.517  1.00  0.00     0.200 A 
ATOM     90  F   UNL A   1      47.518  34.207  31.686  1.00  0.00    -0.200 F 
ATOM     91  F   UNL A   1      47.426  36.197  29.822  1.00  0.00    -0.200 F 
ENDBRANCH  58  81
ENDBRANCH  32  33
ENDBRANCH  24  27
ENDBRANCH  22  23
ENDBRANCH  21  22
ENDBRANCH  20  21
ENDBRANCH  19  20
ENDBRANCH   1  19
TORSDOF 17
ENDMDL
