MODEL 1
REMARK VINA RESULT:     -12.0      0.000      0.000
REMARK SMILES Cc1ccc(N2CC[C@H]([NH+]3CCOCC3)[C@H](CCC(=O)NCCCCCCNC(=O)c3ccc(-c4c5nc(c(-c6c(F)c(F)c(F)c(F)c6F)c6ccc([nH]6)c(-c6c(F)c(F)c(F)c(F)c6F)c6nc(c(-c7c(F)c(F)c(F)c(F)c7F)c7ccc4[nH]7)C=C6)C=C5)cc3)C2)nc1
REMARK SMILES IDX 24 1 23 2 22 3 21 4 19 5 20 6 18 8 17 9 16 10 6 11 7 12
REMARK SMILES IDX 94 13 8 14 9 15 5 16 1 17 2 18 3 19 96 20 4 21 95 22 10 23
REMARK SMILES IDX 11 24 15 25 12 27 14 28 13 29 25 30 26 31 27 32 28 33 29 34
REMARK SMILES IDX 30 36 31 37 32 38 93 39 33 40 92 41 34 42 35 43 36 44 86 45
REMARK SMILES IDX 37 46 91 47 85 48 87 49 38 50 90 51 84 52 83 53 39 55 71 56
REMARK SMILES IDX 51 57 70 58 52 59 55 60 69 61 88 62 53 63 54 64 68 66 89 67
REMARK SMILES IDX 56 68 40 69 41 70 49 71 42 72 43 73 47 74 50 75 44 76 45 77
REMARK SMILES IDX 48 78 46 79 72 80 73 81 81 82 74 83 75 84 79 85 82 86 76 87
REMARK SMILES IDX 77 88 80 89 78 90 57 91 58 92 66 93 59 94 60 95 64 96 67 97
REMARK SMILES IDX 61 98 62 99 65 100 63 101
REMARK H PARENT 21 7 10 26 28 35 87 54 55 65
REMARK Flexibility Score: inf
ROOT
ATOM      1  C   UNL A   1      35.513  34.046  28.990  1.00  0.00     0.002 C 
ENDROOT
BRANCH   1   2
ATOM      2  C   UNL A   1      35.563  32.687  28.300  1.00  0.00     0.021 C 
BRANCH   2   3
ATOM      3  C   UNL A   1      34.174  32.065  28.099  1.00  0.00     0.116 C 
BRANCH   3   4
ATOM      4  N   UNL A   1      34.309  30.623  28.005  1.00  0.00    -0.356 N 
ATOM      5  C   UNL A   1      33.648  29.743  27.199  1.00  0.00     0.220 C 
ATOM      6  O   UNL A   1      33.710  28.541  27.467  1.00  0.00    -0.275 OA
ATOM      7  H   UNL A   1      34.972  30.222  28.612  1.00  0.00     0.163 HD
BRANCH   5   8
ATOM      8  C   UNL A   1      32.921  30.238  25.961  1.00  0.00     0.100 C 
BRANCH   8   9
ATOM      9  C   UNL A   1      32.632  29.190  24.867  1.00  0.00     0.021 C 
BRANCH   9  10
ATOM     10  C   UNL A   1      31.188  28.640  24.840  1.00  0.00     0.067 C 
ATOM     11  N   UNL A   1      31.309  26.199  24.310  1.00  0.00    -0.356 N 
ATOM     12  C   UNL A   1      30.496  26.326  23.117  1.00  0.00     0.124 C 
ATOM     13  C   UNL A   1      31.133  27.178  25.368  1.00  0.00     0.127 C 
ATOM     14  C   UNL A   1      30.682  27.702  22.498  1.00  0.00     0.087 C 
ATOM     15  C   UNL A   1      30.322  28.777  23.528  1.00  0.00     0.190 C 
BRANCH  11  16
ATOM     16  C   UNL A   1      32.512  25.534  24.177  1.00  0.00     0.128 A 
ATOM     17  C   UNL A   1      36.074  23.224  23.829  1.00  0.00     0.046 C 
ATOM     18  C   UNL A   1      34.839  24.047  23.991  1.00  0.00    -0.033 A 
ATOM     19  C   UNL A   1      34.633  24.860  25.101  1.00  0.00     0.009 A 
ATOM     20  C   UNL A   1      33.850  24.040  23.019  1.00  0.00     0.117 A 
ATOM     21  C   UNL A   1      33.466  25.617  25.186  1.00  0.00     0.047 A 
ATOM     22  N   UNL A   1      32.700  24.744  23.099  1.00  0.00    -0.239 NA
ENDBRANCH  11  16
BRANCH  15  23
ATOM     23  N   UNL A   1      30.119  30.138  22.985  1.00  0.00    -0.328 N 
ATOM     24  C   UNL A   1      29.324  31.029  23.870  1.00  0.00     0.291 C 
ATOM     25  C   UNL A   1      29.636  30.279  21.599  1.00  0.00     0.291 C 
ATOM     26  H   UNL A   1      31.094  30.438  22.953  1.00  0.00     0.348 HD
ATOM     27  C   UNL A   1      27.811  31.121  23.581  1.00  0.00     0.221 C 
ATOM     28  C   UNL A   1      28.122  30.381  21.388  1.00  0.00     0.221 C 
ATOM     29  O   UNL A   1      27.554  31.403  22.205  1.00  0.00    -0.370 OA
ENDBRANCH  15  23
ENDBRANCH   9  10
ENDBRANCH   8   9
ENDBRANCH   5   8
ENDBRANCH   3   4
ENDBRANCH   2   3
ENDBRANCH   1   2
BRANCH   1  30
ATOM     30  C   UNL A   1      34.824  35.120  28.143  1.00  0.00     0.002 C 
BRANCH  30  31
ATOM     31  C   UNL A   1      33.708  35.899  28.852  1.00  0.00     0.021 C 
BRANCH  31  32
ATOM     32  C   UNL A   1      32.789  35.062  29.739  1.00  0.00     0.116 C 
BRANCH  32  33
ATOM     33  N   UNL A   1      32.337  35.802  30.904  1.00  0.00    -0.352 N 
ATOM     34  C   UNL A   1      32.754  35.738  32.208  1.00  0.00     0.251 C 
ATOM     35  H   UNL A   1      31.620  36.453  30.730  1.00  0.00     0.163 HD
ATOM     36  O   UNL A   1      32.097  36.281  33.090  1.00  0.00    -0.269 OA
BRANCH  34  37
ATOM     37  C   UNL A   1      33.991  35.012  32.561  1.00  0.00     0.039 A 
ATOM     38  C   UNL A   1      33.884  33.723  33.090  1.00  0.00     0.014 A 
ATOM     39  C   UNL A   1      35.246  35.613  32.420  1.00  0.00     0.014 A 
ATOM     40  C   UNL A   1      35.039  33.019  33.437  1.00  0.00     0.010 A 
ATOM     41  C   UNL A   1      36.398  34.886  32.707  1.00  0.00     0.010 A 
ATOM     42  C   UNL A   1      36.306  33.587  33.227  1.00  0.00    -0.014 A 
BRANCH  42  43
ATOM     43  C   UNL A   1      37.542  32.837  33.558  1.00  0.00     0.031 A 
ATOM     44  C   UNL A   1      38.284  33.126  34.832  1.00  0.00     0.074 A 
ATOM     45  C   UNL A   1      38.023  31.931  32.685  1.00  0.00     0.049 A 
ATOM     46  N   UNL A   1      39.406  32.613  35.272  1.00  0.00    -0.248 NA
ATOM     47  C   UNL A   1      37.703  34.145  35.718  1.00  0.00     0.031 C 
ATOM     48  C   UNL A   1      37.417  31.597  31.395  1.00  0.00     0.029 A 
ATOM     49  N   UNL A   1      39.138  31.133  32.745  1.00  0.00    -0.354 N 
ATOM     50  C   UNL A   1      39.670  33.257  36.474  1.00  0.00     0.074 A 
ATOM     51  C   UNL A   1      38.620  34.232  36.671  1.00  0.00     0.031 C 
ATOM     52  C   UNL A   1      38.155  30.649  30.796  1.00  0.00     0.029 A 
ATOM     53  C   UNL A   1      39.302  30.333  31.641  1.00  0.00     0.049 A 
ATOM     54  H   UNL A   1      39.762  31.135  33.507  1.00  0.00     0.167 HD
ATOM     55  C   UNL A   1      40.684  33.038  37.345  1.00  0.00     0.037 A 
ATOM     56  C   UNL A   1      40.271  29.446  31.345  1.00  0.00     0.037 A 
ATOM     57  C   UNL A   1      41.710  32.046  37.158  1.00  0.00     0.049 A 
ATOM     58  C   UNL A   1      41.382  29.217  32.333  1.00  0.00     0.074 A 
ATOM     59  C   UNL A   1      42.745  31.702  38.012  1.00  0.00     0.029 A 
ATOM     60  N   UNL A   1      41.832  31.238  36.037  1.00  0.00    -0.354 N 
ATOM     61  N   UNL A   1      41.583  29.781  33.499  1.00  0.00    -0.248 NA
ATOM     62  C   UNL A   1      42.398  28.220  31.966  1.00  0.00     0.031 C 
ATOM     63  C   UNL A   1      43.516  30.716  37.389  1.00  0.00     0.029 A 
ATOM     64  C   UNL A   1      42.936  30.411  36.168  1.00  0.00     0.049 A 
ATOM     65  H   UNL A   1      41.223  31.251  35.262  1.00  0.00     0.167 HD
ATOM     66  C   UNL A   1      42.728  29.193  34.016  1.00  0.00     0.074 A 
ATOM     67  C   UNL A   1      43.171  28.214  33.044  1.00  0.00     0.031 C 
ATOM     68  C   UNL A   1      43.357  29.439  35.192  1.00  0.00     0.037 A 
BRANCH  55  69
ATOM     69  C   UNL A   1      40.731  33.884  38.584  1.00  0.00     0.064 A 
ATOM     70  C   UNL A   1      41.477  35.072  38.635  1.00  0.00     0.173 A 
ATOM     71  C   UNL A   1      39.994  33.523  39.721  1.00  0.00     0.173 A 
ATOM     72  F   UNL A   1      42.207  35.457  37.578  1.00  0.00    -0.203 F 
ATOM     73  C   UNL A   1      41.505  35.852  39.789  1.00  0.00     0.198 A 
ATOM     74  C   UNL A   1      40.002  34.320  40.864  1.00  0.00     0.198 A 
ATOM     75  F   UNL A   1      39.260  32.400  39.724  1.00  0.00    -0.203 F 
ATOM     76  F   UNL A   1      42.263  36.956  39.830  1.00  0.00    -0.200 F 
ATOM     77  C   UNL A   1      40.763  35.478  40.899  1.00  0.00     0.200 A 
ATOM     78  F   UNL A   1      39.274  33.965  41.932  1.00  0.00    -0.200 F 
ATOM     79  F   UNL A   1      40.787  36.233  42.007  1.00  0.00    -0.200 F 
ENDBRANCH  55  69
BRANCH  56  80
ATOM     80  C   UNL A   1      40.216  28.687  30.070  1.00  0.00     0.064 A 
ATOM     81  C   UNL A   1      39.545  27.459  29.992  1.00  0.00     0.173 A 
ATOM     82  C   UNL A   1      40.829  29.172  28.905  1.00  0.00     0.173 A 
ATOM     83  F   UNL A   1      38.960  26.947  31.084  1.00  0.00    -0.203 F 
ATOM     84  C   UNL A   1      39.506  26.735  28.803  1.00  0.00     0.198 A 
ATOM     85  C   UNL A   1      40.766  28.459  27.709  1.00  0.00     0.198 A 
ATOM     86  F   UNL A   1      41.478  30.345  28.925  1.00  0.00    -0.203 F 
ATOM     87  F   UNL A   1      38.894  25.543  28.767  1.00  0.00    -0.200 F 
ATOM     88  C   UNL A   1      40.111  27.238  27.661  1.00  0.00     0.200 A 
ATOM     89  F   UNL A   1      41.339  28.955  26.604  1.00  0.00    -0.200 F 
ATOM     90  F   UNL A   1      40.069  26.543  26.517  1.00  0.00    -0.200 F 
ENDBRANCH  56  80
BRANCH  68  91
ATOM     91  C   UNL A   1      44.574  28.618  35.504  1.00  0.00     0.064 A 
ATOM     92  C   UNL A   1      44.480  27.391  36.176  1.00  0.00     0.173 A 
ATOM     93  C   UNL A   1      45.845  29.048  35.092  1.00  0.00     0.173 A 
ATOM     94  F   UNL A   1      43.289  26.945  36.603  1.00  0.00    -0.203 F 
ATOM     95  C   UNL A   1      45.618  26.634  36.444  1.00  0.00     0.198 A 
ATOM     96  C   UNL A   1      46.976  28.276  35.337  1.00  0.00     0.198 A 
ATOM     97  F   UNL A   1      45.986  30.213  34.441  1.00  0.00    -0.203 F 
ATOM     98  F   UNL A   1      45.511  25.487  37.127  1.00  0.00    -0.200 F 
ATOM     99  C   UNL A   1      46.863  27.074  36.018  1.00  0.00     0.200 A 
ATOM    100  F   UNL A   1      48.177  28.696  34.914  1.00  0.00    -0.200 F 
ATOM    101  F   UNL A   1      47.956  26.340  36.272  1.00  0.00    -0.200 F 
ENDBRANCH  68  91
ENDBRANCH  42  43
ENDBRANCH  34  37
ENDBRANCH  32  33
ENDBRANCH  31  32
ENDBRANCH  30  31
ENDBRANCH   1  30
TORSDOF 17
ENDMDL
MODEL 2
REMARK VINA RESULT:     -12.0      7.109     12.674
REMARK SMILES Cc1ccc(N2CC[C@H]([NH+]3CCOCC3)[C@H](CCC(=O)NCCCCCCNC(=O)c3ccc(-c4c5nc(c(-c6c(F)c(F)c(F)c(F)c6F)c6ccc([nH]6)c(-c6c(F)c(F)c(F)c(F)c6F)c6nc(c(-c7c(F)c(F)c(F)c(F)c7F)c7ccc4[nH]7)C=C6)C=C5)cc3)C2)nc1
REMARK SMILES IDX 24 1 23 2 22 3 21 4 19 5 20 6 18 8 17 9 16 10 6 11 7 12
REMARK SMILES IDX 94 13 8 14 9 15 5 16 1 17 2 18 3 19 96 20 4 21 95 22 10 23
REMARK SMILES IDX 11 24 15 25 12 27 14 28 13 29 25 30 26 31 27 32 28 33 29 34
REMARK SMILES IDX 30 36 31 37 32 38 93 39 33 40 92 41 34 42 35 43 36 44 86 45
REMARK SMILES IDX 37 46 91 47 85 48 87 49 38 50 90 51 84 52 83 53 39 55 71 56
REMARK SMILES IDX 51 57 70 58 52 59 55 60 69 61 88 62 53 63 54 64 68 66 89 67
REMARK SMILES IDX 56 68 40 69 41 70 49 71 42 72 43 73 47 74 50 75 44 76 45 77
REMARK SMILES IDX 48 78 46 79 72 80 73 81 81 82 74 83 75 84 79 85 82 86 76 87
REMARK SMILES IDX 77 88 80 89 78 90 57 91 58 92 66 93 59 94 60 95 64 96 67 97
REMARK SMILES IDX 61 98 62 99 65 100 63 101
REMARK H PARENT 21 7 10 26 28 35 87 54 55 65
REMARK Flexibility Score: inf
ROOT
ATOM      1  C   UNL A   1      41.788  21.557  26.861  1.00  0.00     0.002 C 
ENDROOT
BRANCH   1   2
ATOM      2  C   UNL A   1      40.765  22.407  27.607  1.00  0.00     0.021 C 
BRANCH   2   3
ATOM      3  C   UNL A   1      39.678  22.981  26.687  1.00  0.00     0.116 C 
BRANCH   3   4
ATOM      4  N   UNL A   1      39.257  21.954  25.751  1.00  0.00    -0.356 N 
ATOM      5  C   UNL A   1      37.997  21.589  25.376  1.00  0.00     0.220 C 
ATOM      6  O   UNL A   1      37.849  20.519  24.783  1.00  0.00    -0.275 OA
ATOM      7  H   UNL A   1      39.986  21.448  25.326  1.00  0.00     0.163 HD
BRANCH   5   8
ATOM      8  C   UNL A   1      36.826  22.524  25.622  1.00  0.00     0.100 C 
BRANCH   8   9
ATOM      9  C   UNL A   1      35.450  21.860  25.839  1.00  0.00     0.021 C 
BRANCH   9  10
ATOM     10  C   UNL A   1      34.715  21.422  24.552  1.00  0.00     0.067 C 
ATOM     11  N   UNL A   1      32.891  23.074  24.110  1.00  0.00    -0.356 N 
ATOM     12  C   UNL A   1      31.847  22.072  24.167  1.00  0.00     0.124 C 
ATOM     13  C   UNL A   1      34.229  22.652  23.734  1.00  0.00     0.127 C 
ATOM     14  C   UNL A   1      32.248  20.945  25.106  1.00  0.00     0.087 C 
ATOM     15  C   UNL A   1      33.572  20.337  24.634  1.00  0.00     0.190 C 
BRANCH  11  16
ATOM     16  C   UNL A   1      32.715  24.201  24.889  1.00  0.00     0.128 A 
ATOM     17  C   UNL A   1      32.016  27.799  27.060  1.00  0.00     0.046 C 
ATOM     18  C   UNL A   1      32.303  26.552  26.291  1.00  0.00    -0.033 A 
ATOM     19  C   UNL A   1      33.561  26.283  25.761  1.00  0.00     0.009 A 
ATOM     20  C   UNL A   1      31.315  25.600  26.091  1.00  0.00     0.117 A 
ATOM     21  C   UNL A   1      33.769  25.093  25.066  1.00  0.00     0.047 A 
ATOM     22  N   UNL A   1      31.490  24.456  25.395  1.00  0.00    -0.239 NA
ENDBRANCH  11  16
BRANCH  15  23
ATOM     23  N   UNL A   1      33.918  19.026  25.226  1.00  0.00    -0.328 N 
ATOM     24  C   UNL A   1      34.765  18.173  24.352  1.00  0.00     0.291 C 
ATOM     25  C   UNL A   1      32.837  18.205  25.801  1.00  0.00     0.291 C 
ATOM     26  H   UNL A   1      34.450  19.357  26.032  1.00  0.00     0.348 HD
ATOM     27  C   UNL A   1      34.031  17.135  23.477  1.00  0.00     0.221 C 
ATOM     28  C   UNL A   1      32.164  17.183  24.879  1.00  0.00     0.221 C 
ATOM     29  O   UNL A   1      33.128  16.341  24.248  1.00  0.00    -0.370 OA
ENDBRANCH  15  23
ENDBRANCH   9  10
ENDBRANCH   8   9
ENDBRANCH   5   8
ENDBRANCH   3   4
ENDBRANCH   2   3
ENDBRANCH   1   2
BRANCH   1  30
ATOM     30  C   UNL A   1      42.290  20.368  27.685  1.00  0.00     0.002 C 
BRANCH  30  31
ATOM     31  C   UNL A   1      42.515  19.070  26.896  1.00  0.00     0.021 C 
BRANCH  31  32
ATOM     32  C   UNL A   1      42.480  19.217  25.376  1.00  0.00     0.116 C 
BRANCH  32  33
ATOM     33  N   UNL A   1      43.728  18.799  24.762  1.00  0.00    -0.352 N 
ATOM     34  C   UNL A   1      44.814  19.540  24.376  1.00  0.00     0.251 C 
ATOM     35  H   UNL A   1      43.807  17.831  24.598  1.00  0.00     0.163 HD
ATOM     36  O   UNL A   1      45.681  19.037  23.670  1.00  0.00    -0.269 OA
BRANCH  34  37
ATOM     37  C   UNL A   1      44.946  20.949  24.803  1.00  0.00     0.039 A 
ATOM     38  C   UNL A   1      45.451  21.219  26.077  1.00  0.00     0.014 A 
ATOM     39  C   UNL A   1      44.528  21.995  23.975  1.00  0.00     0.014 A 
ATOM     40  C   UNL A   1      45.579  22.542  26.505  1.00  0.00     0.010 A 
ATOM     41  C   UNL A   1      44.716  23.314  24.378  1.00  0.00     0.010 A 
ATOM     42  C   UNL A   1      45.233  23.600  25.650  1.00  0.00    -0.014 A 
BRANCH  42  43
ATOM     43  C   UNL A   1      45.397  25.011  26.079  1.00  0.00     0.031 A 
ATOM     44  C   UNL A   1      46.740  25.678  25.989  1.00  0.00     0.074 A 
ATOM     45  C   UNL A   1      44.346  25.674  26.598  1.00  0.00     0.049 A 
ATOM     46  N   UNL A   1      47.094  26.883  26.359  1.00  0.00    -0.248 NA
ATOM     47  C   UNL A   1      47.840  24.876  25.431  1.00  0.00     0.031 C 
ATOM     48  C   UNL A   1      43.004  25.118  26.780  1.00  0.00     0.029 A 
ATOM     49  N   UNL A   1      44.243  26.955  27.078  1.00  0.00    -0.354 N 
ATOM     50  C   UNL A   1      48.454  26.976  26.094  1.00  0.00     0.074 A 
ATOM     51  C   UNL A   1      48.873  25.692  25.579  1.00  0.00     0.031 C 
ATOM     52  C   UNL A   1      42.208  26.059  27.311  1.00  0.00     0.029 A 
ATOM     53  C   UNL A   1      42.989  27.271  27.539  1.00  0.00     0.049 A 
ATOM     54  H   UNL A   1      44.997  27.588  27.090  1.00  0.00     0.167 HD
ATOM     55  C   UNL A   1      49.272  28.045  26.246  1.00  0.00     0.037 A 
ATOM     56  C   UNL A   1      42.524  28.409  28.086  1.00  0.00     0.037 A 
ATOM     57  C   UNL A   1      48.843  29.330  26.732  1.00  0.00     0.049 A 
ATOM     58  C   UNL A   1      43.453  29.583  28.237  1.00  0.00     0.074 A 
ATOM     59  C   UNL A   1      49.581  30.495  26.863  1.00  0.00     0.029 A 
ATOM     60  N   UNL A   1      47.559  29.619  27.170  1.00  0.00    -0.354 N 
ATOM     61  N   UNL A   1      44.719  29.683  27.918  1.00  0.00    -0.248 NA
ATOM     62  C   UNL A   1      42.882  30.808  28.817  1.00  0.00     0.031 C 
ATOM     63  C   UNL A   1      48.754  31.476  27.418  1.00  0.00     0.029 A 
ATOM     64  C   UNL A   1      47.488  30.938  27.590  1.00  0.00     0.049 A 
ATOM     65  H   UNL A   1      46.809  28.981  27.180  1.00  0.00     0.167 HD
ATOM     66  C   UNL A   1      45.092  30.982  28.232  1.00  0.00     0.074 A 
ATOM     67  C   UNL A   1      43.912  31.640  28.754  1.00  0.00     0.031 C 
ATOM     68  C   UNL A   1      46.303  31.577  28.101  1.00  0.00     0.037 A 
BRANCH  55  69
ATOM     69  C   UNL A   1      50.717  27.871  25.877  1.00  0.00     0.064 A 
ATOM     70  C   UNL A   1      51.155  27.983  24.548  1.00  0.00     0.173 A 
ATOM     71  C   UNL A   1      51.680  27.625  26.866  1.00  0.00     0.173 A 
ATOM     72  F   UNL A   1      50.273  28.208  23.564  1.00  0.00    -0.203 F 
ATOM     73  C   UNL A   1      52.500  27.827  24.221  1.00  0.00     0.198 A 
ATOM     74  C   UNL A   1      53.028  27.498  26.539  1.00  0.00     0.198 A 
ATOM     75  F   UNL A   1      51.317  27.514  28.153  1.00  0.00    -0.203 F 
ATOM     76  F   UNL A   1      52.887  27.890  22.940  1.00  0.00    -0.200 F 
ATOM     77  C   UNL A   1      53.435  27.592  25.217  1.00  0.00     0.200 A 
ATOM     78  F   UNL A   1      53.934  27.283  27.504  1.00  0.00    -0.200 F 
ATOM     79  F   UNL A   1      54.730  27.447  24.900  1.00  0.00    -0.200 F 
ENDBRANCH  55  69
BRANCH  56  80
ATOM     80  C   UNL A   1      41.101  28.504  28.502  1.00  0.00     0.064 A 
ATOM     81  C   UNL A   1      40.118  28.956  27.610  1.00  0.00     0.173 A 
ATOM     82  C   UNL A   1      40.694  28.145  29.795  1.00  0.00     0.173 A 
ATOM     83  F   UNL A   1      40.464  29.328  26.369  1.00  0.00    -0.203 F 
ATOM     84  C   UNL A   1      38.786  29.064  28.001  1.00  0.00     0.198 A 
ATOM     85  C   UNL A   1      39.356  28.229  30.177  1.00  0.00     0.198 A 
ATOM     86  F   UNL A   1      41.594  27.702  30.684  1.00  0.00    -0.203 F 
ATOM     87  F   UNL A   1      37.875  29.539  27.141  1.00  0.00    -0.200 F 
ATOM     88  C   UNL A   1      38.404  28.694  29.282  1.00  0.00     0.200 A 
ATOM     89  F   UNL A   1      38.989  27.856  31.411  1.00  0.00    -0.200 F 
ATOM     90  F   UNL A   1      37.122  28.794  29.656  1.00  0.00    -0.200 F 
ENDBRANCH  56  80
BRANCH  68  91
ATOM     91  C   UNL A   1      46.406  33.020  28.501  1.00  0.00     0.064 A 
ATOM     92  C   UNL A   1      46.163  34.055  27.585  1.00  0.00     0.173 A 
ATOM     93  C   UNL A   1      46.713  33.370  29.824  1.00  0.00     0.173 A 
ATOM     94  F   UNL A   1      45.882  33.771  26.305  1.00  0.00    -0.203 F 
ATOM     95  C   UNL A   1      46.247  35.389  27.977  1.00  0.00     0.198 A 
ATOM     96  C   UNL A   1      46.768  34.703  30.218  1.00  0.00     0.198 A 
ATOM     97  F   UNL A   1      46.947  32.416  30.738  1.00  0.00    -0.203 F 
ATOM     98  F   UNL A   1      46.057  36.362  27.076  1.00  0.00    -0.200 F 
ATOM     99  C   UNL A   1      46.542  35.711  29.294  1.00  0.00     0.200 A 
ATOM    100  F   UNL A   1      47.040  35.013  31.493  1.00  0.00    -0.200 F 
ATOM    101  F   UNL A   1      46.615  36.996  29.669  1.00  0.00    -0.200 F 
ENDBRANCH  68  91
ENDBRANCH  42  43
ENDBRANCH  34  37
ENDBRANCH  32  33
ENDBRANCH  31  32
ENDBRANCH  30  31
ENDBRANCH   1  30
TORSDOF 17
ENDMDL
MODEL 3
REMARK VINA RESULT:     -11.9      6.886     12.642
REMARK SMILES Cc1ccc(N2CC[C@H]([NH+]3CCOCC3)[C@H](CCC(=O)NCCCCCCNC(=O)c3ccc(-c4c5nc(c(-c6c(F)c(F)c(F)c(F)c6F)c6ccc([nH]6)c(-c6c(F)c(F)c(F)c(F)c6F)c6nc(c(-c7c(F)c(F)c(F)c(F)c7F)c7ccc4[nH]7)C=C6)C=C5)cc3)C2)nc1
REMARK SMILES IDX 24 1 23 2 22 3 21 4 19 5 20 6 18 8 17 9 16 10 6 11 7 12
REMARK SMILES IDX 94 13 8 14 9 15 5 16 1 17 2 18 3 19 96 20 4 21 95 22 10 23
REMARK SMILES IDX 11 24 15 25 12 27 14 28 13 29 25 30 26 31 27 32 28 33 29 34
REMARK SMILES IDX 30 36 31 37 32 38 93 39 33 40 92 41 34 42 35 43 36 44 86 45
REMARK SMILES IDX 37 46 91 47 85 48 87 49 38 50 90 51 84 52 83 53 39 55 71 56
REMARK SMILES IDX 51 57 70 58 52 59 55 60 69 61 88 62 53 63 54 64 68 66 89 67
REMARK SMILES IDX 56 68 40 69 41 70 49 71 42 72 43 73 47 74 50 75 44 76 45 77
REMARK SMILES IDX 48 78 46 79 72 80 73 81 81 82 74 83 75 84 79 85 82 86 76 87
REMARK SMILES IDX 77 88 80 89 78 90 57 91 58 92 66 93 59 94 60 95 64 96 67 97
REMARK SMILES IDX 61 98 62 99 65 100 63 101
REMARK H PARENT 21 7 10 26 28 35 87 54 55 65
REMARK Flexibility Score: inf
ROOT
ATOM      1  C   UNL A   1      42.128  21.364  27.306  1.00  0.00     0.002 C 
ENDROOT
BRANCH   1   2
ATOM      2  C   UNL A   1      41.294  21.931  26.163  1.00  0.00     0.021 C 
BRANCH   2   3
ATOM      3  C   UNL A   1      39.830  21.474  26.205  1.00  0.00     0.116 C 
BRANCH   3   4
ATOM      4  N   UNL A   1      38.989  22.605  26.551  1.00  0.00    -0.356 N 
ATOM      5  C   UNL A   1      37.838  23.041  25.961  1.00  0.00     0.220 C 
ATOM      6  O   UNL A   1      37.431  24.172  26.233  1.00  0.00    -0.275 OA
ATOM      7  H   UNL A   1      39.292  23.135  27.323  1.00  0.00     0.163 HD
BRANCH   5   8
ATOM      8  C   UNL A   1      37.048  22.116  25.051  1.00  0.00     0.100 C 
BRANCH   8   9
ATOM      9  C   UNL A   1      35.609  21.780  25.495  1.00  0.00     0.021 C 
BRANCH   9  10
ATOM     10  C   UNL A   1      34.655  21.332  24.365  1.00  0.00     0.067 C 
ATOM     11  N   UNL A   1      32.862  23.061  24.146  1.00  0.00    -0.356 N 
ATOM     12  C   UNL A   1      31.795  22.118  24.416  1.00  0.00     0.124 C 
ATOM     13  C   UNL A   1      34.099  22.554  23.580  1.00  0.00     0.127 C 
ATOM     14  C   UNL A   1      32.292  21.009  25.329  1.00  0.00     0.087 C 
ATOM     15  C   UNL A   1      33.492  20.313  24.680  1.00  0.00     0.190 C 
BRANCH  11  16
ATOM     16  C   UNL A   1      32.868  24.224  24.890  1.00  0.00     0.128 A 
ATOM     17  C   UNL A   1      32.721  27.943  26.963  1.00  0.00     0.046 C 
ATOM     18  C   UNL A   1      32.814  26.649  26.224  1.00  0.00    -0.033 A 
ATOM     19  C   UNL A   1      33.987  26.238  25.599  1.00  0.00     0.009 A 
ATOM     20  C   UNL A   1      31.724  25.796  26.149  1.00  0.00     0.117 A 
ATOM     21  C   UNL A   1      34.015  25.011  24.938  1.00  0.00     0.047 A 
ATOM     22  N   UNL A   1      31.724  24.617  25.488  1.00  0.00    -0.239 NA
ENDBRANCH  11  16
BRANCH  15  23
ATOM     23  N   UNL A   1      33.869  19.009  25.269  1.00  0.00    -0.328 N 
ATOM     24  C   UNL A   1      34.775  18.200  24.413  1.00  0.00     0.291 C 
ATOM     25  C   UNL A   1      32.802  18.141  25.799  1.00  0.00     0.291 C 
ATOM     26  H   UNL A   1      34.362  19.350  26.094  1.00  0.00     0.348 HD
ATOM     27  C   UNL A   1      34.109  17.144  23.504  1.00  0.00     0.221 C 
ATOM     28  C   UNL A   1      32.198  17.105  24.846  1.00  0.00     0.221 C 
ATOM     29  O   UNL A   1      33.213  16.308  24.237  1.00  0.00    -0.370 OA
ENDBRANCH  15  23
ENDBRANCH   9  10
ENDBRANCH   8   9
ENDBRANCH   5   8
ENDBRANCH   3   4
ENDBRANCH   2   3
ENDBRANCH   1   2
BRANCH   1  30
ATOM     30  C   UNL A   1      41.933  19.857  27.496  1.00  0.00     0.002 C 
BRANCH  30  31
ATOM     31  C   UNL A   1      42.331  18.988  26.295  1.00  0.00     0.021 C 
BRANCH  31  32
ATOM     32  C   UNL A   1      43.821  18.672  26.183  1.00  0.00     0.116 C 
BRANCH  32  33
ATOM     33  N   UNL A   1      44.262  18.618  24.800  1.00  0.00    -0.352 N 
ATOM     34  C   UNL A   1      44.611  19.630  23.944  1.00  0.00     0.251 C 
ATOM     35  H   UNL A   1      44.320  17.713  24.418  1.00  0.00     0.163 HD
ATOM     36  O   UNL A   1      44.740  19.403  22.746  1.00  0.00    -0.269 OA
BRANCH  34  37
ATOM     37  C   UNL A   1      44.829  20.998  24.456  1.00  0.00     0.039 A 
ATOM     38  C   UNL A   1      44.340  22.077  23.716  1.00  0.00     0.014 A 
ATOM     39  C   UNL A   1      45.555  21.222  25.630  1.00  0.00     0.014 A 
ATOM     40  C   UNL A   1      44.539  23.380  24.176  1.00  0.00     0.010 A 
ATOM     41  C   UNL A   1      45.698  22.517  26.121  1.00  0.00     0.010 A 
ATOM     42  C   UNL A   1      45.200  23.609  25.394  1.00  0.00    -0.014 A 
BRANCH  42  43
ATOM     43  C   UNL A   1      45.388  24.986  25.912  1.00  0.00     0.031 A 
ATOM     44  C   UNL A   1      46.743  25.633  25.868  1.00  0.00     0.074 A 
ATOM     45  C   UNL A   1      44.346  25.634  26.470  1.00  0.00     0.049 A 
ATOM     46  N   UNL A   1      47.117  26.805  26.316  1.00  0.00    -0.248 NA
ATOM     47  C   UNL A   1      47.830  24.848  25.264  1.00  0.00     0.031 C 
ATOM     48  C   UNL A   1      42.994  25.092  26.611  1.00  0.00     0.029 A 
ATOM     49  N   UNL A   1      44.265  26.883  27.030  1.00  0.00    -0.354 N 
ATOM     50  C   UNL A   1      48.479  26.890  26.062  1.00  0.00     0.074 A 
ATOM     51  C   UNL A   1      48.878  25.634  25.467  1.00  0.00     0.031 C 
ATOM     52  C   UNL A   1      42.213  26.012  27.200  1.00  0.00     0.029 A 
ATOM     53  C   UNL A   1      43.015  27.192  27.506  1.00  0.00     0.049 A 
ATOM     54  H   UNL A   1      45.031  27.501  27.085  1.00  0.00     0.167 HD
ATOM     55  C   UNL A   1      49.317  27.931  26.284  1.00  0.00     0.037 A 
ATOM     56  C   UNL A   1      42.568  28.302  28.124  1.00  0.00     0.037 A 
ATOM     57  C   UNL A   1      48.909  29.191  26.850  1.00  0.00     0.049 A 
ATOM     58  C   UNL A   1      43.518  29.447  28.352  1.00  0.00     0.074 A 
ATOM     59  C   UNL A   1      49.667  30.331  27.057  1.00  0.00     0.029 A 
ATOM     60  N   UNL A   1      47.629  29.475  27.302  1.00  0.00    -0.354 N 
ATOM     61  N   UNL A   1      44.787  29.543  28.044  1.00  0.00    -0.248 NA
ATOM     62  C   UNL A   1      42.967  30.642  29.008  1.00  0.00     0.031 C 
ATOM     63  C   UNL A   1      48.856  31.290  27.671  1.00  0.00     0.029 A 
ATOM     64  C   UNL A   1      47.580  30.765  27.805  1.00  0.00     0.049 A 
ATOM     65  H   UNL A   1      46.867  28.852  27.269  1.00  0.00     0.167 HD
ATOM     66  C   UNL A   1      45.183  30.812  28.442  1.00  0.00     0.074 A 
ATOM     67  C   UNL A   1      44.013  31.457  29.001  1.00  0.00     0.031 C 
ATOM     68  C   UNL A   1      46.405  31.392  28.352  1.00  0.00     0.037 A 
BRANCH  55  69
ATOM     69  C   UNL A   1      50.759  27.755  25.909  1.00  0.00     0.064 A 
ATOM     70  C   UNL A   1      51.726  27.384  26.857  1.00  0.00     0.173 A 
ATOM     71  C   UNL A   1      51.176  27.924  24.580  1.00  0.00     0.173 A 
ATOM     72  F   UNL A   1      51.382  27.220  28.142  1.00  0.00    -0.203 F 
ATOM     73  C   UNL A   1      53.060  27.216  26.493  1.00  0.00     0.198 A 
ATOM     74  C   UNL A   1      52.506  27.727  24.215  1.00  0.00     0.198 A 
ATOM     75  F   UNL A   1      50.292  28.273  23.633  1.00  0.00    -0.203 F 
ATOM     76  F   UNL A   1      53.972  26.910  27.425  1.00  0.00    -0.200 F 
ATOM     77  C   UNL A   1      53.447  27.382  25.172  1.00  0.00     0.200 A 
ATOM     78  F   UNL A   1      52.876  27.875  22.935  1.00  0.00    -0.200 F 
ATOM     79  F   UNL A   1      54.731  27.215  24.823  1.00  0.00    -0.200 F 
ENDBRANCH  55  69
BRANCH  56  80
ATOM     80  C   UNL A   1      41.146  28.396  28.541  1.00  0.00     0.064 A 
ATOM     81  C   UNL A   1      40.743  27.990  29.821  1.00  0.00     0.173 A 
ATOM     82  C   UNL A   1      40.163  28.895  27.674  1.00  0.00     0.173 A 
ATOM     83  F   UNL A   1      41.645  27.489  30.677  1.00  0.00    -0.203 F 
ATOM     84  C   UNL A   1      39.408  28.059  30.210  1.00  0.00     0.198 A 
ATOM     85  C   UNL A   1      38.831  28.989  28.075  1.00  0.00     0.198 A 
ATOM     86  F   UNL A   1      40.498  29.303  26.442  1.00  0.00    -0.203 F 
ATOM     87  F   UNL A   1      39.043  27.624  31.424  1.00  0.00    -0.200 F 
ATOM     88  C   UNL A   1      38.453  28.564  29.340  1.00  0.00     0.200 A 
ATOM     89  F   UNL A   1      37.915  29.492  27.236  1.00  0.00    -0.200 F 
ATOM     90  F   UNL A   1      37.170  28.635  29.717  1.00  0.00    -0.200 F 
ENDBRANCH  56  80
BRANCH  68  91
ATOM     91  C   UNL A   1      46.532  32.805  28.843  1.00  0.00     0.064 A 
ATOM     92  C   UNL A   1      46.881  33.092  30.171  1.00  0.00     0.173 A 
ATOM     93  C   UNL A   1      46.340  33.882  27.965  1.00  0.00     0.173 A 
ATOM     94  F   UNL A   1      47.060  32.097  31.053  1.00  0.00    -0.203 F 
ATOM     95  C   UNL A   1      47.010  34.409  30.607  1.00  0.00     0.198 A 
ATOM     96  C   UNL A   1      46.497  35.195  28.396  1.00  0.00     0.198 A 
ATOM     97  F   UNL A   1      46.011  33.658  26.683  1.00  0.00    -0.203 F 
ATOM     98  F   UNL A   1      47.299  34.662  31.890  1.00  0.00    -0.200 F 
ATOM     99  C   UNL A   1      46.825  35.458  29.718  1.00  0.00     0.200 A 
ATOM    100  F   UNL A   1      46.331  36.207  27.534  1.00  0.00    -0.200 F 
ATOM    101  F   UNL A   1      46.957  36.723  30.138  1.00  0.00    -0.200 F 
ENDBRANCH  68  91
ENDBRANCH  42  43
ENDBRANCH  34  37
ENDBRANCH  32  33
ENDBRANCH  31  32
ENDBRANCH  30  31
ENDBRANCH   1  30
TORSDOF 17
ENDMDL
