MODEL 1
REMARK VINA RESULT:     -11.7      0.000      0.000
REMARK SMILES CC[C@@](C)(NC(=O)c1cc(C)c(Br)s1)C(=O)NCCCCCCNC(=O)c1ccc(-c2c3nc(c(-c4c(F)c(F)c(F)c(F)c4F)c4ccc([nH]4)c(-c4c(F)c(F)c(F)c(F)c4F)c4nc(c(-c5c(F)c(F)c(F)c(F)c5F)c5ccc2[nH]5)C=C4)C=C3)cc1
REMARK SMILES IDX 20 1 19 2 18 3 17 4 15 5 16 6 3 8 4 9 2 10 1 11 5 12 6 13
REMARK SMILES IDX 7 15 8 16 9 17 14 18 10 19 12 20 11 21 13 22 21 23 22 24
REMARK SMILES IDX 23 25 24 26 25 27 26 29 27 30 28 31 89 32 29 33 88 34 30 35
REMARK SMILES IDX 31 36 32 37 82 38 33 39 87 40 81 41 83 42 34 43 86 44 80 45
REMARK SMILES IDX 79 46 35 48 67 49 47 50 66 51 48 52 51 53 65 54 84 55 49 56
REMARK SMILES IDX 50 57 64 59 85 60 52 61 36 62 37 63 45 64 38 65 39 66 43 67
REMARK SMILES IDX 46 68 40 69 41 70 44 71 42 72 68 73 69 74 77 75 70 76 71 77
REMARK SMILES IDX 75 78 78 79 72 80 73 81 76 82 74 83 53 84 54 85 62 86 55 87
REMARK SMILES IDX 56 88 60 89 63 90 57 91 58 92 61 93 59 94
REMARK H PARENT 17 7 5 14 24 28 83 47 51 58
REMARK Flexibility Score: inf
ROOT
ATOM      1  C   UNL A   1      37.076  23.751  25.478  1.00  0.00     0.002 C 
ENDROOT
BRANCH   1   2
ATOM      2  C   UNL A   1      35.991  22.674  25.399  1.00  0.00     0.021 C 
BRANCH   2   3
ATOM      3  C   UNL A   1      35.371  22.346  24.035  1.00  0.00     0.116 C 
BRANCH   3   4
ATOM      4  N   UNL A   1      34.037  21.766  24.039  1.00  0.00    -0.354 N 
ATOM      5  C   UNL A   1      32.780  22.308  24.146  1.00  0.00     0.245 C 
ATOM      6  O   UNL A   1      31.845  21.513  24.012  1.00  0.00    -0.272 OA
ATOM      7  H   UNL A   1      34.035  20.786  23.948  1.00  0.00     0.163 HD
BRANCH   5   8
ATOM      8  C   UNL A   1      32.546  23.834  24.314  1.00  0.00     0.116 C 
ATOM      9  C   UNL A   1      31.040  24.030  23.985  1.00  0.00     0.045 C 
BRANCH   8  10
ATOM     10  C   UNL A   1      32.780  24.395  25.749  1.00  0.00     0.035 C 
ATOM     11  C   UNL A   1      31.559  24.784  26.577  1.00  0.00     0.007 C 
ENDBRANCH   8  10
BRANCH   8  12
ATOM     12  N   UNL A   1      33.361  24.663  23.383  1.00  0.00    -0.337 N 
ATOM     13  C   UNL A   1      33.086  25.848  22.714  1.00  0.00     0.262 C 
ATOM     14  H   UNL A   1      34.261  24.304  23.211  1.00  0.00     0.164 HD
ATOM     15  O   UNL A   1      33.668  25.944  21.628  1.00  0.00    -0.268 OA
BRANCH  13  16
ATOM     16  C   UNL A   1      32.271  26.932  23.264  1.00  0.00     0.093 A 
ATOM     17  C   UNL A   1      32.449  27.762  24.349  1.00  0.00     0.030 A 
ATOM     18  S   UNL A   1      30.887  27.483  22.386  1.00  0.00    -0.123 S 
ATOM     19  C   UNL A   1      31.566  28.882  24.442  1.00  0.00    -0.025 A 
ATOM     20  C   UNL A   1      30.660  28.821  23.413  1.00  0.00     0.074 A 
ATOM     21  C   UNL A   1      31.724  29.928  25.498  1.00  0.00     0.046 C 
ATOM     22  Br  UNL A   1      29.324  30.106  23.119  1.00  0.00    -0.039 Br
ENDBRANCH  13  16
ENDBRANCH   8  12
ENDBRANCH   5   8
ENDBRANCH   3   4
ENDBRANCH   2   3
ENDBRANCH   1   2
BRANCH   1  23
ATOM     23  C   UNL A   1      38.377  23.398  26.198  1.00  0.00     0.002 C 
BRANCH  23  24
ATOM     24  C   UNL A   1      38.918  21.984  25.976  1.00  0.00     0.021 C 
BRANCH  24  25
ATOM     25  C   UNL A   1      40.122  21.627  26.833  1.00  0.00     0.116 C 
BRANCH  25  26
ATOM     26  N   UNL A   1      41.386  21.685  26.097  1.00  0.00    -0.352 N 
ATOM     27  C   UNL A   1      42.144  22.808  25.810  1.00  0.00     0.251 C 
ATOM     28  H   UNL A   1      41.737  20.826  25.767  1.00  0.00     0.163 HD
ATOM     29  O   UNL A   1      42.941  22.829  24.893  1.00  0.00    -0.269 OA
BRANCH  27  30
ATOM     30  C   UNL A   1      41.971  23.984  26.678  1.00  0.00     0.039 A 
ATOM     31  C   UNL A   1      42.515  24.044  27.965  1.00  0.00     0.014 A 
ATOM     32  C   UNL A   1      41.279  25.061  26.137  1.00  0.00     0.014 A 
ATOM     33  C   UNL A   1      42.408  25.236  28.676  1.00  0.00     0.010 A 
ATOM     34  C   UNL A   1      41.339  26.277  26.755  1.00  0.00     0.010 A 
ATOM     35  C   UNL A   1      41.825  26.351  28.055  1.00  0.00    -0.014 A 
BRANCH  35  36
ATOM     36  C   UNL A   1      41.759  27.642  28.718  1.00  0.00     0.031 A 
ATOM     37  C   UNL A   1      42.813  28.616  28.329  1.00  0.00     0.074 A 
ATOM     38  C   UNL A   1      40.674  28.009  29.435  1.00  0.00     0.049 A 
ATOM     39  N   UNL A   1      43.727  29.134  29.081  1.00  0.00    -0.248 NA
ATOM     40  C   UNL A   1      42.938  28.979  26.909  1.00  0.00     0.031 C 
ATOM     41  C   UNL A   1      39.409  27.289  29.630  1.00  0.00     0.029 A 
ATOM     42  N   UNL A   1      40.433  29.194  30.052  1.00  0.00    -0.354 N 
ATOM     43  C   UNL A   1      44.431  30.029  28.279  1.00  0.00     0.074 A 
ATOM     44  C   UNL A   1      44.016  29.767  26.925  1.00  0.00     0.031 C 
ATOM     45  C   UNL A   1      38.466  28.142  30.084  1.00  0.00     0.029 A 
ATOM     46  C   UNL A   1      39.103  29.410  30.381  1.00  0.00     0.049 A 
ATOM     47  H   UNL A   1      41.143  29.847  30.249  1.00  0.00     0.167 HD
ATOM     48  C   UNL A   1      45.124  31.067  28.825  1.00  0.00     0.037 A 
ATOM     49  C   UNL A   1      38.569  30.579  30.810  1.00  0.00     0.037 A 
ATOM     50  C   UNL A   1      45.343  30.861  30.236  1.00  0.00     0.049 A 
ATOM     51  C   UNL A   1      39.695  31.402  31.332  1.00  0.00     0.074 A 
ATOM     52  C   UNL A   1      45.955  29.868  30.979  1.00  0.00     0.029 A 
ATOM     53  N   UNL A   1      44.550  31.544  31.127  1.00  0.00    -0.354 N 
ATOM     54  N   UNL A   1      40.391  31.080  32.391  1.00  0.00    -0.248 NA
ATOM     55  C   UNL A   1      40.365  32.292  30.394  1.00  0.00     0.031 C 
ATOM     56  C   UNL A   1      45.097  29.676  32.103  1.00  0.00     0.029 A 
ATOM     57  C   UNL A   1      44.071  30.617  32.019  1.00  0.00     0.049 A 
ATOM     58  H   UNL A   1      44.364  32.511  31.126  1.00  0.00     0.167 HD
ATOM     59  C   UNL A   1      41.706  31.369  32.055  1.00  0.00     0.074 A 
ATOM     60  C   UNL A   1      41.620  32.172  30.835  1.00  0.00     0.031 C 
ATOM     61  C   UNL A   1      42.754  30.686  32.608  1.00  0.00     0.037 A 
BRANCH  48  62
ATOM     62  C   UNL A   1      45.287  32.425  28.183  1.00  0.00     0.064 A 
ATOM     63  C   UNL A   1      44.136  33.175  27.865  1.00  0.00     0.173 A 
ATOM     64  C   UNL A   1      46.486  32.880  27.594  1.00  0.00     0.173 A 
ATOM     65  F   UNL A   1      42.937  32.830  28.362  1.00  0.00    -0.203 F 
ATOM     66  C   UNL A   1      44.170  34.233  26.954  1.00  0.00     0.198 A 
ATOM     67  C   UNL A   1      46.526  33.972  26.728  1.00  0.00     0.198 A 
ATOM     68  F   UNL A   1      47.645  32.227  27.735  1.00  0.00    -0.203 F 
ATOM     69  F   UNL A   1      43.028  34.827  26.581  1.00  0.00    -0.200 F 
ATOM     70  C   UNL A   1      45.364  34.625  26.379  1.00  0.00     0.200 A 
ATOM     71  F   UNL A   1      47.692  34.326  26.171  1.00  0.00    -0.200 F 
ATOM     72  F   UNL A   1      45.391  35.595  25.456  1.00  0.00    -0.200 F 
ENDBRANCH  48  62
BRANCH  49  73
ATOM     73  C   UNL A   1      37.242  31.134  30.447  1.00  0.00     0.064 A 
ATOM     74  C   UNL A   1      36.298  31.467  31.431  1.00  0.00     0.173 A 
ATOM     75  C   UNL A   1      36.966  31.590  29.140  1.00  0.00     0.173 A 
ATOM     76  F   UNL A   1      36.509  31.122  32.710  1.00  0.00    -0.203 F 
ATOM     77  C   UNL A   1      35.155  32.217  31.128  1.00  0.00     0.198 A 
ATOM     78  C   UNL A   1      35.823  32.330  28.838  1.00  0.00     0.198 A 
ATOM     79  F   UNL A   1      37.848  31.408  28.147  1.00  0.00    -0.203 F 
ATOM     80  F   UNL A   1      34.304  32.564  32.104  1.00  0.00    -0.200 F 
ATOM     81  C   UNL A   1      34.922  32.653  29.833  1.00  0.00     0.200 A 
ATOM     82  F   UNL A   1      35.634  32.782  27.590  1.00  0.00    -0.200 F 
ATOM     83  F   UNL A   1      33.858  33.419  29.554  1.00  0.00    -0.200 F 
ENDBRANCH  49  73
BRANCH  61  84
ATOM     84  C   UNL A   1      42.480  29.746  33.752  1.00  0.00     0.064 A 
ATOM     85  C   UNL A   1      42.101  28.401  33.593  1.00  0.00     0.173 A 
ATOM     86  C   UNL A   1      42.794  30.170  35.051  1.00  0.00     0.173 A 
ATOM     87  F   UNL A   1      41.887  27.885  32.378  1.00  0.00    -0.203 F 
ATOM     88  C   UNL A   1      42.005  27.536  34.682  1.00  0.00     0.198 A 
ATOM     89  C   UNL A   1      42.733  29.295  36.133  1.00  0.00     0.198 A 
ATOM     90  F   UNL A   1      43.222  31.424  35.263  1.00  0.00    -0.203 F 
ATOM     91  F   UNL A   1      41.638  26.259  34.496  1.00  0.00    -0.200 F 
ATOM     92  C   UNL A   1      42.330  27.982  35.951  1.00  0.00     0.200 A 
ATOM     93  F   UNL A   1      43.100  29.717  37.352  1.00  0.00    -0.200 F 
ATOM     94  F   UNL A   1      42.285  27.140  36.993  1.00  0.00    -0.200 F 
ENDBRANCH  61  84
ENDBRANCH  35  36
ENDBRANCH  27  30
ENDBRANCH  25  26
ENDBRANCH  24  25
ENDBRANCH  23  24
ENDBRANCH   1  23
TORSDOF 16
ENDMDL
MODEL 2
REMARK VINA RESULT:     -11.6      1.847      3.239
REMARK SMILES CC[C@@](C)(NC(=O)c1cc(C)c(Br)s1)C(=O)NCCCCCCNC(=O)c1ccc(-c2c3nc(c(-c4c(F)c(F)c(F)c(F)c4F)c4ccc([nH]4)c(-c4c(F)c(F)c(F)c(F)c4F)c4nc(c(-c5c(F)c(F)c(F)c(F)c5F)c5ccc2[nH]5)C=C4)C=C3)cc1
REMARK SMILES IDX 20 1 19 2 18 3 17 4 15 5 16 6 3 8 4 9 2 10 1 11 5 12 6 13
REMARK SMILES IDX 7 15 8 16 9 17 14 18 10 19 12 20 11 21 13 22 21 23 22 24
REMARK SMILES IDX 23 25 24 26 25 27 26 29 27 30 28 31 89 32 29 33 88 34 30 35
REMARK SMILES IDX 31 36 32 37 82 38 33 39 87 40 81 41 83 42 34 43 86 44 80 45
REMARK SMILES IDX 79 46 35 48 67 49 47 50 66 51 48 52 51 53 65 54 84 55 49 56
REMARK SMILES IDX 50 57 64 59 85 60 52 61 36 62 37 63 45 64 38 65 39 66 43 67
REMARK SMILES IDX 46 68 40 69 41 70 44 71 42 72 68 73 69 74 77 75 70 76 71 77
REMARK SMILES IDX 75 78 78 79 72 80 73 81 76 82 74 83 53 84 54 85 62 86 55 87
REMARK SMILES IDX 56 88 60 89 63 90 57 91 58 92 61 93 59 94
REMARK H PARENT 17 7 5 14 24 28 83 47 51 58
REMARK Flexibility Score: inf
ROOT
ATOM      1  C   UNL A   1      35.685  23.416  23.439  1.00  0.00     0.002 C 
ENDROOT
BRANCH   1   2
ATOM      2  C   UNL A   1      34.207  23.664  23.129  1.00  0.00     0.021 C 
BRANCH   2   3
ATOM      3  C   UNL A   1      33.678  25.104  23.140  1.00  0.00     0.116 C 
BRANCH   3   4
ATOM      4  N   UNL A   1      34.018  25.922  24.293  1.00  0.00    -0.354 N 
ATOM      5  C   UNL A   1      33.293  26.788  25.074  1.00  0.00     0.245 C 
ATOM      6  O   UNL A   1      33.890  27.250  26.051  1.00  0.00    -0.272 OA
ATOM      7  H   UNL A   1      34.959  25.839  24.569  1.00  0.00     0.163 HD
BRANCH   5   8
ATOM      8  C   UNL A   1      31.792  27.085  24.810  1.00  0.00     0.116 C 
ATOM      9  C   UNL A   1      31.703  28.636  24.807  1.00  0.00     0.045 C 
BRANCH   8  10
ATOM     10  C   UNL A   1      31.239  26.590  23.441  1.00  0.00     0.035 C 
ATOM     11  C   UNL A   1      30.661  27.624  22.481  1.00  0.00     0.007 C 
ENDBRANCH   8  10
BRANCH   8  12
ATOM     12  N   UNL A   1      30.889  26.547  25.865  1.00  0.00    -0.337 N 
ATOM     13  C   UNL A   1      30.522  25.250  26.200  1.00  0.00     0.262 C 
ATOM     14  H   UNL A   1      30.475  27.239  26.430  1.00  0.00     0.164 HD
ATOM     15  O   UNL A   1      29.380  25.167  26.663  1.00  0.00    -0.268 OA
BRANCH  13  16
ATOM     16  C   UNL A   1      31.419  24.096  26.115  1.00  0.00     0.093 A 
ATOM     17  C   UNL A   1      32.463  23.677  26.908  1.00  0.00     0.030 A 
ATOM     18  S   UNL A   1      31.106  22.864  24.942  1.00  0.00    -0.123 S 
ATOM     19  C   UNL A   1      32.957  22.359  26.665  1.00  0.00    -0.025 A 
ATOM     20  C   UNL A   1      32.283  21.822  25.596  1.00  0.00     0.074 A 
ATOM     21  C   UNL A   1      34.003  21.732  27.529  1.00  0.00     0.046 C 
ATOM     22  Br  UNL A   1      32.578  20.090  24.936  1.00  0.00    -0.039 Br
ENDBRANCH  13  16
ENDBRANCH   8  12
ENDBRANCH   5   8
ENDBRANCH   3   4
ENDBRANCH   2   3
ENDBRANCH   1   2
BRANCH   1  23
ATOM     23  C   UNL A   1      36.079  23.196  24.899  1.00  0.00     0.002 C 
BRANCH  23  24
ATOM     24  C   UNL A   1      37.394  22.456  25.147  1.00  0.00     0.021 C 
BRANCH  24  25
ATOM     25  C   UNL A   1      38.127  22.877  26.411  1.00  0.00     0.116 C 
BRANCH  25  26
ATOM     26  N   UNL A   1      39.372  22.140  26.624  1.00  0.00    -0.352 N 
ATOM     27  C   UNL A   1      40.656  22.656  26.698  1.00  0.00     0.251 C 
ATOM     28  H   UNL A   1      39.289  21.164  26.725  1.00  0.00     0.163 HD
ATOM     29  O   UNL A   1      41.638  21.971  26.488  1.00  0.00    -0.269 OA
BRANCH  27  30
ATOM     30  C   UNL A   1      40.797  24.073  27.071  1.00  0.00     0.039 A 
ATOM     31  C   UNL A   1      40.063  25.083  26.444  1.00  0.00     0.014 A 
ATOM     32  C   UNL A   1      41.665  24.357  28.119  1.00  0.00     0.014 A 
ATOM     33  C   UNL A   1      40.166  26.382  26.934  1.00  0.00     0.010 A 
ATOM     34  C   UNL A   1      41.622  25.585  28.713  1.00  0.00     0.010 A 
ATOM     35  C   UNL A   1      40.943  26.619  28.078  1.00  0.00    -0.014 A 
BRANCH  35  36
ATOM     36  C   UNL A   1      41.023  27.939  28.682  1.00  0.00     0.031 A 
ATOM     37  C   UNL A   1      42.071  28.835  28.125  1.00  0.00     0.074 A 
ATOM     38  C   UNL A   1      40.053  28.395  29.503  1.00  0.00     0.049 A 
ATOM     39  N   UNL A   1      43.094  29.331  28.738  1.00  0.00    -0.248 NA
ATOM     40  C   UNL A   1      42.043  29.131  26.684  1.00  0.00     0.031 C 
ATOM     41  C   UNL A   1      38.785  27.756  29.880  1.00  0.00     0.029 A 
ATOM     42  N   UNL A   1      39.948  29.616  30.086  1.00  0.00    -0.354 N 
ATOM     43  C   UNL A   1      43.741  30.151  27.817  1.00  0.00     0.074 A 
ATOM     44  C   UNL A   1      43.154  29.856  26.536  1.00  0.00     0.031 C 
ATOM     45  C   UNL A   1      37.949  28.679  30.401  1.00  0.00     0.029 A 
ATOM     46  C   UNL A   1      38.680  29.920  30.560  1.00  0.00     0.049 A 
ATOM     47  H   UNL A   1      40.709  30.236  30.167  1.00  0.00     0.167 HD
ATOM     48  C   UNL A   1      44.547  31.170  28.227  1.00  0.00     0.037 A 
ATOM     49  C   UNL A   1      38.262  31.134  30.992  1.00  0.00     0.037 A 
ATOM     50  C   UNL A   1      44.923  31.010  29.611  1.00  0.00     0.049 A 
ATOM     51  C   UNL A   1      39.482  31.913  31.338  1.00  0.00     0.074 A 
ATOM     52  C   UNL A   1      45.569  30.017  30.323  1.00  0.00     0.029 A 
ATOM     53  N   UNL A   1      44.279  31.774  30.556  1.00  0.00    -0.354 N 
ATOM     54  N   UNL A   1      40.284  31.597  32.322  1.00  0.00    -0.248 NA
ATOM     55  C   UNL A   1      40.079  32.725  30.286  1.00  0.00     0.031 C 
ATOM     56  C   UNL A   1      44.844  29.920  31.549  1.00  0.00     0.029 A 
ATOM     57  C   UNL A   1      43.864  30.913  31.541  1.00  0.00     0.049 A 
ATOM     58  H   UNL A   1      44.143  32.749  30.531  1.00  0.00     0.167 HD
ATOM     59  C   UNL A   1      41.562  31.797  31.819  1.00  0.00     0.074 A 
ATOM     60  C   UNL A   1      41.371  32.553  30.581  1.00  0.00     0.031 C 
ATOM     61  C   UNL A   1      42.632  31.081  32.277  1.00  0.00     0.037 A 
BRANCH  48  62
ATOM     62  C   UNL A   1      44.701  32.489  27.506  1.00  0.00     0.064 A 
ATOM     63  C   UNL A   1      45.846  32.706  26.712  1.00  0.00     0.173 A 
ATOM     64  C   UNL A   1      43.943  33.642  27.801  1.00  0.00     0.173 A 
ATOM     65  F   UNL A   1      46.647  31.683  26.375  1.00  0.00    -0.203 F 
ATOM     66  C   UNL A   1      46.250  33.987  26.329  1.00  0.00     0.198 A 
ATOM     67  C   UNL A   1      44.319  34.913  27.370  1.00  0.00     0.198 A 
ATOM     68  F   UNL A   1      42.878  33.611  28.609  1.00  0.00    -0.203 F 
ATOM     69  F   UNL A   1      47.416  34.154  25.692  1.00  0.00    -0.200 F 
ATOM     70  C   UNL A   1      45.490  35.091  26.667  1.00  0.00     0.200 A 
ATOM     71  F   UNL A   1      43.576  35.973  27.721  1.00  0.00    -0.200 F 
ATOM     72  F   UNL A   1      45.908  36.326  26.359  1.00  0.00    -0.200 F 
ENDBRANCH  48  62
BRANCH  49  73
ATOM     73  C   UNL A   1      36.930  31.748  30.762  1.00  0.00     0.064 A 
ATOM     74  C   UNL A   1      36.043  31.981  31.823  1.00  0.00     0.173 A 
ATOM     75  C   UNL A   1      36.602  32.354  29.530  1.00  0.00     0.173 A 
ATOM     76  F   UNL A   1      36.308  31.489  33.043  1.00  0.00    -0.203 F 
ATOM     77  C   UNL A   1      34.903  32.778  31.665  1.00  0.00     0.198 A 
ATOM     78  C   UNL A   1      35.461  33.141  29.372  1.00  0.00     0.198 A 
ATOM     79  F   UNL A   1      37.430  32.273  28.480  1.00  0.00    -0.203 F 
ATOM     80  F   UNL A   1      34.108  33.025  32.717  1.00  0.00    -0.200 F 
ATOM     81  C   UNL A   1      34.616  33.362  30.442  1.00  0.00     0.200 A 
ATOM     82  F   UNL A   1      35.221  33.735  28.194  1.00  0.00    -0.200 F 
ATOM     83  F   UNL A   1      33.556  34.171  30.306  1.00  0.00    -0.200 F 
ENDBRANCH  49  73
BRANCH  61  84
ATOM     84  C   UNL A   1      42.451  30.206  33.489  1.00  0.00     0.064 A 
ATOM     85  C   UNL A   1      42.534  30.670  34.814  1.00  0.00     0.173 A 
ATOM     86  C   UNL A   1      41.991  28.895  33.302  1.00  0.00     0.173 A 
ATOM     87  F   UNL A   1      42.861  31.939  35.081  1.00  0.00    -0.203 F 
ATOM     88  C   UNL A   1      42.212  29.851  35.896  1.00  0.00     0.198 A 
ATOM     89  C   UNL A   1      41.634  28.090  34.381  1.00  0.00     0.198 A 
ATOM     90  F   UNL A   1      41.830  28.412  32.060  1.00  0.00    -0.203 F 
ATOM     91  F   UNL A   1      42.304  30.323  37.148  1.00  0.00    -0.200 F 
ATOM     92  C   UNL A   1      41.753  28.564  35.677  1.00  0.00     0.200 A 
ATOM     93  F   UNL A   1      41.140  26.863  34.161  1.00  0.00    -0.200 F 
ATOM     94  F   UNL A   1      41.396  27.791  36.713  1.00  0.00    -0.200 F 
ENDBRANCH  61  84
ENDBRANCH  35  36
ENDBRANCH  27  30
ENDBRANCH  25  26
ENDBRANCH  24  25
ENDBRANCH  23  24
ENDBRANCH   1  23
TORSDOF 16
ENDMDL
MODEL 3
REMARK VINA RESULT:     -11.6      0.912      1.499
REMARK SMILES CC[C@@](C)(NC(=O)c1cc(C)c(Br)s1)C(=O)NCCCCCCNC(=O)c1ccc(-c2c3nc(c(-c4c(F)c(F)c(F)c(F)c4F)c4ccc([nH]4)c(-c4c(F)c(F)c(F)c(F)c4F)c4nc(c(-c5c(F)c(F)c(F)c(F)c5F)c5ccc2[nH]5)C=C4)C=C3)cc1
REMARK SMILES IDX 20 1 19 2 18 3 17 4 15 5 16 6 3 8 4 9 2 10 1 11 5 12 6 13
REMARK SMILES IDX 7 15 8 16 9 17 14 18 10 19 12 20 11 21 13 22 21 23 22 24
REMARK SMILES IDX 23 25 24 26 25 27 26 29 27 30 28 31 89 32 29 33 88 34 30 35
REMARK SMILES IDX 31 36 32 37 82 38 33 39 87 40 81 41 83 42 34 43 86 44 80 45
REMARK SMILES IDX 79 46 35 48 67 49 47 50 66 51 48 52 51 53 65 54 84 55 49 56
REMARK SMILES IDX 50 57 64 59 85 60 52 61 36 62 37 63 45 64 38 65 39 66 43 67
REMARK SMILES IDX 46 68 40 69 41 70 44 71 42 72 68 73 69 74 77 75 70 76 71 77
REMARK SMILES IDX 75 78 78 79 72 80 73 81 76 82 74 83 53 84 54 85 62 86 55 87
REMARK SMILES IDX 56 88 60 89 63 90 57 91 58 92 61 93 59 94
REMARK H PARENT 17 7 5 14 24 28 83 47 51 58
REMARK Flexibility Score: inf
ROOT
ATOM      1  C   UNL A   1      36.706  23.909  25.432  1.00  0.00     0.002 C 
ENDROOT
BRANCH   1   2
ATOM      2  C   UNL A   1      35.899  22.739  24.863  1.00  0.00     0.021 C 
BRANCH   2   3
ATOM      3  C   UNL A   1      35.335  22.849  23.441  1.00  0.00     0.116 C 
BRANCH   3   4
ATOM      4  N   UNL A   1      33.958  22.422  23.244  1.00  0.00    -0.354 N 
ATOM      5  C   UNL A   1      32.749  23.054  23.399  1.00  0.00     0.245 C 
ATOM      6  O   UNL A   1      31.761  22.408  23.041  1.00  0.00    -0.272 OA
ATOM      7  H   UNL A   1      33.877  21.490  22.937  1.00  0.00     0.163 HD
BRANCH   5   8
ATOM      8  C   UNL A   1      32.638  24.523  23.891  1.00  0.00     0.116 C 
ATOM      9  C   UNL A   1      31.139  24.881  23.696  1.00  0.00     0.045 C 
BRANCH   8  10
ATOM     10  C   UNL A   1      32.975  24.756  25.394  1.00  0.00     0.035 C 
ATOM     11  C   UNL A   1      32.548  23.693  26.400  1.00  0.00     0.007 C 
ENDBRANCH   8  10
BRANCH   8  12
ATOM     12  N   UNL A   1      33.473  25.474  23.104  1.00  0.00    -0.337 N 
ATOM     13  C   UNL A   1      33.513  26.861  23.066  1.00  0.00     0.262 C 
ATOM     14  H   UNL A   1      34.115  25.037  22.499  1.00  0.00     0.164 HD
ATOM     15  O   UNL A   1      33.833  27.313  21.962  1.00  0.00    -0.268 OA
BRANCH  13  16
ATOM     16  C   UNL A   1      33.300  27.721  24.232  1.00  0.00     0.093 A 
ATOM     17  C   UNL A   1      34.039  27.927  25.376  1.00  0.00     0.030 A 
ATOM     18  S   UNL A   1      32.002  28.863  24.218  1.00  0.00    -0.123 S 
ATOM     19  C   UNL A   1      33.652  29.034  26.191  1.00  0.00    -0.025 A 
ATOM     20  C   UNL A   1      32.535  29.617  25.648  1.00  0.00     0.074 A 
ATOM     21  C   UNL A   1      34.440  29.446  27.393  1.00  0.00     0.046 C 
ATOM     22  Br  UNL A   1      31.690  31.130  26.368  1.00  0.00    -0.039 Br
ENDBRANCH  13  16
ENDBRANCH   8  12
ENDBRANCH   5   8
ENDBRANCH   3   4
ENDBRANCH   2   3
ENDBRANCH   1   2
BRANCH   1  23
ATOM     23  C   UNL A   1      38.049  23.594  26.089  1.00  0.00     0.002 C 
BRANCH  23  24
ATOM     24  C   UNL A   1      38.616  22.194  25.846  1.00  0.00     0.021 C 
BRANCH  24  25
ATOM     25  C   UNL A   1      39.759  21.807  26.772  1.00  0.00     0.116 C 
BRANCH  25  26
ATOM     26  N   UNL A   1      41.061  21.804  26.104  1.00  0.00    -0.352 N 
ATOM     27  C   UNL A   1      41.887  22.889  25.863  1.00  0.00     0.251 C 
ATOM     28  H   UNL A   1      41.387  20.930  25.789  1.00  0.00     0.163 HD
ATOM     29  O   UNL A   1      42.732  22.874  24.989  1.00  0.00    -0.269 OA
BRANCH  27  30
ATOM     30  C   UNL A   1      41.727  24.070  26.727  1.00  0.00     0.039 A 
ATOM     31  C   UNL A   1      42.250  24.120  28.022  1.00  0.00     0.014 A 
ATOM     32  C   UNL A   1      41.068  25.162  26.173  1.00  0.00     0.014 A 
ATOM     33  C   UNL A   1      42.158  25.315  28.730  1.00  0.00     0.010 A 
ATOM     34  C   UNL A   1      41.145  26.377  26.790  1.00  0.00     0.010 A 
ATOM     35  C   UNL A   1      41.611  26.442  28.098  1.00  0.00    -0.014 A 
BRANCH  35  36
ATOM     36  C   UNL A   1      41.563  27.736  28.759  1.00  0.00     0.031 A 
ATOM     37  C   UNL A   1      42.621  28.699  28.356  1.00  0.00     0.074 A 
ATOM     38  C   UNL A   1      40.489  28.114  29.486  1.00  0.00     0.049 A 
ATOM     39  N   UNL A   1      43.548  29.210  29.098  1.00  0.00    -0.248 NA
ATOM     40  C   UNL A   1      42.735  29.058  26.934  1.00  0.00     0.031 C 
ATOM     41  C   UNL A   1      39.219  27.405  29.696  1.00  0.00     0.029 A 
ATOM     42  N   UNL A   1      40.265  29.302  30.102  1.00  0.00    -0.354 N 
ATOM     43  C   UNL A   1      44.251  30.097  28.286  1.00  0.00     0.074 A 
ATOM     44  C   UNL A   1      43.820  29.836  26.937  1.00  0.00     0.031 C 
ATOM     45  C   UNL A   1      38.289  28.267  30.158  1.00  0.00     0.029 A 
ATOM     46  C   UNL A   1      38.939  29.530  30.445  1.00  0.00     0.049 A 
ATOM     47  H   UNL A   1      40.982  29.949  30.291  1.00  0.00     0.167 HD
ATOM     48  C   UNL A   1      44.959  31.131  28.823  1.00  0.00     0.037 A 
ATOM     49  C   UNL A   1      38.421  30.705  30.876  1.00  0.00     0.037 A 
ATOM     50  C   UNL A   1      45.190  30.926  30.231  1.00  0.00     0.049 A 
ATOM     51  C   UNL A   1      39.559  31.519  31.385  1.00  0.00     0.074 A 
ATOM     52  C   UNL A   1      45.802  29.930  30.970  1.00  0.00     0.029 A 
ATOM     53  N   UNL A   1      44.413  31.619  31.129  1.00  0.00    -0.354 N 
ATOM     54  N   UNL A   1      40.263  31.194  32.437  1.00  0.00    -0.248 NA
ATOM     55  C   UNL A   1      40.227  32.401  30.437  1.00  0.00     0.031 C 
ATOM     56  C   UNL A   1      44.954  29.748  32.104  1.00  0.00     0.029 A 
ATOM     57  C   UNL A   1      43.935  30.698  32.028  1.00  0.00     0.049 A 
ATOM     58  H   UNL A   1      44.235  32.587  31.128  1.00  0.00     0.167 HD
ATOM     59  C   UNL A   1      41.577  31.471  32.087  1.00  0.00     0.074 A 
ATOM     60  C   UNL A   1      41.486  32.272  30.866  1.00  0.00     0.031 C 
ATOM     61  C   UNL A   1      42.625  30.780  32.630  1.00  0.00     0.037 A 
BRANCH  48  62
ATOM     62  C   UNL A   1      45.127  32.486  28.175  1.00  0.00     0.064 A 
ATOM     63  C   UNL A   1      46.423  32.926  27.834  1.00  0.00     0.173 A 
ATOM     64  C   UNL A   1      44.127  33.481  28.158  1.00  0.00     0.173 A 
ATOM     65  F   UNL A   1      47.456  32.067  27.825  1.00  0.00    -0.203 F 
ATOM     66  C   UNL A   1      46.709  34.271  27.593  1.00  0.00     0.198 A 
ATOM     67  C   UNL A   1      44.406  34.815  27.862  1.00  0.00     0.198 A 
ATOM     68  F   UNL A   1      42.868  33.237  28.536  1.00  0.00    -0.203 F 
ATOM     69  F   UNL A   1      47.978  34.660  27.407  1.00  0.00    -0.200 F 
ATOM     70  C   UNL A   1      45.701  35.217  27.616  1.00  0.00     0.200 A 
ATOM     71  F   UNL A   1      43.416  35.718  27.904  1.00  0.00    -0.200 F 
ATOM     72  F   UNL A   1      45.980  36.516  27.451  1.00  0.00    -0.200 F 
ENDBRANCH  48  62
BRANCH  49  73
ATOM     73  C   UNL A   1      37.094  31.271  30.526  1.00  0.00     0.064 A 
ATOM     74  C   UNL A   1      36.152  31.586  31.517  1.00  0.00     0.173 A 
ATOM     75  C   UNL A   1      36.820  31.754  29.229  1.00  0.00     0.173 A 
ATOM     76  F   UNL A   1      36.363  31.214  32.788  1.00  0.00    -0.203 F 
ATOM     77  C   UNL A   1      35.011  32.345  31.230  1.00  0.00     0.198 A 
ATOM     78  C   UNL A   1      35.678  32.503  28.942  1.00  0.00     0.198 A 
ATOM     79  F   UNL A   1      37.700  31.590  28.231  1.00  0.00    -0.203 F 
ATOM     80  F   UNL A   1      34.162  32.674  32.214  1.00  0.00    -0.200 F 
ATOM     81  C   UNL A   1      34.778  32.808  29.944  1.00  0.00     0.200 A 
ATOM     82  F   UNL A   1      35.489  32.981  27.704  1.00  0.00    -0.200 F 
ATOM     83  F   UNL A   1      33.716  33.582  29.682  1.00  0.00    -0.200 F 
ENDBRANCH  49  73
BRANCH  61  84
ATOM     84  C   UNL A   1      42.354  29.846  33.780  1.00  0.00     0.064 A 
ATOM     85  C   UNL A   1      41.996  28.494  33.628  1.00  0.00     0.173 A 
ATOM     86  C   UNL A   1      42.652  30.283  35.078  1.00  0.00     0.173 A 
ATOM     87  F   UNL A   1      41.798  27.965  32.416  1.00  0.00    -0.203 F 
ATOM     88  C   UNL A   1      41.902  27.637  34.723  1.00  0.00     0.198 A 
ATOM     89  C   UNL A   1      42.594  29.416  36.166  1.00  0.00     0.198 A 
ATOM     90  F   UNL A   1      43.061  31.545  35.283  1.00  0.00    -0.203 F 
ATOM     91  F   UNL A   1      41.555  26.353  34.545  1.00  0.00    -0.200 F 
ATOM     92  C   UNL A   1      42.211  28.097  35.991  1.00  0.00     0.200 A 
ATOM     93  F   UNL A   1      42.945  29.853  37.384  1.00  0.00    -0.200 F 
ATOM     94  F   UNL A   1      42.169  27.262  37.039  1.00  0.00    -0.200 F 
ENDBRANCH  61  84
ENDBRANCH  35  36
ENDBRANCH  27  30
ENDBRANCH  25  26
ENDBRANCH  24  25
ENDBRANCH  23  24
ENDBRANCH   1  23
TORSDOF 16
ENDMDL
