MODEL 1
REMARK VINA RESULT:     -13.0      0.000      0.000
REMARK SMILES COc1cc([C@@H]2CC(=O)Nc3c(C(=O)NCCCCCCNC(=O)c4ccc(-c5c6nc(c(-c7c(F)c(F)c(F)c(F)c7F)c7ccc([nH]7)c(-c7c(F)c(F)c(F)c(F)c7F)c7nc(c(-c8c(F)c(F)c(F)c(F)c8F)c8ccc5[nH]8)C=C7)C=C6)cc4)cn(-c4ccc(F)cc4)c32)c(OC)c2c1OCO2
REMARK SMILES IDX 18 1 17 2 16 3 15 4 13 5 14 6 12 8 6 9 7 10 97 11 8 12 11 13
REMARK SMILES IDX 89 14 9 15 10 16 88 17 5 19 3 20 4 21 102 22 101 23 103 24
REMARK SMILES IDX 98 25 105 26 104 27 2 28 1 29 99 30 100 31 90 32 91 33 96 34
REMARK SMILES IDX 92 35 95 36 93 37 94 38 19 39 20 40 21 41 22 42 23 43 24 45
REMARK SMILES IDX 25 46 26 47 87 48 27 49 86 50 28 51 29 52 30 53 80 54 31 55
REMARK SMILES IDX 85 56 79 57 81 58 32 59 84 60 78 61 77 62 33 64 65 65 45 66
REMARK SMILES IDX 64 67 46 68 49 69 63 70 82 71 47 72 48 73 62 75 83 76 50 77
REMARK SMILES IDX 34 78 35 79 43 80 36 81 37 82 41 83 44 84 38 85 39 86 42 87
REMARK SMILES IDX 40 88 66 89 67 90 75 91 68 92 69 93 73 94 76 95 70 96 71 97
REMARK SMILES IDX 74 98 72 99 51 100 52 101 60 102 53 103 54 104 58 105 61 106
REMARK SMILES IDX 55 107 56 108 59 109 57 110
REMARK H PARENT 15 7 10 18 22 44 81 63 49 74
REMARK Flexibility Score: inf
ROOT
ATOM      1  C   UNL A   1      34.530  29.338  27.712  1.00  0.00     0.002 C 
ENDROOT
BRANCH   1   2
ATOM      2  C   UNL A   1      34.297  28.489  26.462  1.00  0.00     0.021 C 
BRANCH   2   3
ATOM      3  C   UNL A   1      32.825  28.409  26.039  1.00  0.00     0.116 C 
BRANCH   3   4
ATOM      4  N   UNL A   1      32.735  28.054  24.647  1.00  0.00    -0.352 N 
ATOM      5  C   UNL A   1      32.993  26.900  23.961  1.00  0.00     0.254 C 
ATOM      6  O   UNL A   1      32.823  26.969  22.740  1.00  0.00    -0.269 OA
ATOM      7  H   UNL A   1      32.427  28.791  24.072  1.00  0.00     0.163 HD
BRANCH   5   8
ATOM      8  C   UNL A   1      33.365  25.629  24.591  1.00  0.00     0.081 A 
ATOM      9  C   UNL A   1      33.274  22.276  26.238  1.00  0.00     0.082 C 
ATOM     10  C   UNL A   1      32.124  22.498  27.224  1.00  0.00     0.115 C 
ATOM     11  C   UNL A   1      33.604  23.554  25.520  1.00  0.00     0.055 A 
ATOM     12  C   UNL A   1      31.082  23.485  26.750  1.00  0.00     0.225 C 
ATOM     13  C   UNL A   1      32.744  24.628  25.396  1.00  0.00     0.076 A 
ATOM     14  N   UNL A   1      34.823  23.928  25.002  1.00  0.00    -0.317 N 
ATOM     15  O   UNL A   1      29.911  23.433  27.127  1.00  0.00    -0.275 OA
ATOM     16  N   UNL A   1      31.512  24.550  26.005  1.00  0.00    -0.324 N 
ATOM     17  C   UNL A   1      34.683  25.188  24.478  1.00  0.00     0.107 A 
ATOM     18  H   UNL A   1      30.899  25.312  25.897  1.00  0.00     0.170 HD
BRANCH   9  19
ATOM     19  C   UNL A   1      32.997  21.069  25.338  1.00  0.00     0.012 A 
ATOM     20  C   UNL A   1      33.052  18.612  25.193  1.00  0.00     0.165 A 
ATOM     21  C   UNL A   1      33.188  19.789  25.927  1.00  0.00     0.059 A 
ATOM     22  C   UNL A   1      32.650  18.724  23.878  1.00  0.00     0.211 A 
ATOM     23  C   UNL A   1      32.409  19.957  23.297  1.00  0.00     0.211 A 
ATOM     24  O   UNL A   1      32.418  17.695  23.015  1.00  0.00    -0.449 OA
ATOM     25  C   UNL A   1      32.569  21.151  23.994  1.00  0.00     0.168 A 
ATOM     26  O   UNL A   1      32.012  19.821  21.997  1.00  0.00    -0.449 OA
ATOM     27  C   UNL A   1      31.934  18.395  21.861  1.00  0.00     0.468 C 
BRANCH  20  28
ATOM     28  O   UNL A   1      33.294  17.460  25.880  1.00  0.00    -0.493 OA
ATOM     29  C   UNL A   1      34.212  16.572  25.249  1.00  0.00     0.278 C 
ENDBRANCH  20  28
BRANCH  25  30
ATOM     30  O   UNL A   1      32.353  22.403  23.501  1.00  0.00    -0.492 OA
ATOM     31  C   UNL A   1      32.923  22.758  22.250  1.00  0.00     0.278 C 
ENDBRANCH  25  30
ENDBRANCH   9  19
BRANCH  14  32
ATOM     32  C   UNL A   1      36.044  23.228  25.089  1.00  0.00     0.046 A 
ATOM     33  C   UNL A   1      36.215  22.025  24.400  1.00  0.00     0.029 A 
ATOM     34  C   UNL A   1      37.057  23.728  25.917  1.00  0.00     0.029 A 
ATOM     35  C   UNL A   1      37.368  21.270  24.604  1.00  0.00     0.041 A 
ATOM     36  C   UNL A   1      38.207  22.963  26.120  1.00  0.00     0.041 A 
ATOM     37  C   UNL A   1      38.344  21.737  25.476  1.00  0.00     0.123 A 
ATOM     38  F   UNL A   1      39.434  20.993  25.700  1.00  0.00    -0.207 F 
ENDBRANCH  14  32
ENDBRANCH   5   8
ENDBRANCH   3   4
ENDBRANCH   2   3
ENDBRANCH   1   2
BRANCH   1  39
ATOM     39  C   UNL A   1      35.666  30.364  27.578  1.00  0.00     0.002 C 
BRANCH  39  40
ATOM     40  C   UNL A   1      35.252  31.843  27.663  1.00  0.00     0.021 C 
BRANCH  40  41
ATOM     41  C   UNL A   1      36.164  32.666  28.560  1.00  0.00     0.116 C 
BRANCH  41  42
ATOM     42  N   UNL A   1      35.603  32.801  29.904  1.00  0.00    -0.352 N 
ATOM     43  C   UNL A   1      35.783  32.003  31.013  1.00  0.00     0.251 C 
ATOM     44  H   UNL A   1      35.012  33.577  30.035  1.00  0.00     0.163 HD
ATOM     45  O   UNL A   1      34.991  32.032  31.940  1.00  0.00    -0.269 OA
BRANCH  43  46
ATOM     46  C   UNL A   1      36.957  31.116  31.066  1.00  0.00     0.039 A 
ATOM     47  C   UNL A   1      36.830  29.746  30.822  1.00  0.00     0.014 A 
ATOM     48  C   UNL A   1      38.195  31.675  31.371  1.00  0.00     0.014 A 
ATOM     49  C   UNL A   1      37.977  28.958  30.822  1.00  0.00     0.010 A 
ATOM     50  C   UNL A   1      39.336  30.936  31.213  1.00  0.00     0.010 A 
ATOM     51  C   UNL A   1      39.228  29.568  31.002  1.00  0.00    -0.014 A 
BRANCH  51  52
ATOM     52  C   UNL A   1      40.459  28.810  30.848  1.00  0.00     0.031 A 
ATOM     53  C   UNL A   1      41.176  28.572  32.127  1.00  0.00     0.074 A 
ATOM     54  C   UNL A   1      40.808  28.198  29.696  1.00  0.00     0.049 A 
ATOM     55  N   UNL A   1      42.305  29.083  32.489  1.00  0.00    -0.248 NA
ATOM     56  C   UNL A   1      40.498  27.812  33.189  1.00  0.00     0.031 C 
ATOM     57  C   UNL A   1      40.037  28.091  28.451  1.00  0.00     0.029 A 
ATOM     58  N   UNL A   1      41.910  27.449  29.424  1.00  0.00    -0.354 N 
ATOM     59  C   UNL A   1      42.583  28.550  33.743  1.00  0.00     0.074 A 
ATOM     60  C   UNL A   1      41.363  27.937  34.200  1.00  0.00     0.031 C 
ATOM     61  C   UNL A   1      40.585  27.143  27.658  1.00  0.00     0.029 A 
ATOM     62  C   UNL A   1      41.828  26.695  28.259  1.00  0.00     0.049 A 
ATOM     63  H   UNL A   1      42.702  27.441  30.007  1.00  0.00     0.167 HD
ATOM     64  C   UNL A   1      43.870  28.442  34.174  1.00  0.00     0.037 A 
ATOM     65  C   UNL A   1      42.713  25.754  27.842  1.00  0.00     0.037 A 
ATOM     66  C   UNL A   1      44.750  29.241  33.355  1.00  0.00     0.049 A 
ATOM     67  C   UNL A   1      43.986  26.003  28.564  1.00  0.00     0.074 A 
ATOM     68  C   UNL A   1      44.847  30.587  33.059  1.00  0.00     0.029 A 
ATOM     69  N   UNL A   1      45.463  28.590  32.378  1.00  0.00    -0.354 N 
ATOM     70  N   UNL A   1      44.739  27.047  28.360  1.00  0.00    -0.248 NA
ATOM     71  C   UNL A   1      44.176  25.334  29.843  1.00  0.00     0.031 C 
ATOM     72  C   UNL A   1      45.195  30.636  31.677  1.00  0.00     0.029 A 
ATOM     73  C   UNL A   1      45.374  29.328  31.228  1.00  0.00     0.049 A 
ATOM     74  H   UNL A   1      45.953  27.743  32.487  1.00  0.00     0.167 HD
ATOM     75  C   UNL A   1      45.143  27.435  29.628  1.00  0.00     0.074 A 
ATOM     76  C   UNL A   1      44.843  26.294  30.491  1.00  0.00     0.031 C 
ATOM     77  C   UNL A   1      45.400  28.747  29.906  1.00  0.00     0.037 A 
BRANCH  64  78
ATOM     78  C   UNL A   1      44.401  27.331  35.047  1.00  0.00     0.064 A 
ATOM     79  C   UNL A   1      45.180  27.669  36.174  1.00  0.00     0.173 A 
ATOM     80  C   UNL A   1      44.455  25.976  34.658  1.00  0.00     0.173 A 
ATOM     81  F   UNL A   1      45.215  28.931  36.627  1.00  0.00    -0.203 F 
ATOM     82  C   UNL A   1      46.022  26.744  36.795  1.00  0.00     0.198 A 
ATOM     83  C   UNL A   1      45.254  25.042  35.316  1.00  0.00     0.198 A 
ATOM     84  F   UNL A   1      43.837  25.519  33.564  1.00  0.00    -0.203 F 
ATOM     85  F   UNL A   1      46.848  27.147  37.770  1.00  0.00    -0.200 F 
ATOM     86  C   UNL A   1      46.065  25.433  36.360  1.00  0.00     0.200 A 
ATOM     87  F   UNL A   1      45.297  23.780  34.866  1.00  0.00    -0.200 F 
ATOM     88  F   UNL A   1      46.920  24.560  36.908  1.00  0.00    -0.200 F 
ENDBRANCH  64  78
BRANCH  65  89
ATOM     89  C   UNL A   1      42.469  24.494  27.096  1.00  0.00     0.064 A 
ATOM     90  C   UNL A   1      42.977  24.313  25.797  1.00  0.00     0.173 A 
ATOM     91  C   UNL A   1      41.997  23.338  27.746  1.00  0.00     0.173 A 
ATOM     92  F   UNL A   1      43.482  25.354  25.120  1.00  0.00    -0.203 F 
ATOM     93  C   UNL A   1      43.048  23.048  25.203  1.00  0.00     0.198 A 
ATOM     94  C   UNL A   1      42.064  22.076  27.151  1.00  0.00     0.198 A 
ATOM     95  F   UNL A   1      41.557  23.392  29.012  1.00  0.00    -0.203 F 
ATOM     96  F   UNL A   1      43.605  22.907  23.992  1.00  0.00    -0.200 F 
ATOM     97  C   UNL A   1      42.604  21.929  25.887  1.00  0.00     0.200 A 
ATOM     98  F   UNL A   1      41.666  20.996  27.838  1.00  0.00    -0.200 F 
ATOM     99  F   UNL A   1      42.736  20.708  25.349  1.00  0.00    -0.200 F 
ENDBRANCH  65  89
BRANCH  77 100
ATOM    100  C   UNL A   1      45.514  29.701  28.749  1.00  0.00     0.064 A 
ATOM    101  C   UNL A   1      44.432  30.396  28.177  1.00  0.00     0.173 A 
ATOM    102  C   UNL A   1      46.798  30.025  28.292  1.00  0.00     0.173 A 
ATOM    103  F   UNL A   1      43.182  30.219  28.623  1.00  0.00    -0.203 F 
ATOM    104  C   UNL A   1      44.629  31.334  27.165  1.00  0.00     0.198 A 
ATOM    105  C   UNL A   1      46.995  30.991  27.310  1.00  0.00     0.198 A 
ATOM    106  F   UNL A   1      47.873  29.433  28.836  1.00  0.00    -0.203 F 
ATOM    107  F   UNL A   1      43.579  31.971  26.624  1.00  0.00    -0.200 F 
ATOM    108  C   UNL A   1      45.911  31.636  26.738  1.00  0.00     0.200 A 
ATOM    109  F   UNL A   1      48.241  31.314  26.937  1.00  0.00    -0.200 F 
ATOM    110  F   UNL A   1      46.105  32.567  25.793  1.00  0.00    -0.200 F 
ENDBRANCH  77 100
ENDBRANCH  51  52
ENDBRANCH  43  46
ENDBRANCH  41  42
ENDBRANCH  40  41
ENDBRANCH  39  40
ENDBRANCH   1  39
TORSDOF 17
ENDMDL
MODEL 2
REMARK VINA RESULT:     -12.4      5.514     10.463
REMARK SMILES COc1cc([C@@H]2CC(=O)Nc3c(C(=O)NCCCCCCNC(=O)c4ccc(-c5c6nc(c(-c7c(F)c(F)c(F)c(F)c7F)c7ccc([nH]7)c(-c7c(F)c(F)c(F)c(F)c7F)c7nc(c(-c8c(F)c(F)c(F)c(F)c8F)c8ccc5[nH]8)C=C7)C=C6)cc4)cn(-c4ccc(F)cc4)c32)c(OC)c2c1OCO2
REMARK SMILES IDX 18 1 17 2 16 3 15 4 13 5 14 6 12 8 6 9 7 10 97 11 8 12 11 13
REMARK SMILES IDX 89 14 9 15 10 16 88 17 5 19 3 20 4 21 102 22 101 23 103 24
REMARK SMILES IDX 98 25 105 26 104 27 2 28 1 29 99 30 100 31 90 32 91 33 96 34
REMARK SMILES IDX 92 35 95 36 93 37 94 38 19 39 20 40 21 41 22 42 23 43 24 45
REMARK SMILES IDX 25 46 26 47 87 48 27 49 86 50 28 51 29 52 30 53 80 54 31 55
REMARK SMILES IDX 85 56 79 57 81 58 32 59 84 60 78 61 77 62 33 64 65 65 45 66
REMARK SMILES IDX 64 67 46 68 49 69 63 70 82 71 47 72 48 73 62 75 83 76 50 77
REMARK SMILES IDX 34 78 35 79 43 80 36 81 37 82 41 83 44 84 38 85 39 86 42 87
REMARK SMILES IDX 40 88 66 89 67 90 75 91 68 92 69 93 73 94 76 95 70 96 71 97
REMARK SMILES IDX 74 98 72 99 51 100 52 101 60 102 53 103 54 104 58 105 61 106
REMARK SMILES IDX 55 107 56 108 59 109 57 110
REMARK H PARENT 15 7 10 18 22 44 81 63 49 74
REMARK Flexibility Score: inf
ROOT
ATOM      1  C   UNL A   1      47.118  32.777  27.898  1.00  0.00     0.002 C 
ENDROOT
BRANCH   1   2
ATOM      2  C   UNL A   1      46.223  31.756  28.603  1.00  0.00     0.021 C 
BRANCH   2   3
ATOM      3  C   UNL A   1      46.978  30.514  29.093  1.00  0.00     0.116 C 
BRANCH   3   4
ATOM      4  N   UNL A   1      47.561  29.823  27.972  1.00  0.00    -0.352 N 
ATOM      5  C   UNL A   1      47.254  28.651  27.339  1.00  0.00     0.254 C 
ATOM      6  O   UNL A   1      48.004  28.350  26.404  1.00  0.00    -0.269 OA
ATOM      7  H   UNL A   1      48.336  30.288  27.584  1.00  0.00     0.163 HD
BRANCH   5   8
ATOM      8  C   UNL A   1      46.087  27.821  27.654  1.00  0.00     0.081 A 
ATOM      9  C   UNL A   1      42.931  25.831  27.434  1.00  0.00     0.082 C 
ATOM     10  C   UNL A   1      42.115  26.734  26.504  1.00  0.00     0.115 C 
ATOM     11  C   UNL A   1      44.235  26.487  27.790  1.00  0.00     0.055 A 
ATOM     12  C   UNL A   1      42.947  27.532  25.527  1.00  0.00     0.225 C 
ATOM     13  C   UNL A   1      44.829  27.498  27.061  1.00  0.00     0.076 A 
ATOM     14  N   UNL A   1      44.971  26.309  28.940  1.00  0.00    -0.317 N 
ATOM     15  O   UNL A   1      42.503  27.903  24.439  1.00  0.00    -0.275 OA
ATOM     16  N   UNL A   1      44.170  27.974  25.951  1.00  0.00    -0.324 N 
ATOM     17  C   UNL A   1      46.061  27.138  28.869  1.00  0.00     0.107 A 
ATOM     18  H   UNL A   1      44.609  28.683  25.426  1.00  0.00     0.170 HD
BRANCH   9  19
ATOM     19  C   UNL A   1      43.042  24.416  26.862  1.00  0.00     0.012 A 
ATOM     20  C   UNL A   1      44.308  22.954  25.339  1.00  0.00     0.165 A 
ATOM     21  C   UNL A   1      44.140  24.173  25.992  1.00  0.00     0.059 A 
ATOM     22  C   UNL A   1      43.404  21.950  25.621  1.00  0.00     0.211 A 
ATOM     23  C   UNL A   1      42.356  22.147  26.504  1.00  0.00     0.211 A 
ATOM     24  O   UNL A   1      43.425  20.682  25.122  1.00  0.00    -0.449 OA
ATOM     25  C   UNL A   1      42.143  23.364  27.144  1.00  0.00     0.168 A 
ATOM     26  O   UNL A   1      41.602  21.015  26.635  1.00  0.00    -0.449 OA
ATOM     27  C   UNL A   1      42.337  20.078  25.834  1.00  0.00     0.468 C 
BRANCH  20  28
ATOM     28  O   UNL A   1      45.389  22.873  24.513  1.00  0.00    -0.493 OA
ATOM     29  C   UNL A   1      46.410  23.832  24.774  1.00  0.00     0.278 C 
ENDBRANCH  20  28
BRANCH  25  30
ATOM     30  O   UNL A   1      41.140  23.641  28.025  1.00  0.00    -0.492 OA
ATOM     31  C   UNL A   1      39.814  23.778  27.538  1.00  0.00     0.278 C 
ENDBRANCH  25  30
ENDBRANCH   9  19
BRANCH  14  32
ATOM     32  C   UNL A   1      44.632  25.525  30.063  1.00  0.00     0.046 A 
ATOM     33  C   UNL A   1      44.563  26.107  31.331  1.00  0.00     0.029 A 
ATOM     34  C   UNL A   1      44.423  24.151  29.895  1.00  0.00     0.029 A 
ATOM     35  C   UNL A   1      44.370  25.302  32.451  1.00  0.00     0.041 A 
ATOM     36  C   UNL A   1      44.234  23.350  31.022  1.00  0.00     0.041 A 
ATOM     37  C   UNL A   1      44.226  23.929  32.288  1.00  0.00     0.123 A 
ATOM     38  F   UNL A   1      44.077  23.152  33.368  1.00  0.00    -0.207 F 
ENDBRANCH  14  32
ENDBRANCH   5   8
ENDBRANCH   3   4
ENDBRANCH   2   3
ENDBRANCH   1   2
BRANCH   1  39
ATOM     39  C   UNL A   1      46.559  33.293  26.563  1.00  0.00     0.002 C 
BRANCH  39  40
ATOM     40  C   UNL A   1      46.976  34.719  26.164  1.00  0.00     0.021 C 
BRANCH  40  41
ATOM     41  C   UNL A   1      45.816  35.556  25.648  1.00  0.00     0.116 C 
BRANCH  41  42
ATOM     42  N   UNL A   1      45.810  36.885  26.256  1.00  0.00    -0.352 N 
ATOM     43  C   UNL A   1      44.931  37.427  27.170  1.00  0.00     0.251 C 
ATOM     44  H   UNL A   1      46.541  37.480  25.973  1.00  0.00     0.163 HD
ATOM     45  O   UNL A   1      44.842  38.634  27.313  1.00  0.00    -0.269 OA
BRANCH  43  46
ATOM     46  C   UNL A   1      44.102  36.519  27.980  1.00  0.00     0.039 A 
ATOM     47  C   UNL A   1      44.690  35.544  28.791  1.00  0.00     0.014 A 
ATOM     48  C   UNL A   1      42.717  36.651  27.915  1.00  0.00     0.014 A 
ATOM     49  C   UNL A   1      43.869  34.751  29.585  1.00  0.00     0.010 A 
ATOM     50  C   UNL A   1      41.923  35.987  28.810  1.00  0.00     0.010 A 
ATOM     51  C   UNL A   1      42.486  34.993  29.600  1.00  0.00    -0.014 A 
BRANCH  51  52
ATOM     52  C   UNL A   1      41.615  34.299  30.533  1.00  0.00     0.031 A 
ATOM     53  C   UNL A   1      42.245  34.029  31.851  1.00  0.00     0.074 A 
ATOM     54  C   UNL A   1      40.297  34.107  30.306  1.00  0.00     0.049 A 
ATOM     55  N   UNL A   1      42.586  32.879  32.326  1.00  0.00    -0.248 NA
ATOM     56  C   UNL A   1      42.695  35.168  32.667  1.00  0.00     0.031 C 
ATOM     57  C   UNL A   1      39.484  34.600  29.188  1.00  0.00     0.029 A 
ATOM     58  N   UNL A   1      39.373  33.497  31.095  1.00  0.00    -0.354 N 
ATOM     59  C   UNL A   1      43.107  33.125  33.591  1.00  0.00     0.074 A 
ATOM     60  C   UNL A   1      43.326  34.546  33.667  1.00  0.00     0.031 C 
ATOM     61  C   UNL A   1      38.172  34.469  29.489  1.00  0.00     0.029 A 
ATOM     62  C   UNL A   1      38.051  33.740  30.738  1.00  0.00     0.049 A 
ATOM     63  H   UNL A   1      39.621  32.928  31.859  1.00  0.00     0.167 HD
ATOM     64  C   UNL A   1      43.069  32.160  34.550  1.00  0.00     0.037 A 
ATOM     65  C   UNL A   1      36.946  33.384  31.441  1.00  0.00     0.037 A 
ATOM     66  C   UNL A   1      42.779  30.872  33.967  1.00  0.00     0.049 A 
ATOM     67  C   UNL A   1      37.353  32.303  32.375  1.00  0.00     0.074 A 
ATOM     68  C   UNL A   1      43.397  30.068  33.029  1.00  0.00     0.029 A 
ATOM     69  N   UNL A   1      41.484  30.421  34.051  1.00  0.00    -0.354 N 
ATOM     70  N   UNL A   1      37.700  31.108  31.987  1.00  0.00    -0.248 NA
ATOM     71  C   UNL A   1      37.826  32.697  33.693  1.00  0.00     0.031 C 
ATOM     72  C   UNL A   1      42.332  29.508  32.263  1.00  0.00     0.029 A 
ATOM     73  C   UNL A   1      41.127  29.930  32.824  1.00  0.00     0.049 A 
ATOM     74  H   UNL A   1      40.914  30.445  34.854  1.00  0.00     0.167 HD
ATOM     75  C   UNL A   1      38.792  30.792  32.780  1.00  0.00     0.074 A 
ATOM     76  C   UNL A   1      38.766  31.764  33.871  1.00  0.00     0.031 C 
ATOM     77  C   UNL A   1      39.776  29.968  32.314  1.00  0.00     0.037 A 
BRANCH  64  78
ATOM     78  C   UNL A   1      42.885  32.413  36.028  1.00  0.00     0.064 A 
ATOM     79  C   UNL A   1      43.791  31.823  36.934  1.00  0.00     0.173 A 
ATOM     80  C   UNL A   1      41.702  32.926  36.601  1.00  0.00     0.173 A 
ATOM     81  F   UNL A   1      44.944  31.292  36.499  1.00  0.00    -0.203 F 
ATOM     82  C   UNL A   1      43.488  31.670  38.288  1.00  0.00     0.198 A 
ATOM     83  C   UNL A   1      41.428  32.821  37.964  1.00  0.00     0.198 A 
ATOM     84  F   UNL A   1      40.713  33.441  35.864  1.00  0.00    -0.203 F 
ATOM     85  F   UNL A   1      44.316  30.977  39.081  1.00  0.00    -0.200 F 
ATOM     86  C   UNL A   1      42.303  32.161  38.801  1.00  0.00     0.200 A 
ATOM     87  F   UNL A   1      40.263  33.286  38.439  1.00  0.00    -0.200 F 
ATOM     88  F   UNL A   1      41.977  31.956  40.084  1.00  0.00    -0.200 F 
ENDBRANCH  64  78
BRANCH  65  89
ATOM     89  C   UNL A   1      35.647  34.089  31.577  1.00  0.00     0.064 A 
ATOM     90  C   UNL A   1      35.450  35.053  32.582  1.00  0.00     0.173 A 
ATOM     91  C   UNL A   1      34.685  34.056  30.550  1.00  0.00     0.173 A 
ATOM     92  F   UNL A   1      36.339  35.181  33.577  1.00  0.00    -0.203 F 
ATOM     93  C   UNL A   1      34.380  35.954  32.539  1.00  0.00     0.198 A 
ATOM     94  C   UNL A   1      33.615  34.953  30.510  1.00  0.00     0.198 A 
ATOM     95  F   UNL A   1      34.819  33.221  29.509  1.00  0.00    -0.203 F 
ATOM     96  F   UNL A   1      34.268  36.905  33.477  1.00  0.00    -0.200 F 
ATOM     97  C   UNL A   1      33.472  35.912  31.495  1.00  0.00     0.200 A 
ATOM     98  F   UNL A   1      32.763  34.926  29.475  1.00  0.00    -0.200 F 
ATOM     99  F   UNL A   1      32.488  36.819  31.415  1.00  0.00    -0.200 F 
ENDBRANCH  65  89
BRANCH  77 100
ATOM    100  C   UNL A   1      39.507  29.196  31.052  1.00  0.00     0.064 A 
ATOM    101  C   UNL A   1      39.799  29.657  29.755  1.00  0.00     0.173 A 
ATOM    102  C   UNL A   1      39.057  27.875  31.177  1.00  0.00     0.173 A 
ATOM    103  F   UNL A   1      40.325  30.872  29.555  1.00  0.00    -0.203 F 
ATOM    104  C   UNL A   1      39.605  28.846  28.638  1.00  0.00     0.198 A 
ATOM    105  C   UNL A   1      38.903  27.054  30.064  1.00  0.00     0.198 A 
ATOM    106  F   UNL A   1      38.812  27.361  32.393  1.00  0.00    -0.203 F 
ATOM    107  F   UNL A   1      39.875  29.315  27.411  1.00  0.00    -0.200 F 
ATOM    108  C   UNL A   1      39.164  27.543  28.794  1.00  0.00     0.200 A 
ATOM    109  F   UNL A   1      38.524  25.779  30.227  1.00  0.00    -0.200 F 
ATOM    110  F   UNL A   1      39.015  26.749  27.725  1.00  0.00    -0.200 F 
ENDBRANCH  77 100
ENDBRANCH  51  52
ENDBRANCH  43  46
ENDBRANCH  41  42
ENDBRANCH  40  41
ENDBRANCH  39  40
ENDBRANCH   1  39
TORSDOF 17
ENDMDL
MODEL 3
REMARK VINA RESULT:     -12.3      1.690      2.163
REMARK SMILES COc1cc([C@@H]2CC(=O)Nc3c(C(=O)NCCCCCCNC(=O)c4ccc(-c5c6nc(c(-c7c(F)c(F)c(F)c(F)c7F)c7ccc([nH]7)c(-c7c(F)c(F)c(F)c(F)c7F)c7nc(c(-c8c(F)c(F)c(F)c(F)c8F)c8ccc5[nH]8)C=C7)C=C6)cc4)cn(-c4ccc(F)cc4)c32)c(OC)c2c1OCO2
REMARK SMILES IDX 18 1 17 2 16 3 15 4 13 5 14 6 12 8 6 9 7 10 97 11 8 12 11 13
REMARK SMILES IDX 89 14 9 15 10 16 88 17 5 19 3 20 4 21 102 22 101 23 103 24
REMARK SMILES IDX 98 25 105 26 104 27 2 28 1 29 99 30 100 31 90 32 91 33 96 34
REMARK SMILES IDX 92 35 95 36 93 37 94 38 19 39 20 40 21 41 22 42 23 43 24 45
REMARK SMILES IDX 25 46 26 47 87 48 27 49 86 50 28 51 29 52 30 53 80 54 31 55
REMARK SMILES IDX 85 56 79 57 81 58 32 59 84 60 78 61 77 62 33 64 65 65 45 66
REMARK SMILES IDX 64 67 46 68 49 69 63 70 82 71 47 72 48 73 62 75 83 76 50 77
REMARK SMILES IDX 34 78 35 79 43 80 36 81 37 82 41 83 44 84 38 85 39 86 42 87
REMARK SMILES IDX 40 88 66 89 67 90 75 91 68 92 69 93 73 94 76 95 70 96 71 97
REMARK SMILES IDX 74 98 72 99 51 100 52 101 60 102 53 103 54 104 58 105 61 106
REMARK SMILES IDX 55 107 56 108 59 109 57 110
REMARK H PARENT 15 7 10 18 22 44 81 63 49 74
REMARK Flexibility Score: inf
ROOT
ATOM      1  C   UNL A   1      35.300  30.347  28.277  1.00  0.00     0.002 C 
ENDROOT
BRANCH   1   2
ATOM      2  C   UNL A   1      35.104  29.300  27.180  1.00  0.00     0.021 C 
BRANCH   2   3
ATOM      3  C   UNL A   1      33.715  28.651  27.192  1.00  0.00     0.116 C 
BRANCH   3   4
ATOM      4  N   UNL A   1      33.244  28.481  25.842  1.00  0.00    -0.352 N 
ATOM      5  C   UNL A   1      33.130  27.390  25.025  1.00  0.00     0.254 C 
ATOM      6  O   UNL A   1      32.696  27.628  23.894  1.00  0.00    -0.269 OA
ATOM      7  H   UNL A   1      32.945  29.319  25.421  1.00  0.00     0.163 HD
BRANCH   5   8
ATOM      8  C   UNL A   1      33.409  26.012  25.442  1.00  0.00     0.081 A 
ATOM      9  C   UNL A   1      33.080  22.429  26.449  1.00  0.00     0.082 C 
ATOM     10  C   UNL A   1      31.862  22.526  27.373  1.00  0.00     0.115 C 
ATOM     11  C   UNL A   1      33.506  23.797  25.997  1.00  0.00     0.055 A 
ATOM     12  C   UNL A   1      30.894  23.628  27.010  1.00  0.00     0.225 C 
ATOM     13  C   UNL A   1      32.694  24.914  26.007  1.00  0.00     0.076 A 
ATOM     14  N   UNL A   1      34.775  24.200  25.645  1.00  0.00    -0.317 N 
ATOM     15  O   UNL A   1      29.695  23.564  27.285  1.00  0.00    -0.275 OA
ATOM     16  N   UNL A   1      31.417  24.786  26.501  1.00  0.00    -0.324 N 
ATOM     17  C   UNL A   1      34.718  25.538  25.347  1.00  0.00     0.107 A 
ATOM     18  H   UNL A   1      30.838  25.583  26.487  1.00  0.00     0.170 HD
BRANCH   9  19
ATOM     19  C   UNL A   1      32.837  21.413  25.330  1.00  0.00     0.012 A 
ATOM     20  C   UNL A   1      32.955  19.034  24.709  1.00  0.00     0.165 A 
ATOM     21  C   UNL A   1      33.058  20.048  25.659  1.00  0.00     0.059 A 
ATOM     22  C   UNL A   1      32.554  19.390  23.438  1.00  0.00     0.211 A 
ATOM     23  C   UNL A   1      32.282  20.706  23.106  1.00  0.00     0.211 A 
ATOM     24  O   UNL A   1      32.350  18.543  22.389  1.00  0.00    -0.449 OA
ATOM     25  C   UNL A   1      32.410  21.745  24.024  1.00  0.00     0.168 A 
ATOM     26  O   UNL A   1      31.893  20.817  21.802  1.00  0.00    -0.449 OA
ATOM     27  C   UNL A   1      31.852  19.442  21.390  1.00  0.00     0.468 C 
BRANCH  20  28
ATOM     28  O   UNL A   1      33.224  17.776  25.160  1.00  0.00    -0.493 OA
ATOM     29  C   UNL A   1      34.432  17.210  24.660  1.00  0.00     0.278 C 
ENDBRANCH  20  28
BRANCH  25  30
ATOM     30  O   UNL A   1      32.164  23.063  23.782  1.00  0.00    -0.492 OA
ATOM     31  C   UNL A   1      30.873  23.452  23.336  1.00  0.00     0.278 C 
ENDBRANCH  25  30
ENDBRANCH   9  19
BRANCH  14  32
ATOM     32  C   UNL A   1      35.962  23.440  25.693  1.00  0.00     0.046 A 
ATOM     33  C   UNL A   1      37.103  23.958  26.309  1.00  0.00     0.029 A 
ATOM     34  C   UNL A   1      35.993  22.188  25.067  1.00  0.00     0.029 A 
ATOM     35  C   UNL A   1      38.308  23.263  26.227  1.00  0.00     0.041 A 
ATOM     36  C   UNL A   1      37.205  21.500  24.985  1.00  0.00     0.041 A 
ATOM     37  C   UNL A   1      38.352  22.051  25.550  1.00  0.00     0.123 A 
ATOM     38  F   UNL A   1      39.518  21.402  25.440  1.00  0.00    -0.207 F 
ENDBRANCH  14  32
ENDBRANCH   5   8
ENDBRANCH   3   4
ENDBRANCH   2   3
ENDBRANCH   1   2
BRANCH   1  39
ATOM     39  C   UNL A   1      35.289  31.799  27.776  1.00  0.00     0.002 C 
BRANCH  39  40
ATOM     40  C   UNL A   1      34.181  32.700  28.348  1.00  0.00     0.021 C 
BRANCH  40  41
ATOM     41  C   UNL A   1      34.691  34.064  28.786  1.00  0.00     0.116 C 
BRANCH  41  42
ATOM     42  N   UNL A   1      34.211  34.405  30.124  1.00  0.00    -0.352 N 
ATOM     43  C   UNL A   1      34.526  33.837  31.340  1.00  0.00     0.251 C 
ATOM     44  H   UNL A   1      33.568  35.150  30.162  1.00  0.00     0.163 HD
ATOM     45  O   UNL A   1      33.798  33.982  32.306  1.00  0.00    -0.269 OA
BRANCH  43  46
ATOM     46  C   UNL A   1      35.769  33.056  31.456  1.00  0.00     0.039 A 
ATOM     47  C   UNL A   1      35.731  31.665  31.585  1.00  0.00     0.014 A 
ATOM     48  C   UNL A   1      36.983  33.738  31.441  1.00  0.00     0.014 A 
ATOM     49  C   UNL A   1      36.932  30.965  31.629  1.00  0.00     0.010 A 
ATOM     50  C   UNL A   1      38.156  33.043  31.323  1.00  0.00     0.010 A 
ATOM     51  C   UNL A   1      38.140  31.664  31.479  1.00  0.00    -0.014 A 
BRANCH  51  52
ATOM     52  C   UNL A   1      39.404  30.956  31.358  1.00  0.00     0.031 A 
ATOM     53  C   UNL A   1      40.068  30.694  32.660  1.00  0.00     0.074 A 
ATOM     54  C   UNL A   1      39.829  30.402  30.202  1.00  0.00     0.049 A 
ATOM     55  N   UNL A   1      41.158  31.230  33.096  1.00  0.00    -0.248 NA
ATOM     56  C   UNL A   1      39.369  29.870  33.659  1.00  0.00     0.031 C 
ATOM     57  C   UNL A   1      39.123  30.316  28.918  1.00  0.00     0.029 A 
ATOM     58  N   UNL A   1      40.970  29.704  29.957  1.00  0.00    -0.354 N 
ATOM     59  C   UNL A   1      41.397  30.659  34.341  1.00  0.00     0.074 A 
ATOM     60  C   UNL A   1      40.180  29.987  34.715  1.00  0.00     0.031 C 
ATOM     61  C   UNL A   1      39.742  29.419  28.118  1.00  0.00     0.029 A 
ATOM     62  C   UNL A   1      40.972  28.993  28.762  1.00  0.00     0.049 A 
ATOM     63  H   UNL A   1      41.734  29.702  30.577  1.00  0.00     0.167 HD
ATOM     64  C   UNL A   1      42.665  30.581  34.830  1.00  0.00     0.037 A 
ATOM     65  C   UNL A   1      41.910  28.101  28.353  1.00  0.00     0.037 A 
ATOM     66  C   UNL A   1      43.553  31.441  34.085  1.00  0.00     0.049 A 
ATOM     67  C   UNL A   1      43.137  28.366  29.146  1.00  0.00     0.074 A 
ATOM     68  C   UNL A   1      43.614  32.800  33.844  1.00  0.00     0.029 A 
ATOM     69  N   UNL A   1      44.335  30.855  33.121  1.00  0.00    -0.354 N 
ATOM     70  N   UNL A   1      43.859  29.444  29.018  1.00  0.00    -0.248 NA
ATOM     71  C   UNL A   1      43.291  27.656  30.407  1.00  0.00     0.031 C 
ATOM     72  C   UNL A   1      44.025  32.916  32.484  1.00  0.00     0.029 A 
ATOM     73  C   UNL A   1      44.273  31.632  31.996  1.00  0.00     0.049 A 
ATOM     74  H   UNL A   1      44.851  30.022  33.221  1.00  0.00     0.167 HD
ATOM     75  C   UNL A   1      44.188  29.796  30.317  1.00  0.00     0.074 A 
ATOM     76  C   UNL A   1      43.890  28.612  31.121  1.00  0.00     0.031 C 
ATOM     77  C   UNL A   1      44.383  31.105  30.656  1.00  0.00     0.037 A 
BRANCH  64  78
ATOM     78  C   UNL A   1      43.195  29.456  35.686  1.00  0.00     0.064 A 
ATOM     79  C   UNL A   1      43.918  29.777  36.855  1.00  0.00     0.173 A 
ATOM     80  C   UNL A   1      43.306  28.117  35.254  1.00  0.00     0.173 A 
ATOM     81  F   UNL A   1      43.896  31.023  37.351  1.00  0.00    -0.203 F 
ATOM     82  C   UNL A   1      44.763  28.856  37.478  1.00  0.00     0.198 A 
ATOM     83  C   UNL A   1      44.107  27.185  35.912  1.00  0.00     0.198 A 
ATOM     84  F   UNL A   1      42.746  27.681  34.121  1.00  0.00    -0.203 F 
ATOM     85  F   UNL A   1      45.537  29.249  38.498  1.00  0.00    -0.200 F 
ATOM     86  C   UNL A   1      44.863  27.563  37.001  1.00  0.00     0.200 A 
ATOM     87  F   UNL A   1      44.207  25.941  35.423  1.00  0.00    -0.200 F 
ATOM     88  F   UNL A   1      45.723  26.697  37.554  1.00  0.00    -0.200 F 
ENDBRANCH  64  78
BRANCH  65  89
ATOM     89  C   UNL A   1      41.748  26.863  27.550  1.00  0.00     0.064 A 
ATOM     90  C   UNL A   1      42.442  26.692  26.339  1.00  0.00     0.173 A 
ATOM     91  C   UNL A   1      41.153  25.709  28.095  1.00  0.00     0.173 A 
ATOM     92  F   UNL A   1      43.072  27.729  25.770  1.00  0.00    -0.203 F 
ATOM     93  C   UNL A   1      42.569  25.436  25.734  1.00  0.00     0.198 A 
ATOM     94  C   UNL A   1      41.276  24.457  27.488  1.00  0.00     0.198 A 
ATOM     95  F   UNL A   1      40.528  25.753  29.281  1.00  0.00    -0.203 F 
ATOM     96  F   UNL A   1      43.299  25.302  24.618  1.00  0.00    -0.200 F 
ATOM     97  C   UNL A   1      41.998  24.318  26.317  1.00  0.00     0.200 A 
ATOM     98  F   UNL A   1      40.750  23.377  28.082  1.00  0.00    -0.200 F 
ATOM     99  F   UNL A   1      42.177  23.104  25.777  1.00  0.00    -0.200 F 
ENDBRANCH  65  89
BRANCH  77 100
ATOM    100  C   UNL A   1      44.516  32.106  29.542  1.00  0.00     0.064 A 
ATOM    101  C   UNL A   1      43.468  32.916  29.066  1.00  0.00     0.173 A 
ATOM    102  C   UNL A   1      45.797  32.349  29.030  1.00  0.00     0.173 A 
ATOM    103  F   UNL A   1      42.232  32.817  29.573  1.00  0.00    -0.203 F 
ATOM    104  C   UNL A   1      43.689  33.887  28.091  1.00  0.00     0.198 A 
ATOM    105  C   UNL A   1      46.023  33.347  28.086  1.00  0.00     0.198 A 
ATOM    106  F   UNL A   1      46.846  31.645  29.483  1.00  0.00    -0.203 F 
ATOM    107  F   UNL A   1      42.670  34.635  27.642  1.00  0.00    -0.200 F 
ATOM    108  C   UNL A   1      44.968  34.107  27.608  1.00  0.00     0.200 A 
ATOM    109  F   UNL A   1      47.271  33.588  27.661  1.00  0.00    -0.200 F 
ATOM    110  F   UNL A   1      45.190  35.067  26.701  1.00  0.00    -0.200 F 
ENDBRANCH  77 100
ENDBRANCH  51  52
ENDBRANCH  43  46
ENDBRANCH  41  42
ENDBRANCH  40  41
ENDBRANCH  39  40
ENDBRANCH   1  39
TORSDOF 17
ENDMDL
