MODEL 1
REMARK VINA RESULT:     -11.6      0.000      0.000
REMARK SMILES Cc1nsc(N(C)S(=O)(=O)c2cn[nH]c2C)c1C(=O)NCCCCCCNC(=O)c1ccc(-c2c3nc(c(-c4c(F)c(F)c(F)c(F)c4F)c4ccc([nH]4)c(-c4c(F)c(F)c(F)c(F)c4F)c4nc(c(-c5c(F)c(F)c(F)c(F)c5F)c5ccc2[nH]5)C=C4)C=C3)cc1
REMARK SMILES IDX 23 1 22 2 21 3 20 4 18 5 19 6 17 8 1 9 2 10 3 11 4 12 5 13
REMARK SMILES IDX 6 14 7 15 8 16 9 17 10 18 11 19 12 20 15 21 13 22 14 23
REMARK SMILES IDX 16 24 24 26 25 27 26 28 27 29 28 30 29 32 30 33 31 34 92 35
REMARK SMILES IDX 32 36 91 37 33 38 34 39 35 40 85 41 36 42 90 43 84 44 86 45
REMARK SMILES IDX 37 46 89 47 83 48 82 49 38 51 70 52 50 53 69 54 51 55 54 56
REMARK SMILES IDX 68 57 87 58 52 59 53 60 67 62 88 63 55 64 39 65 40 66 48 67
REMARK SMILES IDX 41 68 42 69 46 70 49 71 43 72 44 73 47 74 45 75 71 76 72 77
REMARK SMILES IDX 80 78 73 79 74 80 78 81 81 82 75 83 76 84 79 85 77 86 56 87
REMARK SMILES IDX 57 88 65 89 58 90 59 91 63 92 66 93 60 94 61 95 64 96 62 97
REMARK H PARENT 20 7 14 25 27 31 86 50 54 61
REMARK Flexibility Score: inf
ROOT
ATOM      1  C   UNL A   1      39.665  21.114  25.771  1.00  0.00     0.002 C 
ENDROOT
BRANCH   1   2
ATOM      2  C   UNL A   1      39.294  22.529  26.224  1.00  0.00     0.021 C 
BRANCH   2   3
ATOM      3  C   UNL A   1      37.842  22.969  26.107  1.00  0.00     0.116 C 
BRANCH   3   4
ATOM      4  N   UNL A   1      37.448  23.274  24.764  1.00  0.00    -0.352 N 
ATOM      5  C   UNL A   1      36.501  22.824  23.888  1.00  0.00     0.256 C 
ATOM      6  O   UNL A   1      36.794  23.206  22.759  1.00  0.00    -0.269 OA
ATOM      7  H   UNL A   1      37.999  23.989  24.372  1.00  0.00     0.163 HD
BRANCH   5   8
ATOM      8  C   UNL A   1      35.287  22.039  24.202  1.00  0.00     0.098 A 
ATOM      9  C   UNL A   1      36.365  19.671  24.996  1.00  0.00     0.069 C 
ATOM     10  C   UNL A   1      35.264  20.624  24.659  1.00  0.00     0.066 A 
ATOM     11  N   UNL A   1      34.072  20.069  24.833  1.00  0.00    -0.195 NA
ATOM     12  S   UNL A   1      32.918  21.165  24.591  1.00  0.00    -0.017 S 
ATOM     13  C   UNL A   1      33.942  22.530  24.252  1.00  0.00     0.138 A 
BRANCH  13  14
ATOM     14  N   UNL A   1      33.254  23.837  24.063  1.00  0.00    -0.258 N 
ATOM     15  C   UNL A   1      31.976  23.937  23.338  1.00  0.00     0.165 C 
BRANCH  14  16
ATOM     16  S   UNL A   1      33.777  25.225  24.861  1.00  0.00     0.268 S 
ATOM     17  O   UNL A   1      34.653  24.809  25.934  1.00  0.00    -0.201 OA
ATOM     18  O   UNL A   1      34.105  26.193  23.826  1.00  0.00    -0.201 OA
BRANCH  16  19
ATOM     19  C   UNL A   1      32.649  26.146  25.793  1.00  0.00     0.128 A 
ATOM     20  C   UNL A   1      31.347  25.874  26.227  1.00  0.00     0.157 A 
ATOM     21  C   UNL A   1      32.960  27.364  26.389  1.00  0.00     0.053 A 
ATOM     22  N   UNL A   1      30.851  26.837  27.013  1.00  0.00    -0.183 NA
ATOM     23  N   UNL A   1      31.855  27.725  27.102  1.00  0.00    -0.281 N 
ATOM     24  C   UNL A   1      34.193  28.191  26.369  1.00  0.00     0.067 C 
ATOM     25  H   UNL A   1      31.798  28.554  27.629  1.00  0.00     0.190 HD
ENDBRANCH  16  19
ENDBRANCH  14  16
ENDBRANCH  13  14
ENDBRANCH   5   8
ENDBRANCH   3   4
ENDBRANCH   2   3
ENDBRANCH   1   2
BRANCH   1  26
ATOM     26  C   UNL A   1      40.767  20.351  26.518  1.00  0.00     0.002 C 
BRANCH  26  27
ATOM     27  C   UNL A   1      41.536  19.249  25.780  1.00  0.00     0.021 C 
BRANCH  27  28
ATOM     28  C   UNL A   1      43.004  19.135  26.140  1.00  0.00     0.116 C 
BRANCH  28  29
ATOM     29  N   UNL A   1      43.910  19.417  25.024  1.00  0.00    -0.352 N 
ATOM     30  C   UNL A   1      44.260  20.654  24.510  1.00  0.00     0.251 C 
ATOM     31  H   UNL A   1      44.317  18.634  24.588  1.00  0.00     0.163 HD
ATOM     32  O   UNL A   1      44.703  20.776  23.375  1.00  0.00    -0.269 OA
BRANCH  30  33
ATOM     33  C   UNL A   1      44.099  21.835  25.375  1.00  0.00     0.039 A 
ATOM     34  C   UNL A   1      45.013  22.176  26.374  1.00  0.00     0.014 A 
ATOM     35  C   UNL A   1      42.997  22.640  25.117  1.00  0.00     0.014 A 
ATOM     36  C   UNL A   1      44.826  23.374  27.061  1.00  0.00     0.010 A 
ATOM     37  C   UNL A   1      42.970  23.915  25.592  1.00  0.00     0.010 A 
ATOM     38  C   UNL A   1      43.800  24.240  26.649  1.00  0.00    -0.014 A 
BRANCH  38  39
ATOM     39  C   UNL A   1      43.564  25.526  27.276  1.00  0.00     0.031 A 
ATOM     40  C   UNL A   1      44.519  26.590  26.900  1.00  0.00     0.074 A 
ATOM     41  C   UNL A   1      42.447  25.788  27.990  1.00  0.00     0.049 A 
ATOM     42  N   UNL A   1      45.436  27.103  27.646  1.00  0.00    -0.248 NA
ATOM     43  C   UNL A   1      44.557  27.043  25.503  1.00  0.00     0.031 C 
ATOM     44  C   UNL A   1      41.259  24.951  28.214  1.00  0.00     0.029 A 
ATOM     45  N   UNL A   1      42.115  26.940  28.625  1.00  0.00    -0.354 N 
ATOM     46  C   UNL A   1      46.058  28.079  26.878  1.00  0.00     0.074 A 
ATOM     47  C   UNL A   1      45.597  27.880  25.527  1.00  0.00     0.031 C 
ATOM     48  C   UNL A   1      40.266  25.697  28.748  1.00  0.00     0.029 A 
ATOM     49  C   UNL A   1      40.802  27.005  29.068  1.00  0.00     0.049 A 
ATOM     50  H   UNL A   1      42.758  27.674  28.763  1.00  0.00     0.167 HD
ATOM     51  C   UNL A   1      46.726  29.107  27.474  1.00  0.00     0.037 A 
ATOM     52  C   UNL A   1      40.207  28.072  29.655  1.00  0.00     0.037 A 
ATOM     53  C   UNL A   1      46.970  28.822  28.868  1.00  0.00     0.049 A 
ATOM     54  C   UNL A   1      41.294  28.918  30.210  1.00  0.00     0.074 A 
ATOM     55  C   UNL A   1      47.667  27.840  29.546  1.00  0.00     0.029 A 
ATOM     56  N   UNL A   1      46.120  29.375  29.796  1.00  0.00    -0.354 N 
ATOM     57  N   UNL A   1      42.060  28.541  31.199  1.00  0.00    -0.248 NA
ATOM     58  C   UNL A   1      41.851  29.952  29.350  1.00  0.00     0.031 C 
ATOM     59  C   UNL A   1      46.851  27.521  30.673  1.00  0.00     0.029 A 
ATOM     60  C   UNL A   1      45.747  28.374  30.657  1.00  0.00     0.049 A 
ATOM     61  H   UNL A   1      45.831  30.316  29.836  1.00  0.00     0.167 HD
ATOM     62  C   UNL A   1      43.333  28.958  30.841  1.00  0.00     0.074 A 
ATOM     63  C   UNL A   1      43.131  29.890  29.731  1.00  0.00     0.031 C 
ATOM     64  C   UNL A   1      44.445  28.294  31.277  1.00  0.00     0.037 A 
BRANCH  51  65
ATOM     65  C   UNL A   1      46.835  30.503  26.916  1.00  0.00     0.064 A 
ATOM     66  C   UNL A   1      48.088  31.149  26.940  1.00  0.00     0.173 A 
ATOM     67  C   UNL A   1      45.728  31.333  26.647  1.00  0.00     0.173 A 
ATOM     68  F   UNL A   1      49.209  30.455  27.189  1.00  0.00    -0.203 F 
ATOM     69  C   UNL A   1      48.207  32.533  26.807  1.00  0.00     0.198 A 
ATOM     70  C   UNL A   1      45.857  32.709  26.460  1.00  0.00     0.198 A 
ATOM     71  F   UNL A   1      44.469  30.879  26.667  1.00  0.00    -0.203 F 
ATOM     72  F   UNL A   1      49.402  33.117  26.974  1.00  0.00    -0.200 F 
ATOM     73  C   UNL A   1      47.090  33.314  26.578  1.00  0.00     0.200 A 
ATOM     74  F   UNL A   1      44.759  33.450  26.253  1.00  0.00    -0.200 F 
ATOM     75  F   UNL A   1      47.191  34.648  26.519  1.00  0.00    -0.200 F 
ENDBRANCH  51  65
BRANCH  52  76
ATOM     76  C   UNL A   1      38.814  28.544  29.485  1.00  0.00     0.064 A 
ATOM     77  C   UNL A   1      37.984  28.785  30.592  1.00  0.00     0.173 A 
ATOM     78  C   UNL A   1      38.361  29.038  28.245  1.00  0.00     0.173 A 
ATOM     79  F   UNL A   1      38.363  28.387  31.815  1.00  0.00    -0.203 F 
ATOM     80  C   UNL A   1      36.787  29.499  30.469  1.00  0.00     0.198 A 
ATOM     81  C   UNL A   1      37.165  29.748  28.124  1.00  0.00     0.198 A 
ATOM     82  F   UNL A   1      39.118  28.926  27.143  1.00  0.00    -0.203 F 
ATOM     83  F   UNL A   1      36.050  29.762  31.559  1.00  0.00    -0.200 F 
ATOM     84  C   UNL A   1      36.384  29.990  29.239  1.00  0.00     0.200 A 
ATOM     85  F   UNL A   1      36.809  30.251  26.934  1.00  0.00    -0.200 F 
ATOM     86  F   UNL A   1      35.271  30.729  29.132  1.00  0.00    -0.200 F 
ENDBRANCH  52  76
BRANCH  64  87
ATOM     87  C   UNL A   1      44.256  27.232  32.327  1.00  0.00     0.064 A 
ATOM     88  C   UNL A   1      44.177  25.856  32.047  1.00  0.00     0.173 A 
ATOM     89  C   UNL A   1      44.306  27.607  33.675  1.00  0.00     0.173 A 
ATOM     90  F   UNL A   1      44.227  25.405  30.790  1.00  0.00    -0.203 F 
ATOM     91  C   UNL A   1      44.106  24.908  33.065  1.00  0.00     0.198 A 
ATOM     92  C   UNL A   1      44.270  26.655  34.692  1.00  0.00     0.198 A 
ATOM     93  F   UNL A   1      44.442  28.900  34.006  1.00  0.00    -0.203 F 
ATOM     94  F   UNL A   1      44.022  23.602  32.765  1.00  0.00    -0.200 F 
ATOM     95  C   UNL A   1      44.159  25.308  34.389  1.00  0.00     0.200 A 
ATOM     96  F   UNL A   1      44.371  27.046  35.971  1.00  0.00    -0.200 F 
ATOM     97  F   UNL A   1      44.131  24.396  35.370  1.00  0.00    -0.200 F 
ENDBRANCH  64  87
ENDBRANCH  38  39
ENDBRANCH  30  33
ENDBRANCH  28  29
ENDBRANCH  27  28
ENDBRANCH  26  27
ENDBRANCH   1  26
TORSDOF 16
ENDMDL
MODEL 2
REMARK VINA RESULT:     -11.6      1.361      2.314
REMARK SMILES Cc1nsc(N(C)S(=O)(=O)c2cn[nH]c2C)c1C(=O)NCCCCCCNC(=O)c1ccc(-c2c3nc(c(-c4c(F)c(F)c(F)c(F)c4F)c4ccc([nH]4)c(-c4c(F)c(F)c(F)c(F)c4F)c4nc(c(-c5c(F)c(F)c(F)c(F)c5F)c5ccc2[nH]5)C=C4)C=C3)cc1
REMARK SMILES IDX 23 1 22 2 21 3 20 4 18 5 19 6 17 8 1 9 2 10 3 11 4 12 5 13
REMARK SMILES IDX 6 14 7 15 8 16 9 17 10 18 11 19 12 20 15 21 13 22 14 23
REMARK SMILES IDX 16 24 24 26 25 27 26 28 27 29 28 30 29 32 30 33 31 34 92 35
REMARK SMILES IDX 32 36 91 37 33 38 34 39 35 40 85 41 36 42 90 43 84 44 86 45
REMARK SMILES IDX 37 46 89 47 83 48 82 49 38 51 70 52 50 53 69 54 51 55 54 56
REMARK SMILES IDX 68 57 87 58 52 59 53 60 67 62 88 63 55 64 39 65 40 66 48 67
REMARK SMILES IDX 41 68 42 69 46 70 49 71 43 72 44 73 47 74 45 75 71 76 72 77
REMARK SMILES IDX 80 78 73 79 74 80 78 81 81 82 75 83 76 84 79 85 77 86 56 87
REMARK SMILES IDX 57 88 65 89 58 90 59 91 63 92 66 93 60 94 61 95 64 96 62 97
REMARK H PARENT 20 7 14 25 27 31 86 50 54 61
REMARK Flexibility Score: inf
ROOT
ATOM      1  C   UNL A   1      40.136  21.766  26.157  1.00  0.00     0.002 C 
ENDROOT
BRANCH   1   2
ATOM      2  C   UNL A   1      38.617  21.792  25.968  1.00  0.00     0.021 C 
BRANCH   2   3
ATOM      3  C   UNL A   1      37.934  23.139  25.776  1.00  0.00     0.116 C 
BRANCH   3   4
ATOM      4  N   UNL A   1      37.425  23.333  24.451  1.00  0.00    -0.352 N 
ATOM      5  C   UNL A   1      36.324  22.930  23.749  1.00  0.00     0.256 C 
ATOM      6  O   UNL A   1      36.527  23.121  22.554  1.00  0.00    -0.269 OA
ATOM      7  H   UNL A   1      38.017  23.902  23.908  1.00  0.00     0.163 HD
BRANCH   5   8
ATOM      8  C   UNL A   1      35.062  22.384  24.293  1.00  0.00     0.098 A 
ATOM      9  C   UNL A   1      35.789  19.833  24.896  1.00  0.00     0.069 C 
ATOM     10  C   UNL A   1      34.850  20.988  24.762  1.00  0.00     0.066 A 
ATOM     11  N   UNL A   1      33.628  20.668  25.162  1.00  0.00    -0.195 NA
ATOM     12  S   UNL A   1      32.683  21.972  25.129  1.00  0.00    -0.017 S 
ATOM     13  C   UNL A   1      33.870  23.124  24.590  1.00  0.00     0.138 A 
BRANCH  13  14
ATOM     14  N   UNL A   1      33.425  24.542  24.520  1.00  0.00    -0.258 N 
ATOM     15  C   UNL A   1      33.782  25.514  25.568  1.00  0.00     0.165 C 
BRANCH  14  16
ATOM     16  S   UNL A   1      32.692  25.163  23.136  1.00  0.00     0.268 S 
ATOM     17  O   UNL A   1      33.719  25.318  22.130  1.00  0.00    -0.201 OA
ATOM     18  O   UNL A   1      31.445  24.433  22.970  1.00  0.00    -0.201 OA
BRANCH  16  19
ATOM     19  C   UNL A   1      32.095  26.786  23.145  1.00  0.00     0.128 A 
ATOM     20  C   UNL A   1      32.454  27.922  22.411  1.00  0.00     0.157 A 
ATOM     21  C   UNL A   1      30.990  27.193  23.885  1.00  0.00     0.053 A 
ATOM     22  N   UNL A   1      31.669  28.974  22.668  1.00  0.00    -0.183 NA
ATOM     23  N   UNL A   1      30.783  28.501  23.560  1.00  0.00    -0.281 N 
ATOM     24  C   UNL A   1      30.111  26.466  24.835  1.00  0.00     0.067 C 
ATOM     25  H   UNL A   1      30.057  29.045  23.942  1.00  0.00     0.190 HD
ENDBRANCH  16  19
ENDBRANCH  14  16
ENDBRANCH  13  14
ENDBRANCH   5   8
ENDBRANCH   3   4
ENDBRANCH   2   3
ENDBRANCH   1   2
BRANCH   1  26
ATOM     26  C   UNL A   1      40.786  20.561  26.850  1.00  0.00     0.002 C 
BRANCH  26  27
ATOM     27  C   UNL A   1      41.493  19.505  25.994  1.00  0.00     0.021 C 
BRANCH  27  28
ATOM     28  C   UNL A   1      42.921  19.197  26.397  1.00  0.00     0.116 C 
BRANCH  28  29
ATOM     29  N   UNL A   1      43.846  19.093  25.267  1.00  0.00    -0.352 N 
ATOM     30  C   UNL A   1      44.295  20.114  24.444  1.00  0.00     0.251 C 
ATOM     31  H   UNL A   1      44.189  18.192  25.068  1.00  0.00     0.163 HD
ATOM     32  O   UNL A   1      44.746  19.888  23.329  1.00  0.00    -0.269 OA
BRANCH  30  33
ATOM     33  C   UNL A   1      44.230  21.494  24.955  1.00  0.00     0.039 A 
ATOM     34  C   UNL A   1      43.312  22.436  24.486  1.00  0.00     0.014 A 
ATOM     35  C   UNL A   1      45.112  21.811  25.980  1.00  0.00     0.014 A 
ATOM     36  C   UNL A   1      43.262  23.678  25.115  1.00  0.00     0.010 A 
ATOM     37  C   UNL A   1      44.878  22.906  26.754  1.00  0.00     0.010 A 
ATOM     38  C   UNL A   1      44.047  23.895  26.258  1.00  0.00    -0.014 A 
BRANCH  38  39
ATOM     39  C   UNL A   1      44.022  25.140  27.001  1.00  0.00     0.031 A 
ATOM     40  C   UNL A   1      45.140  26.063  26.713  1.00  0.00     0.074 A 
ATOM     41  C   UNL A   1      42.960  25.516  27.746  1.00  0.00     0.049 A 
ATOM     42  N   UNL A   1      46.126  26.349  27.493  1.00  0.00    -0.248 NA
ATOM     43  C   UNL A   1      45.259  26.628  25.362  1.00  0.00     0.031 C 
ATOM     44  C   UNL A   1      41.650  24.867  27.905  1.00  0.00     0.029 A 
ATOM     45  N   UNL A   1      42.818  26.644  28.486  1.00  0.00    -0.354 N 
ATOM     46  C   UNL A   1      46.903  27.276  26.809  1.00  0.00     0.074 A 
ATOM     47  C   UNL A   1      46.422  27.278  25.451  1.00  0.00     0.031 C 
ATOM     48  C   UNL A   1      40.790  25.714  28.514  1.00  0.00     0.029 A 
ATOM     49  C   UNL A   1      41.531  26.882  28.946  1.00  0.00     0.049 A 
ATOM     50  H   UNL A   1      43.571  27.247  28.683  1.00  0.00     0.167 HD
ATOM     51  C   UNL A   1      47.727  28.122  27.489  1.00  0.00     0.037 A 
ATOM     52  C   UNL A   1      41.116  27.975  29.633  1.00  0.00     0.037 A 
ATOM     53  C   UNL A   1      47.914  27.676  28.849  1.00  0.00     0.049 A 
ATOM     54  C   UNL A   1      42.325  28.577  30.252  1.00  0.00     0.074 A 
ATOM     55  C   UNL A   1      48.438  26.536  29.429  1.00  0.00     0.029 A 
ATOM     56  N   UNL A   1      47.162  28.274  29.832  1.00  0.00    -0.354 N 
ATOM     57  N   UNL A   1      43.013  27.992  31.195  1.00  0.00    -0.248 NA
ATOM     58  C   UNL A   1      43.047  29.580  29.482  1.00  0.00     0.031 C 
ATOM     59  C   UNL A   1      47.575  26.254  30.530  1.00  0.00     0.029 A 
ATOM     60  C   UNL A   1      46.625  27.274  30.603  1.00  0.00     0.049 A 
ATOM     61  H   UNL A   1      47.030  29.242  29.959  1.00  0.00     0.167 HD
ATOM     62  C   UNL A   1      44.339  28.226  30.862  1.00  0.00     0.074 A 
ATOM     63  C   UNL A   1      44.298  29.275  29.844  1.00  0.00     0.031 C 
ATOM     64  C   UNL A   1      45.325  27.353  31.226  1.00  0.00     0.037 A 
BRANCH  51  65
ATOM     65  C   UNL A   1      48.066  29.526  27.058  1.00  0.00     0.064 A 
ATOM     66  C   UNL A   1      49.416  29.933  27.068  1.00  0.00     0.173 A 
ATOM     67  C   UNL A   1      47.119  30.564  26.933  1.00  0.00     0.173 A 
ATOM     68  F   UNL A   1      50.401  29.030  27.185  1.00  0.00    -0.203 F 
ATOM     69  C   UNL A   1      49.781  31.281  27.058  1.00  0.00     0.198 A 
ATOM     70  C   UNL A   1      47.489  31.906  26.868  1.00  0.00     0.198 A 
ATOM     71  F   UNL A   1      45.801  30.340  26.985  1.00  0.00    -0.203 F 
ATOM     72  F   UNL A   1      51.067  31.623  27.208  1.00  0.00    -0.200 F 
ATOM     73  C   UNL A   1      48.816  32.267  26.969  1.00  0.00     0.200 A 
ATOM     74  F   UNL A   1      46.538  32.848  26.797  1.00  0.00    -0.200 F 
ATOM     75  F   UNL A   1      49.156  33.560  27.030  1.00  0.00    -0.200 F 
ENDBRANCH  51  65
BRANCH  52  76
ATOM     76  C   UNL A   1      39.820  28.682  29.520  1.00  0.00     0.064 A 
ATOM     77  C   UNL A   1      39.362  29.175  28.287  1.00  0.00     0.173 A 
ATOM     78  C   UNL A   1      38.877  28.642  30.566  1.00  0.00     0.173 A 
ATOM     79  F   UNL A   1      40.183  29.205  27.227  1.00  0.00    -0.203 F 
ATOM     80  C   UNL A   1      38.034  29.577  28.106  1.00  0.00     0.198 A 
ATOM     81  C   UNL A   1      37.553  29.046  30.385  1.00  0.00     0.198 A 
ATOM     82  F   UNL A   1      39.197  28.117  31.759  1.00  0.00    -0.203 F 
ATOM     83  F   UNL A   1      37.617  29.984  26.898  1.00  0.00    -0.200 F 
ATOM     84  C   UNL A   1      37.128  29.501  29.151  1.00  0.00     0.200 A 
ATOM     85  F   UNL A   1      36.679  28.928  31.394  1.00  0.00    -0.200 F 
ATOM     86  F   UNL A   1      35.841  29.824  28.961  1.00  0.00    -0.200 F 
ENDBRANCH  52  76
BRANCH  64  87
ATOM     87  C   UNL A   1      44.960  26.245  32.178  1.00  0.00     0.064 A 
ATOM     88  C   UNL A   1      44.862  26.408  33.571  1.00  0.00     0.173 A 
ATOM     89  C   UNL A   1      44.550  25.015  31.649  1.00  0.00     0.173 A 
ATOM     90  F   UNL A   1      45.134  27.582  34.149  1.00  0.00    -0.203 F 
ATOM     91  C   UNL A   1      44.418  25.376  34.397  1.00  0.00     0.198 A 
ATOM     92  C   UNL A   1      44.075  23.996  32.471  1.00  0.00     0.198 A 
ATOM     93  F   UNL A   1      44.563  24.819  30.321  1.00  0.00    -0.203 F 
ATOM     94  F   UNL A   1      44.344  25.560  35.724  1.00  0.00    -0.200 F 
ATOM     95  C   UNL A   1      44.018  24.172  33.845  1.00  0.00     0.200 A 
ATOM     96  F   UNL A   1      43.642  22.850  31.927  1.00  0.00    -0.200 F 
ATOM     97  F   UNL A   1      43.554  23.191  34.632  1.00  0.00    -0.200 F 
ENDBRANCH  64  87
ENDBRANCH  38  39
ENDBRANCH  30  33
ENDBRANCH  28  29
ENDBRANCH  27  28
ENDBRANCH  26  27
ENDBRANCH   1  26
TORSDOF 16
ENDMDL
MODEL 3
REMARK VINA RESULT:     -11.5      2.807      3.985
REMARK SMILES Cc1nsc(N(C)S(=O)(=O)c2cn[nH]c2C)c1C(=O)NCCCCCCNC(=O)c1ccc(-c2c3nc(c(-c4c(F)c(F)c(F)c(F)c4F)c4ccc([nH]4)c(-c4c(F)c(F)c(F)c(F)c4F)c4nc(c(-c5c(F)c(F)c(F)c(F)c5F)c5ccc2[nH]5)C=C4)C=C3)cc1
REMARK SMILES IDX 23 1 22 2 21 3 20 4 18 5 19 6 17 8 1 9 2 10 3 11 4 12 5 13
REMARK SMILES IDX 6 14 7 15 8 16 9 17 10 18 11 19 12 20 15 21 13 22 14 23
REMARK SMILES IDX 16 24 24 26 25 27 26 28 27 29 28 30 29 32 30 33 31 34 92 35
REMARK SMILES IDX 32 36 91 37 33 38 34 39 35 40 85 41 36 42 90 43 84 44 86 45
REMARK SMILES IDX 37 46 89 47 83 48 82 49 38 51 70 52 50 53 69 54 51 55 54 56
REMARK SMILES IDX 68 57 87 58 52 59 53 60 67 62 88 63 55 64 39 65 40 66 48 67
REMARK SMILES IDX 41 68 42 69 46 70 49 71 43 72 44 73 47 74 45 75 71 76 72 77
REMARK SMILES IDX 80 78 73 79 74 80 78 81 81 82 75 83 76 84 79 85 77 86 56 87
REMARK SMILES IDX 57 88 65 89 58 90 59 91 63 92 66 93 60 94 61 95 64 96 62 97
REMARK H PARENT 20 7 14 25 27 31 86 50 54 61
REMARK Flexibility Score: inf
ROOT
ATOM      1  C   UNL A   1      35.835  24.142  25.234  1.00  0.00     0.002 C 
ENDROOT
BRANCH   1   2
ATOM      2  C   UNL A   1      34.732  23.678  26.190  1.00  0.00     0.021 C 
BRANCH   2   3
ATOM      3  C   UNL A   1      33.779  22.588  25.720  1.00  0.00     0.116 C 
BRANCH   3   4
ATOM      4  N   UNL A   1      32.442  23.057  25.507  1.00  0.00    -0.352 N 
ATOM      5  C   UNL A   1      31.855  24.090  24.832  1.00  0.00     0.256 C 
ATOM      6  O   UNL A   1      30.701  24.216  25.230  1.00  0.00    -0.269 OA
ATOM      7  H   UNL A   1      31.777  22.492  25.961  1.00  0.00     0.163 HD
BRANCH   5   8
ATOM      8  C   UNL A   1      32.454  24.923  23.766  1.00  0.00     0.098 A 
ATOM      9  C   UNL A   1      33.188  23.034  21.951  1.00  0.00     0.069 C 
ATOM     10  C   UNL A   1      33.071  24.414  22.512  1.00  0.00     0.066 A 
ATOM     11  N   UNL A   1      33.611  25.314  21.702  1.00  0.00    -0.195 NA
ATOM     12  S   UNL A   1      33.346  26.796  22.275  1.00  0.00    -0.017 S 
ATOM     13  C   UNL A   1      32.429  26.353  23.686  1.00  0.00     0.138 A 
BRANCH  13  14
ATOM     14  N   UNL A   1      31.871  27.478  24.485  1.00  0.00    -0.258 N 
ATOM     15  C   UNL A   1      30.650  28.188  24.068  1.00  0.00     0.165 C 
BRANCH  14  16
ATOM     16  S   UNL A   1      32.468  27.844  26.018  1.00  0.00     0.268 S 
ATOM     17  O   UNL A   1      31.469  27.440  26.983  1.00  0.00    -0.201 OA
ATOM     18  O   UNL A   1      33.864  27.438  26.021  1.00  0.00    -0.201 OA
BRANCH  16  19
ATOM     19  C   UNL A   1      32.630  29.499  26.494  1.00  0.00     0.128 A 
ATOM     20  C   UNL A   1      31.764  30.593  26.394  1.00  0.00     0.157 A 
ATOM     21  C   UNL A   1      33.717  29.987  27.211  1.00  0.00     0.053 A 
ATOM     22  N   UNL A   1      32.254  31.695  26.974  1.00  0.00    -0.183 NA
ATOM     23  N   UNL A   1      33.436  31.297  27.470  1.00  0.00    -0.281 N 
ATOM     24  C   UNL A   1      34.961  29.336  27.691  1.00  0.00     0.067 C 
ATOM     25  H   UNL A   1      34.041  31.891  27.970  1.00  0.00     0.190 HD
ENDBRANCH  16  19
ENDBRANCH  14  16
ENDBRANCH  13  14
ENDBRANCH   5   8
ENDBRANCH   3   4
ENDBRANCH   2   3
ENDBRANCH   1   2
BRANCH   1  26
ATOM     26  C   UNL A   1      36.563  23.105  24.369  1.00  0.00     0.002 C 
BRANCH  26  27
ATOM     27  C   UNL A   1      37.499  22.098  25.047  1.00  0.00     0.021 C 
BRANCH  27  28
ATOM     28  C   UNL A   1      38.416  22.680  26.104  1.00  0.00     0.116 C 
BRANCH  28  29
ATOM     29  N   UNL A   1      39.773  22.128  26.079  1.00  0.00    -0.352 N 
ATOM     30  C   UNL A   1      40.964  22.801  26.296  1.00  0.00     0.251 C 
ATOM     31  H   UNL A   1      39.846  21.167  25.883  1.00  0.00     0.163 HD
ATOM     32  O   UNL A   1      42.033  22.361  25.891  1.00  0.00    -0.269 OA
BRANCH  30  33
ATOM     33  C   UNL A   1      40.918  24.065  27.050  1.00  0.00     0.039 A 
ATOM     34  C   UNL A   1      41.616  24.266  28.243  1.00  0.00     0.014 A 
ATOM     35  C   UNL A   1      40.170  25.090  26.484  1.00  0.00     0.014 A 
ATOM     36  C   UNL A   1      41.593  25.536  28.816  1.00  0.00     0.010 A 
ATOM     37  C   UNL A   1      40.370  26.373  26.893  1.00  0.00     0.010 A 
ATOM     38  C   UNL A   1      40.971  26.585  28.120  1.00  0.00    -0.014 A 
BRANCH  38  39
ATOM     39  C   UNL A   1      40.941  27.946  28.620  1.00  0.00     0.031 A 
ATOM     40  C   UNL A   1      42.008  28.827  28.098  1.00  0.00     0.074 A 
ATOM     41  C   UNL A   1      39.910  28.427  29.347  1.00  0.00     0.049 A 
ATOM     42  N   UNL A   1      43.024  29.279  28.750  1.00  0.00    -0.248 NA
ATOM     43  C   UNL A   1      42.030  29.133  26.662  1.00  0.00     0.031 C 
ATOM     44  C   UNL A   1      38.635  27.786  29.704  1.00  0.00     0.029 A 
ATOM     45  N   UNL A   1      39.768  29.670  29.873  1.00  0.00    -0.354 N 
ATOM     46  C   UNL A   1      43.727  30.081  27.860  1.00  0.00     0.074 A 
ATOM     47  C   UNL A   1      43.172  29.817  26.557  1.00  0.00     0.031 C 
ATOM     48  C   UNL A   1      37.780  28.710  30.197  1.00  0.00     0.029 A 
ATOM     49  C   UNL A   1      38.501  29.957  30.359  1.00  0.00     0.049 A 
ATOM     50  H   UNL A   1      40.508  30.318  29.908  1.00  0.00     0.167 HD
ATOM     51  C   UNL A   1      44.557  31.060  28.320  1.00  0.00     0.037 A 
ATOM     52  C   UNL A   1      38.084  31.147  30.856  1.00  0.00     0.037 A 
ATOM     53  C   UNL A   1      44.835  30.881  29.725  1.00  0.00     0.049 A 
ATOM     54  C   UNL A   1      39.303  31.885  31.277  1.00  0.00     0.074 A 
ATOM     55  C   UNL A   1      45.432  29.883  30.472  1.00  0.00     0.029 A 
ATOM     56  N   UNL A   1      44.118  31.633  30.625  1.00  0.00    -0.354 N 
ATOM     57  N   UNL A   1      40.064  31.504  32.268  1.00  0.00    -0.248 NA
ATOM     58  C   UNL A   1      39.945  32.745  30.293  1.00  0.00     0.031 C 
ATOM     59  C   UNL A   1      44.642  29.789  31.658  1.00  0.00     0.029 A 
ATOM     60  C   UNL A   1      43.661  30.780  31.599  1.00  0.00     0.049 A 
ATOM     61  H   UNL A   1      43.958  32.604  30.579  1.00  0.00     0.167 HD
ATOM     62  C   UNL A   1      41.360  31.706  31.817  1.00  0.00     0.074 A 
ATOM     63  C   UNL A   1      41.224  32.544  30.627  1.00  0.00     0.031 C 
ATOM     64  C   UNL A   1      42.396  30.941  32.275  1.00  0.00     0.037 A 
BRANCH  51  65
ATOM     65  C   UNL A   1      44.820  32.367  27.617  1.00  0.00     0.064 A 
ATOM     66  C   UNL A   1      46.027  32.526  26.906  1.00  0.00     0.173 A 
ATOM     67  C   UNL A   1      44.097  33.553  27.860  1.00  0.00     0.173 A 
ATOM     68  F   UNL A   1      46.797  31.465  26.622  1.00  0.00    -0.203 F 
ATOM     69  C   UNL A   1      46.519  33.785  26.558  1.00  0.00     0.198 A 
ATOM     70  C   UNL A   1      44.565  34.805  27.463  1.00  0.00     0.198 A 
ATOM     71  F   UNL A   1      42.974  33.572  28.587  1.00  0.00    -0.203 F 
ATOM     72  F   UNL A   1      47.735  33.896  26.007  1.00  0.00    -0.200 F 
ATOM     73  C   UNL A   1      45.792  34.925  26.847  1.00  0.00     0.200 A 
ATOM     74  F   UNL A   1      43.852  35.900  27.765  1.00  0.00    -0.200 F 
ATOM     75  F   UNL A   1      46.292  36.138  26.579  1.00  0.00    -0.200 F 
ENDBRANCH  51  65
BRANCH  52  76
ATOM     76  C   UNL A   1      36.759  31.788  30.694  1.00  0.00     0.064 A 
ATOM     77  C   UNL A   1      35.890  31.952  31.784  1.00  0.00     0.173 A 
ATOM     78  C   UNL A   1      36.437  32.503  29.524  1.00  0.00     0.173 A 
ATOM     79  F   UNL A   1      36.149  31.342  32.950  1.00  0.00    -0.203 F 
ATOM     80  C   UNL A   1      34.780  32.802  31.716  1.00  0.00     0.198 A 
ATOM     81  C   UNL A   1      35.329  33.349  29.456  1.00  0.00     0.198 A 
ATOM     82  F   UNL A   1      37.247  32.472  28.455  1.00  0.00    -0.203 F 
ATOM     83  F   UNL A   1      34.007  32.982  32.796  1.00  0.00    -0.200 F 
ATOM     84  C   UNL A   1      34.507  33.509  30.556  1.00  0.00     0.200 A 
ATOM     85  F   UNL A   1      35.101  34.057  28.340  1.00  0.00    -0.200 F 
ATOM     86  F   UNL A   1      33.483  34.372  30.510  1.00  0.00    -0.200 F 
ENDBRANCH  52  76
BRANCH  64  87
ATOM     87  C   UNL A   1      42.124  30.022  33.436  1.00  0.00     0.064 A 
ATOM     88  C   UNL A   1      41.722  28.681  33.299  1.00  0.00     0.173 A 
ATOM     89  C   UNL A   1      42.425  30.468  34.729  1.00  0.00     0.173 A 
ATOM     90  F   UNL A   1      41.514  28.145  32.092  1.00  0.00    -0.203 F 
ATOM     91  C   UNL A   1      41.585  27.844  34.404  1.00  0.00     0.198 A 
ATOM     92  C   UNL A   1      42.321  29.621  35.829  1.00  0.00     0.198 A 
ATOM     93  F   UNL A   1      42.872  31.719  34.918  1.00  0.00    -0.203 F 
ATOM     94  F   UNL A   1      41.191  26.571  34.241  1.00  0.00    -0.200 F 
ATOM     95  C   UNL A   1      41.891  28.313  35.670  1.00  0.00     0.200 A 
ATOM     96  F   UNL A   1      42.666  30.066  37.046  1.00  0.00    -0.200 F 
ATOM     97  F   UNL A   1      41.798  27.499  36.730  1.00  0.00    -0.200 F 
ENDBRANCH  64  87
ENDBRANCH  38  39
ENDBRANCH  30  33
ENDBRANCH  28  29
ENDBRANCH  27  28
ENDBRANCH  26  27
ENDBRANCH   1  26
TORSDOF 16
ENDMDL
