MODEL 1
REMARK VINA RESULT:     -11.3      0.000      0.000
REMARK SMILES Cc1ncccc1C(=O)N1CC[C@H](C(=O)NCCCCCCNC(=O)c2ccc(-c3c4nc(c(-c5c(F)c(F)c(F)c(F)c5F)c5ccc([nH]5)c(-c5c(F)c(F)c(F)c(F)c5F)c5nc(c(-c6c(F)c(F)c(F)c(F)c6F)c6ccc3[nH]6)C=C5)C=C4)cc2)C1
REMARK SMILES IDX 19 1 18 2 17 3 16 4 14 5 15 6 13 8 10 9 11 10 89 11 12 12
REMARK SMILES IDX 8 13 9 14 7 15 1 16 2 17 3 18 4 19 6 20 5 21 20 22 21 23
REMARK SMILES IDX 22 24 23 25 24 26 25 28 26 29 27 30 88 31 28 32 87 33 29 34
REMARK SMILES IDX 30 35 31 36 81 37 32 38 86 39 80 40 82 41 33 42 85 43 79 44
REMARK SMILES IDX 78 45 34 47 66 48 46 49 65 50 47 51 50 52 64 53 83 54 48 55
REMARK SMILES IDX 49 56 63 58 84 59 51 60 35 61 36 62 44 63 37 64 38 65 42 66
REMARK SMILES IDX 45 67 39 68 40 69 43 70 41 71 67 72 68 73 76 74 69 75 70 76
REMARK SMILES IDX 74 77 77 78 71 79 72 80 75 81 73 82 52 83 53 84 61 85 54 86
REMARK SMILES IDX 55 87 59 88 62 89 56 90 57 91 60 92 58 93
REMARK H PARENT 16 7 23 27 82 46 50 57
REMARK Flexibility Score: inf
ROOT
ATOM      1  C   UNL A   1      34.521  32.327  28.986  1.00  0.00     0.002 C 
ENDROOT
BRANCH   1   2
ATOM      2  C   UNL A   1      35.467  31.571  28.050  1.00  0.00     0.021 C 
BRANCH   2   3
ATOM      3  C   UNL A   1      34.984  30.181  27.637  1.00  0.00     0.116 C 
BRANCH   3   4
ATOM      4  N   UNL A   1      33.538  30.075  27.652  1.00  0.00    -0.356 N 
ATOM      5  C   UNL A   1      32.693  29.137  27.150  1.00  0.00     0.224 C 
ATOM      6  O   UNL A   1      31.487  29.311  27.360  1.00  0.00    -0.275 OA
ATOM      7  H   UNL A   1      33.086  30.820  28.110  1.00  0.00     0.163 HD
BRANCH   5   8
ATOM      8  C   UNL A   1      33.139  27.935  26.326  1.00  0.00     0.099 C 
ATOM      9  N   UNL A   1      32.245  27.150  24.279  1.00  0.00    -0.338 N 
ATOM     10  C   UNL A   1      32.239  26.012  25.171  1.00  0.00     0.120 C 
ATOM     11  C   UNL A   1      33.154  28.158  24.816  1.00  0.00     0.133 C 
ATOM     12  C   UNL A   1      32.300  26.665  26.548  1.00  0.00     0.037 C 
BRANCH   9  13
ATOM     13  C   UNL A   1      31.702  27.346  23.026  1.00  0.00     0.255 C 
ATOM     14  O   UNL A   1      32.373  27.019  22.039  1.00  0.00    -0.269 OA
BRANCH  13  15
ATOM     15  C   UNL A   1      30.401  28.034  22.736  1.00  0.00     0.061 A 
ATOM     16  C   UNL A   1      28.693  26.473  23.892  1.00  0.00     0.067 C 
ATOM     17  C   UNL A   1      29.121  27.734  23.220  1.00  0.00     0.050 A 
ATOM     18  N   UNL A   1      28.072  28.610  23.116  1.00  0.00    -0.261 NA
ATOM     19  C   UNL A   1      28.281  29.815  22.554  1.00  0.00     0.111 A 
ATOM     20  C   UNL A   1      30.548  29.294  22.116  1.00  0.00     0.017 A 
ATOM     21  C   UNL A   1      29.493  30.197  22.030  1.00  0.00     0.021 A 
ENDBRANCH  13  15
ENDBRANCH   9  13
ENDBRANCH   5   8
ENDBRANCH   3   4
ENDBRANCH   2   3
ENDBRANCH   1   2
BRANCH   1  22
ATOM     22  C   UNL A   1      34.630  33.855  28.935  1.00  0.00     0.002 C 
BRANCH  22  23
ATOM     23  C   UNL A   1      33.303  34.622  28.967  1.00  0.00     0.021 C 
BRANCH  23  24
ATOM     24  C   UNL A   1      33.375  36.029  29.557  1.00  0.00     0.116 C 
BRANCH  24  25
ATOM     25  N   UNL A   1      32.506  36.190  30.712  1.00  0.00    -0.352 N 
ATOM     26  C   UNL A   1      32.616  35.672  31.975  1.00  0.00     0.251 C 
ATOM     27  H   UNL A   1      31.716  36.758  30.562  1.00  0.00     0.163 HD
ATOM     28  O   UNL A   1      31.676  35.778  32.764  1.00  0.00    -0.269 OA
BRANCH  26  29
ATOM     29  C   UNL A   1      33.846  34.973  32.404  1.00  0.00     0.039 A 
ATOM     30  C   UNL A   1      33.738  33.674  32.912  1.00  0.00     0.014 A 
ATOM     31  C   UNL A   1      35.095  35.598  32.349  1.00  0.00     0.014 A 
ATOM     32  C   UNL A   1      34.885  32.983  33.313  1.00  0.00     0.010 A 
ATOM     33  C   UNL A   1      36.246  34.887  32.689  1.00  0.00     0.010 A 
ATOM     34  C   UNL A   1      36.151  33.574  33.177  1.00  0.00    -0.014 A 
BRANCH  34  35
ATOM     35  C   UNL A   1      37.386  32.827  33.531  1.00  0.00     0.031 A 
ATOM     36  C   UNL A   1      38.130  33.140  34.798  1.00  0.00     0.074 A 
ATOM     37  C   UNL A   1      37.874  31.912  32.672  1.00  0.00     0.049 A 
ATOM     38  N   UNL A   1      39.252  32.633  35.246  1.00  0.00    -0.248 NA
ATOM     39  C   UNL A   1      37.553  34.179  35.663  1.00  0.00     0.031 C 
ATOM     40  C   UNL A   1      37.277  31.561  31.383  1.00  0.00     0.029 A 
ATOM     41  N   UNL A   1      38.994  31.120  32.747  1.00  0.00    -0.354 N 
ATOM     42  C   UNL A   1      39.523  33.304  36.431  1.00  0.00     0.074 A 
ATOM     43  C   UNL A   1      38.473  34.284  36.611  1.00  0.00     0.031 C 
ATOM     44  C   UNL A   1      38.030  30.621  30.792  1.00  0.00     0.029 A 
ATOM     45  C   UNL A   1      39.177  30.322  31.645  1.00  0.00     0.049 A 
ATOM     46  H   UNL A   1      39.607  31.126  33.517  1.00  0.00     0.167 HD
ATOM     47  C   UNL A   1      40.545  33.107  37.299  1.00  0.00     0.037 A 
ATOM     48  C   UNL A   1      40.163  29.454  31.349  1.00  0.00     0.037 A 
ATOM     49  C   UNL A   1      41.571  32.111  37.132  1.00  0.00     0.049 A 
ATOM     50  C   UNL A   1      41.271  29.234  32.340  1.00  0.00     0.074 A 
ATOM     51  C   UNL A   1      42.597  31.774  37.997  1.00  0.00     0.029 A 
ATOM     52  N   UNL A   1      41.705  31.293  36.018  1.00  0.00    -0.354 N 
ATOM     53  N   UNL A   1      41.471  29.811  33.500  1.00  0.00    -0.248 NA
ATOM     54  C   UNL A   1      42.286  28.232  31.987  1.00  0.00     0.031 C 
ATOM     55  C   UNL A   1      43.380  30.788  37.387  1.00  0.00     0.029 A 
ATOM     56  C   UNL A   1      42.813  30.474  36.162  1.00  0.00     0.049 A 
ATOM     57  H   UNL A   1      41.102  31.296  35.240  1.00  0.00     0.167 HD
ATOM     58  C   UNL A   1      42.619  29.234  34.023  1.00  0.00     0.074 A 
ATOM     59  C   UNL A   1      43.063  28.245  33.062  1.00  0.00     0.031 C 
ATOM     60  C   UNL A   1      43.248  29.499  35.194  1.00  0.00     0.037 A 
BRANCH  47  61
ATOM     61  C   UNL A   1      40.609  33.994  38.509  1.00  0.00     0.064 A 
ATOM     62  C   UNL A   1      41.341  35.192  38.509  1.00  0.00     0.173 A 
ATOM     63  C   UNL A   1      39.906  33.656  39.675  1.00  0.00     0.173 A 
ATOM     64  F   UNL A   1      42.038  35.557  37.422  1.00  0.00    -0.203 F 
ATOM     65  C   UNL A   1      41.393  36.001  39.641  1.00  0.00     0.198 A 
ATOM     66  C   UNL A   1      39.935  34.483  40.796  1.00  0.00     0.198 A 
ATOM     67  F   UNL A   1      39.185  32.526  39.728  1.00  0.00    -0.203 F 
ATOM     68  F   UNL A   1      42.140  37.113  39.635  1.00  0.00    -0.200 F 
ATOM     69  C   UNL A   1      40.685  35.648  40.781  1.00  0.00     0.200 A 
ATOM     70  F   UNL A   1      39.240  34.149  41.892  1.00  0.00    -0.200 F 
ATOM     71  F   UNL A   1      40.733  36.430  41.869  1.00  0.00    -0.200 F 
ENDBRANCH  47  61
BRANCH  48  72
ATOM     72  C   UNL A   1      40.127  28.715  30.063  1.00  0.00     0.064 A 
ATOM     73  C   UNL A   1      40.736  29.236  28.913  1.00  0.00     0.173 A 
ATOM     74  C   UNL A   1      39.500  27.464  29.961  1.00  0.00     0.173 A 
ATOM     75  F   UNL A   1      41.331  30.437  28.957  1.00  0.00    -0.203 F 
ATOM     76  C   UNL A   1      40.709  28.541  27.706  1.00  0.00     0.198 A 
ATOM     77  C   UNL A   1      39.496  26.758  28.760  1.00  0.00     0.198 A 
ATOM     78  F   UNL A   1      38.908  26.920  31.034  1.00  0.00    -0.203 F 
ATOM     79  F   UNL A   1      41.267  29.078  26.613  1.00  0.00    -0.200 F 
ATOM     80  C   UNL A   1      40.095  27.299  27.633  1.00  0.00     0.200 A 
ATOM     81  F   UNL A   1      38.915  25.553  28.696  1.00  0.00    -0.200 F 
ATOM     82  F   UNL A   1      40.077  26.626  26.474  1.00  0.00    -0.200 F 
ENDBRANCH  48  72
BRANCH  60  83
ATOM     83  C   UNL A   1      44.478  28.698  35.510  1.00  0.00     0.064 A 
ATOM     84  C   UNL A   1      44.410  27.514  36.260  1.00  0.00     0.173 A 
ATOM     85  C   UNL A   1      45.732  29.099  35.026  1.00  0.00     0.173 A 
ATOM     86  F   UNL A   1      43.236  27.096  36.757  1.00  0.00    -0.203 F 
ATOM     87  C   UNL A   1      45.558  26.774  36.534  1.00  0.00     0.198 A 
ATOM     88  C   UNL A   1      46.873  28.342  35.279  1.00  0.00     0.198 A 
ATOM     89  F   UNL A   1      45.850  30.220  34.300  1.00  0.00    -0.203 F 
ATOM     90  F   UNL A   1      45.476  25.672  37.293  1.00  0.00    -0.200 F 
ATOM     91  C   UNL A   1      46.786  27.186  36.039  1.00  0.00     0.200 A 
ATOM     92  F   UNL A   1      48.057  28.734  34.789  1.00  0.00    -0.200 F 
ATOM     93  F   UNL A   1      47.889  26.469  36.300  1.00  0.00    -0.200 F 
ENDBRANCH  60  83
ENDBRANCH  34  35
ENDBRANCH  26  29
ENDBRANCH  24  25
ENDBRANCH  23  24
ENDBRANCH  22  23
ENDBRANCH   1  22
TORSDOF 15
ENDMDL
MODEL 2
REMARK VINA RESULT:     -11.2      7.372     12.779
REMARK SMILES Cc1ncccc1C(=O)N1CC[C@H](C(=O)NCCCCCCNC(=O)c2ccc(-c3c4nc(c(-c5c(F)c(F)c(F)c(F)c5F)c5ccc([nH]5)c(-c5c(F)c(F)c(F)c(F)c5F)c5nc(c(-c6c(F)c(F)c(F)c(F)c6F)c6ccc3[nH]6)C=C5)C=C4)cc2)C1
REMARK SMILES IDX 19 1 18 2 17 3 16 4 14 5 15 6 13 8 10 9 11 10 89 11 12 12
REMARK SMILES IDX 8 13 9 14 7 15 1 16 2 17 3 18 4 19 6 20 5 21 20 22 21 23
REMARK SMILES IDX 22 24 23 25 24 26 25 28 26 29 27 30 88 31 28 32 87 33 29 34
REMARK SMILES IDX 30 35 31 36 81 37 32 38 86 39 80 40 82 41 33 42 85 43 79 44
REMARK SMILES IDX 78 45 34 47 66 48 46 49 65 50 47 51 50 52 64 53 83 54 48 55
REMARK SMILES IDX 49 56 63 58 84 59 51 60 35 61 36 62 44 63 37 64 38 65 42 66
REMARK SMILES IDX 45 67 39 68 40 69 43 70 41 71 67 72 68 73 76 74 69 75 70 76
REMARK SMILES IDX 74 77 77 78 71 79 72 80 75 81 73 82 52 83 53 84 61 85 54 86
REMARK SMILES IDX 55 87 59 88 62 89 56 90 57 91 60 92 58 93
REMARK H PARENT 16 7 23 27 82 46 50 57
REMARK Flexibility Score: inf
ROOT
ATOM      1  C   UNL A   1      41.540  21.343  26.657  1.00  0.00     0.002 C 
ENDROOT
BRANCH   1   2
ATOM      2  C   UNL A   1      40.770  22.440  27.397  1.00  0.00     0.021 C 
BRANCH   2   3
ATOM      3  C   UNL A   1      39.472  22.879  26.720  1.00  0.00     0.116 C 
BRANCH   3   4
ATOM      4  N   UNL A   1      38.846  21.800  25.981  1.00  0.00    -0.356 N 
ATOM      5  C   UNL A   1      37.671  21.727  25.303  1.00  0.00     0.224 C 
ATOM      6  O   UNL A   1      37.426  20.658  24.733  1.00  0.00    -0.275 OA
ATOM      7  H   UNL A   1      39.370  20.966  25.968  1.00  0.00     0.163 HD
BRANCH   5   8
ATOM      8  C   UNL A   1      36.643  22.853  25.248  1.00  0.00     0.099 C 
ATOM      9  N   UNL A   1      34.297  22.680  24.979  1.00  0.00    -0.338 N 
ATOM     10  C   UNL A   1      34.743  23.598  23.954  1.00  0.00     0.120 C 
ATOM     11  C   UNL A   1      35.341  22.573  25.994  1.00  0.00     0.133 C 
ATOM     12  C   UNL A   1      36.226  23.263  23.826  1.00  0.00     0.037 C 
BRANCH   9  13
ATOM     13  C   UNL A   1      33.080  22.074  25.211  1.00  0.00     0.255 C 
ATOM     14  O   UNL A   1      32.262  22.658  25.933  1.00  0.00    -0.269 OA
BRANCH  13  15
ATOM     15  C   UNL A   1      32.689  20.699  24.756  1.00  0.00     0.061 A 
ATOM     16  C   UNL A   1      32.045  21.107  22.284  1.00  0.00     0.067 C 
ATOM     17  C   UNL A   1      32.373  20.257  23.465  1.00  0.00     0.050 A 
ATOM     18  N   UNL A   1      32.323  18.927  23.135  1.00  0.00    -0.261 NA
ATOM     19  C   UNL A   1      32.615  18.010  24.076  1.00  0.00     0.111 A 
ATOM     20  C   UNL A   1      32.941  19.689  25.712  1.00  0.00     0.017 A 
ATOM     21  C   UNL A   1      32.915  18.339  25.376  1.00  0.00     0.021 A 
ENDBRANCH  13  15
ENDBRANCH   9  13
ENDBRANCH   5   8
ENDBRANCH   3   4
ENDBRANCH   2   3
ENDBRANCH   1   2
BRANCH   1  22
ATOM     22  C   UNL A   1      41.984  20.157  27.522  1.00  0.00     0.002 C 
BRANCH  22  23
ATOM     23  C   UNL A   1      42.603  18.975  26.769  1.00  0.00     0.021 C 
BRANCH  23  24
ATOM     24  C   UNL A   1      42.635  19.112  25.249  1.00  0.00     0.116 C 
BRANCH  24  25
ATOM     25  N   UNL A   1      43.922  18.731  24.687  1.00  0.00    -0.352 N 
ATOM     26  C   UNL A   1      45.011  19.502  24.379  1.00  0.00     0.251 C 
ATOM     27  H   UNL A   1      44.025  17.771  24.496  1.00  0.00     0.163 HD
ATOM     28  O   UNL A   1      45.945  19.016  23.738  1.00  0.00    -0.269 OA
BRANCH  26  29
ATOM     29  C   UNL A   1      45.079  20.920  24.795  1.00  0.00     0.039 A 
ATOM     30  C   UNL A   1      45.392  21.215  26.126  1.00  0.00     0.014 A 
ATOM     31  C   UNL A   1      44.799  21.955  23.898  1.00  0.00     0.014 A 
ATOM     32  C   UNL A   1      45.478  22.546  26.544  1.00  0.00     0.010 A 
ATOM     33  C   UNL A   1      44.947  23.282  24.299  1.00  0.00     0.010 A 
ATOM     34  C   UNL A   1      45.284  23.590  25.626  1.00  0.00    -0.014 A 
BRANCH  34  35
ATOM     35  C   UNL A   1      45.442  25.009  26.038  1.00  0.00     0.031 A 
ATOM     36  C   UNL A   1      46.785  25.678  25.973  1.00  0.00     0.074 A 
ATOM     37  C   UNL A   1      44.382  25.675  26.536  1.00  0.00     0.049 A 
ATOM     38  N   UNL A   1      47.127  26.888  26.341  1.00  0.00    -0.248 NA
ATOM     39  C   UNL A   1      47.900  24.872  25.454  1.00  0.00     0.031 C 
ATOM     40  C   UNL A   1      43.039  25.118  26.706  1.00  0.00     0.029 A 
ATOM     41  N   UNL A   1      44.272  26.960  27.007  1.00  0.00    -0.354 N 
ATOM     42  C   UNL A   1      48.494  26.981  26.116  1.00  0.00     0.074 A 
ATOM     43  C   UNL A   1      48.928  25.691  25.622  1.00  0.00     0.031 C 
ATOM     44  C   UNL A   1      42.239  26.056  27.234  1.00  0.00     0.029 A 
ATOM     45  C   UNL A   1      43.016  27.271  27.467  1.00  0.00     0.049 A 
ATOM     46  H   UNL A   1      45.022  27.597  27.014  1.00  0.00     0.167 HD
ATOM     47  C   UNL A   1      49.308  28.050  26.288  1.00  0.00     0.037 A 
ATOM     48  C   UNL A   1      42.544  28.403  28.023  1.00  0.00     0.037 A 
ATOM     49  C   UNL A   1      48.868  29.339  26.751  1.00  0.00     0.049 A 
ATOM     50  C   UNL A   1      43.461  29.584  28.178  1.00  0.00     0.074 A 
ATOM     51  C   UNL A   1      49.598  30.509  26.874  1.00  0.00     0.029 A 
ATOM     52  N   UNL A   1      47.578  29.629  27.174  1.00  0.00    -0.354 N 
ATOM     53  N   UNL A   1      44.734  29.688  27.880  1.00  0.00    -0.248 NA
ATOM     54  C   UNL A   1      42.875  30.809  28.738  1.00  0.00     0.031 C 
ATOM     55  C   UNL A   1      48.764  31.492  27.418  1.00  0.00     0.029 A 
ATOM     56  C   UNL A   1      47.500  30.949  27.587  1.00  0.00     0.049 A 
ATOM     57  H   UNL A   1      46.829  28.990  27.182  1.00  0.00     0.167 HD
ATOM     58  C   UNL A   1      45.096  30.989  28.197  1.00  0.00     0.074 A 
ATOM     59  C   UNL A   1      43.903  31.645  28.694  1.00  0.00     0.031 C 
ATOM     60  C   UNL A   1      46.307  31.588  28.086  1.00  0.00     0.037 A 
BRANCH  47  61
ATOM     61  C   UNL A   1      50.767  27.868  25.979  1.00  0.00     0.064 A 
ATOM     62  C   UNL A   1      51.264  27.976  24.671  1.00  0.00     0.173 A 
ATOM     63  C   UNL A   1      51.684  27.610  27.009  1.00  0.00     0.173 A 
ATOM     64  F   UNL A   1      50.427  28.212  23.649  1.00  0.00    -0.203 F 
ATOM     65  C   UNL A   1      52.618  27.799  24.402  1.00  0.00     0.198 A 
ATOM     66  C   UNL A   1      53.043  27.465  26.740  1.00  0.00     0.198 A 
ATOM     67  F   UNL A   1      51.265  27.505  28.279  1.00  0.00    -0.203 F 
ATOM     68  F   UNL A   1      53.062  27.855  23.138  1.00  0.00    -0.200 F 
ATOM     69  C   UNL A   1      53.507  27.550  25.436  1.00  0.00     0.200 A 
ATOM     70  F   UNL A   1      53.903  27.239  27.743  1.00  0.00    -0.200 F 
ATOM     71  F   UNL A   1      54.812  27.386  25.176  1.00  0.00    -0.200 F 
ENDBRANCH  47  61
BRANCH  48  72
ATOM     72  C   UNL A   1      41.125  28.473  28.451  1.00  0.00     0.064 A 
ATOM     73  C   UNL A   1      40.741  28.089  29.743  1.00  0.00     0.173 A 
ATOM     74  C   UNL A   1      40.127  28.943  27.585  1.00  0.00     0.173 A 
ATOM     75  F   UNL A   1      41.657  27.615  30.600  1.00  0.00    -0.203 F 
ATOM     76  C   UNL A   1      39.410  28.160  30.149  1.00  0.00     0.198 A 
ATOM     77  C   UNL A   1      38.801  29.038  28.000  1.00  0.00     0.198 A 
ATOM     78  F   UNL A   1      40.444  29.328  26.340  1.00  0.00    -0.203 F 
ATOM     79  F   UNL A   1      39.064  27.752  31.378  1.00  0.00    -0.200 F 
ATOM     80  C   UNL A   1      38.442  28.642  29.280  1.00  0.00     0.200 A 
ATOM     81  F   UNL A   1      37.871  29.516  27.162  1.00  0.00    -0.200 F 
ATOM     82  F   UNL A   1      37.163  28.718  29.673  1.00  0.00    -0.200 F 
ENDBRANCH  48  72
BRANCH  60  83
ATOM     83  C   UNL A   1      46.402  33.029  28.495  1.00  0.00     0.064 A 
ATOM     84  C   UNL A   1      46.751  33.398  29.803  1.00  0.00     0.173 A 
ATOM     85  C   UNL A   1      46.176  34.050  27.561  1.00  0.00     0.173 A 
ATOM     86  F   UNL A   1      46.962  32.459  30.737  1.00  0.00    -0.203 F 
ATOM     87  C   UNL A   1      46.847  34.740  30.165  1.00  0.00     0.198 A 
ATOM     88  C   UNL A   1      46.301  35.390  27.919  1.00  0.00     0.198 A 
ATOM     89  F   UNL A   1      45.845  33.749  26.296  1.00  0.00    -0.203 F 
ATOM     90  F   UNL A   1      47.136  35.071  31.431  1.00  0.00    -0.200 F 
ATOM     91  C   UNL A   1      46.628  35.733  29.222  1.00  0.00     0.200 A 
ATOM     92  F   UNL A   1      46.101  36.348  27.005  1.00  0.00    -0.200 F 
ATOM     93  F   UNL A   1      46.727  37.024  29.571  1.00  0.00    -0.200 F 
ENDBRANCH  60  83
ENDBRANCH  34  35
ENDBRANCH  26  29
ENDBRANCH  24  25
ENDBRANCH  23  24
ENDBRANCH  22  23
ENDBRANCH   1  22
TORSDOF 15
ENDMDL
MODEL 3
REMARK VINA RESULT:     -11.2      2.235      7.927
REMARK SMILES Cc1ncccc1C(=O)N1CC[C@H](C(=O)NCCCCCCNC(=O)c2ccc(-c3c4nc(c(-c5c(F)c(F)c(F)c(F)c5F)c5ccc([nH]5)c(-c5c(F)c(F)c(F)c(F)c5F)c5nc(c(-c6c(F)c(F)c(F)c(F)c6F)c6ccc3[nH]6)C=C5)C=C4)cc2)C1
REMARK SMILES IDX 19 1 18 2 17 3 16 4 14 5 15 6 13 8 10 9 11 10 89 11 12 12
REMARK SMILES IDX 8 13 9 14 7 15 1 16 2 17 3 18 4 19 6 20 5 21 20 22 21 23
REMARK SMILES IDX 22 24 23 25 24 26 25 28 26 29 27 30 88 31 28 32 87 33 29 34
REMARK SMILES IDX 30 35 31 36 81 37 32 38 86 39 80 40 82 41 33 42 85 43 79 44
REMARK SMILES IDX 78 45 34 47 66 48 46 49 65 50 47 51 50 52 64 53 83 54 48 55
REMARK SMILES IDX 49 56 63 58 84 59 51 60 35 61 36 62 44 63 37 64 38 65 42 66
REMARK SMILES IDX 45 67 39 68 40 69 43 70 41 71 67 72 68 73 76 74 69 75 70 76
REMARK SMILES IDX 74 77 77 78 71 79 72 80 75 81 73 82 52 83 53 84 61 85 54 86
REMARK SMILES IDX 55 87 59 88 62 89 56 90 57 91 60 92 58 93
REMARK H PARENT 16 7 23 27 82 46 50 57
REMARK Flexibility Score: inf
ROOT
ATOM      1  C   UNL A   1      32.809  30.090  26.211  1.00  0.00     0.002 C 
ENDROOT
BRANCH   1   2
ATOM      2  C   UNL A   1      32.652  28.993  27.266  1.00  0.00     0.021 C 
BRANCH   2   3
ATOM      3  C   UNL A   1      31.341  28.212  27.187  1.00  0.00     0.116 C 
BRANCH   3   4
ATOM      4  N   UNL A   1      31.551  26.778  27.241  1.00  0.00    -0.356 N 
ATOM      5  C   UNL A   1      31.813  25.862  26.273  1.00  0.00     0.224 C 
ATOM      6  O   UNL A   1      31.980  24.696  26.645  1.00  0.00    -0.275 OA
ATOM      7  H   UNL A   1      31.491  26.399  28.148  1.00  0.00     0.163 HD
BRANCH   5   8
ATOM      8  C   UNL A   1      31.867  26.183  24.783  1.00  0.00     0.099 C 
ATOM      9  N   UNL A   1      32.922  24.952  23.058  1.00  0.00    -0.338 N 
ATOM     10  C   UNL A   1      33.430  26.301  22.944  1.00  0.00     0.120 C 
ATOM     11  C   UNL A   1      31.701  24.980  23.858  1.00  0.00     0.133 C 
ATOM     12  C   UNL A   1      33.162  26.879  24.330  1.00  0.00     0.037 C 
BRANCH   9  13
ATOM     13  C   UNL A   1      33.287  23.771  22.444  1.00  0.00     0.255 C 
ATOM     14  O   UNL A   1      33.304  23.734  21.208  1.00  0.00    -0.269 OA
BRANCH  13  15
ATOM     15  C   UNL A   1      33.560  22.472  23.143  1.00  0.00     0.061 A 
ATOM     16  C   UNL A   1      35.791  22.966  24.355  1.00  0.00     0.067 C 
ATOM     17  C   UNL A   1      34.564  22.167  24.072  1.00  0.00     0.050 A 
ATOM     18  N   UNL A   1      34.526  21.041  24.852  1.00  0.00    -0.261 NA
ATOM     19  C   UNL A   1      33.473  20.209  24.747  1.00  0.00     0.111 A 
ATOM     20  C   UNL A   1      32.504  21.539  23.045  1.00  0.00     0.017 A 
ATOM     21  C   UNL A   1      32.448  20.407  23.853  1.00  0.00     0.021 A 
ENDBRANCH  13  15
ENDBRANCH   9  13
ENDBRANCH   5   8
ENDBRANCH   3   4
ENDBRANCH   2   3
ENDBRANCH   1   2
BRANCH   1  22
ATOM     22  C   UNL A   1      31.524  30.849  25.858  1.00  0.00     0.002 C 
BRANCH  22  23
ATOM     23  C   UNL A   1      31.321  32.189  26.572  1.00  0.00     0.021 C 
BRANCH  23  24
ATOM     24  C   UNL A   1      32.560  32.759  27.260  1.00  0.00     0.116 C 
BRANCH  24  25
ATOM     25  N   UNL A   1      32.378  34.143  27.669  1.00  0.00    -0.352 N 
ATOM     26  C   UNL A   1      33.008  34.860  28.651  1.00  0.00     0.251 C 
ATOM     27  H   UNL A   1      31.695  34.640  27.163  1.00  0.00     0.163 HD
ATOM     28  O   UNL A   1      32.582  35.974  28.965  1.00  0.00    -0.269 OA
BRANCH  26  29
ATOM     29  C   UNL A   1      34.190  34.313  29.352  1.00  0.00     0.039 A 
ATOM     30  C   UNL A   1      33.995  33.603  30.541  1.00  0.00     0.014 A 
ATOM     31  C   UNL A   1      35.484  34.528  28.872  1.00  0.00     0.014 A 
ATOM     32  C   UNL A   1      35.092  33.063  31.218  1.00  0.00     0.010 A 
ATOM     33  C   UNL A   1      36.572  33.936  29.512  1.00  0.00     0.010 A 
ATOM     34  C   UNL A   1      36.386  33.200  30.693  1.00  0.00    -0.014 A 
BRANCH  34  35
ATOM     35  C   UNL A   1      37.554  32.571  31.362  1.00  0.00     0.031 A 
ATOM     36  C   UNL A   1      38.269  31.415  30.722  1.00  0.00     0.074 A 
ATOM     37  C   UNL A   1      37.927  33.001  32.583  1.00  0.00     0.049 A 
ATOM     38  N   UNL A   1      39.270  30.704  31.180  1.00  0.00    -0.248 NA
ATOM     39  C   UNL A   1      37.777  30.981  29.407  1.00  0.00     0.031 C 
ATOM     40  C   UNL A   1      37.276  34.074  33.335  1.00  0.00     0.029 A 
ATOM     41  N   UNL A   1      38.935  32.575  33.414  1.00  0.00    -0.354 N 
ATOM     42  C   UNL A   1      39.513  29.731  30.221  1.00  0.00     0.074 A 
ATOM     43  C   UNL A   1      38.527  29.913  29.177  1.00  0.00     0.031 C 
ATOM     44  C   UNL A   1      37.904  34.230  34.511  1.00  0.00     0.029 A 
ATOM     45  C   UNL A   1      38.983  33.249  34.609  1.00  0.00     0.049 A 
ATOM     46  H   UNL A   1      39.562  31.855  33.175  1.00  0.00     0.167 HD
ATOM     47  C   UNL A   1      40.482  28.783  30.205  1.00  0.00     0.037 A 
ATOM     48  C   UNL A   1      39.798  33.091  35.669  1.00  0.00     0.037 A 
ATOM     49  C   UNL A   1      41.479  28.624  31.230  1.00  0.00     0.049 A 
ATOM     50  C   UNL A   1      40.881  32.050  35.615  1.00  0.00     0.074 A 
ATOM     51  C   UNL A   1      42.554  27.753  31.263  1.00  0.00     0.029 A 
ATOM     52  N   UNL A   1      41.519  29.351  32.413  1.00  0.00    -0.354 N 
ATOM     53  N   UNL A   1      41.157  31.192  34.664  1.00  0.00    -0.248 NA
ATOM     54  C   UNL A   1      41.775  31.964  36.779  1.00  0.00     0.031 C 
ATOM     55  C   UNL A   1      43.216  27.918  32.484  1.00  0.00     0.029 A 
ATOM     56  C   UNL A   1      42.583  28.927  33.193  1.00  0.00     0.049 A 
ATOM     57  H   UNL A   1      40.884  30.061  32.661  1.00  0.00     0.167 HD
ATOM     58  C   UNL A   1      42.263  30.477  35.103  1.00  0.00     0.074 A 
ATOM     59  C   UNL A   1      42.620  31.015  36.399  1.00  0.00     0.031 C 
ATOM     60  C   UNL A   1      42.923  29.466  34.486  1.00  0.00     0.037 A 
BRANCH  47  61
ATOM     61  C   UNL A   1      40.507  27.836  29.039  1.00  0.00     0.064 A 
ATOM     62  C   UNL A   1      41.329  28.060  27.924  1.00  0.00     0.173 A 
ATOM     63  C   UNL A   1      39.719  26.676  29.049  1.00  0.00     0.173 A 
ATOM     64  F   UNL A   1      42.095  29.160  27.859  1.00  0.00    -0.203 F 
ATOM     65  C   UNL A   1      41.337  27.175  26.849  1.00  0.00     0.198 A 
ATOM     66  C   UNL A   1      39.753  25.776  27.986  1.00  0.00     0.198 A 
ATOM     67  F   UNL A   1      38.920  26.409  30.093  1.00  0.00    -0.203 F 
ATOM     68  F   UNL A   1      42.091  27.436  25.772  1.00  0.00    -0.200 F 
ATOM     69  C   UNL A   1      40.553  26.031  26.884  1.00  0.00     0.200 A 
ATOM     70  F   UNL A   1      39.005  24.664  28.027  1.00  0.00    -0.200 F 
ATOM     71  F   UNL A   1      40.566  25.177  25.851  1.00  0.00    -0.200 F 
ENDBRANCH  47  61
BRANCH  48  72
ATOM     72  C   UNL A   1      39.626  33.958  36.861  1.00  0.00     0.064 A 
ATOM     73  C   UNL A   1      40.195  35.238  36.911  1.00  0.00     0.173 A 
ATOM     74  C   UNL A   1      38.874  33.534  37.967  1.00  0.00     0.173 A 
ATOM     75  F   UNL A   1      40.938  35.680  35.886  1.00  0.00    -0.203 F 
ATOM     76  C   UNL A   1      40.029  36.057  38.026  1.00  0.00     0.198 A 
ATOM     77  C   UNL A   1      38.687  34.363  39.070  1.00  0.00     0.198 A 
ATOM     78  F   UNL A   1      38.304  32.320  37.965  1.00  0.00    -0.203 F 
ATOM     79  F   UNL A   1      40.613  37.262  38.063  1.00  0.00    -0.200 F 
ATOM     80  C   UNL A   1      39.269  35.621  39.101  1.00  0.00     0.200 A 
ATOM     81  F   UNL A   1      37.941  33.944  40.101  1.00  0.00    -0.200 F 
ATOM     82  F   UNL A   1      39.102  36.412  40.171  1.00  0.00    -0.200 F 
ENDBRANCH  48  72
BRANCH  60  83
ATOM     83  C   UNL A   1      44.109  28.884  35.199  1.00  0.00     0.064 A 
ATOM     84  C   UNL A   1      43.974  27.807  36.087  1.00  0.00     0.173 A 
ATOM     85  C   UNL A   1      45.397  29.387  34.964  1.00  0.00     0.173 A 
ATOM     86  F   UNL A   1      42.761  27.300  36.356  1.00  0.00    -0.203 F 
ATOM     87  C   UNL A   1      45.086  27.269  36.732  1.00  0.00     0.198 A 
ATOM     88  C   UNL A   1      46.509  28.828  35.589  1.00  0.00     0.198 A 
ATOM     89  F   UNL A   1      45.580  30.413  34.120  1.00  0.00    -0.203 F 
ATOM     90  F   UNL A   1      44.928  26.270  37.611  1.00  0.00    -0.200 F 
ATOM     91  C   UNL A   1      46.352  27.775  36.478  1.00  0.00     0.200 A 
ATOM     92  F   UNL A   1      47.732  29.311  35.333  1.00  0.00    -0.200 F 
ATOM     93  F   UNL A   1      47.420  27.253  37.095  1.00  0.00    -0.200 F 
ENDBRANCH  60  83
ENDBRANCH  34  35
ENDBRANCH  26  29
ENDBRANCH  24  25
ENDBRANCH  23  24
ENDBRANCH  22  23
ENDBRANCH   1  22
TORSDOF 15
ENDMDL
