MODEL 1
REMARK VINA RESULT:     -12.2      0.000      0.000
REMARK SMILES CS(=O)(=O)c1ccc(/C=C(/C(=O)NCCCCCCNC(=O)c2ccc(-c3c4nc(c(-c5c(F)c(F)c(F)c(F)c5F)c5ccc([nH]5)c(-c5c(F)c(F)c(F)c(F)c5F)c5nc(c(-c6c(F)c(F)c(F)c(F)c6F)c6ccc3[nH]6)C=C5)C=C4)cc2)c2ccccc2)cc1
REMARK SMILES IDX 16 1 15 2 14 3 13 4 11 5 12 6 10 8 9 9 8 10 5 11 6 12 93 13
REMARK SMILES IDX 7 14 92 15 2 16 1 17 3 18 4 19 86 20 87 21 91 22 88 23 90 24
REMARK SMILES IDX 89 25 17 26 18 27 19 28 20 29 21 30 22 32 23 33 24 34 85 35
REMARK SMILES IDX 25 36 84 37 26 38 27 39 28 40 78 41 29 42 83 43 77 44 79 45
REMARK SMILES IDX 30 46 82 47 76 48 75 49 31 51 63 52 43 53 62 54 44 55 47 56
REMARK SMILES IDX 61 57 80 58 45 59 46 60 60 62 81 63 48 64 32 65 33 66 41 67
REMARK SMILES IDX 34 68 35 69 39 70 42 71 36 72 37 73 40 74 38 75 64 76 65 77
REMARK SMILES IDX 73 78 66 79 67 80 71 81 74 82 68 83 69 84 72 85 70 86 49 87
REMARK SMILES IDX 50 88 58 89 51 90 52 91 56 92 59 93 53 94 54 95 57 96 55 97
REMARK H PARENT 13 7 20 31 79 50 47 61
REMARK Flexibility Score: inf
ROOT
ATOM      1  C   UNL A   1      33.458  26.720  22.430  1.00  0.00     0.002 C 
ENDROOT
BRANCH   1   2
ATOM      2  C   UNL A   1      32.384  25.944  21.648  1.00  0.00     0.021 C 
BRANCH   2   3
ATOM      3  C   UNL A   1      31.398  25.187  22.543  1.00  0.00     0.116 C 
BRANCH   3   4
ATOM      4  N   UNL A   1      31.683  25.468  23.936  1.00  0.00    -0.352 N 
ATOM      5  C   UNL A   1      32.180  24.746  24.972  1.00  0.00     0.251 C 
ATOM      6  O   UNL A   1      32.196  25.318  26.065  1.00  0.00    -0.269 OA
ATOM      7  H   UNL A   1      31.467  26.395  24.187  1.00  0.00     0.163 HD
BRANCH   5   8
ATOM      8  C   UNL A   1      32.774  23.363  24.829  1.00  0.00     0.047 C 
ATOM      9  C   UNL A   1      32.043  22.233  24.968  1.00  0.00     0.022 C 
BRANCH   9  10
ATOM     10  C   UNL A   1      32.457  20.828  24.753  1.00  0.00    -0.025 A 
ATOM     11  C   UNL A   1      33.184  18.126  24.515  1.00  0.00     0.067 A 
ATOM     12  C   UNL A   1      32.785  18.840  23.385  1.00  0.00     0.021 A 
ATOM     13  C   UNL A   1      33.273  18.758  25.755  1.00  0.00     0.021 A 
ATOM     14  C   UNL A   1      32.439  20.191  23.506  1.00  0.00     0.009 A 
ATOM     15  C   UNL A   1      32.908  20.103  25.870  1.00  0.00     0.009 A 
BRANCH  11  16
ATOM     16  S   UNL A   1      33.618  16.410  24.353  1.00  0.00     0.175 S 
ATOM     17  C   UNL A   1      35.058  16.235  25.373  1.00  0.00     0.163 C 
ATOM     18  O   UNL A   1      34.022  16.183  22.981  1.00  0.00    -0.224 OA
ATOM     19  O   UNL A   1      32.538  15.644  24.951  1.00  0.00    -0.224 OA
ENDBRANCH  11  16
ENDBRANCH   9  10
BRANCH   8  20
ATOM     20  C   UNL A   1      34.252  23.291  24.695  1.00  0.00    -0.013 A 
ATOM     21  C   UNL A   1      35.034  23.335  25.862  1.00  0.00     0.009 A 
ATOM     22  C   UNL A   1      34.884  23.117  23.459  1.00  0.00     0.009 A 
ATOM     23  C   UNL A   1      36.418  23.183  25.800  1.00  0.00     0.001 A 
ATOM     24  C   UNL A   1      36.273  22.958  23.399  1.00  0.00     0.001 A 
ATOM     25  C   UNL A   1      37.036  22.985  24.568  1.00  0.00     0.000 A 
ENDBRANCH   8  20
ENDBRANCH   5   8
ENDBRANCH   3   4
ENDBRANCH   2   3
ENDBRANCH   1   2
BRANCH   1  26
ATOM     26  C   UNL A   1      33.222  28.230  22.546  1.00  0.00     0.002 C 
BRANCH  26  27
ATOM     27  C   UNL A   1      34.125  28.955  23.547  1.00  0.00     0.021 C 
BRANCH  27  28
ATOM     28  C   UNL A   1      33.667  28.858  24.999  1.00  0.00     0.116 C 
BRANCH  28  29
ATOM     29  N   UNL A   1      32.926  30.038  25.420  1.00  0.00    -0.352 N 
ATOM     30  C   UNL A   1      33.100  30.810  26.543  1.00  0.00     0.251 C 
ATOM     31  H   UNL A   1      32.202  30.321  24.817  1.00  0.00     0.163 HD
ATOM     32  O   UNL A   1      32.272  31.663  26.845  1.00  0.00    -0.269 OA
BRANCH  30  33
ATOM     33  C   UNL A   1      34.281  30.593  27.403  1.00  0.00     0.039 A 
ATOM     34  C   UNL A   1      34.469  29.341  27.994  1.00  0.00     0.014 A 
ATOM     35  C   UNL A   1      35.199  31.624  27.626  1.00  0.00     0.014 A 
ATOM     36  C   UNL A   1      35.612  29.102  28.761  1.00  0.00     0.010 A 
ATOM     37  C   UNL A   1      36.365  31.369  28.343  1.00  0.00     0.010 A 
ATOM     38  C   UNL A   1      36.582  30.106  28.917  1.00  0.00    -0.014 A 
BRANCH  38  39
ATOM     39  C   UNL A   1      37.832  29.859  29.678  1.00  0.00     0.031 A 
ATOM     40  C   UNL A   1      38.874  28.926  29.130  1.00  0.00     0.074 A 
ATOM     41  C   UNL A   1      37.992  30.413  30.895  1.00  0.00     0.049 A 
ATOM     42  N   UNL A   1      39.983  28.506  29.684  1.00  0.00    -0.248 NA
ATOM     43  C   UNL A   1      38.623  28.371  27.792  1.00  0.00     0.031 C 
ATOM     44  C   UNL A   1      37.032  31.300  31.554  1.00  0.00     0.029 A 
ATOM     45  N   UNL A   1      39.015  30.298  31.802  1.00  0.00    -0.354 N 
ATOM     46  C   UNL A   1      40.549  27.624  28.774  1.00  0.00     0.074 A 
ATOM     47  C   UNL A   1      39.641  27.537  27.649  1.00  0.00     0.031 C 
ATOM     48  C   UNL A   1      37.517  31.659  32.753  1.00  0.00     0.029 A 
ATOM     49  C   UNL A   1      38.805  31.002  32.961  1.00  0.00     0.049 A 
ATOM     50  H   UNL A   1      39.825  29.762  31.636  1.00  0.00     0.167 HD
ATOM     51  C   UNL A   1      41.728  26.963  28.859  1.00  0.00     0.037 A 
ATOM     52  C   UNL A   1      39.562  31.099  34.071  1.00  0.00     0.037 A 
ATOM     53  C   UNL A   1      42.644  27.078  29.962  1.00  0.00     0.049 A 
ATOM     54  C   UNL A   1      40.870  30.360  34.137  1.00  0.00     0.074 A 
ATOM     55  C   UNL A   1      43.894  26.504  30.109  1.00  0.00     0.029 A 
ATOM     56  N   UNL A   1      42.407  27.820  31.109  1.00  0.00    -0.354 N 
ATOM     57  N   UNL A   1      41.424  29.578  33.243  1.00  0.00    -0.248 NA
ATOM     58  C   UNL A   1      41.659  30.522  35.367  1.00  0.00     0.031 C 
ATOM     59  C   UNL A   1      44.399  26.871  31.361  1.00  0.00     0.029 A 
ATOM     60  C   UNL A   1      43.480  27.705  31.978  1.00  0.00     0.049 A 
ATOM     61  H   UNL A   1      41.595  28.351  31.281  1.00  0.00     0.167 HD
ATOM     62  C   UNL A   1      42.633  29.171  33.790  1.00  0.00     0.074 A 
ATOM     63  C   UNL A   1      42.740  29.805  35.087  1.00  0.00     0.031 C 
ATOM     64  C   UNL A   1      43.570  28.344  33.264  1.00  0.00     0.037 A 
BRANCH  51  65
ATOM     65  C   UNL A   1      42.095  26.057  27.722  1.00  0.00     0.064 A 
ATOM     66  C   UNL A   1      42.930  26.487  26.680  1.00  0.00     0.173 A 
ATOM     67  C   UNL A   1      41.634  24.732  27.688  1.00  0.00     0.173 A 
ATOM     68  F   UNL A   1      43.387  27.748  26.660  1.00  0.00    -0.203 F 
ATOM     69  C   UNL A   1      43.267  25.635  25.633  1.00  0.00     0.198 A 
ATOM     70  C   UNL A   1      41.994  23.873  26.654  1.00  0.00     0.198 A 
ATOM     71  F   UNL A   1      40.836  24.269  28.663  1.00  0.00    -0.203 F 
ATOM     72  F   UNL A   1      44.028  26.083  24.624  1.00  0.00    -0.200 F 
ATOM     73  C   UNL A   1      42.804  24.328  25.624  1.00  0.00     0.200 A 
ATOM     74  F   UNL A   1      41.555  22.608  26.650  1.00  0.00    -0.200 F 
ATOM     75  F   UNL A   1      43.132  23.506  24.616  1.00  0.00    -0.200 F 
ENDBRANCH  51  65
BRANCH  52  76
ATOM     76  C   UNL A   1      39.109  31.947  35.203  1.00  0.00     0.064 A 
ATOM     77  C   UNL A   1      39.384  33.322  35.221  1.00  0.00     0.173 A 
ATOM     78  C   UNL A   1      38.399  31.407  36.284  1.00  0.00     0.173 A 
ATOM     79  F   UNL A   1      40.078  33.880  34.219  1.00  0.00    -0.203 F 
ATOM     80  C   UNL A   1      38.976  34.122  36.287  1.00  0.00     0.198 A 
ATOM     81  C   UNL A   1      37.972  32.212  37.338  1.00  0.00     0.198 A 
ATOM     82  F   UNL A   1      38.109  30.098  36.310  1.00  0.00    -0.203 F 
ATOM     83  F   UNL A   1      39.284  35.426  36.299  1.00  0.00    -0.200 F 
ATOM     84  C   UNL A   1      38.267  33.567  37.342  1.00  0.00     0.200 A 
ATOM     85  F   UNL A   1      37.276  31.675  38.349  1.00  0.00    -0.200 F 
ATOM     86  F   UNL A   1      37.873  34.337  38.365  1.00  0.00    -0.200 F 
ENDBRANCH  52  76
BRANCH  64  87
ATOM     87  C   UNL A   1      44.801  28.097  34.084  1.00  0.00     0.064 A 
ATOM     88  C   UNL A   1      45.915  28.944  34.006  1.00  0.00     0.173 A 
ATOM     89  C   UNL A   1      44.850  27.024  34.987  1.00  0.00     0.173 A 
ATOM     90  F   UNL A   1      45.921  29.973  33.144  1.00  0.00    -0.203 F 
ATOM     91  C   UNL A   1      47.043  28.713  34.787  1.00  0.00     0.198 A 
ATOM     92  C   UNL A   1      45.970  26.811  35.784  1.00  0.00     0.198 A 
ATOM     93  F   UNL A   1      43.807  26.188  35.101  1.00  0.00    -0.203 F 
ATOM     94  F   UNL A   1      48.114  29.511  34.666  1.00  0.00    -0.200 F 
ATOM     95  C   UNL A   1      47.068  27.652  35.680  1.00  0.00     0.200 A 
ATOM     96  F   UNL A   1      45.988  25.792  36.654  1.00  0.00    -0.200 F 
ATOM     97  F   UNL A   1      48.153  27.436  36.436  1.00  0.00    -0.200 F 
ENDBRANCH  64  87
ENDBRANCH  38  39
ENDBRANCH  30  33
ENDBRANCH  28  29
ENDBRANCH  27  28
ENDBRANCH  26  27
ENDBRANCH   1  26
TORSDOF 16
ENDMDL
MODEL 2
REMARK VINA RESULT:     -12.2      2.205      7.333
REMARK SMILES CS(=O)(=O)c1ccc(/C=C(/C(=O)NCCCCCCNC(=O)c2ccc(-c3c4nc(c(-c5c(F)c(F)c(F)c(F)c5F)c5ccc([nH]5)c(-c5c(F)c(F)c(F)c(F)c5F)c5nc(c(-c6c(F)c(F)c(F)c(F)c6F)c6ccc3[nH]6)C=C5)C=C4)cc2)c2ccccc2)cc1
REMARK SMILES IDX 16 1 15 2 14 3 13 4 11 5 12 6 10 8 9 9 8 10 5 11 6 12 93 13
REMARK SMILES IDX 7 14 92 15 2 16 1 17 3 18 4 19 86 20 87 21 91 22 88 23 90 24
REMARK SMILES IDX 89 25 17 26 18 27 19 28 20 29 21 30 22 32 23 33 24 34 85 35
REMARK SMILES IDX 25 36 84 37 26 38 27 39 28 40 78 41 29 42 83 43 77 44 79 45
REMARK SMILES IDX 30 46 82 47 76 48 75 49 31 51 63 52 43 53 62 54 44 55 47 56
REMARK SMILES IDX 61 57 80 58 45 59 46 60 60 62 81 63 48 64 32 65 33 66 41 67
REMARK SMILES IDX 34 68 35 69 39 70 42 71 36 72 37 73 40 74 38 75 64 76 65 77
REMARK SMILES IDX 73 78 66 79 67 80 71 81 74 82 68 83 69 84 72 85 70 86 49 87
REMARK SMILES IDX 50 88 58 89 51 90 52 91 56 92 59 93 53 94 54 95 57 96 55 97
REMARK H PARENT 13 7 20 31 79 50 47 61
REMARK Flexibility Score: inf
ROOT
ATOM      1  C   UNL A   1      33.439  26.870  23.224  1.00  0.00     0.002 C 
ENDROOT
BRANCH   1   2
ATOM      2  C   UNL A   1      32.014  26.773  22.653  1.00  0.00     0.021 C 
BRANCH   2   3
ATOM      3  C   UNL A   1      31.208  25.592  23.204  1.00  0.00     0.116 C 
BRANCH   3   4
ATOM      4  N   UNL A   1      31.269  25.589  24.652  1.00  0.00    -0.352 N 
ATOM      5  C   UNL A   1      31.647  24.683  25.589  1.00  0.00     0.251 C 
ATOM      6  O   UNL A   1      31.469  25.020  26.762  1.00  0.00    -0.269 OA
ATOM      7  H   UNL A   1      30.967  26.440  25.045  1.00  0.00     0.163 HD
BRANCH   5   8
ATOM      8  C   UNL A   1      32.331  23.373  25.268  1.00  0.00     0.047 C 
ATOM      9  C   UNL A   1      31.711  22.176  25.377  1.00  0.00     0.022 C 
BRANCH   9  10
ATOM     10  C   UNL A   1      32.212  20.835  25.000  1.00  0.00    -0.025 A 
ATOM     11  C   UNL A   1      33.118  18.233  24.455  1.00  0.00     0.067 A 
ATOM     12  C   UNL A   1      32.589  19.014  23.427  1.00  0.00     0.021 A 
ATOM     13  C   UNL A   1      33.248  18.753  25.743  1.00  0.00     0.021 A 
ATOM     14  C   UNL A   1      32.153  20.315  23.701  1.00  0.00     0.009 A 
ATOM     15  C   UNL A   1      32.793  20.048  26.010  1.00  0.00     0.009 A 
BRANCH  11  16
ATOM     16  S   UNL A   1      33.665  16.580  24.100  1.00  0.00     0.175 S 
ATOM     17  C   UNL A   1      35.153  16.408  25.050  1.00  0.00     0.163 C 
ATOM     18  O   UNL A   1      34.030  16.525  22.700  1.00  0.00    -0.224 OA
ATOM     19  O   UNL A   1      32.666  15.678  24.648  1.00  0.00    -0.224 OA
ENDBRANCH  11  16
ENDBRANCH   9  10
BRANCH   8  20
ATOM     20  C   UNL A   1      33.789  23.443  24.988  1.00  0.00    -0.013 A 
ATOM     21  C   UNL A   1      34.677  23.539  26.074  1.00  0.00     0.009 A 
ATOM     22  C   UNL A   1      34.308  23.351  23.692  1.00  0.00     0.009 A 
ATOM     23  C   UNL A   1      36.056  23.519  25.872  1.00  0.00     0.001 A 
ATOM     24  C   UNL A   1      35.691  23.325  23.492  1.00  0.00     0.001 A 
ATOM     25  C   UNL A   1      36.562  23.402  24.580  1.00  0.00     0.000 A 
ENDBRANCH   8  20
ENDBRANCH   5   8
ENDBRANCH   3   4
ENDBRANCH   2   3
ENDBRANCH   1   2
BRANCH   1  26
ATOM     26  C   UNL A   1      33.640  27.934  24.309  1.00  0.00     0.002 C 
BRANCH  26  27
ATOM     27  C   UNL A   1      34.328  27.442  25.584  1.00  0.00     0.021 C 
BRANCH  27  28
ATOM     28  C   UNL A   1      33.659  27.891  26.879  1.00  0.00     0.116 C 
BRANCH  28  29
ATOM     29  N   UNL A   1      33.403  29.323  26.896  1.00  0.00    -0.352 N 
ATOM     30  C   UNL A   1      34.154  30.327  27.457  1.00  0.00     0.251 C 
ATOM     31  H   UNL A   1      32.579  29.612  26.442  1.00  0.00     0.163 HD
ATOM     32  O   UNL A   1      33.707  31.466  27.544  1.00  0.00    -0.269 OA
BRANCH  30  33
ATOM     33  C   UNL A   1      35.503  30.025  27.981  1.00  0.00     0.039 A 
ATOM     34  C   UNL A   1      35.645  29.674  29.326  1.00  0.00     0.014 A 
ATOM     35  C   UNL A   1      36.622  30.091  27.146  1.00  0.00     0.014 A 
ATOM     36  C   UNL A   1      36.904  29.328  29.821  1.00  0.00     0.010 A 
ATOM     37  C   UNL A   1      37.867  29.690  27.626  1.00  0.00     0.010 A 
ATOM     38  C   UNL A   1      38.019  29.306  28.967  1.00  0.00    -0.014 A 
BRANCH  38  39
ATOM     39  C   UNL A   1      39.356  28.886  29.456  1.00  0.00     0.031 A 
ATOM     40  C   UNL A   1      40.125  29.771  30.394  1.00  0.00     0.074 A 
ATOM     41  C   UNL A   1      39.907  27.747  28.995  1.00  0.00     0.049 A 
ATOM     42  N   UNL A   1      41.343  29.630  30.856  1.00  0.00    -0.248 NA
ATOM     43  C   UNL A   1      39.446  30.992  30.854  1.00  0.00     0.031 C 
ATOM     44  C   UNL A   1      39.278  26.826  28.047  1.00  0.00     0.029 A 
ATOM     45  N   UNL A   1      41.130  27.179  29.250  1.00  0.00    -0.354 N 
ATOM     46  C   UNL A   1      41.581  30.750  31.640  1.00  0.00     0.074 A 
ATOM     47  C   UNL A   1      40.399  31.582  31.560  1.00  0.00     0.031 C 
ATOM     48  C   UNL A   1      40.113  25.802  27.811  1.00  0.00     0.029 A 
ATOM     49  C   UNL A   1      41.348  26.011  28.562  1.00  0.00     0.049 A 
ATOM     50  H   UNL A   1      41.788  27.571  29.867  1.00  0.00     0.167 HD
ATOM     51  C   UNL A   1      42.678  31.047  32.377  1.00  0.00     0.037 A 
ATOM     52  C   UNL A   1      42.426  25.204  28.534  1.00  0.00     0.037 A 
ATOM     53  C   UNL A   1      43.838  30.202  32.482  1.00  0.00     0.049 A 
ATOM     54  C   UNL A   1      43.628  25.554  29.367  1.00  0.00     0.074 A 
ATOM     55  C   UNL A   1      44.969  30.382  33.258  1.00  0.00     0.029 A 
ATOM     56  N   UNL A   1      44.012  29.014  31.790  1.00  0.00    -0.354 N 
ATOM     57  N   UNL A   1      43.818  26.585  30.154  1.00  0.00    -0.248 NA
ATOM     58  C   UNL A   1      44.765  24.624  29.309  1.00  0.00     0.031 C 
ATOM     59  C   UNL A   1      45.844  29.319  33.008  1.00  0.00     0.029 A 
ATOM     60  C   UNL A   1      45.241  28.458  32.105  1.00  0.00     0.049 A 
ATOM     61  H   UNL A   1      43.358  28.622  31.165  1.00  0.00     0.167 HD
ATOM     62  C   UNL A   1      45.083  26.419  30.701  1.00  0.00     0.074 A 
ATOM     63  C   UNL A   1      45.610  25.180  30.168  1.00  0.00     0.031 C 
ATOM     64  C   UNL A   1      45.748  27.223  31.566  1.00  0.00     0.037 A 
BRANCH  51  65
ATOM     65  C   UNL A   1      42.673  32.343  33.131  1.00  0.00     0.064 A 
ATOM     66  C   UNL A   1      43.153  33.530  32.556  1.00  0.00     0.173 A 
ATOM     67  C   UNL A   1      42.153  32.409  34.433  1.00  0.00     0.173 A 
ATOM     68  F   UNL A   1      43.671  33.517  31.319  1.00  0.00    -0.203 F 
ATOM     69  C   UNL A   1      43.138  34.727  33.265  1.00  0.00     0.198 A 
ATOM     70  C   UNL A   1      42.115  33.613  35.130  1.00  0.00     0.198 A 
ATOM     71  F   UNL A   1      41.676  31.304  35.027  1.00  0.00    -0.203 F 
ATOM     72  F   UNL A   1      43.645  35.838  32.712  1.00  0.00    -0.200 F 
ATOM     73  C   UNL A   1      42.614  34.769  34.548  1.00  0.00     0.200 A 
ATOM     74  F   UNL A   1      41.600  33.655  36.366  1.00  0.00    -0.200 F 
ATOM     75  F   UNL A   1      42.597  35.924  35.229  1.00  0.00    -0.200 F 
ENDBRANCH  51  65
BRANCH  52  76
ATOM     76  C   UNL A   1      42.408  23.974  27.703  1.00  0.00     0.064 A 
ATOM     77  C   UNL A   1      42.757  24.021  26.347  1.00  0.00     0.173 A 
ATOM     78  C   UNL A   1      42.042  22.732  28.242  1.00  0.00     0.173 A 
ATOM     79  F   UNL A   1      43.094  25.190  25.783  1.00  0.00    -0.203 F 
ATOM     80  C   UNL A   1      42.728  22.874  25.556  1.00  0.00     0.198 A 
ATOM     81  C   UNL A   1      42.036  21.582  27.456  1.00  0.00     0.198 A 
ATOM     82  F   UNL A   1      41.704  22.635  29.536  1.00  0.00    -0.203 F 
ATOM     83  F   UNL A   1      43.029  22.953  24.253  1.00  0.00    -0.200 F 
ATOM     84  C   UNL A   1      42.372  21.654  26.113  1.00  0.00     0.200 A 
ATOM     85  F   UNL A   1      41.704  20.403  28.001  1.00  0.00    -0.200 F 
ATOM     86  F   UNL A   1      42.347  20.552  25.353  1.00  0.00    -0.200 F 
ENDBRANCH  52  76
BRANCH  64  87
ATOM     87  C   UNL A   1      47.110  26.775  32.006  1.00  0.00     0.064 A 
ATOM     88  C   UNL A   1      47.278  25.899  33.087  1.00  0.00     0.173 A 
ATOM     89  C   UNL A   1      48.255  27.196  31.313  1.00  0.00     0.173 A 
ATOM     90  F   UNL A   1      46.214  25.483  33.791  1.00  0.00    -0.203 F 
ATOM     91  C   UNL A   1      48.547  25.476  33.472  1.00  0.00     0.198 A 
ATOM     92  C   UNL A   1      49.520  26.751  31.686  1.00  0.00     0.198 A 
ATOM     93  F   UNL A   1      48.145  28.031  30.270  1.00  0.00    -0.203 F 
ATOM     94  F   UNL A   1      48.689  24.671  34.535  1.00  0.00    -0.200 F 
ATOM     95  C   UNL A   1      49.666  25.896  32.768  1.00  0.00     0.200 A 
ATOM     96  F   UNL A   1      50.598  27.151  30.998  1.00  0.00    -0.200 F 
ATOM     97  F   UNL A   1      50.886  25.483  33.137  1.00  0.00    -0.200 F 
ENDBRANCH  64  87
ENDBRANCH  38  39
ENDBRANCH  30  33
ENDBRANCH  28  29
ENDBRANCH  27  28
ENDBRANCH  26  27
ENDBRANCH   1  26
TORSDOF 16
ENDMDL
MODEL 3
REMARK VINA RESULT:     -12.0      0.712      7.285
REMARK SMILES CS(=O)(=O)c1ccc(/C=C(/C(=O)NCCCCCCNC(=O)c2ccc(-c3c4nc(c(-c5c(F)c(F)c(F)c(F)c5F)c5ccc([nH]5)c(-c5c(F)c(F)c(F)c(F)c5F)c5nc(c(-c6c(F)c(F)c(F)c(F)c6F)c6ccc3[nH]6)C=C5)C=C4)cc2)c2ccccc2)cc1
REMARK SMILES IDX 16 1 15 2 14 3 13 4 11 5 12 6 10 8 9 9 8 10 5 11 6 12 93 13
REMARK SMILES IDX 7 14 92 15 2 16 1 17 3 18 4 19 86 20 87 21 91 22 88 23 90 24
REMARK SMILES IDX 89 25 17 26 18 27 19 28 20 29 21 30 22 32 23 33 24 34 85 35
REMARK SMILES IDX 25 36 84 37 26 38 27 39 28 40 78 41 29 42 83 43 77 44 79 45
REMARK SMILES IDX 30 46 82 47 76 48 75 49 31 51 63 52 43 53 62 54 44 55 47 56
REMARK SMILES IDX 61 57 80 58 45 59 46 60 60 62 81 63 48 64 32 65 33 66 41 67
REMARK SMILES IDX 34 68 35 69 39 70 42 71 36 72 37 73 40 74 38 75 64 76 65 77
REMARK SMILES IDX 73 78 66 79 67 80 71 81 74 82 68 83 69 84 72 85 70 86 49 87
REMARK SMILES IDX 50 88 58 89 51 90 52 91 56 92 59 93 53 94 54 95 57 96 55 97
REMARK H PARENT 13 7 20 31 79 50 47 61
REMARK Flexibility Score: inf
ROOT
ATOM      1  C   UNL A   1      32.224  28.087  23.143  1.00  0.00     0.002 C 
ENDROOT
BRANCH   1   2
ATOM      2  C   UNL A   1      31.495  26.956  22.399  1.00  0.00     0.021 C 
BRANCH   2   3
ATOM      3  C   UNL A   1      31.832  25.556  22.923  1.00  0.00     0.116 C 
BRANCH   3   4
ATOM      4  N   UNL A   1      31.714  25.532  24.368  1.00  0.00    -0.352 N 
ATOM      5  C   UNL A   1      31.924  24.593  25.326  1.00  0.00     0.251 C 
ATOM      6  O   UNL A   1      31.622  24.925  26.475  1.00  0.00    -0.269 OA
ATOM      7  H   UNL A   1      31.412  26.393  24.738  1.00  0.00     0.163 HD
BRANCH   5   8
ATOM      8  C   UNL A   1      32.571  23.252  25.066  1.00  0.00     0.047 C 
ATOM      9  C   UNL A   1      31.912  22.080  25.208  1.00  0.00     0.022 C 
BRANCH   9  10
ATOM     10  C   UNL A   1      32.375  20.710  24.890  1.00  0.00    -0.025 A 
ATOM     11  C   UNL A   1      33.210  18.064  24.458  1.00  0.00     0.067 A 
ATOM     12  C   UNL A   1      32.696  18.812  23.399  1.00  0.00     0.021 A 
ATOM     13  C   UNL A   1      33.360  18.637  25.721  1.00  0.00     0.021 A 
ATOM     14  C   UNL A   1      32.295  20.135  23.616  1.00  0.00     0.009 A 
ATOM     15  C   UNL A   1      32.941  19.955  25.932  1.00  0.00     0.009 A 
BRANCH  11  16
ATOM     16  S   UNL A   1      33.712  16.383  24.175  1.00  0.00     0.175 S 
ATOM     17  C   UNL A   1      35.173  16.200  25.164  1.00  0.00     0.163 C 
ATOM     18  O   UNL A   1      34.105  16.265  22.787  1.00  0.00    -0.224 OA
ATOM     19  O   UNL A   1      32.673  15.533  24.733  1.00  0.00    -0.224 OA
ENDBRANCH  11  16
ENDBRANCH   9  10
BRANCH   8  20
ATOM     20  C   UNL A   1      34.035  23.266  24.809  1.00  0.00    -0.013 A 
ATOM     21  C   UNL A   1      34.908  23.388  25.904  1.00  0.00     0.009 A 
ATOM     22  C   UNL A   1      34.571  23.096  23.528  1.00  0.00     0.009 A 
ATOM     23  C   UNL A   1      36.288  23.318  25.727  1.00  0.00     0.001 A 
ATOM     24  C   UNL A   1      35.957  23.019  23.353  1.00  0.00     0.001 A 
ATOM     25  C   UNL A   1      36.812  23.124  24.452  1.00  0.00     0.000 A 
ENDBRANCH   8  20
ENDBRANCH   5   8
ENDBRANCH   3   4
ENDBRANCH   2   3
ENDBRANCH   1   2
BRANCH   1  26
ATOM     26  C   UNL A   1      31.343  28.942  24.062  1.00  0.00     0.002 C 
BRANCH  26  27
ATOM     27  C   UNL A   1      31.725  28.910  25.543  1.00  0.00     0.021 C 
BRANCH  27  28
ATOM     28  C   UNL A   1      33.007  29.666  25.883  1.00  0.00     0.116 C 
BRANCH  28  29
ATOM     29  N   UNL A   1      32.744  31.042  26.276  1.00  0.00    -0.352 N 
ATOM     30  C   UNL A   1      33.381  31.805  27.224  1.00  0.00     0.251 C 
ATOM     31  H   UNL A   1      32.009  31.487  25.796  1.00  0.00     0.163 HD
ATOM     32  O   UNL A   1      32.919  32.889  27.564  1.00  0.00    -0.269 OA
BRANCH  30  33
ATOM     33  C   UNL A   1      34.620  31.304  27.854  1.00  0.00     0.039 A 
ATOM     34  C   UNL A   1      35.706  32.171  27.999  1.00  0.00     0.014 A 
ATOM     35  C   UNL A   1      34.708  29.981  28.298  1.00  0.00     0.014 A 
ATOM     36  C   UNL A   1      36.862  31.729  28.646  1.00  0.00     0.010 A 
ATOM     37  C   UNL A   1      35.839  29.559  28.993  1.00  0.00     0.010 A 
ATOM     38  C   UNL A   1      36.926  30.429  29.173  1.00  0.00    -0.014 A 
BRANCH  38  39
ATOM     39  C   UNL A   1      38.121  29.956  29.915  1.00  0.00     0.031 A 
ATOM     40  C   UNL A   1      38.389  30.458  31.305  1.00  0.00     0.074 A 
ATOM     41  C   UNL A   1      39.001  29.136  29.309  1.00  0.00     0.049 A 
ATOM     42  N   UNL A   1      39.424  30.241  32.078  1.00  0.00    -0.248 NA
ATOM     43  C   UNL A   1      37.374  31.343  31.894  1.00  0.00     0.031 C 
ATOM     44  C   UNL A   1      38.873  28.616  27.947  1.00  0.00     0.029 A 
ATOM     45  N   UNL A   1      40.186  28.610  29.757  1.00  0.00    -0.354 N 
ATOM     46  C   UNL A   1      39.193  30.977  33.232  1.00  0.00     0.074 A 
ATOM     47  C   UNL A   1      37.941  31.680  33.042  1.00  0.00     0.031 C 
ATOM     48  C   UNL A   1      39.930  27.835  27.675  1.00  0.00     0.029 A 
ATOM     49  C   UNL A   1      40.825  27.826  28.829  1.00  0.00     0.049 A 
ATOM     50  H   UNL A   1      40.544  28.777  30.658  1.00  0.00     0.167 HD
ATOM     51  C   UNL A   1      39.946  31.045  34.356  1.00  0.00     0.037 A 
ATOM     52  C   UNL A   1      42.006  27.181  28.897  1.00  0.00     0.037 A 
ATOM     53  C   UNL A   1      41.172  30.319  34.556  1.00  0.00     0.049 A 
ATOM     54  C   UNL A   1      42.819  27.268  30.159  1.00  0.00     0.074 A 
ATOM     55  C   UNL A   1      41.969  30.266  35.685  1.00  0.00     0.029 A 
ATOM     56  N   UNL A   1      41.776  29.516  33.601  1.00  0.00    -0.354 N 
ATOM     57  N   UNL A   1      42.560  27.918  31.267  1.00  0.00    -0.248 NA
ATOM     58  C   UNL A   1      44.088  26.527  30.180  1.00  0.00     0.031 C 
ATOM     59  C   UNL A   1      43.076  29.458  35.401  1.00  0.00     0.029 A 
ATOM     60  C   UNL A   1      42.948  28.977  34.107  1.00  0.00     0.049 A 
ATOM     61  H   UNL A   1      41.424  29.352  32.695  1.00  0.00     0.167 HD
ATOM     62  C   UNL A   1      43.619  27.649  32.124  1.00  0.00     0.074 A 
ATOM     63  C   UNL A   1      44.517  26.764  31.412  1.00  0.00     0.031 C 
ATOM     64  C   UNL A   1      43.828  28.097  33.386  1.00  0.00     0.037 A 
BRANCH  51  65
ATOM     65  C   UNL A   1      39.460  31.936  35.460  1.00  0.00     0.064 A 
ATOM     66  C   UNL A   1      38.553  31.477  36.428  1.00  0.00     0.173 A 
ATOM     67  C   UNL A   1      39.929  33.253  35.573  1.00  0.00     0.173 A 
ATOM     68  F   UNL A   1      38.065  30.229  36.357  1.00  0.00    -0.203 F 
ATOM     69  C   UNL A   1      38.113  32.312  37.451  1.00  0.00     0.198 A 
ATOM     70  C   UNL A   1      39.508  34.078  36.612  1.00  0.00     0.198 A 
ATOM     71  F   UNL A   1      40.801  33.739  34.676  1.00  0.00    -0.203 F 
ATOM     72  F   UNL A   1      37.211  31.867  38.336  1.00  0.00    -0.200 F 
ATOM     73  C   UNL A   1      38.595  33.609  37.545  1.00  0.00     0.200 A 
ATOM     74  F   UNL A   1      39.981  35.327  36.709  1.00  0.00    -0.200 F 
ATOM     75  F   UNL A   1      38.173  34.412  38.533  1.00  0.00    -0.200 F 
ENDBRANCH  51  65
BRANCH  52  76
ATOM     76  C   UNL A   1      42.479  26.379  27.741  1.00  0.00     0.064 A 
ATOM     77  C   UNL A   1      42.042  25.060  27.559  1.00  0.00     0.173 A 
ATOM     78  C   UNL A   1      43.373  26.909  26.799  1.00  0.00     0.173 A 
ATOM     79  F   UNL A   1      41.204  24.504  28.445  1.00  0.00    -0.203 F 
ATOM     80  C   UNL A   1      42.493  24.295  26.485  1.00  0.00     0.198 A 
ATOM     81  C   UNL A   1      43.805  26.151  25.713  1.00  0.00     0.198 A 
ATOM     82  F   UNL A   1      43.815  28.168  26.928  1.00  0.00    -0.203 F 
ATOM     83  F   UNL A   1      42.091  23.024  26.355  1.00  0.00    -0.200 F 
ATOM     84  C   UNL A   1      43.371  24.843  25.560  1.00  0.00     0.200 A 
ATOM     85  F   UNL A   1      44.642  26.688  24.815  1.00  0.00    -0.200 F 
ATOM     86  F   UNL A   1      43.802  24.108  24.527  1.00  0.00    -0.200 F 
ENDBRANCH  52  76
BRANCH  64  87
ATOM     87  C   UNL A   1      45.066  27.619  34.084  1.00  0.00     0.064 A 
ATOM     88  C   UNL A   1      46.265  28.342  34.025  1.00  0.00     0.173 A 
ATOM     89  C   UNL A   1      45.040  26.445  34.853  1.00  0.00     0.173 A 
ATOM     90  F   UNL A   1      46.343  29.461  33.289  1.00  0.00    -0.203 F 
ATOM     91  C   UNL A   1      47.401  27.897  34.695  1.00  0.00     0.198 A 
ATOM     92  C   UNL A   1      46.171  26.017  35.541  1.00  0.00     0.198 A 
ATOM     93  F   UNL A   1      43.915  25.721  34.944  1.00  0.00    -0.203 F 
ATOM     94  F   UNL A   1      48.549  28.582  34.591  1.00  0.00    -0.200 F 
ATOM     95  C   UNL A   1      47.352  26.739  35.457  1.00  0.00     0.200 A 
ATOM     96  F   UNL A   1      46.119  24.903  36.286  1.00  0.00    -0.200 F 
ATOM     97  F   UNL A   1      48.445  26.316  36.106  1.00  0.00    -0.200 F 
ENDBRANCH  64  87
ENDBRANCH  38  39
ENDBRANCH  30  33
ENDBRANCH  28  29
ENDBRANCH  27  28
ENDBRANCH  26  27
ENDBRANCH   1  26
TORSDOF 16
ENDMDL
