MODEL 1
REMARK VINA RESULT:     -12.8      0.000      0.000
REMARK SMILES O=C(NCCCCCCNC(=O)[C@@H]1[C@H](C(=O)Nc2cccc(Cl)c2F)[C@@H]2C=C[C@H]1C2)c1ccc(-c2c3nc(c(-c4c(F)c(F)c(F)c(F)c4F)c4ccc([nH]4)c(-c4c(F)c(F)c(F)c(F)c4F)c4nc(c(-c5c(F)c(F)c(F)c(F)c5F)c5ccc2[nH]5)C=C4)C=C3)cc1
REMARK SMILES IDX 6 1 5 2 4 3 3 4 1 5 2 6 31 8 32 9 93 10 33 11 92 12 34 13
REMARK SMILES IDX 35 14 36 15 86 16 37 17 91 18 85 19 87 20 38 21 90 22 84 23
REMARK SMILES IDX 83 24 39 26 71 27 51 28 70 29 52 30 55 31 69 32 88 33 53 34
REMARK SMILES IDX 54 35 68 37 89 38 56 39 40 40 41 41 49 42 42 43 43 44 47 45
REMARK SMILES IDX 50 46 44 47 45 48 48 49 46 50 72 51 73 52 81 53 74 54 75 55
REMARK SMILES IDX 79 56 82 57 76 58 77 59 80 60 78 61 57 62 58 63 66 64 59 65
REMARK SMILES IDX 60 66 64 67 67 68 61 69 62 70 65 71 63 72 7 73 8 74 9 75
REMARK SMILES IDX 10 76 11 77 12 79 13 80 14 81 29 82 26 83 28 84 30 85 27 86
REMARK SMILES IDX 15 87 16 88 17 89 18 91 19 92 24 93 20 94 22 95 25 96 21 97
REMARK SMILES IDX 23 98
REMARK H PARENT 3 7 87 25 55 36 10 78 17 90
REMARK Flexibility Score: inf
ROOT
ATOM      1  C   UNL A   1      31.778  30.807  26.233  1.00  0.00     0.002 C 
ENDROOT
BRANCH   1   2
ATOM      2  C   UNL A   1      31.536  32.186  26.853  1.00  0.00     0.021 C 
BRANCH   2   3
ATOM      3  C   UNL A   1      32.806  32.898  27.314  1.00  0.00     0.116 C 
BRANCH   3   4
ATOM      4  N   UNL A   1      32.529  34.282  27.652  1.00  0.00    -0.352 N 
ATOM      5  O   UNL A   1      32.502  36.028  29.094  1.00  0.00    -0.269 OA
ATOM      6  C   UNL A   1      33.027  34.990  28.719  1.00  0.00     0.251 C 
ATOM      7  H   UNL A   1      31.918  34.766  27.051  1.00  0.00     0.163 HD
BRANCH   6   8
ATOM      8  C   UNL A   1      34.227  34.468  29.402  1.00  0.00     0.039 A 
ATOM      9  C   UNL A   1      34.080  33.755  30.598  1.00  0.00     0.014 A 
ATOM     10  C   UNL A   1      35.489  34.677  28.845  1.00  0.00     0.014 A 
ATOM     11  C   UNL A   1      35.206  33.307  31.275  1.00  0.00     0.010 A 
ATOM     12  C   UNL A   1      36.614  34.157  29.488  1.00  0.00     0.010 A 
ATOM     13  C   UNL A   1      36.478  33.459  30.699  1.00  0.00    -0.014 A 
BRANCH  13  14
ATOM     14  C   UNL A   1      37.629  32.736  31.289  1.00  0.00     0.031 A 
ATOM     15  C   UNL A   1      38.259  31.566  30.599  1.00  0.00     0.074 A 
ATOM     16  C   UNL A   1      38.070  33.144  32.496  1.00  0.00     0.049 A 
ATOM     17  N   UNL A   1      39.222  30.786  31.020  1.00  0.00    -0.248 NA
ATOM     18  C   UNL A   1      37.741  31.215  29.268  1.00  0.00     0.031 C 
ATOM     19  C   UNL A   1      37.510  34.265  33.258  1.00  0.00     0.029 A 
ATOM     20  N   UNL A   1      39.073  32.669  33.299  1.00  0.00    -0.354 N 
ATOM     21  C   UNL A   1      39.410  29.839  30.024  1.00  0.00     0.074 A 
ATOM     22  C   UNL A   1      38.456  30.134  28.975  1.00  0.00     0.031 C 
ATOM     23  C   UNL A   1      38.185  34.400  34.408  1.00  0.00     0.029 A 
ATOM     24  C   UNL A   1      39.171  33.332  34.499  1.00  0.00     0.049 A 
ATOM     25  H   UNL A   1      39.666  31.927  33.041  1.00  0.00     0.167 HD
ATOM     26  C   UNL A   1      40.302  28.820  30.000  1.00  0.00     0.037 A 
ATOM     27  C   UNL A   1      39.934  33.078  35.577  1.00  0.00     0.037 A 
ATOM     28  C   UNL A   1      41.255  28.556  31.049  1.00  0.00     0.049 A 
ATOM     29  C   UNL A   1      40.881  31.913  35.530  1.00  0.00     0.074 A 
ATOM     30  C   UNL A   1      42.255  27.599  31.080  1.00  0.00     0.029 A 
ATOM     31  N   UNL A   1      41.315  29.237  32.255  1.00  0.00    -0.354 N 
ATOM     32  N   UNL A   1      41.106  31.073  34.550  1.00  0.00    -0.248 NA
ATOM     33  C   UNL A   1      41.671  31.653  36.739  1.00  0.00     0.031 C 
ATOM     34  C   UNL A   1      42.871  27.653  32.334  1.00  0.00     0.029 A 
ATOM     35  C   UNL A   1      42.300  28.685  33.060  1.00  0.00     0.049 A 
ATOM     36  H   UNL A   1      40.744  29.999  32.503  1.00  0.00     0.167 HD
ATOM     37  C   UNL A   1      42.071  30.194  35.017  1.00  0.00     0.074 A 
ATOM     38  C   UNL A   1      42.410  30.621  36.358  1.00  0.00     0.031 C 
ATOM     39  C   UNL A   1      42.621  29.124  34.395  1.00  0.00     0.037 A 
BRANCH  26  40
ATOM     40  C   UNL A   1      40.286  27.885  28.826  1.00  0.00     0.064 A 
ATOM     41  C   UNL A   1      41.016  28.146  27.657  1.00  0.00     0.173 A 
ATOM     42  C   UNL A   1      39.611  26.656  28.914  1.00  0.00     0.173 A 
ATOM     43  F   UNL A   1      41.675  29.307  27.518  1.00  0.00    -0.203 F 
ATOM     44  C   UNL A   1      41.062  27.219  26.619  1.00  0.00     0.198 A 
ATOM     45  C   UNL A   1      39.680  25.720  27.886  1.00  0.00     0.198 A 
ATOM     46  F   UNL A   1      38.904  26.353  30.014  1.00  0.00    -0.203 F 
ATOM     47  F   UNL A   1      41.745  27.500  25.501  1.00  0.00    -0.200 F 
ATOM     48  C   UNL A   1      40.404  26.003  26.739  1.00  0.00     0.200 A 
ATOM     49  F   UNL A   1      39.057  24.541  28.013  1.00  0.00    -0.200 F 
ATOM     50  F   UNL A   1      40.468  25.104  25.747  1.00  0.00    -0.200 F 
ENDBRANCH  26  40
BRANCH  27  51
ATOM     51  C   UNL A   1      39.794  33.910  36.801  1.00  0.00     0.064 A 
ATOM     52  C   UNL A   1      38.876  33.576  37.804  1.00  0.00     0.173 A 
ATOM     53  C   UNL A   1      40.566  35.069  36.983  1.00  0.00     0.173 A 
ATOM     54  F   UNL A   1      38.103  32.489  37.670  1.00  0.00    -0.203 F 
ATOM     55  C   UNL A   1      38.712  34.386  38.927  1.00  0.00     0.198 A 
ATOM     56  C   UNL A   1      40.429  35.856  38.123  1.00  0.00     0.198 A 
ATOM     57  F   UNL A   1      41.465  35.431  36.055  1.00  0.00    -0.203 F 
ATOM     58  F   UNL A   1      37.783  34.077  39.841  1.00  0.00    -0.200 F 
ATOM     59  C   UNL A   1      39.493  35.521  39.088  1.00  0.00     0.200 A 
ATOM     60  F   UNL A   1      41.200  36.940  38.283  1.00  0.00    -0.200 F 
ATOM     61  F   UNL A   1      39.333  36.299  40.168  1.00  0.00    -0.200 F 
ENDBRANCH  27  51
BRANCH  39  62
ATOM     62  C   UNL A   1      43.656  28.348  35.156  1.00  0.00     0.064 A 
ATOM     63  C   UNL A   1      45.007  28.722  35.144  1.00  0.00     0.173 A 
ATOM     64  C   UNL A   1      43.283  27.248  35.942  1.00  0.00     0.173 A 
ATOM     65  F   UNL A   1      45.415  29.755  34.389  1.00  0.00    -0.203 F 
ATOM     66  C   UNL A   1      45.952  28.013  35.878  1.00  0.00     0.198 A 
ATOM     67  C   UNL A   1      44.225  26.561  36.702  1.00  0.00     0.198 A 
ATOM     68  F   UNL A   1      42.003  26.852  35.990  1.00  0.00    -0.203 F 
ATOM     69  F   UNL A   1      47.244  28.360  35.817  1.00  0.00    -0.200 F 
ATOM     70  C   UNL A   1      45.558  26.940  36.665  1.00  0.00     0.200 A 
ATOM     71  F   UNL A   1      43.841  25.534  37.474  1.00  0.00    -0.200 F 
ATOM     72  F   UNL A   1      46.467  26.267  37.384  1.00  0.00    -0.200 F 
ENDBRANCH  39  62
ENDBRANCH  13  14
ENDBRANCH   6   8
ENDBRANCH   3   4
ENDBRANCH   2   3
ENDBRANCH   1   2
BRANCH   1  73
ATOM     73  C   UNL A   1      32.333  29.753  27.193  1.00  0.00     0.002 C 
BRANCH  73  74
ATOM     74  C   UNL A   1      33.831  29.478  27.033  1.00  0.00     0.021 C 
BRANCH  74  75
ATOM     75  C   UNL A   1      34.213  28.314  26.112  1.00  0.00     0.116 C 
BRANCH  75  76
ATOM     76  N   UNL A   1      33.578  28.331  24.796  1.00  0.00    -0.356 N 
ATOM     77  C   UNL A   1      32.393  27.796  24.360  1.00  0.00     0.224 C 
ATOM     78  H   UNL A   1      34.088  28.808  24.103  1.00  0.00     0.163 HD
ATOM     79  O   UNL A   1      31.897  28.277  23.342  1.00  0.00    -0.275 OA
BRANCH  77  80
ATOM     80  C   UNL A   1      31.704  26.678  25.124  1.00  0.00     0.098 C 
ATOM     81  C   UNL A   1      32.331  25.281  25.416  1.00  0.00     0.099 C 
ATOM     82  C   UNL A   1      30.286  26.281  24.585  1.00  0.00     0.025 C 
ATOM     83  C   UNL A   1      31.038  24.381  25.497  1.00  0.00     0.025 C 
ATOM     84  C   UNL A   1      30.283  25.197  23.510  1.00  0.00    -0.027 C 
ATOM     85  C   UNL A   1      29.885  25.365  25.751  1.00  0.00     0.017 C 
ATOM     86  C   UNL A   1      30.654  24.041  24.081  1.00  0.00    -0.027 C 
BRANCH  81  87
ATOM     87  C   UNL A   1      33.307  24.641  24.397  1.00  0.00     0.228 C 
ATOM     88  O   UNL A   1      33.634  25.243  23.375  1.00  0.00    -0.274 OA
ATOM     89  N   UNL A   1      33.835  23.426  24.782  1.00  0.00    -0.323 N 
ATOM     90  H   UNL A   1      33.195  22.715  25.016  1.00  0.00     0.170 HD
BRANCH  89  91
ATOM     91  C   UNL A   1      35.196  23.109  24.870  1.00  0.00     0.078 A 
ATOM     92  C   UNL A   1      36.177  23.997  25.281  1.00  0.00     0.029 A 
ATOM     93  C   UNL A   1      35.506  21.755  24.673  1.00  0.00     0.165 A 
ATOM     94  C   UNL A   1      37.461  23.512  25.538  1.00  0.00     0.004 A 
ATOM     95  C   UNL A   1      36.755  21.260  25.010  1.00  0.00     0.078 A 
ATOM     96  F   UNL A   1      34.533  20.918  24.278  1.00  0.00    -0.203 F 
ATOM     97  C   UNL A   1      37.741  22.143  25.440  1.00  0.00     0.024 A 
ATOM     98  Cl  UNL A   1      37.059  19.567  24.984  1.00  0.00    -0.081 Cl
ENDBRANCH  89  91
ENDBRANCH  81  87
ENDBRANCH  77  80
ENDBRANCH  75  76
ENDBRANCH  74  75
ENDBRANCH  73  74
ENDBRANCH   1  73
TORSDOF 15
ENDMDL
MODEL 2
REMARK VINA RESULT:     -12.6      2.407      4.050
REMARK SMILES O=C(NCCCCCCNC(=O)[C@@H]1[C@H](C(=O)Nc2cccc(Cl)c2F)[C@@H]2C=C[C@H]1C2)c1ccc(-c2c3nc(c(-c4c(F)c(F)c(F)c(F)c4F)c4ccc([nH]4)c(-c4c(F)c(F)c(F)c(F)c4F)c4nc(c(-c5c(F)c(F)c(F)c(F)c5F)c5ccc2[nH]5)C=C4)C=C3)cc1
REMARK SMILES IDX 6 1 5 2 4 3 3 4 1 5 2 6 31 8 32 9 93 10 33 11 92 12 34 13
REMARK SMILES IDX 35 14 36 15 86 16 37 17 91 18 85 19 87 20 38 21 90 22 84 23
REMARK SMILES IDX 83 24 39 26 71 27 51 28 70 29 52 30 55 31 69 32 88 33 53 34
REMARK SMILES IDX 54 35 68 37 89 38 56 39 40 40 41 41 49 42 42 43 43 44 47 45
REMARK SMILES IDX 50 46 44 47 45 48 48 49 46 50 72 51 73 52 81 53 74 54 75 55
REMARK SMILES IDX 79 56 82 57 76 58 77 59 80 60 78 61 57 62 58 63 66 64 59 65
REMARK SMILES IDX 60 66 64 67 67 68 61 69 62 70 65 71 63 72 7 73 8 74 9 75
REMARK SMILES IDX 10 76 11 77 12 79 13 80 14 81 29 82 26 83 28 84 30 85 27 86
REMARK SMILES IDX 15 87 16 88 17 89 18 91 19 92 24 93 20 94 22 95 25 96 21 97
REMARK SMILES IDX 23 98
REMARK H PARENT 3 7 87 25 55 36 10 78 17 90
REMARK Flexibility Score: inf
ROOT
ATOM      1  C   UNL A   1      31.817  30.606  25.926  1.00  0.00     0.002 C 
ENDROOT
BRANCH   1   2
ATOM      2  C   UNL A   1      31.492  31.869  26.728  1.00  0.00     0.021 C 
BRANCH   2   3
ATOM      3  C   UNL A   1      32.707  32.535  27.369  1.00  0.00     0.116 C 
BRANCH   3   4
ATOM      4  N   UNL A   1      32.489  33.960  27.533  1.00  0.00    -0.352 N 
ATOM      5  O   UNL A   1      32.555  35.873  28.744  1.00  0.00    -0.269 OA
ATOM      6  C   UNL A   1      33.033  34.776  28.495  1.00  0.00     0.251 C 
ATOM      7  H   UNL A   1      31.885  34.389  26.885  1.00  0.00     0.163 HD
BRANCH   6   8
ATOM      8  C   UNL A   1      34.225  34.297  29.222  1.00  0.00     0.039 A 
ATOM      9  C   UNL A   1      34.060  33.584  30.415  1.00  0.00     0.014 A 
ATOM     10  C   UNL A   1      35.498  34.545  28.708  1.00  0.00     0.014 A 
ATOM     11  C   UNL A   1      35.177  33.176  31.134  1.00  0.00     0.010 A 
ATOM     12  C   UNL A   1      36.617  34.065  29.392  1.00  0.00     0.010 A 
ATOM     13  C   UNL A   1      36.461  33.368  30.601  1.00  0.00    -0.014 A 
BRANCH  13  14
ATOM     14  C   UNL A   1      37.615  32.686  31.234  1.00  0.00     0.031 A 
ATOM     15  C   UNL A   1      38.292  31.519  30.584  1.00  0.00     0.074 A 
ATOM     16  C   UNL A   1      38.014  33.128  32.444  1.00  0.00     0.049 A 
ATOM     17  N   UNL A   1      39.262  30.772  31.044  1.00  0.00    -0.248 NA
ATOM     18  C   UNL A   1      37.817  31.130  29.247  1.00  0.00     0.031 C 
ATOM     19  C   UNL A   1      37.407  34.249  33.169  1.00  0.00     0.029 A 
ATOM     20  N   UNL A   1      39.008  32.694  33.281  1.00  0.00    -0.354 N 
ATOM     21  C   UNL A   1      39.500  29.812  30.072  1.00  0.00     0.074 A 
ATOM     22  C   UNL A   1      38.566  30.062  28.994  1.00  0.00     0.031 C 
ATOM     23  C   UNL A   1      38.048  34.423  34.333  1.00  0.00     0.029 A 
ATOM     24  C   UNL A   1      39.058  33.381  34.470  1.00  0.00     0.049 A 
ATOM     25  H   UNL A   1      39.626  31.962  33.053  1.00  0.00     0.167 HD
ATOM     26  C   UNL A   1      40.417  28.815  30.091  1.00  0.00     0.037 A 
ATOM     27  C   UNL A   1      39.799  33.168  35.572  1.00  0.00     0.037 A 
ATOM     28  C   UNL A   1      41.349  28.595  31.168  1.00  0.00     0.049 A 
ATOM     29  C   UNL A   1      40.775  32.027  35.571  1.00  0.00     0.074 A 
ATOM     30  C   UNL A   1      42.371  27.665  31.244  1.00  0.00     0.029 A 
ATOM     31  N   UNL A   1      41.361  29.301  32.362  1.00  0.00    -0.354 N 
ATOM     32  N   UNL A   1      41.047  31.174  34.614  1.00  0.00    -0.248 NA
ATOM     33  C   UNL A   1      41.540  31.810  36.806  1.00  0.00     0.031 C 
ATOM     34  C   UNL A   1      42.953  27.758  32.511  1.00  0.00     0.029 A 
ATOM     35  C   UNL A   1      42.338  28.789  33.203  1.00  0.00     0.049 A 
ATOM     36  H   UNL A   1      40.764  30.052  32.581  1.00  0.00     0.167 HD
ATOM     37  C   UNL A   1      42.021  30.329  35.123  1.00  0.00     0.074 A 
ATOM     38  C   UNL A   1      42.315  30.790  36.464  1.00  0.00     0.031 C 
ATOM     39  C   UNL A   1      42.614  29.261  34.536  1.00  0.00     0.037 A 
BRANCH  26  40
ATOM     40  C   UNL A   1      40.455  27.857  28.935  1.00  0.00     0.064 A 
ATOM     41  C   UNL A   1      39.665  26.699  28.903  1.00  0.00     0.173 A 
ATOM     42  C   UNL A   1      41.219  28.161  27.796  1.00  0.00     0.173 A 
ATOM     43  F   UNL A   1      38.920  26.360  29.967  1.00  0.00    -0.203 F 
ATOM     44  C   UNL A   1      39.647  25.876  27.780  1.00  0.00     0.198 A 
ATOM     45  C   UNL A   1      41.178  27.350  26.665  1.00  0.00     0.198 A 
ATOM     46  F   UNL A   1      41.986  29.261  27.772  1.00  0.00    -0.203 F 
ATOM     47  F   UNL A   1      38.904  24.760  27.780  1.00  0.00    -0.200 F 
ATOM     48  C   UNL A   1      40.394  26.208  26.658  1.00  0.00     0.200 A 
ATOM     49  F   UNL A   1      41.888  27.683  25.578  1.00  0.00    -0.200 F 
ATOM     50  F   UNL A   1      40.357  25.425  25.571  1.00  0.00    -0.200 F 
ENDBRANCH  26  40
BRANCH  27  51
ATOM     51  C   UNL A   1      39.607  34.019  36.775  1.00  0.00     0.064 A 
ATOM     52  C   UNL A   1      40.229  35.269  36.887  1.00  0.00     0.173 A 
ATOM     53  C   UNL A   1      38.810  33.590  37.849  1.00  0.00     0.173 A 
ATOM     54  F   UNL A   1      41.015  35.717  35.897  1.00  0.00    -0.203 F 
ATOM     55  C   UNL A   1      40.087  36.042  38.038  1.00  0.00     0.198 A 
ATOM     56  C   UNL A   1      38.637  34.380  38.982  1.00  0.00     0.198 A 
ATOM     57  F   UNL A   1      38.186  32.403  37.791  1.00  0.00    -0.203 F 
ATOM     58  F   UNL A   1      40.743  37.205  38.145  1.00  0.00    -0.200 F 
ATOM     59  C   UNL A   1      39.287  35.600  39.081  1.00  0.00     0.200 A 
ATOM     60  F   UNL A   1      37.847  33.956  39.977  1.00  0.00    -0.200 F 
ATOM     61  F   UNL A   1      39.152  36.344  40.187  1.00  0.00    -0.200 F 
ENDBRANCH  27  51
BRANCH  39  62
ATOM     62  C   UNL A   1      43.647  28.527  35.338  1.00  0.00     0.064 A 
ATOM     63  C   UNL A   1      45.000  28.893  35.300  1.00  0.00     0.173 A 
ATOM     64  C   UNL A   1      43.272  27.477  36.189  1.00  0.00     0.173 A 
ATOM     65  F   UNL A   1      45.410  29.877  34.485  1.00  0.00    -0.203 F 
ATOM     66  C   UNL A   1      45.944  28.223  36.072  1.00  0.00     0.198 A 
ATOM     67  C   UNL A   1      44.213  26.831  36.986  1.00  0.00     0.198 A 
ATOM     68  F   UNL A   1      41.990  27.091  36.265  1.00  0.00    -0.203 F 
ATOM     69  F   UNL A   1      47.238  28.560  35.986  1.00  0.00    -0.200 F 
ATOM     70  C   UNL A   1      45.548  27.201  36.922  1.00  0.00     0.200 A 
ATOM     71  F   UNL A   1      43.827  25.854  37.818  1.00  0.00    -0.200 F 
ATOM     72  F   UNL A   1      46.456  26.567  37.676  1.00  0.00    -0.200 F 
ENDBRANCH  39  62
ENDBRANCH  13  14
ENDBRANCH   6   8
ENDBRANCH   3   4
ENDBRANCH   2   3
ENDBRANCH   1   2
BRANCH   1  73
ATOM     73  C   UNL A   1      32.937  29.740  26.506  1.00  0.00     0.002 C 
BRANCH  73  74
ATOM     74  C   UNL A   1      32.451  28.565  27.361  1.00  0.00     0.021 C 
BRANCH  74  75
ATOM     75  C   UNL A   1      31.185  27.851  26.876  1.00  0.00     0.116 C 
BRANCH  75  76
ATOM     76  N   UNL A   1      31.258  26.392  26.875  1.00  0.00    -0.356 N 
ATOM     77  C   UNL A   1      32.086  25.531  26.202  1.00  0.00     0.224 C 
ATOM     78  H   UNL A   1      30.600  25.951  27.458  1.00  0.00     0.163 HD
ATOM     79  O   UNL A   1      32.219  24.398  26.664  1.00  0.00    -0.275 OA
BRANCH  77  80
ATOM     80  C   UNL A   1      32.836  25.971  24.956  1.00  0.00     0.098 C 
ATOM     81  C   UNL A   1      32.229  26.836  23.810  1.00  0.00     0.099 C 
ATOM     82  C   UNL A   1      33.520  24.813  24.149  1.00  0.00     0.025 C 
ATOM     83  C   UNL A   1      33.081  26.344  22.577  1.00  0.00     0.025 C 
ATOM     84  C   UNL A   1      32.644  24.165  23.079  1.00  0.00    -0.027 C 
ATOM     85  C   UNL A   1      34.333  25.697  23.192  1.00  0.00     0.017 C 
ATOM     86  C   UNL A   1      32.454  25.061  22.097  1.00  0.00    -0.027 C 
BRANCH  81  87
ATOM     87  C   UNL A   1      30.728  26.702  23.449  1.00  0.00     0.228 C 
ATOM     88  O   UNL A   1      29.998  25.930  24.069  1.00  0.00    -0.274 OA
ATOM     89  N   UNL A   1      30.284  27.574  22.478  1.00  0.00    -0.323 N 
ATOM     90  H   UNL A   1      30.764  27.566  21.618  1.00  0.00     0.170 HD
BRANCH  89  91
ATOM     91  C   UNL A   1      29.215  28.470  22.599  1.00  0.00     0.078 A 
ATOM     92  C   UNL A   1      27.999  28.156  23.184  1.00  0.00     0.029 A 
ATOM     93  C   UNL A   1      29.502  29.794  22.235  1.00  0.00     0.165 A 
ATOM     94  C   UNL A   1      27.090  29.183  23.445  1.00  0.00     0.004 A 
ATOM     95  C   UNL A   1      28.638  30.823  22.572  1.00  0.00     0.078 A 
ATOM     96  F   UNL A   1      30.691  30.068  21.673  1.00  0.00    -0.203 F 
ATOM     97  C   UNL A   1      27.422  30.517  23.176  1.00  0.00     0.024 A 
ATOM     98  Cl  UNL A   1      29.098  32.463  22.330  1.00  0.00    -0.081 Cl
ENDBRANCH  89  91
ENDBRANCH  81  87
ENDBRANCH  77  80
ENDBRANCH  75  76
ENDBRANCH  74  75
ENDBRANCH  73  74
ENDBRANCH   1  73
TORSDOF 15
ENDMDL
MODEL 3
REMARK VINA RESULT:     -12.6      5.651     10.986
REMARK SMILES O=C(NCCCCCCNC(=O)[C@@H]1[C@H](C(=O)Nc2cccc(Cl)c2F)[C@@H]2C=C[C@H]1C2)c1ccc(-c2c3nc(c(-c4c(F)c(F)c(F)c(F)c4F)c4ccc([nH]4)c(-c4c(F)c(F)c(F)c(F)c4F)c4nc(c(-c5c(F)c(F)c(F)c(F)c5F)c5ccc2[nH]5)C=C4)C=C3)cc1
REMARK SMILES IDX 6 1 5 2 4 3 3 4 1 5 2 6 31 8 32 9 93 10 33 11 92 12 34 13
REMARK SMILES IDX 35 14 36 15 86 16 37 17 91 18 85 19 87 20 38 21 90 22 84 23
REMARK SMILES IDX 83 24 39 26 71 27 51 28 70 29 52 30 55 31 69 32 88 33 53 34
REMARK SMILES IDX 54 35 68 37 89 38 56 39 40 40 41 41 49 42 42 43 43 44 47 45
REMARK SMILES IDX 50 46 44 47 45 48 48 49 46 50 72 51 73 52 81 53 74 54 75 55
REMARK SMILES IDX 79 56 82 57 76 58 77 59 80 60 78 61 57 62 58 63 66 64 59 65
REMARK SMILES IDX 60 66 64 67 67 68 61 69 62 70 65 71 63 72 7 73 8 74 9 75
REMARK SMILES IDX 10 76 11 77 12 79 13 80 14 81 29 82 26 83 28 84 30 85 27 86
REMARK SMILES IDX 15 87 16 88 17 89 18 91 19 92 24 93 20 94 22 95 25 96 21 97
REMARK SMILES IDX 23 98
REMARK H PARENT 3 7 87 25 55 36 10 78 17 90
REMARK Flexibility Score: inf
ROOT
ATOM      1  C   UNL A   1      36.877  20.835  24.961  1.00  0.00     0.002 C 
ENDROOT
BRANCH   1   2
ATOM      2  C   UNL A   1      38.017  19.813  25.000  1.00  0.00     0.021 C 
BRANCH   2   3
ATOM      3  C   UNL A   1      39.234  20.261  25.806  1.00  0.00     0.116 C 
BRANCH   3   4
ATOM      4  N   UNL A   1      40.183  19.173  25.956  1.00  0.00    -0.352 N 
ATOM      5  O   UNL A   1      42.272  18.306  25.852  1.00  0.00    -0.269 OA
ATOM      6  C   UNL A   1      41.550  19.273  26.043  1.00  0.00     0.251 C 
ATOM      7  H   UNL A   1      39.806  18.265  25.999  1.00  0.00     0.163 HD
BRANCH   6   8
ATOM      8  C   UNL A   1      42.133  20.586  26.386  1.00  0.00     0.039 A 
ATOM      9  C   UNL A   1      42.433  21.491  25.362  1.00  0.00     0.014 A 
ATOM     10  C   UNL A   1      42.362  20.915  27.723  1.00  0.00     0.014 A 
ATOM     11  C   UNL A   1      43.030  22.707  25.671  1.00  0.00     0.010 A 
ATOM     12  C   UNL A   1      42.890  22.170  28.036  1.00  0.00     0.010 A 
ATOM     13  C   UNL A   1      43.215  23.076  27.013  1.00  0.00    -0.014 A 
BRANCH  13  14
ATOM     14  C   UNL A   1      43.588  24.474  27.333  1.00  0.00     0.031 A 
ATOM     15  C   UNL A   1      42.575  25.468  27.810  1.00  0.00     0.074 A 
ATOM     16  C   UNL A   1      44.873  24.836  27.140  1.00  0.00     0.049 A 
ATOM     17  N   UNL A   1      42.731  26.743  28.059  1.00  0.00    -0.248 NA
ATOM     18  C   UNL A   1      41.207  24.976  28.031  1.00  0.00     0.031 C 
ATOM     19  C   UNL A   1      45.933  23.944  26.660  1.00  0.00     0.029 A 
ATOM     20  N   UNL A   1      45.507  26.039  27.311  1.00  0.00    -0.354 N 
ATOM     21  C   UNL A   1      41.483  27.214  28.441  1.00  0.00     0.074 A 
ATOM     22  C   UNL A   1      40.573  26.088  28.384  1.00  0.00     0.031 C 
ATOM     23  C   UNL A   1      47.085  24.624  26.588  1.00  0.00     0.029 A 
ATOM     24  C   UNL A   1      46.830  26.014  26.942  1.00  0.00     0.049 A 
ATOM     25  H   UNL A   1      45.059  26.841  27.662  1.00  0.00     0.167 HD
ATOM     26  C   UNL A   1      41.141  28.473  28.802  1.00  0.00     0.037 A 
ATOM     27  C   UNL A   1      47.731  27.009  26.849  1.00  0.00     0.037 A 
ATOM     28  C   UNL A   1      42.069  29.575  28.868  1.00  0.00     0.049 A 
ATOM     29  C   UNL A   1      47.303  28.401  27.217  1.00  0.00     0.074 A 
ATOM     30  C   UNL A   1      41.838  30.869  29.302  1.00  0.00     0.029 A 
ATOM     31  N   UNL A   1      43.398  29.517  28.474  1.00  0.00    -0.354 N 
ATOM     32  N   UNL A   1      46.139  28.818  27.653  1.00  0.00    -0.248 NA
ATOM     33  C   UNL A   1      48.307  29.462  27.071  1.00  0.00     0.031 C 
ATOM     34  C   UNL A   1      43.005  31.611  29.101  1.00  0.00     0.029 A 
ATOM     35  C   UNL A   1      43.984  30.767  28.603  1.00  0.00     0.049 A 
ATOM     36  H   UNL A   1      43.856  28.708  28.149  1.00  0.00     0.167 HD
ATOM     37  C   UNL A   1      46.274  30.184  27.846  1.00  0.00     0.074 A 
ATOM     38  C   UNL A   1      47.641  30.521  27.508  1.00  0.00     0.031 C 
ATOM     39  C   UNL A   1      45.347  31.082  28.258  1.00  0.00     0.037 A 
BRANCH  26  40
ATOM     40  C   UNL A   1      39.704  28.758  29.129  1.00  0.00     0.064 A 
ATOM     41  C   UNL A   1      39.201  28.640  30.433  1.00  0.00     0.173 A 
ATOM     42  C   UNL A   1      38.843  29.256  28.137  1.00  0.00     0.173 A 
ATOM     43  F   UNL A   1      39.979  28.164  31.417  1.00  0.00    -0.203 F 
ATOM     44  C   UNL A   1      37.888  29.000  30.729  1.00  0.00     0.198 A 
ATOM     45  C   UNL A   1      37.540  29.640  28.442  1.00  0.00     0.198 A 
ATOM     46  F   UNL A   1      39.277  29.396  26.875  1.00  0.00    -0.203 F 
ATOM     47  F   UNL A   1      37.420  28.856  31.976  1.00  0.00    -0.200 F 
ATOM     48  C   UNL A   1      37.063  29.510  29.736  1.00  0.00     0.200 A 
ATOM     49  F   UNL A   1      36.751  30.147  27.484  1.00  0.00    -0.200 F 
ATOM     50  F   UNL A   1      35.807  29.876  30.029  1.00  0.00    -0.200 F 
ENDBRANCH  26  40
BRANCH  27  51
ATOM     51  C   UNL A   1      49.099  26.731  26.342  1.00  0.00     0.064 A 
ATOM     52  C   UNL A   1      49.421  26.905  24.990  1.00  0.00     0.173 A 
ATOM     53  C   UNL A   1      50.111  26.266  27.198  1.00  0.00     0.173 A 
ATOM     54  F   UNL A   1      48.486  27.330  24.128  1.00  0.00    -0.203 F 
ATOM     55  C   UNL A   1      50.692  26.595  24.508  1.00  0.00     0.198 A 
ATOM     56  C   UNL A   1      51.391  25.994  26.723  1.00  0.00     0.198 A 
ATOM     57  F   UNL A   1      49.858  26.088  28.504  1.00  0.00    -0.203 F 
ATOM     58  F   UNL A   1      50.955  26.711  23.200  1.00  0.00    -0.200 F 
ATOM     59  C   UNL A   1      51.677  26.146  25.376  1.00  0.00     0.200 A 
ATOM     60  F   UNL A   1      52.343  25.581  27.569  1.00  0.00    -0.200 F 
ATOM     61  F   UNL A   1      52.897  25.848  24.911  1.00  0.00    -0.200 F 
ENDBRANCH  27  51
BRANCH  39  62
ATOM     62  C   UNL A   1      45.784  32.512  28.376  1.00  0.00     0.064 A 
ATOM     63  C   UNL A   1      45.609  33.420  27.323  1.00  0.00     0.173 A 
ATOM     64  C   UNL A   1      46.341  32.989  29.572  1.00  0.00     0.173 A 
ATOM     65  F   UNL A   1      45.101  33.006  26.151  1.00  0.00    -0.203 F 
ATOM     66  C   UNL A   1      45.991  34.752  27.455  1.00  0.00     0.198 A 
ATOM     67  C   UNL A   1      46.691  34.329  29.714  1.00  0.00     0.198 A 
ATOM     68  F   UNL A   1      46.525  32.162  30.611  1.00  0.00    -0.203 F 
ATOM     69  F   UNL A   1      45.857  35.592  26.420  1.00  0.00    -0.200 F 
ATOM     70  C   UNL A   1      46.521  35.207  28.654  1.00  0.00     0.200 A 
ATOM     71  F   UNL A   1      47.188  34.770  30.877  1.00  0.00    -0.200 F 
ATOM     72  F   UNL A   1      46.875  36.493  28.785  1.00  0.00    -0.200 F 
ENDBRANCH  39  62
ENDBRANCH  13  14
ENDBRANCH   6   8
ENDBRANCH   3   4
ENDBRANCH   2   3
ENDBRANCH   1   2
BRANCH   1  73
ATOM     73  C   UNL A   1      37.021  21.927  23.900  1.00  0.00     0.002 C 
BRANCH  73  74
ATOM     74  C   UNL A   1      37.099  23.350  24.461  1.00  0.00     0.021 C 
BRANCH  74  75
ATOM     75  C   UNL A   1      36.545  23.553  25.875  1.00  0.00     0.116 C 
BRANCH  75  76
ATOM     76  N   UNL A   1      35.406  24.464  25.970  1.00  0.00    -0.356 N 
ATOM     77  C   UNL A   1      34.066  24.256  25.768  1.00  0.00     0.224 C 
ATOM     78  H   UNL A   1      35.642  25.385  26.222  1.00  0.00     0.163 HD
ATOM     79  O   UNL A   1      33.286  25.052  26.290  1.00  0.00    -0.275 OA
BRANCH  77  80
ATOM     80  C   UNL A   1      33.565  23.070  24.962  1.00  0.00     0.098 C 
ATOM     81  C   UNL A   1      33.631  22.957  23.408  1.00  0.00     0.099 C 
ATOM     82  C   UNL A   1      32.080  22.653  25.246  1.00  0.00     0.025 C 
ATOM     83  C   UNL A   1      32.391  22.025  23.120  1.00  0.00     0.025 C 
ATOM     84  C   UNL A   1      31.035  23.354  24.379  1.00  0.00    -0.027 C 
ATOM     85  C   UNL A   1      32.095  21.333  24.461  1.00  0.00     0.017 C 
ATOM     86  C   UNL A   1      31.172  22.909  23.120  1.00  0.00    -0.027 C 
BRANCH  81  87
ATOM     87  C   UNL A   1      33.499  24.228  22.532  1.00  0.00     0.228 C 
ATOM     88  O   UNL A   1      33.277  24.140  21.325  1.00  0.00    -0.274 OA
ATOM     89  N   UNL A   1      33.546  25.420  23.225  1.00  0.00    -0.323 N 
ATOM     90  H   UNL A   1      34.334  25.573  23.796  1.00  0.00     0.170 HD
BRANCH  89  91
ATOM     91  C   UNL A   1      32.578  26.431  23.194  1.00  0.00     0.078 A 
ATOM     92  C   UNL A   1      31.362  26.324  22.538  1.00  0.00     0.029 A 
ATOM     93  C   UNL A   1      32.839  27.531  24.024  1.00  0.00     0.165 A 
ATOM     94  C   UNL A   1      30.390  27.304  22.755  1.00  0.00     0.004 A 
ATOM     95  C   UNL A   1      31.847  28.455  24.305  1.00  0.00     0.078 A 
ATOM     96  F   UNL A   1      34.025  27.605  24.649  1.00  0.00    -0.203 F 
ATOM     97  C   UNL A   1      30.616  28.346  23.664  1.00  0.00     0.024 A 
ATOM     98  Cl  UNL A   1      32.097  29.670  25.497  1.00  0.00    -0.081 Cl
ENDBRANCH  89  91
ENDBRANCH  81  87
ENDBRANCH  77  80
ENDBRANCH  75  76
ENDBRANCH  74  75
ENDBRANCH  73  74
ENDBRANCH   1  73
TORSDOF 15
ENDMDL
