MODEL 1
REMARK VINA RESULT:     -12.1      0.000      0.000
REMARK SMILES Cc1cc(-n2cnc(C(=O)NCCCCCCNC(=O)c3ccc(-c4c5nc(c(-c6c(F)c(F)c(F)c(F)c6F)c6ccc([nH]6)c(-c6c(F)c(F)c(F)c(F)c6F)c6nc(c(-c7c(F)c(F)c(F)c(F)c7F)c7ccc4[nH]7)C=C6)C=C5)cc3)c2)nc(Cl)n1
REMARK SMILES IDX 15 1 14 2 13 3 12 4 11 5 9 6 10 7 8 9 5 10 6 11 84 12 7 13
REMARK SMILES IDX 4 14 1 15 2 16 3 17 88 18 86 19 85 20 87 21 16 22 17 23
REMARK SMILES IDX 18 24 19 25 20 27 21 28 22 29 83 30 23 31 82 32 24 33 25 34
REMARK SMILES IDX 26 35 76 36 27 37 81 38 75 39 77 40 28 41 80 42 74 43 73 44
REMARK SMILES IDX 29 46 61 47 41 48 60 49 42 50 45 51 59 52 78 53 43 54 44 55
REMARK SMILES IDX 58 57 79 58 46 59 30 60 31 61 39 62 32 63 33 64 37 65 40 66
REMARK SMILES IDX 34 67 35 68 38 69 36 70 62 71 63 72 71 73 64 74 65 75 69 76
REMARK SMILES IDX 72 77 66 78 67 79 70 80 68 81 47 82 48 83 56 84 49 85 50 86
REMARK SMILES IDX 54 87 57 88 51 89 52 90 55 91 53 92
REMARK H PARENT 11 8 18 26 77 45 45 56
REMARK Flexibility Score: inf
ROOT
ATOM      1  C   UNL A   1      41.131  20.188  27.466  1.00  0.00     0.002 C 
ENDROOT
BRANCH   1   2
ATOM      2  C   UNL A   1      41.521  19.201  26.353  1.00  0.00     0.002 C 
BRANCH   2   3
ATOM      3  C   UNL A   1      42.970  18.714  26.388  1.00  0.00     0.021 C 
BRANCH   3   4
ATOM      4  C   UNL A   1      43.631  18.637  25.015  1.00  0.00     0.116 C 
BRANCH   4   5
ATOM      5  N   UNL A   1      45.074  18.742  25.080  1.00  0.00    -0.351 N 
ATOM      6  C   UNL A   1      45.957  19.798  25.025  1.00  0.00     0.271 C 
ATOM      7  O   UNL A   1      47.152  19.494  25.060  1.00  0.00    -0.267 OA
ATOM      8  H   UNL A   1      45.520  17.871  25.188  1.00  0.00     0.163 HD
BRANCH   6   9
ATOM      9  C   UNL A   1      45.521  21.201  24.924  1.00  0.00     0.146 A 
ATOM     10  N   UNL A   1      45.036  23.340  25.261  1.00  0.00    -0.290 N 
ATOM     11  C   UNL A   1      44.548  22.939  24.050  1.00  0.00     0.206 A 
ATOM     12  C   UNL A   1      45.681  22.252  25.801  1.00  0.00     0.128 A 
ATOM     13  N   UNL A   1      44.852  21.683  23.801  1.00  0.00    -0.231 NA
BRANCH  10  14
ATOM     14  C   UNL A   1      44.869  24.588  25.905  1.00  0.00     0.143 A 
ATOM     15  C   UNL A   1      46.142  28.099  25.605  1.00  0.00     0.067 C 
ATOM     16  C   UNL A   1      45.482  26.853  26.113  1.00  0.00     0.044 A 
ATOM     17  C   UNL A   1      45.547  25.683  25.389  1.00  0.00     0.071 A 
ATOM     18  N   UNL A   1      44.845  26.918  27.295  1.00  0.00    -0.223 NA
ATOM     19  C   UNL A   1      44.213  25.800  27.691  1.00  0.00     0.224 A 
ATOM     20  N   UNL A   1      44.151  24.631  27.041  1.00  0.00    -0.200 NA
ATOM     21  Cl  UNL A   1      43.518  25.840  29.248  1.00  0.00    -0.041 Cl
ENDBRANCH  10  14
ENDBRANCH   6   9
ENDBRANCH   4   5
ENDBRANCH   3   4
ENDBRANCH   2   3
ENDBRANCH   1   2
BRANCH   1  22
ATOM     22  C   UNL A   1      41.868  21.536  27.461  1.00  0.00     0.021 C 
BRANCH  22  23
ATOM     23  C   UNL A   1      41.670  22.314  26.171  1.00  0.00     0.116 C 
BRANCH  23  24
ATOM     24  N   UNL A   1      40.262  22.356  25.792  1.00  0.00    -0.352 N 
ATOM     25  C   UNL A   1      39.278  23.207  26.223  1.00  0.00     0.251 C 
ATOM     26  H   UNL A   1      39.978  21.679  25.136  1.00  0.00     0.163 HD
ATOM     27  O   UNL A   1      38.090  22.919  26.074  1.00  0.00    -0.269 OA
BRANCH  25  28
ATOM     28  C   UNL A   1      39.649  24.478  26.857  1.00  0.00     0.039 A 
ATOM     29  C   UNL A   1      40.287  25.478  26.115  1.00  0.00     0.014 A 
ATOM     30  C   UNL A   1      39.395  24.646  28.219  1.00  0.00     0.014 A 
ATOM     31  C   UNL A   1      40.631  26.670  26.740  1.00  0.00     0.010 A 
ATOM     32  C   UNL A   1      39.635  25.858  28.810  1.00  0.00     0.010 A 
ATOM     33  C   UNL A   1      40.300  26.848  28.087  1.00  0.00    -0.014 A 
BRANCH  33  34
ATOM     34  C   UNL A   1      40.590  28.098  28.771  1.00  0.00     0.031 A 
ATOM     35  C   UNL A   1      41.738  28.878  28.230  1.00  0.00     0.074 A 
ATOM     36  C   UNL A   1      39.694  28.616  29.638  1.00  0.00     0.049 A 
ATOM     37  N   UNL A   1      42.767  29.329  28.870  1.00  0.00    -0.248 NA
ATOM     38  C   UNL A   1      41.795  29.120  26.777  1.00  0.00     0.031 C 
ATOM     39  C   UNL A   1      38.380  28.075  30.010  1.00  0.00     0.029 A 
ATOM     40  N   UNL A   1      39.710  29.818  30.268  1.00  0.00    -0.354 N 
ATOM     41  C   UNL A   1      43.529  30.038  27.942  1.00  0.00     0.074 A 
ATOM     42  C   UNL A   1      42.957  29.762  26.649  1.00  0.00     0.031 C 
ATOM     43  C   UNL A   1      37.644  29.045  30.594  1.00  0.00     0.029 A 
ATOM     44  C   UNL A   1      38.476  30.222  30.762  1.00  0.00     0.049 A 
ATOM     45  H   UNL A   1      40.527  30.359  30.367  1.00  0.00     0.167 HD
ATOM     46  C   UNL A   1      44.458  30.955  28.328  1.00  0.00     0.037 A 
ATOM     47  C   UNL A   1      38.156  31.458  31.219  1.00  0.00     0.037 A 
ATOM     48  C   UNL A   1      44.788  30.811  29.720  1.00  0.00     0.049 A 
ATOM     49  C   UNL A   1      39.434  32.156  31.519  1.00  0.00     0.074 A 
ATOM     50  C   UNL A   1      45.357  29.802  30.472  1.00  0.00     0.029 A 
ATOM     51  N   UNL A   1      44.184  31.656  30.618  1.00  0.00    -0.354 N 
ATOM     52  N   UNL A   1      40.233  31.811  32.492  1.00  0.00    -0.248 NA
ATOM     53  C   UNL A   1      40.052  32.927  30.448  1.00  0.00     0.031 C 
ATOM     54  C   UNL A   1      44.646  29.823  31.707  1.00  0.00     0.029 A 
ATOM     55  C   UNL A   1      43.739  30.882  31.661  1.00  0.00     0.049 A 
ATOM     56  H   UNL A   1      44.087  32.632  30.531  1.00  0.00     0.167 HD
ATOM     57  C   UNL A   1      41.509  31.940  31.964  1.00  0.00     0.074 A 
ATOM     58  C   UNL A   1      41.340  32.713  30.735  1.00  0.00     0.031 C 
ATOM     59  C   UNL A   1      42.536  31.157  32.407  1.00  0.00     0.037 A 
BRANCH  46  60
ATOM     60  C   UNL A   1      44.844  32.183  27.545  1.00  0.00     0.064 A 
ATOM     61  C   UNL A   1      46.107  32.241  26.922  1.00  0.00     0.173 A 
ATOM     62  C   UNL A   1      44.147  33.405  27.627  1.00  0.00     0.173 A 
ATOM     63  F   UNL A   1      46.866  31.140  26.809  1.00  0.00    -0.203 F 
ATOM     64  C   UNL A   1      46.657  33.448  26.477  1.00  0.00     0.198 A 
ATOM     65  C   UNL A   1      44.674  34.598  27.133  1.00  0.00     0.198 A 
ATOM     66  F   UNL A   1      42.987  33.516  28.285  1.00  0.00    -0.203 F 
ATOM     67  F   UNL A   1      47.908  33.474  26.001  1.00  0.00    -0.200 F 
ATOM     68  C   UNL A   1      45.940  34.625  26.587  1.00  0.00     0.200 A 
ATOM     69  F   UNL A   1      43.973  35.732  27.265  1.00  0.00    -0.200 F 
ATOM     70  F   UNL A   1      46.485  35.791  26.215  1.00  0.00    -0.200 F 
ENDBRANCH  46  60
BRANCH  47  71
ATOM     71  C   UNL A   1      36.849  32.155  31.163  1.00  0.00     0.064 A 
ATOM     72  C   UNL A   1      36.027  32.254  32.298  1.00  0.00     0.173 A 
ATOM     73  C   UNL A   1      36.485  32.956  30.061  1.00  0.00     0.173 A 
ATOM     74  F   UNL A   1      36.325  31.562  33.408  1.00  0.00    -0.203 F 
ATOM     75  C   UNL A   1      34.925  33.116  32.335  1.00  0.00     0.198 A 
ATOM     76  C   UNL A   1      35.380  33.807  30.095  1.00  0.00     0.198 A 
ATOM     77  F   UNL A   1      37.248  32.999  28.959  1.00  0.00    -0.203 F 
ATOM     78  F   UNL A   1      34.202  33.228  33.459  1.00  0.00    -0.200 F 
ATOM     79  C   UNL A   1      34.608  33.897  31.237  1.00  0.00     0.200 A 
ATOM     80  F   UNL A   1      35.105  34.582  29.036  1.00  0.00    -0.200 F 
ATOM     81  F   UNL A   1      33.586  34.765  31.292  1.00  0.00    -0.200 F 
ENDBRANCH  47  71
BRANCH  59  82
ATOM     82  C   UNL A   1      42.303  30.310  33.629  1.00  0.00     0.064 A 
ATOM     83  C   UNL A   1      41.814  28.993  33.581  1.00  0.00     0.173 A 
ATOM     84  C   UNL A   1      42.773  30.776  34.863  1.00  0.00     0.173 A 
ATOM     85  F   UNL A   1      41.445  28.434  32.425  1.00  0.00    -0.203 F 
ATOM     86  C   UNL A   1      41.767  28.193  34.722  1.00  0.00     0.198 A 
ATOM     87  C   UNL A   1      42.760  29.963  35.993  1.00  0.00     0.198 A 
ATOM     88  F   UNL A   1      43.308  32.004  34.957  1.00  0.00    -0.203 F 
ATOM     89  F   UNL A   1      41.296  26.940  34.645  1.00  0.00    -0.200 F 
ATOM     90  C   UNL A   1      42.251  28.676  35.925  1.00  0.00     0.200 A 
ATOM     91  F   UNL A   1      43.280  30.415  37.143  1.00  0.00    -0.200 F 
ATOM     92  F   UNL A   1      42.258  27.890  37.010  1.00  0.00    -0.200 F 
ENDBRANCH  59  82
ENDBRANCH  33  34
ENDBRANCH  25  28
ENDBRANCH  23  24
ENDBRANCH  22  23
ENDBRANCH   1  22
TORSDOF 14
ENDMDL
MODEL 2
REMARK VINA RESULT:     -11.9      3.616      6.210
REMARK SMILES Cc1cc(-n2cnc(C(=O)NCCCCCCNC(=O)c3ccc(-c4c5nc(c(-c6c(F)c(F)c(F)c(F)c6F)c6ccc([nH]6)c(-c6c(F)c(F)c(F)c(F)c6F)c6nc(c(-c7c(F)c(F)c(F)c(F)c7F)c7ccc4[nH]7)C=C6)C=C5)cc3)c2)nc(Cl)n1
REMARK SMILES IDX 15 1 14 2 13 3 12 4 11 5 9 6 10 7 8 9 5 10 6 11 84 12 7 13
REMARK SMILES IDX 4 14 1 15 2 16 3 17 88 18 86 19 85 20 87 21 16 22 17 23
REMARK SMILES IDX 18 24 19 25 20 27 21 28 22 29 83 30 23 31 82 32 24 33 25 34
REMARK SMILES IDX 26 35 76 36 27 37 81 38 75 39 77 40 28 41 80 42 74 43 73 44
REMARK SMILES IDX 29 46 61 47 41 48 60 49 42 50 45 51 59 52 78 53 43 54 44 55
REMARK SMILES IDX 58 57 79 58 46 59 30 60 31 61 39 62 32 63 33 64 37 65 40 66
REMARK SMILES IDX 34 67 35 68 38 69 36 70 62 71 63 72 71 73 64 74 65 75 69 76
REMARK SMILES IDX 72 77 66 78 67 79 70 80 68 81 47 82 48 83 56 84 49 85 50 86
REMARK SMILES IDX 54 87 57 88 51 89 52 90 55 91 53 92
REMARK H PARENT 11 8 18 26 77 45 45 56
REMARK Flexibility Score: inf
ROOT
ATOM      1  C   UNL A   1      36.796  23.262  24.063  1.00  0.00     0.002 C 
ENDROOT
BRANCH   1   2
ATOM      2  C   UNL A   1      35.584  22.922  23.180  1.00  0.00     0.002 C 
BRANCH   2   3
ATOM      3  C   UNL A   1      34.294  22.599  23.935  1.00  0.00     0.021 C 
BRANCH   3   4
ATOM      4  C   UNL A   1      33.028  22.764  23.099  1.00  0.00     0.116 C 
BRANCH   4   5
ATOM      5  N   UNL A   1      33.196  23.697  22.005  1.00  0.00    -0.351 N 
ATOM      6  C   UNL A   1      32.979  25.050  21.863  1.00  0.00     0.271 C 
ATOM      7  O   UNL A   1      33.190  25.508  20.737  1.00  0.00    -0.267 OA
ATOM      8  H   UNL A   1      33.539  23.273  21.185  1.00  0.00     0.163 HD
BRANCH   6   9
ATOM      9  C   UNL A   1      32.522  25.907  22.970  1.00  0.00     0.146 A 
ATOM     10  N   UNL A   1      32.314  27.389  24.609  1.00  0.00    -0.290 N 
ATOM     11  C   UNL A   1      31.193  26.611  24.542  1.00  0.00     0.206 A 
ATOM     12  C   UNL A   1      33.142  26.968  23.594  1.00  0.00     0.128 A 
ATOM     13  N   UNL A   1      31.267  25.745  23.554  1.00  0.00    -0.231 NA
BRANCH  10  14
ATOM     14  C   UNL A   1      32.637  28.385  25.560  1.00  0.00     0.143 A 
ATOM     15  C   UNL A   1      31.415  31.766  26.615  1.00  0.00     0.067 C 
ATOM     16  C   UNL A   1      32.247  30.530  26.451  1.00  0.00     0.044 A 
ATOM     17  C   UNL A   1      31.833  29.514  25.618  1.00  0.00     0.071 A 
ATOM     18  N   UNL A   1      33.406  30.460  27.129  1.00  0.00    -0.223 NA
ATOM     19  C   UNL A   1      34.096  29.314  27.008  1.00  0.00     0.224 A 
ATOM     20  N   UNL A   1      33.759  28.238  26.284  1.00  0.00    -0.200 NA
ATOM     21  Cl  UNL A   1      35.627  29.273  27.759  1.00  0.00    -0.041 Cl
ENDBRANCH  10  14
ENDBRANCH   6   9
ENDBRANCH   4   5
ENDBRANCH   3   4
ENDBRANCH   2   3
ENDBRANCH   1   2
BRANCH   1  22
ATOM     22  C   UNL A   1      37.221  22.182  25.069  1.00  0.00     0.021 C 
BRANCH  22  23
ATOM     23  C   UNL A   1      38.232  22.685  26.086  1.00  0.00     0.116 C 
BRANCH  23  24
ATOM     24  N   UNL A   1      39.539  22.070  25.876  1.00  0.00    -0.352 N 
ATOM     25  C   UNL A   1      40.784  22.626  26.010  1.00  0.00     0.251 C 
ATOM     26  H   UNL A   1      39.525  21.125  25.600  1.00  0.00     0.163 HD
ATOM     27  O   UNL A   1      41.767  22.098  25.488  1.00  0.00    -0.269 OA
BRANCH  25  28
ATOM     28  C   UNL A   1      40.946  23.857  26.793  1.00  0.00     0.039 A 
ATOM     29  C   UNL A   1      41.778  23.873  27.919  1.00  0.00     0.014 A 
ATOM     30  C   UNL A   1      40.220  24.988  26.421  1.00  0.00     0.014 A 
ATOM     31  C   UNL A   1      41.911  25.050  28.646  1.00  0.00     0.010 A 
ATOM     32  C   UNL A   1      40.431  26.176  27.071  1.00  0.00     0.010 A 
ATOM     33  C   UNL A   1      41.233  26.193  28.212  1.00  0.00    -0.014 A 
BRANCH  33  34
ATOM     34  C   UNL A   1      41.383  27.463  28.906  1.00  0.00     0.031 A 
ATOM     35  C   UNL A   1      42.539  28.299  28.477  1.00  0.00     0.074 A 
ATOM     36  C   UNL A   1      40.375  27.938  29.668  1.00  0.00     0.049 A 
ATOM     37  N   UNL A   1      43.470  28.810  29.214  1.00  0.00    -0.248 NA
ATOM     38  C   UNL A   1      42.734  28.533  27.035  1.00  0.00     0.031 C 
ATOM     39  C   UNL A   1      39.061  27.330  29.909  1.00  0.00     0.029 A 
ATOM     40  N   UNL A   1      40.262  29.144  30.280  1.00  0.00    -0.354 N 
ATOM     41  C   UNL A   1      44.286  29.552  28.361  1.00  0.00     0.074 A 
ATOM     42  C   UNL A   1      43.867  29.236  27.020  1.00  0.00     0.031 C 
ATOM     43  C   UNL A   1      38.217  28.263  30.400  1.00  0.00     0.029 A 
ATOM     44  C   UNL A   1      38.963  29.484  30.638  1.00  0.00     0.049 A 
ATOM     45  H   UNL A   1      41.034  29.729  30.457  1.00  0.00     0.167 HD
ATOM     46  C   UNL A   1      45.119  30.521  28.830  1.00  0.00     0.037 A 
ATOM     47  C   UNL A   1      38.532  30.705  31.044  1.00  0.00     0.037 A 
ATOM     48  C   UNL A   1      45.309  30.406  30.250  1.00  0.00     0.049 A 
ATOM     49  C   UNL A   1      39.733  31.473  31.465  1.00  0.00     0.074 A 
ATOM     50  C   UNL A   1      45.849  29.435  31.070  1.00  0.00     0.029 A 
ATOM     51  N   UNL A   1      44.571  31.223  31.069  1.00  0.00    -0.354 N 
ATOM     52  N   UNL A   1      40.444  31.179  32.521  1.00  0.00    -0.248 NA
ATOM     53  C   UNL A   1      40.418  32.267  30.454  1.00  0.00     0.031 C 
ATOM     54  C   UNL A   1      45.013  29.426  32.224  1.00  0.00     0.029 A 
ATOM     55  C   UNL A   1      44.062  30.435  32.070  1.00  0.00     0.049 A 
ATOM     56  H   UNL A   1      44.432  32.192  30.960  1.00  0.00     0.167 HD
ATOM     57  C   UNL A   1      41.759  31.373  32.126  1.00  0.00     0.074 A 
ATOM     58  C   UNL A   1      41.679  32.126  30.876  1.00  0.00     0.031 C 
ATOM     59  C   UNL A   1      42.774  30.650  32.684  1.00  0.00     0.037 A 
BRANCH  46  60
ATOM     60  C   UNL A   1      45.520  31.762  28.074  1.00  0.00     0.064 A 
ATOM     61  C   UNL A   1      44.523  32.625  27.577  1.00  0.00     0.173 A 
ATOM     62  C   UNL A   1      46.821  31.977  27.574  1.00  0.00     0.173 A 
ATOM     63  F   UNL A   1      43.247  32.495  27.969  1.00  0.00    -0.203 F 
ATOM     64  C   UNL A   1      44.800  33.587  26.600  1.00  0.00     0.198 A 
ATOM     65  C   UNL A   1      47.103  32.974  26.640  1.00  0.00     0.198 A 
ATOM     66  F   UNL A   1      47.840  31.166  27.879  1.00  0.00    -0.203 F 
ATOM     67  F   UNL A   1      43.800  34.304  26.069  1.00  0.00    -0.200 F 
ATOM     68  C   UNL A   1      46.090  33.757  26.130  1.00  0.00     0.200 A 
ATOM     69  F   UNL A   1      48.355  33.111  26.183  1.00  0.00    -0.200 F 
ATOM     70  F   UNL A   1      46.348  34.637  25.154  1.00  0.00    -0.200 F 
ENDBRANCH  46  60
BRANCH  47  71
ATOM     71  C   UNL A   1      37.203  31.329  30.843  1.00  0.00     0.064 A 
ATOM     72  C   UNL A   1      36.340  31.568  31.925  1.00  0.00     0.173 A 
ATOM     73  C   UNL A   1      36.849  31.935  29.620  1.00  0.00     0.173 A 
ATOM     74  F   UNL A   1      36.624  31.068  33.137  1.00  0.00    -0.203 F 
ATOM     75  C   UNL A   1      35.206  32.378  31.796  1.00  0.00     0.198 A 
ATOM     76  C   UNL A   1      35.712  32.734  29.490  1.00  0.00     0.198 A 
ATOM     77  F   UNL A   1      37.646  31.840  28.547  1.00  0.00    -0.203 F 
ATOM     78  F   UNL A   1      34.441  32.631  32.868  1.00  0.00    -0.200 F 
ATOM     79  C   UNL A   1      34.898  32.967  30.582  1.00  0.00     0.200 A 
ATOM     80  F   UNL A   1      35.446  33.325  28.316  1.00  0.00    -0.200 F 
ATOM     81  F   UNL A   1      33.844  33.789  30.473  1.00  0.00    -0.200 F 
ENDBRANCH  47  71
BRANCH  59  82
ATOM     82  C   UNL A   1      42.460  29.801  33.886  1.00  0.00     0.064 A 
ATOM     83  C   UNL A   1      41.951  28.493  33.804  1.00  0.00     0.173 A 
ATOM     84  C   UNL A   1      42.870  30.252  35.147  1.00  0.00     0.173 A 
ATOM     85  F   UNL A   1      41.637  27.946  32.626  1.00  0.00    -0.203 F 
ATOM     86  C   UNL A   1      41.829  27.688  34.935  1.00  0.00     0.198 A 
ATOM     87  C   UNL A   1      42.781  29.434  36.269  1.00  0.00     0.198 A 
ATOM     88  F   UNL A   1      43.420  31.470  35.277  1.00  0.00    -0.203 F 
ATOM     89  F   UNL A   1      41.341  26.444  34.825  1.00  0.00    -0.200 F 
ATOM     90  C   UNL A   1      42.255  28.157  36.165  1.00  0.00     0.200 A 
ATOM     91  F   UNL A   1      43.246  29.871  37.448  1.00  0.00    -0.200 F 
ATOM     92  F   UNL A   1      42.189  27.365  37.245  1.00  0.00    -0.200 F 
ENDBRANCH  59  82
ENDBRANCH  33  34
ENDBRANCH  25  28
ENDBRANCH  23  24
ENDBRANCH  22  23
ENDBRANCH   1  22
TORSDOF 14
ENDMDL
MODEL 3
REMARK VINA RESULT:     -11.8      4.379     10.203
REMARK SMILES Cc1cc(-n2cnc(C(=O)NCCCCCCNC(=O)c3ccc(-c4c5nc(c(-c6c(F)c(F)c(F)c(F)c6F)c6ccc([nH]6)c(-c6c(F)c(F)c(F)c(F)c6F)c6nc(c(-c7c(F)c(F)c(F)c(F)c7F)c7ccc4[nH]7)C=C6)C=C5)cc3)c2)nc(Cl)n1
REMARK SMILES IDX 15 1 14 2 13 3 12 4 11 5 9 6 10 7 8 9 5 10 6 11 84 12 7 13
REMARK SMILES IDX 4 14 1 15 2 16 3 17 88 18 86 19 85 20 87 21 16 22 17 23
REMARK SMILES IDX 18 24 19 25 20 27 21 28 22 29 83 30 23 31 82 32 24 33 25 34
REMARK SMILES IDX 26 35 76 36 27 37 81 38 75 39 77 40 28 41 80 42 74 43 73 44
REMARK SMILES IDX 29 46 61 47 41 48 60 49 42 50 45 51 59 52 78 53 43 54 44 55
REMARK SMILES IDX 58 57 79 58 46 59 30 60 31 61 39 62 32 63 33 64 37 65 40 66
REMARK SMILES IDX 34 67 35 68 38 69 36 70 62 71 63 72 71 73 64 74 65 75 69 76
REMARK SMILES IDX 72 77 66 78 67 79 70 80 68 81 47 82 48 83 56 84 49 85 50 86
REMARK SMILES IDX 54 87 57 88 51 89 52 90 55 91 53 92
REMARK H PARENT 11 8 18 26 77 45 45 56
REMARK Flexibility Score: inf
ROOT
ATOM      1  C   UNL A   1      33.125  28.899  26.017  1.00  0.00     0.002 C 
ENDROOT
BRANCH   1   2
ATOM      2  C   UNL A   1      31.757  28.229  25.808  1.00  0.00     0.002 C 
BRANCH   2   3
ATOM      3  C   UNL A   1      31.720  26.721  26.060  1.00  0.00     0.021 C 
BRANCH   3   4
ATOM      4  C   UNL A   1      30.404  26.058  25.664  1.00  0.00     0.116 C 
BRANCH   4   5
ATOM      5  N   UNL A   1      30.074  24.924  26.501  1.00  0.00    -0.351 N 
ATOM      6  C   UNL A   1      30.615  23.667  26.662  1.00  0.00     0.271 C 
ATOM      7  O   UNL A   1      30.020  22.928  27.451  1.00  0.00    -0.267 OA
ATOM      8  H   UNL A   1      29.294  25.085  27.081  1.00  0.00     0.163 HD
BRANCH   6   9
ATOM      9  C   UNL A   1      31.820  23.217  25.945  1.00  0.00     0.146 A 
ATOM     10  N   UNL A   1      33.872  22.656  25.312  1.00  0.00    -0.290 N 
ATOM     11  C   UNL A   1      33.020  22.579  24.247  1.00  0.00     0.206 A 
ATOM     12  C   UNL A   1      33.109  23.027  26.395  1.00  0.00     0.128 A 
ATOM     13  N   UNL A   1      31.785  22.869  24.596  1.00  0.00    -0.231 NA
BRANCH  10  14
ATOM     14  C   UNL A   1      35.274  22.476  25.330  1.00  0.00     0.143 A 
ATOM     15  C   UNL A   1      37.756  19.688  25.001  1.00  0.00     0.067 C 
ATOM     16  C   UNL A   1      37.126  21.022  25.269  1.00  0.00     0.044 A 
ATOM     17  C   UNL A   1      35.770  21.199  25.108  1.00  0.00     0.071 A 
ATOM     18  N   UNL A   1      37.926  22.021  25.682  1.00  0.00    -0.223 NA
ATOM     19  C   UNL A   1      37.339  23.218  25.853  1.00  0.00     0.224 A 
ATOM     20  N   UNL A   1      36.049  23.523  25.662  1.00  0.00    -0.200 NA
ATOM     21  Cl  UNL A   1      38.322  24.451  26.503  1.00  0.00    -0.041 Cl
ENDBRANCH  10  14
ENDBRANCH   6   9
ENDBRANCH   4   5
ENDBRANCH   3   4
ENDBRANCH   2   3
ENDBRANCH   1   2
BRANCH   1  22
ATOM     22  C   UNL A   1      33.123  30.191  26.848  1.00  0.00     0.021 C 
BRANCH  22  23
ATOM     23  C   UNL A   1      34.480  30.507  27.455  1.00  0.00     0.116 C 
BRANCH  23  24
ATOM     24  N   UNL A   1      34.368  31.529  28.490  1.00  0.00    -0.352 N 
ATOM     25  C   UNL A   1      35.086  31.664  29.649  1.00  0.00     0.251 C 
ATOM     26  H   UNL A   1      33.681  32.218  28.334  1.00  0.00     0.163 HD
ATOM     27  O   UNL A   1      34.665  32.367  30.569  1.00  0.00    -0.269 OA
BRANCH  25  28
ATOM     28  C   UNL A   1      36.372  30.971  29.788  1.00  0.00     0.039 A 
ATOM     29  C   UNL A   1      36.409  29.603  30.080  1.00  0.00     0.014 A 
ATOM     30  C   UNL A   1      37.548  31.712  29.671  1.00  0.00     0.014 A 
ATOM     31  C   UNL A   1      37.639  28.971  30.210  1.00  0.00     0.010 A 
ATOM     32  C   UNL A   1      38.759  31.072  29.693  1.00  0.00     0.010 A 
ATOM     33  C   UNL A   1      38.806  29.716  30.015  1.00  0.00    -0.014 A 
BRANCH  33  34
ATOM     34  C   UNL A   1      40.117  29.089  30.086  1.00  0.00     0.031 A 
ATOM     35  C   UNL A   1      40.695  28.958  31.453  1.00  0.00     0.074 A 
ATOM     36  C   UNL A   1      40.610  28.434  29.014  1.00  0.00     0.049 A 
ATOM     37  N   UNL A   1      41.853  29.353  31.870  1.00  0.00    -0.248 NA
ATOM     38  C   UNL A   1      39.849  28.389  32.517  1.00  0.00     0.031 C 
ATOM     39  C   UNL A   1      39.977  28.237  27.705  1.00  0.00     0.029 A 
ATOM     40  N   UNL A   1      41.734  27.678  28.917  1.00  0.00    -0.354 N 
ATOM     41  C   UNL A   1      41.950  28.955  33.203  1.00  0.00     0.074 A 
ATOM     42  C   UNL A   1      40.642  28.490  33.585  1.00  0.00     0.031 C 
ATOM     43  C   UNL A   1      40.601  27.236  27.049  1.00  0.00     0.029 A 
ATOM     44  C   UNL A   1      41.754  26.819  27.825  1.00  0.00     0.049 A 
ATOM     45  H   UNL A   1      42.473  27.733  29.566  1.00  0.00     0.167 HD
ATOM     46  C   UNL A   1      43.151  28.858  33.836  1.00  0.00     0.037 A 
ATOM     47  C   UNL A   1      42.627  25.803  27.614  1.00  0.00     0.037 A 
ATOM     48  C   UNL A   1      44.183  29.548  33.110  1.00  0.00     0.049 A 
ATOM     49  C   UNL A   1      43.800  26.046  28.494  1.00  0.00     0.074 A 
ATOM     50  C   UNL A   1      44.388  30.866  32.754  1.00  0.00     0.029 A 
ATOM     51  N   UNL A   1      45.013  28.807  32.307  1.00  0.00    -0.354 N 
ATOM     52  N   UNL A   1      44.637  27.034  28.324  1.00  0.00    -0.248 NA
ATOM     53  C   UNL A   1      43.768  25.480  29.836  1.00  0.00     0.031 C 
ATOM     54  C   UNL A   1      44.939  30.807  31.441  1.00  0.00     0.029 A 
ATOM     55  C   UNL A   1      45.101  29.463  31.105  1.00  0.00     0.049 A 
ATOM     56  H   UNL A   1      45.461  27.963  32.546  1.00  0.00     0.167 HD
ATOM     57  C   UNL A   1      44.913  27.487  29.605  1.00  0.00     0.074 A 
ATOM     58  C   UNL A   1      44.421  26.440  30.499  1.00  0.00     0.031 C 
ATOM     59  C   UNL A   1      45.237  28.794  29.834  1.00  0.00     0.037 A 
BRANCH  46  60
ATOM     60  C   UNL A   1      43.473  27.887  34.942  1.00  0.00     0.064 A 
ATOM     61  C   UNL A   1      43.925  28.375  36.185  1.00  0.00     0.173 A 
ATOM     62  C   UNL A   1      43.633  26.502  34.734  1.00  0.00     0.173 A 
ATOM     63  F   UNL A   1      43.841  29.681  36.480  1.00  0.00    -0.203 F 
ATOM     64  C   UNL A   1      44.551  27.544  37.120  1.00  0.00     0.198 A 
ATOM     65  C   UNL A   1      44.209  25.668  35.691  1.00  0.00     0.198 A 
ATOM     66  F   UNL A   1      43.346  25.925  33.561  1.00  0.00    -0.203 F 
ATOM     67  F   UNL A   1      45.072  28.072  38.236  1.00  0.00    -0.200 F 
ATOM     68  C   UNL A   1      44.696  26.192  36.869  1.00  0.00     0.200 A 
ATOM     69  F   UNL A   1      44.357  24.363  35.422  1.00  0.00    -0.200 F 
ATOM     70  F   UNL A   1      45.345  25.404  37.736  1.00  0.00    -0.200 F 
ENDBRANCH  46  60
BRANCH  47  71
ATOM     71  C   UNL A   1      42.397  24.519  26.910  1.00  0.00     0.064 A 
ATOM     72  C   UNL A   1      43.136  24.174  25.766  1.00  0.00     0.173 A 
ATOM     73  C   UNL A   1      41.624  23.489  27.484  1.00  0.00     0.173 A 
ATOM     74  F   UNL A   1      43.934  25.080  25.180  1.00  0.00    -0.203 F 
ATOM     75  C   UNL A   1      43.119  22.876  25.243  1.00  0.00     0.198 A 
ATOM     76  C   UNL A   1      41.600  22.198  26.956  1.00  0.00     0.198 A 
ATOM     77  F   UNL A   1      40.949  23.688  28.625  1.00  0.00    -0.203 F 
ATOM     78  F   UNL A   1      43.885  22.572  24.186  1.00  0.00    -0.200 F 
ATOM     79  C   UNL A   1      42.358  21.888  25.843  1.00  0.00     0.200 A 
ATOM     80  F   UNL A   1      40.885  21.243  27.568  1.00  0.00    -0.200 F 
ATOM     81  F   UNL A   1      42.386  20.631  25.376  1.00  0.00    -0.200 F 
ENDBRANCH  47  71
BRANCH  59  82
ATOM     82  C   UNL A   1      45.502  29.675  28.644  1.00  0.00     0.064 A 
ATOM     83  C   UNL A   1      44.503  30.411  27.982  1.00  0.00     0.173 A 
ATOM     84  C   UNL A   1      46.831  29.934  28.288  1.00  0.00     0.173 A 
ATOM     85  F   UNL A   1      43.219  30.304  28.333  1.00  0.00    -0.203 F 
ATOM     86  C   UNL A   1      44.820  31.337  26.989  1.00  0.00     0.198 A 
ATOM     87  C   UNL A   1      47.148  30.885  27.323  1.00  0.00     0.198 A 
ATOM     88  F   UNL A   1      47.831  29.307  28.928  1.00  0.00    -0.203 F 
ATOM     89  F   UNL A   1      43.845  32.024  26.376  1.00  0.00    -0.200 F 
ATOM     90  C   UNL A   1      46.143  31.580  26.668  1.00  0.00     0.200 A 
ATOM     91  F   UNL A   1      48.432  31.158  27.054  1.00  0.00    -0.200 F 
ATOM     92  F   UNL A   1      46.453  32.509  25.753  1.00  0.00    -0.200 F 
ENDBRANCH  59  82
ENDBRANCH  33  34
ENDBRANCH  25  28
ENDBRANCH  23  24
ENDBRANCH  22  23
ENDBRANCH   1  22
TORSDOF 14
ENDMDL
