MODEL 1
REMARK VINA RESULT:     -11.4      0.000      0.000
REMARK SMILES Cc1cccc(C)c1Nc1ccccc1CC(=O)NCCCCCCNC(=O)c1ccc(-c2c3nc(c(-c4c(F)c(F)c(F)c(F)c4F)c4ccc([nH]4)c(-c4c(F)c(F)c(F)c(F)c4F)c4nc(c(-c5c(F)c(F)c(F)c(F)c5F)c5ccc2[nH]5)C=C4)C=C3)cc1
REMARK SMILES IDX 22 1 21 2 20 3 19 4 17 5 18 6 16 8 15 9 10 10 11 11 12 12
REMARK SMILES IDX 14 13 13 14 9 15 8 17 1 18 2 19 3 20 4 21 6 22 5 23 7 24
REMARK SMILES IDX 23 25 24 26 25 27 26 28 27 29 28 31 29 32 30 33 91 34 31 35
REMARK SMILES IDX 90 36 32 37 33 38 34 39 84 40 35 41 89 42 83 43 85 44 36 45
REMARK SMILES IDX 88 46 82 47 81 48 37 50 69 51 49 52 68 53 50 54 53 55 67 56
REMARK SMILES IDX 86 57 51 58 52 59 66 61 87 62 54 63 38 64 39 65 47 66 40 67
REMARK SMILES IDX 41 68 45 69 48 70 42 71 43 72 46 73 44 74 70 75 71 76 79 77
REMARK SMILES IDX 72 78 73 79 77 80 80 81 74 82 75 83 78 84 76 85 55 86 56 87
REMARK SMILES IDX 64 88 57 89 58 90 62 91 65 92 59 93 60 94 63 95 61 96
REMARK H PARENT 19 7 9 16 26 30 85 49 53 60
REMARK Flexibility Score: inf
ROOT
ATOM      1  C   UNL A   1      35.201  20.860  25.184  1.00  0.00     0.002 C 
ENDROOT
BRANCH   1   2
ATOM      2  C   UNL A   1      34.717  21.399  26.536  1.00  0.00     0.021 C 
BRANCH   2   3
ATOM      3  C   UNL A   1      33.245  21.090  26.811  1.00  0.00     0.116 C 
BRANCH   3   4
ATOM      4  N   UNL A   1      32.591  22.239  27.397  1.00  0.00    -0.356 N 
ATOM      5  C   UNL A   1      31.701  23.087  26.802  1.00  0.00     0.224 C 
ATOM      6  O   UNL A   1      31.408  24.134  27.380  1.00  0.00    -0.275 OA
ATOM      7  H   UNL A   1      32.814  22.434  28.336  1.00  0.00     0.163 HD
BRANCH   5   8
ATOM      8  C   UNL A   1      31.047  22.686  25.491  1.00  0.00     0.137 C 
BRANCH   8   9
ATOM      9  C   UNL A   1      31.744  23.197  24.245  1.00  0.00    -0.015 A 
ATOM     10  C   UNL A   1      31.760  24.561  23.874  1.00  0.00     0.042 A 
ATOM     11  C   UNL A   1      32.356  24.921  22.650  1.00  0.00     0.026 A 
ATOM     12  C   UNL A   1      32.962  23.973  21.827  1.00  0.00     0.002 A 
ATOM     13  C   UNL A   1      32.382  22.255  23.411  1.00  0.00     0.006 A 
ATOM     14  C   UNL A   1      32.987  22.641  22.215  1.00  0.00     0.000 A 
BRANCH  10  15
ATOM     15  N   UNL A   1      31.266  25.615  24.669  1.00  0.00    -0.355 N 
ATOM     16  H   UNL A   1      30.504  25.353  25.235  1.00  0.00     0.167 HD
BRANCH  15  17
ATOM     17  C   UNL A   1      31.639  26.971  24.819  1.00  0.00     0.044 A 
ATOM     18  C   UNL A   1      29.517  27.614  23.532  1.00  0.00     0.046 C 
ATOM     19  C   UNL A   1      30.770  27.967  24.293  1.00  0.00    -0.027 A 
ATOM     20  C   UNL A   1      31.049  29.328  24.499  1.00  0.00     0.005 A 
ATOM     21  C   UNL A   1      32.167  29.720  25.223  1.00  0.00     0.001 A 
ATOM     22  C   UNL A   1      32.804  27.385  25.507  1.00  0.00    -0.027 A 
ATOM     23  C   UNL A   1      33.035  28.756  25.723  1.00  0.00     0.005 A 
ATOM     24  C   UNL A   1      33.860  26.434  26.008  1.00  0.00     0.046 C 
ENDBRANCH  15  17
ENDBRANCH  10  15
ENDBRANCH   8   9
ENDBRANCH   5   8
ENDBRANCH   3   4
ENDBRANCH   2   3
ENDBRANCH   1   2
BRANCH   1  25
ATOM     25  C   UNL A   1      35.917  21.895  24.311  1.00  0.00     0.002 C 
BRANCH  25  26
ATOM     26  C   UNL A   1      35.753  23.341  24.784  1.00  0.00     0.021 C 
BRANCH  26  27
ATOM     27  C   UNL A   1      37.050  23.981  25.264  1.00  0.00     0.116 C 
BRANCH  27  28
ATOM     28  N   UNL A   1      38.045  22.979  25.616  1.00  0.00    -0.352 N 
ATOM     29  C   UNL A   1      39.248  23.141  26.250  1.00  0.00     0.251 C 
ATOM     30  H   UNL A   1      37.822  22.054  25.361  1.00  0.00     0.163 HD
ATOM     31  O   UNL A   1      40.078  22.235  26.255  1.00  0.00    -0.269 OA
BRANCH  29  32
ATOM     32  C   UNL A   1      39.547  24.420  26.920  1.00  0.00     0.039 A 
ATOM     33  C   UNL A   1      39.134  24.609  28.240  1.00  0.00     0.014 A 
ATOM     34  C   UNL A   1      40.235  25.431  26.242  1.00  0.00     0.014 A 
ATOM     35  C   UNL A   1      39.460  25.794  28.899  1.00  0.00     0.010 A 
ATOM     36  C   UNL A   1      40.628  26.576  26.924  1.00  0.00     0.010 A 
ATOM     37  C   UNL A   1      40.238  26.772  28.257  1.00  0.00    -0.014 A 
BRANCH  37  38
ATOM     38  C   UNL A   1      40.650  28.011  28.962  1.00  0.00     0.031 A 
ATOM     39  C   UNL A   1      42.051  28.145  29.490  1.00  0.00     0.074 A 
ATOM     40  C   UNL A   1      39.746  28.985  29.178  1.00  0.00     0.049 A 
ATOM     41  N   UNL A   1      42.582  29.116  30.191  1.00  0.00    -0.248 NA
ATOM     42  C   UNL A   1      42.970  27.030  29.218  1.00  0.00     0.031 C 
ATOM     43  C   UNL A   1      38.347  28.951  28.749  1.00  0.00     0.029 A 
ATOM     44  N   UNL A   1      39.866  30.192  29.821  1.00  0.00    -0.354 N 
ATOM     45  C   UNL A   1      43.889  28.724  30.448  1.00  0.00     0.074 A 
ATOM     46  C   UNL A   1      44.053  27.401  29.884  1.00  0.00     0.031 C 
ATOM     47  C   UNL A   1      37.746  30.093  29.116  1.00  0.00     0.029 A 
ATOM     48  C   UNL A   1      38.701  30.921  29.845  1.00  0.00     0.049 A 
ATOM     49  H   UNL A   1      40.706  30.505  30.226  1.00  0.00     0.167 HD
ATOM     50  C   UNL A   1      44.870  29.415  31.074  1.00  0.00     0.037 A 
ATOM     51  C   UNL A   1      38.436  32.117  30.402  1.00  0.00     0.037 A 
ATOM     52  C   UNL A   1      44.704  30.737  31.620  1.00  0.00     0.049 A 
ATOM     53  C   UNL A   1      39.537  32.850  31.121  1.00  0.00     0.074 A 
ATOM     54  C   UNL A   1      45.647  31.543  32.232  1.00  0.00     0.029 A 
ATOM     55  N   UNL A   1      43.511  31.445  31.622  1.00  0.00    -0.354 N 
ATOM     56  N   UNL A   1      40.787  32.499  31.301  1.00  0.00    -0.248 NA
ATOM     57  C   UNL A   1      39.190  34.151  31.710  1.00  0.00     0.031 C 
ATOM     58  C   UNL A   1      45.013  32.714  32.655  1.00  0.00     0.029 A 
ATOM     59  C   UNL A   1      43.688  32.667  32.250  1.00  0.00     0.049 A 
ATOM     60  H   UNL A   1      42.664  31.127  31.235  1.00  0.00     0.167 HD
ATOM     61  C   UNL A   1      41.383  33.547  31.990  1.00  0.00     0.074 A 
ATOM     62  C   UNL A   1      40.361  34.553  32.183  1.00  0.00     0.031 C 
ATOM     63  C   UNL A   1      42.663  33.664  32.424  1.00  0.00     0.037 A 
BRANCH  50  64
ATOM     64  C   UNL A   1      46.214  28.755  31.200  1.00  0.00     0.064 A 
ATOM     65  C   UNL A   1      46.522  27.910  32.279  1.00  0.00     0.173 A 
ATOM     66  C   UNL A   1      47.194  28.939  30.214  1.00  0.00     0.173 A 
ATOM     67  F   UNL A   1      45.624  27.707  33.255  1.00  0.00    -0.203 F 
ATOM     68  C   UNL A   1      47.770  27.301  32.380  1.00  0.00     0.198 A 
ATOM     69  C   UNL A   1      48.430  28.301  30.301  1.00  0.00     0.198 A 
ATOM     70  F   UNL A   1      46.952  29.731  29.159  1.00  0.00    -0.203 F 
ATOM     71  F   UNL A   1      48.059  26.543  33.447  1.00  0.00    -0.200 F 
ATOM     72  C   UNL A   1      48.719  27.490  31.388  1.00  0.00     0.200 A 
ATOM     73  F   UNL A   1      49.340  28.473  29.333  1.00  0.00    -0.200 F 
ATOM     74  F   UNL A   1      49.918  26.897  31.483  1.00  0.00    -0.200 F 
ENDBRANCH  50  64
BRANCH  51  75
ATOM     75  C   UNL A   1      37.075  32.707  30.290  1.00  0.00     0.064 A 
ATOM     76  C   UNL A   1      36.117  32.503  31.293  1.00  0.00     0.173 A 
ATOM     77  C   UNL A   1      36.698  33.472  29.176  1.00  0.00     0.173 A 
ATOM     78  F   UNL A   1      36.422  31.763  32.369  1.00  0.00    -0.203 F 
ATOM     79  C   UNL A   1      34.826  33.014  31.172  1.00  0.00     0.198 A 
ATOM     80  C   UNL A   1      35.418  34.012  29.072  1.00  0.00     0.198 A 
ATOM     81  F   UNL A   1      37.578  33.705  28.191  1.00  0.00    -0.203 F 
ATOM     82  F   UNL A   1      33.914  32.756  32.119  1.00  0.00    -0.200 F 
ATOM     83  C   UNL A   1      34.480  33.773  30.065  1.00  0.00     0.200 A 
ATOM     84  F   UNL A   1      35.092  34.758  28.008  1.00  0.00    -0.200 F 
ATOM     85  F   UNL A   1      33.239  34.267  29.949  1.00  0.00    -0.200 F 
ENDBRANCH  51  75
BRANCH  63  86
ATOM     86  C   UNL A   1      43.042  34.945  33.111  1.00  0.00     0.064 A 
ATOM     87  C   UNL A   1      43.552  36.043  32.402  1.00  0.00     0.173 A 
ATOM     88  C   UNL A   1      42.853  35.089  34.494  1.00  0.00     0.173 A 
ATOM     89  F   UNL A   1      43.765  35.953  31.080  1.00  0.00    -0.203 F 
ATOM     90  C   UNL A   1      43.884  37.226  33.056  1.00  0.00     0.198 A 
ATOM     91  C   UNL A   1      43.153  36.284  35.140  1.00  0.00     0.198 A 
ATOM     92  F   UNL A   1      42.362  34.072  35.219  1.00  0.00    -0.203 F 
ATOM     93  F   UNL A   1      44.419  38.243  32.367  1.00  0.00    -0.200 F 
ATOM     94  C   UNL A   1      43.676  37.349  34.422  1.00  0.00     0.200 A 
ATOM     95  F   UNL A   1      42.936  36.406  36.457  1.00  0.00    -0.200 F 
ATOM     96  F   UNL A   1      43.987  38.492  35.048  1.00  0.00    -0.200 F 
ENDBRANCH  63  86
ENDBRANCH  37  38
ENDBRANCH  29  32
ENDBRANCH  27  28
ENDBRANCH  26  27
ENDBRANCH  25  26
ENDBRANCH   1  25
TORSDOF 16
ENDMDL
MODEL 2
REMARK VINA RESULT:     -11.4      3.202      8.657
REMARK SMILES Cc1cccc(C)c1Nc1ccccc1CC(=O)NCCCCCCNC(=O)c1ccc(-c2c3nc(c(-c4c(F)c(F)c(F)c(F)c4F)c4ccc([nH]4)c(-c4c(F)c(F)c(F)c(F)c4F)c4nc(c(-c5c(F)c(F)c(F)c(F)c5F)c5ccc2[nH]5)C=C4)C=C3)cc1
REMARK SMILES IDX 22 1 21 2 20 3 19 4 17 5 18 6 16 8 15 9 10 10 11 11 12 12
REMARK SMILES IDX 14 13 13 14 9 15 8 17 1 18 2 19 3 20 4 21 6 22 5 23 7 24
REMARK SMILES IDX 23 25 24 26 25 27 26 28 27 29 28 31 29 32 30 33 91 34 31 35
REMARK SMILES IDX 90 36 32 37 33 38 34 39 84 40 35 41 89 42 83 43 85 44 36 45
REMARK SMILES IDX 88 46 82 47 81 48 37 50 69 51 49 52 68 53 50 54 53 55 67 56
REMARK SMILES IDX 86 57 51 58 52 59 66 61 87 62 54 63 38 64 39 65 47 66 40 67
REMARK SMILES IDX 41 68 45 69 48 70 42 71 43 72 46 73 44 74 70 75 71 76 79 77
REMARK SMILES IDX 72 78 73 79 77 80 80 81 74 82 75 83 78 84 76 85 55 86 56 87
REMARK SMILES IDX 64 88 57 89 58 90 62 91 65 92 59 93 60 94 63 95 61 96
REMARK H PARENT 19 7 9 16 26 30 85 49 53 60
REMARK Flexibility Score: inf
ROOT
ATOM      1  C   UNL A   1      36.993  21.893  24.054  1.00  0.00     0.002 C 
ENDROOT
BRANCH   1   2
ATOM      2  C   UNL A   1      36.672  23.257  24.677  1.00  0.00     0.021 C 
BRANCH   2   3
ATOM      3  C   UNL A   1      35.171  23.510  24.821  1.00  0.00     0.116 C 
BRANCH   3   4
ATOM      4  N   UNL A   1      34.787  24.689  24.076  1.00  0.00    -0.356 N 
ATOM      5  C   UNL A   1      34.169  25.811  24.550  1.00  0.00     0.224 C 
ATOM      6  O   UNL A   1      33.725  26.626  23.740  1.00  0.00    -0.275 OA
ATOM      7  H   UNL A   1      34.994  24.683  23.114  1.00  0.00     0.163 HD
BRANCH   5   8
ATOM      8  C   UNL A   1      34.110  26.058  26.047  1.00  0.00     0.137 C 
BRANCH   8   9
ATOM      9  C   UNL A   1      33.354  27.305  26.463  1.00  0.00    -0.015 A 
ATOM     10  C   UNL A   1      31.948  27.343  26.606  1.00  0.00     0.042 A 
ATOM     11  C   UNL A   1      31.333  28.573  26.907  1.00  0.00     0.026 A 
ATOM     12  C   UNL A   1      32.080  29.732  27.108  1.00  0.00     0.002 A 
ATOM     13  C   UNL A   1      34.095  28.482  26.693  1.00  0.00     0.006 A 
ATOM     14  C   UNL A   1      33.464  29.683  27.014  1.00  0.00     0.000 A 
BRANCH  10  15
ATOM     15  N   UNL A   1      31.102  26.218  26.521  1.00  0.00    -0.355 N 
ATOM     16  H   UNL A   1      30.470  26.147  27.272  1.00  0.00     0.167 HD
BRANCH  15  17
ATOM     17  C   UNL A   1      30.976  25.172  25.577  1.00  0.00     0.044 A 
ATOM     18  C   UNL A   1      29.928  26.863  23.960  1.00  0.00     0.046 C 
ATOM     19  C   UNL A   1      30.431  25.483  24.300  1.00  0.00    -0.027 A 
ATOM     20  C   UNL A   1      30.373  24.500  23.298  1.00  0.00     0.005 A 
ATOM     21  C   UNL A   1      30.852  23.219  23.535  1.00  0.00     0.001 A 
ATOM     22  C   UNL A   1      31.411  23.848  25.823  1.00  0.00    -0.027 A 
ATOM     23  C   UNL A   1      31.367  22.898  24.785  1.00  0.00     0.005 A 
ATOM     24  C   UNL A   1      31.896  23.364  27.164  1.00  0.00     0.046 C 
ENDBRANCH  15  17
ENDBRANCH  10  15
ENDBRANCH   8   9
ENDBRANCH   5   8
ENDBRANCH   3   4
ENDBRANCH   2   3
ENDBRANCH   1   2
BRANCH   1  25
ATOM     25  C   UNL A   1      36.876  20.712  25.023  1.00  0.00     0.002 C 
BRANCH  25  26
ATOM     26  C   UNL A   1      38.064  19.749  24.991  1.00  0.00     0.021 C 
BRANCH  26  27
ATOM     27  C   UNL A   1      39.271  20.236  25.782  1.00  0.00     0.116 C 
BRANCH  27  28
ATOM     28  N   UNL A   1      40.280  19.195  25.916  1.00  0.00    -0.352 N 
ATOM     29  C   UNL A   1      41.629  19.319  26.119  1.00  0.00     0.251 C 
ATOM     30  H   UNL A   1      39.946  18.271  25.848  1.00  0.00     0.163 HD
ATOM     31  O   UNL A   1      42.375  18.355  25.967  1.00  0.00    -0.269 OA
BRANCH  29  32
ATOM     32  C   UNL A   1      42.184  20.628  26.514  1.00  0.00     0.039 A 
ATOM     33  C   UNL A   1      42.681  21.481  25.527  1.00  0.00     0.014 A 
ATOM     34  C   UNL A   1      42.214  21.008  27.859  1.00  0.00     0.014 A 
ATOM     35  C   UNL A   1      43.157  22.742  25.885  1.00  0.00     0.010 A 
ATOM     36  C   UNL A   1      42.614  22.293  28.204  1.00  0.00     0.010 A 
ATOM     37  C   UNL A   1      43.096  23.170  27.222  1.00  0.00    -0.014 A 
BRANCH  37  38
ATOM     38  C   UNL A   1      43.537  24.531  27.614  1.00  0.00     0.031 A 
ATOM     39  C   UNL A   1      42.521  25.578  27.972  1.00  0.00     0.074 A 
ATOM     40  C   UNL A   1      44.849  24.837  27.588  1.00  0.00     0.049 A 
ATOM     41  N   UNL A   1      42.702  26.840  28.273  1.00  0.00    -0.248 NA
ATOM     42  C   UNL A   1      41.110  25.160  27.965  1.00  0.00     0.031 C 
ATOM     43  C   UNL A   1      45.925  23.917  27.219  1.00  0.00     0.029 A 
ATOM     44  N   UNL A   1      45.499  26.013  27.870  1.00  0.00    -0.354 N 
ATOM     45  C   UNL A   1      41.433  27.363  28.481  1.00  0.00     0.074 A 
ATOM     46  C   UNL A   1      40.487  26.302  28.212  1.00  0.00     0.031 C 
ATOM     47  C   UNL A   1      47.103  24.554  27.321  1.00  0.00     0.029 A 
ATOM     48  C   UNL A   1      46.863  25.937  27.719  1.00  0.00     0.049 A 
ATOM     49  H   UNL A   1      45.033  26.832  28.153  1.00  0.00     0.167 HD
ATOM     50  C   UNL A   1      41.089  28.609  28.886  1.00  0.00     0.037 A 
ATOM     51  C   UNL A   1      47.809  26.882  27.876  1.00  0.00     0.037 A 
ATOM     52  C   UNL A   1      42.036  29.656  29.167  1.00  0.00     0.049 A 
ATOM     53  C   UNL A   1      47.397  28.268  28.296  1.00  0.00     0.074 A 
ATOM     54  C   UNL A   1      41.795  30.938  29.628  1.00  0.00     0.029 A 
ATOM     55  N   UNL A   1      43.410  29.540  29.007  1.00  0.00    -0.354 N 
ATOM     56  N   UNL A   1      46.199  28.734  28.555  1.00  0.00    -0.248 NA
ATOM     57  C   UNL A   1      48.471  29.258  28.452  1.00  0.00     0.031 C 
ATOM     58  C   UNL A   1      43.015  31.616  29.693  1.00  0.00     0.029 A 
ATOM     59  C   UNL A   1      44.026  30.738  29.335  1.00  0.00     0.049 A 
ATOM     60  H   UNL A   1      43.878  28.729  28.706  1.00  0.00     0.167 HD
ATOM     61  C   UNL A   1      46.378  30.057  28.937  1.00  0.00     0.074 A 
ATOM     62  C   UNL A   1      47.802  30.315  28.890  1.00  0.00     0.031 C 
ATOM     63  C   UNL A   1      45.446  30.975  29.294  1.00  0.00     0.037 A 
BRANCH  50  64
ATOM     64  C   UNL A   1      39.627  28.907  29.053  1.00  0.00     0.064 A 
ATOM     65  C   UNL A   1      38.983  28.770  30.294  1.00  0.00     0.173 A 
ATOM     66  C   UNL A   1      38.865  29.369  27.970  1.00  0.00     0.173 A 
ATOM     67  F   UNL A   1      39.662  28.321  31.361  1.00  0.00    -0.203 F 
ATOM     68  C   UNL A   1      37.627  29.054  30.435  1.00  0.00     0.198 A 
ATOM     69  C   UNL A   1      37.517  29.685  28.122  1.00  0.00     0.198 A 
ATOM     70  F   UNL A   1      39.429  29.524  26.763  1.00  0.00    -0.203 F 
ATOM     71  F   UNL A   1      37.023  28.863  31.616  1.00  0.00    -0.200 F 
ATOM     72  C   UNL A   1      36.897  29.519  29.351  1.00  0.00     0.200 A 
ATOM     73  F   UNL A   1      36.817  30.149  27.078  1.00  0.00    -0.200 F 
ATOM     74  F   UNL A   1      35.594  29.800  29.491  1.00  0.00    -0.200 F 
ENDBRANCH  50  64
BRANCH  51  75
ATOM     75  C   UNL A   1      49.241  26.548  27.653  1.00  0.00     0.064 A 
ATOM     76  C   UNL A   1      49.759  26.432  26.355  1.00  0.00     0.173 A 
ATOM     77  C   UNL A   1      50.117  26.324  28.725  1.00  0.00     0.173 A 
ATOM     78  F   UNL A   1      48.958  26.618  25.296  1.00  0.00    -0.203 F 
ATOM     79  C   UNL A   1      51.088  26.075  26.138  1.00  0.00     0.198 A 
ATOM     80  C   UNL A   1      51.455  26.000  28.508  1.00  0.00     0.198 A 
ATOM     81  F   UNL A   1      49.676  26.429  29.988  1.00  0.00    -0.203 F 
ATOM     82  F   UNL A   1      51.542  25.917  24.887  1.00  0.00    -0.200 F 
ATOM     83  C   UNL A   1      51.936  25.865  27.215  1.00  0.00     0.200 A 
ATOM     84  F   UNL A   1      52.274  25.814  29.551  1.00  0.00    -0.200 F 
ATOM     85  F   UNL A   1      53.216  25.524  27.007  1.00  0.00    -0.200 F 
ENDBRANCH  51  75
BRANCH  63  86
ATOM     86  C   UNL A   1      45.940  32.333  29.707  1.00  0.00     0.064 A 
ATOM     87  C   UNL A   1      46.063  33.386  28.789  1.00  0.00     0.173 A 
ATOM     88  C   UNL A   1      46.254  32.593  31.049  1.00  0.00     0.173 A 
ATOM     89  F   UNL A   1      45.789  33.186  27.490  1.00  0.00    -0.203 F 
ATOM     90  C   UNL A   1      46.509  34.641  29.195  1.00  0.00     0.198 A 
ATOM     91  C   UNL A   1      46.666  33.858  31.458  1.00  0.00     0.198 A 
ATOM     92  F   UNL A   1      46.147  31.623  31.970  1.00  0.00    -0.203 F 
ATOM     93  F   UNL A   1      46.670  35.617  28.291  1.00  0.00    -0.200 F 
ATOM     94  C   UNL A   1      46.801  34.879  30.529  1.00  0.00     0.200 A 
ATOM     95  F   UNL A   1      46.931  34.089  32.752  1.00  0.00    -0.200 F 
ATOM     96  F   UNL A   1      47.221  36.090  30.919  1.00  0.00    -0.200 F 
ENDBRANCH  63  86
ENDBRANCH  37  38
ENDBRANCH  29  32
ENDBRANCH  27  28
ENDBRANCH  26  27
ENDBRANCH  25  26
ENDBRANCH   1  25
TORSDOF 16
ENDMDL
MODEL 3
REMARK VINA RESULT:     -11.3      3.628      7.868
REMARK SMILES Cc1cccc(C)c1Nc1ccccc1CC(=O)NCCCCCCNC(=O)c1ccc(-c2c3nc(c(-c4c(F)c(F)c(F)c(F)c4F)c4ccc([nH]4)c(-c4c(F)c(F)c(F)c(F)c4F)c4nc(c(-c5c(F)c(F)c(F)c(F)c5F)c5ccc2[nH]5)C=C4)C=C3)cc1
REMARK SMILES IDX 22 1 21 2 20 3 19 4 17 5 18 6 16 8 15 9 10 10 11 11 12 12
REMARK SMILES IDX 14 13 13 14 9 15 8 17 1 18 2 19 3 20 4 21 6 22 5 23 7 24
REMARK SMILES IDX 23 25 24 26 25 27 26 28 27 29 28 31 29 32 30 33 91 34 31 35
REMARK SMILES IDX 90 36 32 37 33 38 34 39 84 40 35 41 89 42 83 43 85 44 36 45
REMARK SMILES IDX 88 46 82 47 81 48 37 50 69 51 49 52 68 53 50 54 53 55 67 56
REMARK SMILES IDX 86 57 51 58 52 59 66 61 87 62 54 63 38 64 39 65 47 66 40 67
REMARK SMILES IDX 41 68 45 69 48 70 42 71 43 72 46 73 44 74 70 75 71 76 79 77
REMARK SMILES IDX 72 78 73 79 77 80 80 81 74 82 75 83 78 84 76 85 55 86 56 87
REMARK SMILES IDX 64 88 57 89 58 90 62 91 65 92 59 93 60 94 63 95 61 96
REMARK H PARENT 19 7 9 16 26 30 85 49 53 60
REMARK Flexibility Score: inf
ROOT
ATOM      1  C   UNL A   1      32.383  29.883  27.072  1.00  0.00     0.002 C 
ENDROOT
BRANCH   1   2
ATOM      2  C   UNL A   1      32.676  28.497  26.487  1.00  0.00     0.021 C 
BRANCH   2   3
ATOM      3  C   UNL A   1      31.428  27.620  26.371  1.00  0.00     0.116 C 
BRANCH   3   4
ATOM      4  N   UNL A   1      31.704  26.285  26.853  1.00  0.00    -0.356 N 
ATOM      5  C   UNL A   1      31.135  25.114  26.441  1.00  0.00     0.224 C 
ATOM      6  O   UNL A   1      31.332  24.097  27.106  1.00  0.00    -0.275 OA
ATOM      7  H   UNL A   1      32.382  26.211  27.562  1.00  0.00     0.163 HD
BRANCH   5   8
ATOM      8  C   UNL A   1      30.340  25.083  25.147  1.00  0.00     0.137 C 
BRANCH   8   9
ATOM      9  C   UNL A   1      31.175  25.090  23.881  1.00  0.00    -0.015 A 
ATOM     10  C   UNL A   1      32.177  24.129  23.611  1.00  0.00     0.042 A 
ATOM     11  C   UNL A   1      32.958  24.277  22.450  1.00  0.00     0.026 A 
ATOM     12  C   UNL A   1      32.737  25.316  21.549  1.00  0.00     0.002 A 
ATOM     13  C   UNL A   1      30.949  26.121  22.946  1.00  0.00     0.006 A 
ATOM     14  C   UNL A   1      31.722  26.231  21.790  1.00  0.00     0.000 A 
BRANCH  10  15
ATOM     15  N   UNL A   1      32.425  22.987  24.399  1.00  0.00    -0.355 N 
ATOM     16  H   UNL A   1      31.606  22.570  24.753  1.00  0.00     0.167 HD
BRANCH  15  17
ATOM     17  C   UNL A   1      33.609  22.317  24.785  1.00  0.00     0.044 A 
ATOM     18  C   UNL A   1      32.544  20.131  23.974  1.00  0.00     0.046 C 
ATOM     19  C   UNL A   1      33.695  20.916  24.551  1.00  0.00    -0.027 A 
ATOM     20  C   UNL A   1      34.885  20.224  24.830  1.00  0.00     0.005 A 
ATOM     21  C   UNL A   1      35.993  20.894  25.330  1.00  0.00     0.001 A 
ATOM     22  C   UNL A   1      34.728  22.978  25.346  1.00  0.00    -0.027 A 
ATOM     23  C   UNL A   1      35.915  22.259  25.583  1.00  0.00     0.005 A 
ATOM     24  C   UNL A   1      34.725  24.429  25.749  1.00  0.00     0.046 C 
ENDBRANCH  15  17
ENDBRANCH  10  15
ENDBRANCH   8   9
ENDBRANCH   5   8
ENDBRANCH   3   4
ENDBRANCH   2   3
ENDBRANCH   1   2
BRANCH   1  25
ATOM     25  C   UNL A   1      31.616  30.818  26.130  1.00  0.00     0.002 C 
BRANCH  25  26
ATOM     26  C   UNL A   1      31.399  32.229  26.680  1.00  0.00     0.021 C 
BRANCH  26  27
ATOM     27  C   UNL A   1      32.648  32.847  27.296  1.00  0.00     0.116 C 
BRANCH  27  28
ATOM     28  N   UNL A   1      32.445  34.251  27.624  1.00  0.00    -0.352 N 
ATOM     29  C   UNL A   1      33.009  34.994  28.627  1.00  0.00     0.251 C 
ATOM     30  H   UNL A   1      31.812  34.734  27.045  1.00  0.00     0.163 HD
ATOM     31  O   UNL A   1      32.552  36.096  28.920  1.00  0.00    -0.269 OA
BRANCH  29  32
ATOM     32  C   UNL A   1      34.168  34.456  29.364  1.00  0.00     0.039 A 
ATOM     33  C   UNL A   1      33.955  33.796  30.576  1.00  0.00     0.014 A 
ATOM     34  C   UNL A   1      35.462  34.605  28.857  1.00  0.00     0.014 A 
ATOM     35  C   UNL A   1      35.038  33.235  31.252  1.00  0.00     0.010 A 
ATOM     36  C   UNL A   1      36.528  33.978  29.490  1.00  0.00     0.010 A 
ATOM     37  C   UNL A   1      36.328  33.293  30.697  1.00  0.00    -0.014 A 
BRANCH  37  38
ATOM     38  C   UNL A   1      37.483  32.648  31.369  1.00  0.00     0.031 A 
ATOM     39  C   UNL A   1      38.202  31.509  30.701  1.00  0.00     0.074 A 
ATOM     40  C   UNL A   1      37.843  33.049  32.603  1.00  0.00     0.049 A 
ATOM     41  N   UNL A   1      39.185  30.772  31.153  1.00  0.00    -0.248 NA
ATOM     42  C   UNL A   1      37.737  31.130  29.358  1.00  0.00     0.031 C 
ATOM     43  C   UNL A   1      37.196  34.115  33.369  1.00  0.00     0.029 A 
ATOM     44  N   UNL A   1      38.837  32.599  33.436  1.00  0.00    -0.354 N 
ATOM     45  C   UNL A   1      39.448  29.842  30.156  1.00  0.00     0.074 A 
ATOM     46  C   UNL A   1      38.481  30.065  29.103  1.00  0.00     0.031 C 
ATOM     47  C   UNL A   1      37.825  34.256  34.546  1.00  0.00     0.029 A 
ATOM     48  C   UNL A   1      38.889  33.261  34.639  1.00  0.00     0.049 A 
ATOM     49  H   UNL A   1      39.454  31.871  33.195  1.00  0.00     0.167 HD
ATOM     50  C   UNL A   1      40.424  28.905  30.111  1.00  0.00     0.037 A 
ATOM     51  C   UNL A   1      39.699  33.078  35.698  1.00  0.00     0.037 A 
ATOM     52  C   UNL A   1      41.392  28.698  31.156  1.00  0.00     0.049 A 
ATOM     53  C   UNL A   1      40.755  32.006  35.636  1.00  0.00     0.074 A 
ATOM     54  C   UNL A   1      42.450  27.806  31.189  1.00  0.00     0.029 A 
ATOM     55  N   UNL A   1      41.415  29.391  32.358  1.00  0.00    -0.354 N 
ATOM     56  N   UNL A   1      41.037  31.177  34.661  1.00  0.00    -0.248 NA
ATOM     57  C   UNL A   1      41.610  31.851  36.820  1.00  0.00     0.031 C 
ATOM     58  C   UNL A   1      43.079  27.920  32.432  1.00  0.00     0.029 A 
ATOM     59  C   UNL A   1      42.454  28.927  33.151  1.00  0.00     0.049 A 
ATOM     60  H   UNL A   1      40.788  30.106  32.611  1.00  0.00     0.167 HD
ATOM     61  C   UNL A   1      42.121  30.427  35.099  1.00  0.00     0.074 A 
ATOM     62  C   UNL A   1      42.454  30.910  36.422  1.00  0.00     0.031 C 
ATOM     63  C   UNL A   1      42.779  29.428  34.461  1.00  0.00     0.037 A 
BRANCH  50  64
ATOM     64  C   UNL A   1      40.495  28.033  28.890  1.00  0.00     0.064 A 
ATOM     65  C   UNL A   1      39.785  26.824  28.804  1.00  0.00     0.173 A 
ATOM     66  C   UNL A   1      41.253  28.425  27.777  1.00  0.00     0.173 A 
ATOM     67  F   UNL A   1      39.053  26.397  29.844  1.00  0.00    -0.203 F 
ATOM     68  C   UNL A   1      39.857  26.028  27.664  1.00  0.00     0.198 A 
ATOM     69  C   UNL A   1      41.295  27.644  26.625  1.00  0.00     0.198 A 
ATOM     70  F   UNL A   1      41.947  29.573  27.801  1.00  0.00    -0.203 F 
ATOM     71  F   UNL A   1      39.214  24.853  27.628  1.00  0.00    -0.200 F 
ATOM     72  C   UNL A   1      40.605  26.442  26.573  1.00  0.00     0.200 A 
ATOM     73  F   UNL A   1      42.006  28.052  25.565  1.00  0.00    -0.200 F 
ATOM     74  F   UNL A   1      40.667  25.679  25.473  1.00  0.00    -0.200 F 
ENDBRANCH  50  64
BRANCH  51  75
ATOM     75  C   UNL A   1      39.557  33.937  36.904  1.00  0.00     0.064 A 
ATOM     76  C   UNL A   1      40.191  35.186  36.976  1.00  0.00     0.173 A 
ATOM     77  C   UNL A   1      38.802  33.526  38.012  1.00  0.00     0.173 A 
ATOM     78  F   UNL A   1      40.941  35.616  35.951  1.00  0.00    -0.203 F 
ATOM     79  C   UNL A   1      40.100  35.976  38.121  1.00  0.00     0.198 A 
ATOM     80  C   UNL A   1      38.683  34.331  39.143  1.00  0.00     0.198 A 
ATOM     81  F   UNL A   1      38.168  32.344  37.993  1.00  0.00    -0.203 F 
ATOM     82  F   UNL A   1      40.763  37.139  38.184  1.00  0.00    -0.200 F 
ATOM     83  C   UNL A   1      39.342  35.550  39.200  1.00  0.00     0.200 A 
ATOM     84  F   UNL A   1      37.936  33.924  40.177  1.00  0.00    -0.200 F 
ATOM     85  F   UNL A   1      39.252  36.311  40.301  1.00  0.00    -0.200 F 
ENDBRANCH  51  75
BRANCH  63  86
ATOM     86  C   UNL A   1      43.958  28.819  35.169  1.00  0.00     0.064 A 
ATOM     87  C   UNL A   1      43.820  27.715  36.023  1.00  0.00     0.173 A 
ATOM     88  C   UNL A   1      45.250  29.324  34.953  1.00  0.00     0.173 A 
ATOM     89  F   UNL A   1      42.604  27.204  36.274  1.00  0.00    -0.203 F 
ATOM     90  C   UNL A   1      44.926  27.158  36.657  1.00  0.00     0.198 A 
ATOM     91  C   UNL A   1      46.358  28.742  35.561  1.00  0.00     0.198 A 
ATOM     92  F   UNL A   1      45.439  30.373  34.139  1.00  0.00    -0.203 F 
ATOM     93  F   UNL A   1      44.764  26.138  37.511  1.00  0.00    -0.200 F 
ATOM     94  C   UNL A   1      46.195  27.665  36.419  1.00  0.00     0.200 A 
ATOM     95  F   UNL A   1      47.585  29.224  35.315  1.00  0.00    -0.200 F 
ATOM     96  F   UNL A   1      47.260  27.121  37.023  1.00  0.00    -0.200 F 
ENDBRANCH  63  86
ENDBRANCH  37  38
ENDBRANCH  29  32
ENDBRANCH  27  28
ENDBRANCH  26  27
ENDBRANCH  25  26
ENDBRANCH   1  25
TORSDOF 16
ENDMDL
