MODEL 1
REMARK VINA RESULT:     -12.5      0.000      0.000
REMARK SMILES COc1cc2c(cc1OC)[C@H](C(=O)NCCCCCCNC(=O)c1ccc(-c3c4nc(c(-c5c(F)c(F)c(F)c(F)c5F)c5ccc([nH]5)c(-c5c(F)c(F)c(F)c(F)c5F)c5nc(c(-c6c(F)c(F)c(F)c(F)c6F)c6ccc3[nH]6)C=C5)C=C4)cc1)[C@H](c1cccs1)N(C)C2=O
REMARK SMILES IDX 18 1 17 2 16 3 15 4 14 5 12 6 13 7 11 9 3 10 4 11 8 12 5 13
REMARK SMILES IDX 7 14 6 15 95 16 93 17 96 18 87 19 94 20 2 21 1 22 9 23 10 24
REMARK SMILES IDX 88 25 89 26 92 27 90 28 91 29 19 30 20 31 21 32 22 33 23 35
REMARK SMILES IDX 24 36 25 37 86 38 26 39 85 40 27 41 28 42 29 43 79 44 30 45
REMARK SMILES IDX 84 46 78 47 80 48 31 49 83 50 77 51 76 52 32 54 64 55 44 56
REMARK SMILES IDX 63 57 45 58 48 59 62 60 81 61 46 62 47 63 61 65 82 66 49 67
REMARK SMILES IDX 33 68 34 69 42 70 35 71 36 72 40 73 43 74 37 75 38 76 41 77
REMARK SMILES IDX 39 78 65 79 66 80 74 81 67 82 68 83 72 84 75 85 69 86 70 87
REMARK SMILES IDX 73 88 71 89 50 90 51 91 59 92 52 93 53 94 57 95 60 96 54 97
REMARK SMILES IDX 55 98 58 99 56 100
REMARK H PARENT 14 8 21 34 80 53 48 64
REMARK Flexibility Score: inf
ROOT
ATOM      1  C   UNL A   1      34.154  33.123  28.678  1.00  0.00     0.002 C 
ENDROOT
BRANCH   1   2
ATOM      2  C   UNL A   1      33.817  31.797  27.993  1.00  0.00     0.002 C 
BRANCH   2   3
ATOM      3  C   UNL A   1      34.961  30.773  27.932  1.00  0.00     0.021 C 
BRANCH   3   4
ATOM      4  C   UNL A   1      34.621  29.468  27.208  1.00  0.00     0.116 C 
BRANCH   4   5
ATOM      5  N   UNL A   1      33.295  29.006  27.569  1.00  0.00    -0.355 N 
ATOM      6  C   UNL A   1      32.450  28.148  26.934  1.00  0.00     0.230 C 
ATOM      7  O   UNL A   1      31.294  28.134  27.356  1.00  0.00    -0.274 OA
ATOM      8  H   UNL A   1      32.948  29.372  28.415  1.00  0.00     0.163 HD
BRANCH   6   9
ATOM      9  C   UNL A   1      32.908  27.369  25.712  1.00  0.00     0.137 C 
ATOM     10  C   UNL A   1      31.986  23.151  25.198  1.00  0.00     0.161 A 
ATOM     11  C   UNL A   1      32.650  23.891  24.210  1.00  0.00     0.064 A 
ATOM     12  C   UNL A   1      31.582  23.792  26.379  1.00  0.00     0.161 A 
ATOM     13  C   UNL A   1      32.929  25.248  24.406  1.00  0.00     0.048 A 
ATOM     14  C   UNL A   1      31.845  25.162  26.553  1.00  0.00     0.056 A 
ATOM     15  C   UNL A   1      32.543  25.899  25.592  1.00  0.00    -0.016 A 
ATOM     16  C   UNL A   1      33.574  26.027  23.299  1.00  0.00     0.254 C 
ATOM     17  N   UNL A   1      33.403  27.413  23.330  1.00  0.00    -0.333 N 
ATOM     18  O   UNL A   1      34.201  25.434  22.428  1.00  0.00    -0.269 OA
ATOM     19  C   UNL A   1      32.553  28.051  24.363  1.00  0.00     0.142 C 
ATOM     20  C   UNL A   1      33.931  28.225  22.250  1.00  0.00     0.147 C 
BRANCH  10  21
ATOM     21  O   UNL A   1      31.634  21.843  24.991  1.00  0.00    -0.493 OA
ATOM     22  C   UNL A   1      32.580  21.059  24.269  1.00  0.00     0.278 C 
ENDBRANCH  10  21
BRANCH  12  23
ATOM     23  O   UNL A   1      30.923  23.253  27.455  1.00  0.00    -0.493 OA
ATOM     24  C   UNL A   1      29.544  22.945  27.316  1.00  0.00     0.278 C 
ENDBRANCH  12  23
BRANCH  19  25
ATOM     25  C   UNL A   1      31.060  28.016  23.977  1.00  0.00     0.028 A 
ATOM     26  C   UNL A   1      30.174  26.956  24.116  1.00  0.00     0.017 A 
ATOM     27  S   UNL A   1      30.222  29.376  23.319  1.00  0.00    -0.147 S 
ATOM     28  C   UNL A   1      28.870  27.229  23.610  1.00  0.00     0.012 A 
ATOM     29  C   UNL A   1      28.761  28.518  23.155  1.00  0.00     0.065 A 
ENDBRANCH  19  25
ENDBRANCH   6   9
ENDBRANCH   4   5
ENDBRANCH   3   4
ENDBRANCH   2   3
ENDBRANCH   1   2
BRANCH   1  30
ATOM     30  C   UNL A   1      33.100  34.220  28.525  1.00  0.00     0.021 C 
BRANCH  30  31
ATOM     31  C   UNL A   1      33.525  35.591  29.032  1.00  0.00     0.116 C 
BRANCH  31  32
ATOM     32  N   UNL A   1      32.634  36.119  30.054  1.00  0.00    -0.352 N 
ATOM     33  C   UNL A   1      32.665  35.889  31.408  1.00  0.00     0.251 C 
ATOM     34  H   UNL A   1      31.920  36.716  29.735  1.00  0.00     0.163 HD
ATOM     35  O   UNL A   1      31.773  36.304  32.140  1.00  0.00    -0.269 OA
BRANCH  33  36
ATOM     36  C   UNL A   1      33.780  35.103  31.972  1.00  0.00     0.039 A 
ATOM     37  C   UNL A   1      33.545  33.790  32.390  1.00  0.00     0.014 A 
ATOM     38  C   UNL A   1      35.062  35.653  32.046  1.00  0.00     0.014 A 
ATOM     39  C   UNL A   1      34.613  33.003  32.825  1.00  0.00     0.010 A 
ATOM     40  C   UNL A   1      36.133  34.848  32.418  1.00  0.00     0.010 A 
ATOM     41  C   UNL A   1      35.918  33.517  32.811  1.00  0.00    -0.014 A 
BRANCH  41  42
ATOM     42  C   UNL A   1      37.088  32.704  33.228  1.00  0.00     0.031 A 
ATOM     43  C   UNL A   1      37.754  32.996  34.543  1.00  0.00     0.074 A 
ATOM     44  C   UNL A   1      37.606  31.784  32.394  1.00  0.00     0.049 A 
ATOM     45  N   UNL A   1      38.885  32.542  35.020  1.00  0.00    -0.248 NA
ATOM     46  C   UNL A   1      37.070  33.955  35.424  1.00  0.00     0.031 C 
ATOM     47  C   UNL A   1      37.064  31.427  31.082  1.00  0.00     0.029 A 
ATOM     48  N   UNL A   1      38.725  30.998  32.516  1.00  0.00    -0.354 N 
ATOM     49  C   UNL A   1      39.063  33.186  36.237  1.00  0.00     0.074 A 
ATOM     50  C   UNL A   1      37.945  34.088  36.409  1.00  0.00     0.031 C 
ATOM     51  C   UNL A   1      37.847  30.490  30.524  1.00  0.00     0.029 A 
ATOM     52  C   UNL A   1      38.969  30.213  31.416  1.00  0.00     0.049 A 
ATOM     53  H   UNL A   1      39.298  30.998  33.316  1.00  0.00     0.167 HD
ATOM     54  C   UNL A   1      40.060  33.024  37.138  1.00  0.00     0.037 A 
ATOM     55  C   UNL A   1      39.993  29.379  31.152  1.00  0.00     0.037 A 
ATOM     56  C   UNL A   1      41.149  32.097  36.979  1.00  0.00     0.049 A 
ATOM     57  C   UNL A   1      41.090  29.216  32.170  1.00  0.00     0.074 A 
ATOM     58  C   UNL A   1      42.185  31.823  37.854  1.00  0.00     0.029 A 
ATOM     59  N   UNL A   1      41.336  31.287  35.869  1.00  0.00    -0.354 N 
ATOM     60  N   UNL A   1      41.232  29.801  33.334  1.00  0.00    -0.248 NA
ATOM     61  C   UNL A   1      42.169  28.274  31.837  1.00  0.00     0.031 C 
ATOM     62  C   UNL A   1      43.018  30.871  37.259  1.00  0.00     0.029 A 
ATOM     63  C   UNL A   1      42.477  30.518  36.034  1.00  0.00     0.049 A 
ATOM     64  H   UNL A   1      40.746  31.261  35.081  1.00  0.00     0.167 HD
ATOM     65  C   UNL A   1      42.390  29.274  33.888  1.00  0.00     0.074 A 
ATOM     66  C   UNL A   1      42.914  28.320  32.933  1.00  0.00     0.031 C 
ATOM     67  C   UNL A   1      42.965  29.552  35.084  1.00  0.00     0.037 A 
BRANCH  54  68
ATOM     68  C   UNL A   1      40.021  33.873  38.374  1.00  0.00     0.064 A 
ATOM     69  C   UNL A   1      40.720  35.087  38.456  1.00  0.00     0.173 A 
ATOM     70  C   UNL A   1      39.257  33.480  39.483  1.00  0.00     0.173 A 
ATOM     71  F   UNL A   1      41.476  35.501  37.426  1.00  0.00    -0.203 F 
ATOM     72  C   UNL A   1      40.681  35.860  39.613  1.00  0.00     0.198 A 
ATOM     73  C   UNL A   1      39.196  34.270  40.627  1.00  0.00     0.198 A 
ATOM     74  F   UNL A   1      38.566  32.331  39.456  1.00  0.00    -0.203 F 
ATOM     75  F   UNL A   1      41.400  36.988  39.687  1.00  0.00    -0.200 F 
ATOM     76  C   UNL A   1      39.915  35.454  40.695  1.00  0.00     0.200 A 
ATOM     77  F   UNL A   1      38.447  33.883  41.668  1.00  0.00    -0.200 F 
ATOM     78  F   UNL A   1      39.876  36.201  41.807  1.00  0.00    -0.200 F 
ENDBRANCH  54  68
BRANCH  55  79
ATOM     79  C   UNL A   1      40.020  28.619  29.876  1.00  0.00     0.064 A 
ATOM     80  C   UNL A   1      39.449  27.341  29.792  1.00  0.00     0.173 A 
ATOM     81  C   UNL A   1      40.614  29.146  28.720  1.00  0.00     0.173 A 
ATOM     82  F   UNL A   1      38.889  26.786  30.877  1.00  0.00    -0.203 F 
ATOM     83  C   UNL A   1      39.487  26.612  28.605  1.00  0.00     0.198 A 
ATOM     84  C   UNL A   1      40.628  28.426  27.527  1.00  0.00     0.198 A 
ATOM     85  F   UNL A   1      41.169  30.366  28.746  1.00  0.00    -0.203 F 
ATOM     86  F   UNL A   1      38.971  25.376  28.564  1.00  0.00    -0.200 F 
ATOM     87  C   UNL A   1      40.071  27.156  27.472  1.00  0.00     0.200 A 
ATOM     88  F   UNL A   1      41.182  28.962  26.430  1.00  0.00    -0.200 F 
ATOM     89  F   UNL A   1      40.104  26.457  26.330  1.00  0.00    -0.200 F 
ENDBRANCH  55  79
BRANCH  67  90
ATOM     90  C   UNL A   1      44.191  28.775  35.461  1.00  0.00     0.064 A 
ATOM     91  C   UNL A   1      45.479  29.235  35.152  1.00  0.00     0.173 A 
ATOM     92  C   UNL A   1      44.072  27.589  36.201  1.00  0.00     0.173 A 
ATOM     93  F   UNL A   1      45.643  30.355  34.432  1.00  0.00    -0.203 F 
ATOM     94  C   UNL A   1      46.606  28.526  35.561  1.00  0.00     0.198 A 
ATOM     95  C   UNL A   1      45.201  26.897  36.630  1.00  0.00     0.198 A 
ATOM     96  F   UNL A   1      42.861  27.114  36.525  1.00  0.00    -0.203 F 
ATOM     97  F   UNL A   1      47.827  28.964  35.229  1.00  0.00    -0.200 F 
ATOM     98  C   UNL A   1      46.466  27.364  36.306  1.00  0.00     0.200 A 
ATOM     99  F   UNL A   1      45.065  25.783  37.361  1.00  0.00    -0.200 F 
ATOM    100  F   UNL A   1      47.552  26.692  36.712  1.00  0.00    -0.200 F 
ENDBRANCH  67  90
ENDBRANCH  41  42
ENDBRANCH  33  36
ENDBRANCH  31  32
ENDBRANCH  30  31
ENDBRANCH   1  30
TORSDOF 16
ENDMDL
MODEL 2
REMARK VINA RESULT:     -12.3      6.530     12.043
REMARK SMILES COc1cc2c(cc1OC)[C@H](C(=O)NCCCCCCNC(=O)c1ccc(-c3c4nc(c(-c5c(F)c(F)c(F)c(F)c5F)c5ccc([nH]5)c(-c5c(F)c(F)c(F)c(F)c5F)c5nc(c(-c6c(F)c(F)c(F)c(F)c6F)c6ccc3[nH]6)C=C5)C=C4)cc1)[C@H](c1cccs1)N(C)C2=O
REMARK SMILES IDX 18 1 17 2 16 3 15 4 14 5 12 6 13 7 11 9 3 10 4 11 8 12 5 13
REMARK SMILES IDX 7 14 6 15 95 16 93 17 96 18 87 19 94 20 2 21 1 22 9 23 10 24
REMARK SMILES IDX 88 25 89 26 92 27 90 28 91 29 19 30 20 31 21 32 22 33 23 35
REMARK SMILES IDX 24 36 25 37 86 38 26 39 85 40 27 41 28 42 29 43 79 44 30 45
REMARK SMILES IDX 84 46 78 47 80 48 31 49 83 50 77 51 76 52 32 54 64 55 44 56
REMARK SMILES IDX 63 57 45 58 48 59 62 60 81 61 46 62 47 63 61 65 82 66 49 67
REMARK SMILES IDX 33 68 34 69 42 70 35 71 36 72 40 73 43 74 37 75 38 76 41 77
REMARK SMILES IDX 39 78 65 79 66 80 74 81 67 82 68 83 72 84 75 85 69 86 70 87
REMARK SMILES IDX 73 88 71 89 50 90 51 91 59 92 52 93 53 94 57 95 60 96 54 97
REMARK SMILES IDX 55 98 58 99 56 100
REMARK H PARENT 14 8 21 34 80 53 48 64
REMARK Flexibility Score: inf
ROOT
ATOM      1  C   UNL A   1      40.794  21.334  26.594  1.00  0.00     0.002 C 
ENDROOT
BRANCH   1   2
ATOM      2  C   UNL A   1      39.455  21.912  26.126  1.00  0.00     0.002 C 
BRANCH   2   3
ATOM      3  C   UNL A   1      39.183  23.368  26.536  1.00  0.00     0.021 C 
BRANCH   3   4
ATOM      4  C   UNL A   1      37.798  23.896  26.157  1.00  0.00     0.116 C 
BRANCH   4   5
ATOM      5  N   UNL A   1      37.411  23.435  24.838  1.00  0.00    -0.355 N 
ATOM      6  C   UNL A   1      36.181  23.193  24.307  1.00  0.00     0.230 C 
ATOM      7  O   UNL A   1      36.177  22.578  23.241  1.00  0.00    -0.274 OA
ATOM      8  H   UNL A   1      38.163  23.271  24.222  1.00  0.00     0.163 HD
BRANCH   6   9
ATOM      9  C   UNL A   1      34.919  23.563  25.069  1.00  0.00     0.137 C 
ATOM     10  C   UNL A   1      31.766  25.956  23.269  1.00  0.00     0.161 A 
ATOM     11  C   UNL A   1      31.642  25.412  24.555  1.00  0.00     0.064 A 
ATOM     12  C   UNL A   1      32.930  25.702  22.526  1.00  0.00     0.161 A 
ATOM     13  C   UNL A   1      32.675  24.643  25.104  1.00  0.00     0.048 A 
ATOM     14  C   UNL A   1      33.949  24.906  23.078  1.00  0.00     0.056 A 
ATOM     15  C   UNL A   1      33.853  24.394  24.376  1.00  0.00    -0.016 A 
ATOM     16  C   UNL A   1      32.480  24.015  26.451  1.00  0.00     0.254 C 
ATOM     17  N   UNL A   1      33.282  22.910  26.746  1.00  0.00    -0.333 N 
ATOM     18  O   UNL A   1      31.641  24.476  27.217  1.00  0.00    -0.269 OA
ATOM     19  C   UNL A   1      34.210  22.353  25.734  1.00  0.00     0.142 C 
ATOM     20  C   UNL A   1      33.095  22.203  27.999  1.00  0.00     0.147 C 
BRANCH  10  21
ATOM     21  O   UNL A   1      30.735  26.642  22.684  1.00  0.00    -0.493 OA
ATOM     22  C   UNL A   1      30.176  27.694  23.467  1.00  0.00     0.278 C 
ENDBRANCH  10  21
BRANCH  12  23
ATOM     23  O   UNL A   1      33.240  26.134  21.262  1.00  0.00    -0.493 OA
ATOM     24  C   UNL A   1      32.528  25.579  20.166  1.00  0.00     0.278 C 
ENDBRANCH  12  23
BRANCH  19  25
ATOM     25  C   UNL A   1      33.489  21.393  24.765  1.00  0.00     0.028 A 
ATOM     26  C   UNL A   1      32.734  21.727  23.649  1.00  0.00     0.017 A 
ATOM     27  S   UNL A   1      33.557  19.674  24.913  1.00  0.00    -0.147 S 
ATOM     28  C   UNL A   1      32.153  20.604  22.993  1.00  0.00     0.012 A 
ATOM     29  C   UNL A   1      32.532  19.422  23.578  1.00  0.00     0.065 A 
ENDBRANCH  19  25
ENDBRANCH   6   9
ENDBRANCH   4   5
ENDBRANCH   3   4
ENDBRANCH   2   3
ENDBRANCH   1   2
BRANCH   1  30
ATOM     30  C   UNL A   1      41.080  19.905  26.134  1.00  0.00     0.021 C 
BRANCH  30  31
ATOM     31  C   UNL A   1      42.371  19.305  26.675  1.00  0.00     0.116 C 
BRANCH  31  32
ATOM     32  N   UNL A   1      43.211  18.734  25.634  1.00  0.00    -0.352 N 
ATOM     33  C   UNL A   1      44.107  19.379  24.817  1.00  0.00     0.251 C 
ATOM     34  H   UNL A   1      43.126  17.763  25.497  1.00  0.00     0.163 HD
ATOM     35  O   UNL A   1      44.661  18.790  23.895  1.00  0.00    -0.269 OA
BRANCH  33  36
ATOM     36  C   UNL A   1      44.377  20.813  25.046  1.00  0.00     0.039 A 
ATOM     37  C   UNL A   1      43.788  21.760  24.204  1.00  0.00     0.014 A 
ATOM     38  C   UNL A   1      45.176  21.216  26.119  1.00  0.00     0.014 A 
ATOM     39  C   UNL A   1      43.950  23.120  24.476  1.00  0.00     0.010 A 
ATOM     40  C   UNL A   1      45.281  22.568  26.426  1.00  0.00     0.010 A 
ATOM     41  C   UNL A   1      44.670  23.532  25.607  1.00  0.00    -0.014 A 
BRANCH  41  42
ATOM     42  C   UNL A   1      44.834  24.965  25.956  1.00  0.00     0.031 A 
ATOM     43  C   UNL A   1      46.189  25.602  25.827  1.00  0.00     0.074 A 
ATOM     44  C   UNL A   1      43.805  25.657  26.478  1.00  0.00     0.049 A 
ATOM     45  N   UNL A   1      46.599  26.773  26.243  1.00  0.00    -0.248 NA
ATOM     46  C   UNL A   1      47.230  24.796  25.170  1.00  0.00     0.031 C 
ATOM     47  C   UNL A   1      42.449  25.143  26.675  1.00  0.00     0.029 A 
ATOM     48  N   UNL A   1      43.747  26.940  26.963  1.00  0.00    -0.354 N 
ATOM     49  C   UNL A   1      47.950  26.829  25.929  1.00  0.00     0.074 A 
ATOM     50  C   UNL A   1      48.299  25.562  25.323  1.00  0.00     0.031 C 
ATOM     51  C   UNL A   1      41.693  26.101  27.234  1.00  0.00     0.029 A 
ATOM     52  C   UNL A   1      42.520  27.280  27.476  1.00  0.00     0.049 A 
ATOM     53  H   UNL A   1      44.514  27.557  26.946  1.00  0.00     0.167 HD
ATOM     54  C   UNL A   1      48.817  27.852  26.115  1.00  0.00     0.037 A 
ATOM     55  C   UNL A   1      42.115  28.409  28.089  1.00  0.00     0.037 A 
ATOM     56  C   UNL A   1      48.454  29.123  26.684  1.00  0.00     0.049 A 
ATOM     57  C   UNL A   1      43.097  29.534  28.283  1.00  0.00     0.074 A 
ATOM     58  C   UNL A   1      49.246  30.242  26.872  1.00  0.00     0.029 A 
ATOM     59  N   UNL A   1      47.188  29.444  27.151  1.00  0.00    -0.354 N 
ATOM     60  N   UNL A   1      44.363  29.592  27.951  1.00  0.00    -0.248 NA
ATOM     61  C   UNL A   1      42.592  30.751  28.936  1.00  0.00     0.031 C 
ATOM     62  C   UNL A   1      48.468  31.229  27.483  1.00  0.00     0.029 A 
ATOM     63  C   UNL A   1      47.180  30.741  27.635  1.00  0.00     0.049 A 
ATOM     64  H   UNL A   1      46.412  28.839  27.139  1.00  0.00     0.167 HD
ATOM     65  C   UNL A   1      44.797  30.859  28.318  1.00  0.00     0.074 A 
ATOM     66  C   UNL A   1      43.658  31.538  28.899  1.00  0.00     0.031 C 
ATOM     67  C   UNL A   1      46.027  31.410  28.182  1.00  0.00     0.037 A 
BRANCH  54  68
ATOM     68  C   UNL A   1      50.243  27.635  25.702  1.00  0.00     0.064 A 
ATOM     69  C   UNL A   1      50.648  27.757  24.365  1.00  0.00     0.173 A 
ATOM     70  C   UNL A   1      51.220  27.323  26.658  1.00  0.00     0.173 A 
ATOM     71  F   UNL A   1      49.748  28.040  23.410  1.00  0.00    -0.203 F 
ATOM     72  C   UNL A   1      51.973  27.543  23.995  1.00  0.00     0.198 A 
ATOM     73  C   UNL A   1      52.550  27.141  26.290  1.00  0.00     0.198 A 
ATOM     74  F   UNL A   1      50.888  27.200  27.952  1.00  0.00    -0.203 F 
ATOM     75  F   UNL A   1      52.326  27.612  22.704  1.00  0.00    -0.200 F 
ATOM     76  C   UNL A   1      52.924  27.241  24.958  1.00  0.00     0.200 A 
ATOM     77  F   UNL A   1      53.471  26.860  27.222  1.00  0.00    -0.200 F 
ATOM     78  F   UNL A   1      54.200  27.039  24.601  1.00  0.00    -0.200 F 
ENDBRANCH  54  68
BRANCH  55  79
ATOM     79  C   UNL A   1      40.708  28.541  28.546  1.00  0.00     0.064 A 
ATOM     80  C   UNL A   1      39.711  28.999  27.673  1.00  0.00     0.173 A 
ATOM     81  C   UNL A   1      40.329  28.218  29.858  1.00  0.00     0.173 A 
ATOM     82  F   UNL A   1      40.029  29.340  26.415  1.00  0.00    -0.203 F 
ATOM     83  C   UNL A   1      38.392  29.144  28.098  1.00  0.00     0.198 A 
ATOM     84  C   UNL A   1      39.005  28.339  30.274  1.00  0.00     0.198 A 
ATOM     85  F   UNL A   1      41.244  27.772  30.730  1.00  0.00    -0.203 F 
ATOM     86  F   UNL A   1      37.467  29.623  27.255  1.00  0.00    -0.200 F 
ATOM     87  C   UNL A   1      38.038  28.810  29.396  1.00  0.00     0.200 A 
ATOM     88  F   UNL A   1      38.665  28.002  31.526  1.00  0.00    -0.200 F 
ATOM     89  F   UNL A   1      36.770  28.946  29.804  1.00  0.00    -0.200 F 
ENDBRANCH  55  79
BRANCH  67  90
ATOM     90  C   UNL A   1      46.198  32.837  28.609  1.00  0.00     0.064 A 
ATOM     91  C   UNL A   1      46.557  33.177  29.920  1.00  0.00     0.173 A 
ATOM     92  C   UNL A   1      46.067  33.873  27.670  1.00  0.00     0.173 A 
ATOM     93  F   UNL A   1      46.680  32.223  30.856  1.00  0.00    -0.203 F 
ATOM     94  C   UNL A   1      46.766  34.505  30.281  1.00  0.00     0.198 A 
ATOM     95  C   UNL A   1      46.301  35.197  28.029  1.00  0.00     0.198 A 
ATOM     96  F   UNL A   1      45.730  33.596  26.402  1.00  0.00    -0.203 F 
ATOM     97  F   UNL A   1      47.077  34.813  31.548  1.00  0.00    -0.200 F 
ATOM     98  C   UNL A   1      46.647  35.512  29.334  1.00  0.00     0.200 A 
ATOM     99  F   UNL A   1      46.198  36.167  27.109  1.00  0.00    -0.200 F 
ATOM    100  F   UNL A   1      46.862  36.789  29.680  1.00  0.00    -0.200 F 
ENDBRANCH  67  90
ENDBRANCH  41  42
ENDBRANCH  33  36
ENDBRANCH  31  32
ENDBRANCH  30  31
ENDBRANCH   1  30
TORSDOF 16
ENDMDL
MODEL 3
REMARK VINA RESULT:     -12.2      6.581     12.124
REMARK SMILES COc1cc2c(cc1OC)[C@H](C(=O)NCCCCCCNC(=O)c1ccc(-c3c4nc(c(-c5c(F)c(F)c(F)c(F)c5F)c5ccc([nH]5)c(-c5c(F)c(F)c(F)c(F)c5F)c5nc(c(-c6c(F)c(F)c(F)c(F)c6F)c6ccc3[nH]6)C=C5)C=C4)cc1)[C@H](c1cccs1)N(C)C2=O
REMARK SMILES IDX 18 1 17 2 16 3 15 4 14 5 12 6 13 7 11 9 3 10 4 11 8 12 5 13
REMARK SMILES IDX 7 14 6 15 95 16 93 17 96 18 87 19 94 20 2 21 1 22 9 23 10 24
REMARK SMILES IDX 88 25 89 26 92 27 90 28 91 29 19 30 20 31 21 32 22 33 23 35
REMARK SMILES IDX 24 36 25 37 86 38 26 39 85 40 27 41 28 42 29 43 79 44 30 45
REMARK SMILES IDX 84 46 78 47 80 48 31 49 83 50 77 51 76 52 32 54 64 55 44 56
REMARK SMILES IDX 63 57 45 58 48 59 62 60 81 61 46 62 47 63 61 65 82 66 49 67
REMARK SMILES IDX 33 68 34 69 42 70 35 71 36 72 40 73 43 74 37 75 38 76 41 77
REMARK SMILES IDX 39 78 65 79 66 80 74 81 67 82 68 83 72 84 75 85 69 86 70 87
REMARK SMILES IDX 73 88 71 89 50 90 51 91 59 92 52 93 53 94 57 95 60 96 54 97
REMARK SMILES IDX 55 98 58 99 56 100
REMARK H PARENT 14 8 21 34 80 53 48 64
REMARK Flexibility Score: inf
ROOT
ATOM      1  C   UNL A   1      41.130  21.418  26.129  1.00  0.00     0.002 C 
ENDROOT
BRANCH   1   2
ATOM      2  C   UNL A   1      39.791  21.870  26.719  1.00  0.00     0.002 C 
BRANCH   2   3
ATOM      3  C   UNL A   1      39.329  23.278  26.312  1.00  0.00     0.021 C 
BRANCH   3   4
ATOM      4  C   UNL A   1      37.819  23.429  26.114  1.00  0.00     0.116 C 
BRANCH   4   5
ATOM      5  N   UNL A   1      37.463  23.288  24.716  1.00  0.00    -0.355 N 
ATOM      6  C   UNL A   1      36.251  23.342  24.098  1.00  0.00     0.230 C 
ATOM      7  O   UNL A   1      36.234  22.945  22.933  1.00  0.00    -0.274 OA
ATOM      8  H   UNL A   1      38.225  23.128  24.111  1.00  0.00     0.163 HD
BRANCH   6   9
ATOM      9  C   UNL A   1      35.005  23.752  24.865  1.00  0.00     0.137 C 
ATOM     10  C   UNL A   1      31.833  26.084  23.020  1.00  0.00     0.161 A 
ATOM     11  C   UNL A   1      31.729  25.596  24.330  1.00  0.00     0.064 A 
ATOM     12  C   UNL A   1      32.982  25.791  22.268  1.00  0.00     0.161 A 
ATOM     13  C   UNL A   1      32.768  24.846  24.893  1.00  0.00     0.048 A 
ATOM     14  C   UNL A   1      34.007  25.014  22.836  1.00  0.00     0.056 A 
ATOM     15  C   UNL A   1      33.931  24.559  24.156  1.00  0.00    -0.016 A 
ATOM     16  C   UNL A   1      32.593  24.278  26.269  1.00  0.00     0.254 C 
ATOM     17  N   UNL A   1      33.395  23.182  26.598  1.00  0.00    -0.333 N 
ATOM     18  O   UNL A   1      31.770  24.776  27.029  1.00  0.00    -0.269 OA
ATOM     19  C   UNL A   1      34.302  22.576  25.595  1.00  0.00     0.142 C 
ATOM     20  C   UNL A   1      33.226  22.530  27.883  1.00  0.00     0.147 C 
BRANCH  10  21
ATOM     21  O   UNL A   1      30.795  26.750  22.424  1.00  0.00    -0.493 OA
ATOM     22  C   UNL A   1      30.777  28.161  22.624  1.00  0.00     0.278 C 
ENDBRANCH  10  21
BRANCH  12  23
ATOM     23  O   UNL A   1      33.272  26.166  20.982  1.00  0.00    -0.493 OA
ATOM     24  C   UNL A   1      32.530  25.577  19.923  1.00  0.00     0.278 C 
ENDBRANCH  12  23
BRANCH  19  25
ATOM     25  C   UNL A   1      33.559  21.580  24.681  1.00  0.00     0.028 A 
ATOM     26  C   UNL A   1      32.861  21.860  23.513  1.00  0.00     0.017 A 
ATOM     27  S   UNL A   1      33.521  19.877  24.971  1.00  0.00    -0.147 S 
ATOM     28  C   UNL A   1      32.238  20.720  22.930  1.00  0.00     0.012 A 
ATOM     29  C   UNL A   1      32.528  19.572  23.623  1.00  0.00     0.065 A 
ENDBRANCH  19  25
ENDBRANCH   6   9
ENDBRANCH   4   5
ENDBRANCH   3   4
ENDBRANCH   2   3
ENDBRANCH   1   2
BRANCH   1  30
ATOM     30  C   UNL A   1      41.270  19.911  25.917  1.00  0.00     0.021 C 
BRANCH  30  31
ATOM     31  C   UNL A   1      42.558  19.306  26.459  1.00  0.00     0.116 C 
BRANCH  31  32
ATOM     32  N   UNL A   1      43.406  18.750  25.417  1.00  0.00    -0.352 N 
ATOM     33  C   UNL A   1      44.322  19.403  24.630  1.00  0.00     0.251 C 
ATOM     34  H   UNL A   1      43.311  17.783  25.256  1.00  0.00     0.163 HD
ATOM     35  O   UNL A   1      44.883  18.829  23.702  1.00  0.00    -0.269 OA
BRANCH  33  36
ATOM     36  C   UNL A   1      44.605  20.828  24.898  1.00  0.00     0.039 A 
ATOM     37  C   UNL A   1      44.207  21.788  23.964  1.00  0.00     0.014 A 
ATOM     38  C   UNL A   1      45.225  21.210  26.089  1.00  0.00     0.014 A 
ATOM     39  C   UNL A   1      44.373  23.143  24.256  1.00  0.00     0.010 A 
ATOM     40  C   UNL A   1      45.330  22.559  26.406  1.00  0.00     0.010 A 
ATOM     41  C   UNL A   1      44.906  23.538  25.492  1.00  0.00    -0.014 A 
BRANCH  41  42
ATOM     42  C   UNL A   1      45.065  24.967  25.860  1.00  0.00     0.031 A 
ATOM     43  C   UNL A   1      46.420  25.608  25.749  1.00  0.00     0.074 A 
ATOM     44  C   UNL A   1      44.031  25.651  26.381  1.00  0.00     0.049 A 
ATOM     45  N   UNL A   1      46.825  26.774  26.183  1.00  0.00    -0.248 NA
ATOM     46  C   UNL A   1      47.468  24.812  25.090  1.00  0.00     0.031 C 
ATOM     47  C   UNL A   1      42.674  25.132  26.561  1.00  0.00     0.029 A 
ATOM     48  N   UNL A   1      43.967  26.928  26.882  1.00  0.00    -0.354 N 
ATOM     49  C   UNL A   1      48.179  26.836  25.880  1.00  0.00     0.074 A 
ATOM     50  C   UNL A   1      48.534  25.578  25.261  1.00  0.00     0.031 C 
ATOM     51  C   UNL A   1      41.912  26.083  27.126  1.00  0.00     0.029 A 
ATOM     52  C   UNL A   1      42.735  27.260  27.389  1.00  0.00     0.049 A 
ATOM     53  H   UNL A   1      44.733  27.547  26.878  1.00  0.00     0.167 HD
ATOM     54  C   UNL A   1      49.042  27.858  26.086  1.00  0.00     0.037 A 
ATOM     55  C   UNL A   1      42.323  28.381  28.012  1.00  0.00     0.037 A 
ATOM     56  C   UNL A   1      48.673  29.122  26.667  1.00  0.00     0.049 A 
ATOM     57  C   UNL A   1      43.302  29.505  28.227  1.00  0.00     0.074 A 
ATOM     58  C   UNL A   1      49.461  30.239  26.875  1.00  0.00     0.029 A 
ATOM     59  N   UNL A   1      47.402  29.435  27.127  1.00  0.00    -0.354 N 
ATOM     60  N   UNL A   1      44.571  29.569  27.907  1.00  0.00    -0.248 NA
ATOM     61  C   UNL A   1      42.790  30.713  28.891  1.00  0.00     0.031 C 
ATOM     62  C   UNL A   1      48.676  31.218  27.492  1.00  0.00     0.029 A 
ATOM     63  C   UNL A   1      47.388  30.726  27.627  1.00  0.00     0.049 A 
ATOM     64  H   UNL A   1      46.627  28.829  27.102  1.00  0.00     0.167 HD
ATOM     65  C   UNL A   1      44.999  30.832  28.292  1.00  0.00     0.074 A 
ATOM     66  C   UNL A   1      43.855  31.502  28.872  1.00  0.00     0.031 C 
ATOM     67  C   UNL A   1      46.230  31.387  28.173  1.00  0.00     0.037 A 
BRANCH  54  68
ATOM     68  C   UNL A   1      50.471  27.649  25.682  1.00  0.00     0.064 A 
ATOM     69  C   UNL A   1      51.450  27.265  26.611  1.00  0.00     0.173 A 
ATOM     70  C   UNL A   1      50.864  27.812  24.345  1.00  0.00     0.173 A 
ATOM     71  F   UNL A   1      51.127  27.109  27.905  1.00  0.00    -0.203 F 
ATOM     72  C   UNL A   1      52.774  27.084  26.223  1.00  0.00     0.198 A 
ATOM     73  C   UNL A   1      52.183  27.599  23.955  1.00  0.00     0.198 A 
ATOM     74  F   UNL A   1      49.967  28.173  23.415  1.00  0.00    -0.203 F 
ATOM     75  F   UNL A   1      53.701  26.769  27.139  1.00  0.00    -0.200 F 
ATOM     76  C   UNL A   1      53.139  27.245  24.895  1.00  0.00     0.200 A 
ATOM     77  F   UNL A   1      52.532  27.745  22.670  1.00  0.00    -0.200 F 
ATOM     78  F   UNL A   1      54.414  27.066  24.523  1.00  0.00    -0.200 F 
ENDBRANCH  54  68
BRANCH  55  79
ATOM     79  C   UNL A   1      40.912  28.505  28.459  1.00  0.00     0.064 A 
ATOM     80  C   UNL A   1      39.922  28.971  27.583  1.00  0.00     0.173 A 
ATOM     81  C   UNL A   1      40.524  28.166  29.764  1.00  0.00     0.173 A 
ATOM     82  F   UNL A   1      40.249  29.328  26.333  1.00  0.00    -0.203 F 
ATOM     83  C   UNL A   1      38.599  29.109  28.000  1.00  0.00     0.198 A 
ATOM     84  C   UNL A   1      39.196  28.280  30.171  1.00  0.00     0.198 A 
ATOM     85  F   UNL A   1      41.432  27.711  30.639  1.00  0.00    -0.203 F 
ATOM     86  F   UNL A   1      37.680  29.596  27.155  1.00  0.00    -0.200 F 
ATOM     87  C   UNL A   1      38.236  28.759  29.291  1.00  0.00     0.200 A 
ATOM     88  F   UNL A   1      38.847  27.928  31.417  1.00  0.00    -0.200 F 
ATOM     89  F   UNL A   1      36.964  28.888  29.691  1.00  0.00    -0.200 F 
ENDBRANCH  55  79
BRANCH  67  90
ATOM     90  C   UNL A   1      46.395  32.809  28.618  1.00  0.00     0.064 A 
ATOM     91  C   UNL A   1      46.134  33.885  27.760  1.00  0.00     0.173 A 
ATOM     92  C   UNL A   1      46.755  33.093  29.944  1.00  0.00     0.173 A 
ATOM     93  F   UNL A   1      45.802  33.664  26.479  1.00  0.00    -0.203 F 
ATOM     94  C   UNL A   1      46.238  35.199  28.211  1.00  0.00     0.198 A 
ATOM     95  C   UNL A   1      46.834  34.407  30.399  1.00  0.00     0.198 A 
ATOM     96  F   UNL A   1      47.009  32.096  30.804  1.00  0.00    -0.203 F 
ATOM     97  F   UNL A   1      46.016  36.215  27.366  1.00  0.00    -0.200 F 
ATOM     98  C   UNL A   1      46.579  35.458  29.530  1.00  0.00     0.200 A 
ATOM     99  F   UNL A   1      47.150  34.655  31.677  1.00  0.00    -0.200 F 
ATOM    100  F   UNL A   1      46.665  36.722  29.966  1.00  0.00    -0.200 F 
ENDBRANCH  67  90
ENDBRANCH  41  42
ENDBRANCH  33  36
ENDBRANCH  31  32
ENDBRANCH  30  31
ENDBRANCH   1  30
TORSDOF 16
ENDMDL
