MODEL 1
REMARK VINA RESULT:     -12.6      0.000      0.000
REMARK SMILES O=C(NCCCCCCNC(=O)c1nc(/N=C/c2cccc([N+](=O)[O-])c2)n[nH]1)c1ccc(-c2c3nc(c(-c4c(F)c(F)c(F)c(F)c4F)c4ccc([nH]4)c(-c4c(F)c(F)c(F)c(F)c4F)c4nc(c(-c5c(F)c(F)c(F)c(F)c5F)c5ccc2[nH]5)C=C4)C=C3)cc1
REMARK SMILES IDX 7 1 6 2 5 3 4 4 3 5 1 6 2 7 29 9 30 10 91 11 31 12 90 13
REMARK SMILES IDX 32 14 33 15 34 16 84 17 35 18 89 19 83 20 85 21 36 22 88 23
REMARK SMILES IDX 82 24 81 25 37 27 69 28 49 29 68 30 50 31 53 32 67 33 86 34
REMARK SMILES IDX 51 35 52 36 66 38 87 39 54 40 38 41 39 42 47 43 40 44 41 45
REMARK SMILES IDX 45 46 48 47 42 48 43 49 46 50 44 51 70 52 71 53 79 54 72 55
REMARK SMILES IDX 73 56 77 57 80 58 74 59 75 60 78 61 76 62 55 63 56 64 64 65
REMARK SMILES IDX 57 66 58 67 62 68 65 69 59 70 60 71 63 72 61 73 8 74 9 75
REMARK SMILES IDX 10 76 11 77 12 79 13 80 14 81 28 82 15 83 27 84 16 86 17 87
REMARK SMILES IDX 18 88 19 89 26 90 20 91 22 92 21 93 23 94 24 95 25 96
REMARK H PARENT 3 8 85 26 53 37 10 78 28 85
REMARK Flexibility Score: inf
ROOT
ATOM      1  C   UNL A   1      32.767  30.173  26.139  1.00  0.00     0.002 C 
ENDROOT
BRANCH   1   2
ATOM      2  C   UNL A   1      31.391  30.837  26.016  1.00  0.00     0.002 C 
BRANCH   2   3
ATOM      3  C   UNL A   1      31.228  32.145  26.789  1.00  0.00     0.021 C 
BRANCH   3   4
ATOM      4  C   UNL A   1      32.534  32.803  27.212  1.00  0.00     0.116 C 
BRANCH   4   5
ATOM      5  N   UNL A   1      32.366  34.201  27.577  1.00  0.00    -0.352 N 
ATOM      6  O   UNL A   1      32.660  36.072  28.808  1.00  0.00    -0.269 OA
ATOM      7  C   UNL A   1      33.039  34.941  28.520  1.00  0.00     0.251 C 
ATOM      8  H   UNL A   1      31.671  34.686  27.076  1.00  0.00     0.163 HD
BRANCH   7   9
ATOM      9  C   UNL A   1      34.207  34.355  29.213  1.00  0.00     0.039 A 
ATOM     10  C   UNL A   1      35.504  34.638  28.782  1.00  0.00     0.014 A 
ATOM     11  C   UNL A   1      33.999  33.504  30.302  1.00  0.00     0.014 A 
ATOM     12  C   UNL A   1      36.578  33.946  29.330  1.00  0.00     0.010 A 
ATOM     13  C   UNL A   1      35.090  32.883  30.917  1.00  0.00     0.010 A 
ATOM     14  C   UNL A   1      36.386  33.069  30.410  1.00  0.00    -0.014 A 
BRANCH  14  15
ATOM     15  C   UNL A   1      37.566  32.401  31.017  1.00  0.00     0.031 A 
ATOM     16  C   UNL A   1      38.024  32.735  32.409  1.00  0.00     0.074 A 
ATOM     17  C   UNL A   1      38.202  31.448  30.307  1.00  0.00     0.049 A 
ATOM     18  N   UNL A   1      39.003  32.210  33.105  1.00  0.00    -0.248 NA
ATOM     19  C   UNL A   1      37.298  33.803  33.113  1.00  0.00     0.031 C 
ATOM     20  C   UNL A   1      37.855  31.046  28.942  1.00  0.00     0.029 A 
ATOM     21  N   UNL A   1      39.250  30.628  30.638  1.00  0.00    -0.354 N 
ATOM     22  C   UNL A   1      39.026  32.896  34.312  1.00  0.00     0.074 A 
ATOM     23  C   UNL A   1      37.980  33.894  34.247  1.00  0.00     0.031 C 
ATOM     24  C   UNL A   1      38.633  30.019  28.576  1.00  0.00     0.029 A 
ATOM     25  C   UNL A   1      39.575  29.732  29.651  1.00  0.00     0.049 A 
ATOM     26  H   UNL A   1      39.724  30.679  31.500  1.00  0.00     0.167 HD
ATOM     27  C   UNL A   1      39.842  32.703  35.378  1.00  0.00     0.037 A 
ATOM     28  C   UNL A   1      40.532  28.787  29.610  1.00  0.00     0.037 A 
ATOM     29  C   UNL A   1      40.869  31.693  35.442  1.00  0.00     0.049 A 
ATOM     30  C   UNL A   1      41.434  28.612  30.798  1.00  0.00     0.074 A 
ATOM     31  C   UNL A   1      41.714  31.385  36.496  1.00  0.00     0.029 A 
ATOM     32  N   UNL A   1      41.196  30.829  34.407  1.00  0.00    -0.354 N 
ATOM     33  N   UNL A   1      41.415  29.236  31.951  1.00  0.00    -0.248 NA
ATOM     34  C   UNL A   1      42.492  27.602  30.676  1.00  0.00     0.031 C 
ATOM     35  C   UNL A   1      42.587  30.375  36.079  1.00  0.00     0.029 A 
ATOM     36  C   UNL A   1      42.250  30.011  34.785  1.00  0.00     0.049 A 
ATOM     37  H   UNL A   1      40.747  30.802  33.530  1.00  0.00     0.167 HD
ATOM     38  C   UNL A   1      42.441  28.680  32.700  1.00  0.00     0.074 A 
ATOM     39  C   UNL A   1      43.050  27.654  31.877  1.00  0.00     0.031 C 
ATOM     40  C   UNL A   1      42.844  28.992  33.957  1.00  0.00     0.037 A 
BRANCH  27  41
ATOM     41  C   UNL A   1      39.677  33.619  36.558  1.00  0.00     0.064 A 
ATOM     42  C   UNL A   1      40.325  34.862  36.630  1.00  0.00     0.173 A 
ATOM     43  C   UNL A   1      38.823  33.265  37.614  1.00  0.00     0.173 A 
ATOM     44  F   UNL A   1      41.159  35.247  35.653  1.00  0.00    -0.203 F 
ATOM     45  C   UNL A   1      40.148  35.700  37.728  1.00  0.00     0.198 A 
ATOM     46  C   UNL A   1      38.626  34.119  38.697  1.00  0.00     0.198 A 
ATOM     47  F   UNL A   1      38.172  32.092  37.593  1.00  0.00    -0.203 F 
ATOM     48  F   UNL A   1      40.815  36.861  37.798  1.00  0.00    -0.200 F 
ATOM     49  C   UNL A   1      39.293  35.331  38.758  1.00  0.00     0.200 A 
ATOM     50  F   UNL A   1      37.789  33.766  39.683  1.00  0.00    -0.200 F 
ATOM     51  F   UNL A   1      39.120  36.142  39.810  1.00  0.00    -0.200 F 
ENDBRANCH  27  41
BRANCH  28  52
ATOM     52  C   UNL A   1      40.674  27.931  28.405  1.00  0.00     0.064 A 
ATOM     53  C   UNL A   1      41.429  28.357  27.304  1.00  0.00     0.173 A 
ATOM     54  C   UNL A   1      40.069  26.667  28.332  1.00  0.00     0.173 A 
ATOM     55  F   UNL A   1      42.011  29.566  27.320  1.00  0.00    -0.203 F 
ATOM     56  C   UNL A   1      41.562  27.559  26.171  1.00  0.00     0.198 A 
ATOM     57  C   UNL A   1      40.228  25.856  27.211  1.00  0.00     0.198 A 
ATOM     58  F   UNL A   1      39.340  26.211  29.362  1.00  0.00    -0.203 F 
ATOM     59  F   UNL A   1      42.255  28.007  25.116  1.00  0.00    -0.200 F 
ATOM     60  C   UNL A   1      40.968  26.306  26.129  1.00  0.00     0.200 A 
ATOM     61  F   UNL A   1      39.669  24.640  27.183  1.00  0.00    -0.200 F 
ATOM     62  F   UNL A   1      41.104  25.534  25.041  1.00  0.00    -0.200 F 
ENDBRANCH  28  52
BRANCH  40  63
ATOM     63  C   UNL A   1      43.975  28.187  34.528  1.00  0.00     0.064 A 
ATOM     64  C   UNL A   1      45.298  28.654  34.508  1.00  0.00     0.173 A 
ATOM     65  C   UNL A   1      43.728  26.937  35.115  1.00  0.00     0.173 A 
ATOM     66  F   UNL A   1      45.587  29.835  33.940  1.00  0.00    -0.203 F 
ATOM     67  C   UNL A   1      46.337  27.884  35.023  1.00  0.00     0.198 A 
ATOM     68  C   UNL A   1      44.765  26.184  35.660  1.00  0.00     0.198 A 
ATOM     69  F   UNL A   1      42.481  26.447  35.167  1.00  0.00    -0.203 F 
ATOM     70  F   UNL A   1      47.599  28.324  34.938  1.00  0.00    -0.200 F 
ATOM     71  C   UNL A   1      46.069  26.653  35.605  1.00  0.00     0.200 A 
ATOM     72  F   UNL A   1      44.503  25.001  36.232  1.00  0.00    -0.200 F 
ATOM     73  F   UNL A   1      47.070  25.914  36.101  1.00  0.00    -0.200 F 
ENDBRANCH  40  63
ENDBRANCH  14  15
ENDBRANCH   7   9
ENDBRANCH   4   5
ENDBRANCH   3   4
ENDBRANCH   2   3
ENDBRANCH   1   2
BRANCH   1  74
ATOM     74  C   UNL A   1      33.071  29.098  25.091  1.00  0.00     0.021 C 
BRANCH  74  75
ATOM     75  C   UNL A   1      32.026  27.986  24.997  1.00  0.00     0.116 C 
BRANCH  75  76
ATOM     76  N   UNL A   1      31.026  28.292  23.987  1.00  0.00    -0.349 N 
ATOM     77  C   UNL A   1      30.955  27.839  22.694  1.00  0.00     0.288 C 
ATOM     78  H   UNL A   1      30.307  28.904  24.269  1.00  0.00     0.163 HD
ATOM     79  O   UNL A   1      30.203  28.430  21.910  1.00  0.00    -0.266 OA
BRANCH  77  80
ATOM     80  C   UNL A   1      31.761  26.723  22.281  1.00  0.00     0.216 A 
ATOM     81  N   UNL A   1      31.672  25.476  22.708  1.00  0.00    -0.185 NA
ATOM     82  N   UNL A   1      32.738  26.788  21.333  1.00  0.00    -0.253 N 
ATOM     83  C   UNL A   1      32.670  24.841  22.030  1.00  0.00     0.268 A 
ATOM     84  N   UNL A   1      33.359  25.607  21.185  1.00  0.00    -0.132 NA
ATOM     85  H   UNL A   1      32.961  27.599  20.821  1.00  0.00     0.192 HD
BRANCH  83  86
ATOM     86  N   UNL A   1      33.057  23.522  22.230  1.00  0.00    -0.218 NA
ATOM     87  C   UNL A   1      33.165  23.242  23.487  1.00  0.00     0.123 C 
BRANCH  87  88
ATOM     88  C   UNL A   1      33.611  21.906  23.930  1.00  0.00    -0.000 A 
ATOM     89  C   UNL A   1      34.876  21.774  24.512  1.00  0.00     0.010 A 
ATOM     90  C   UNL A   1      32.783  20.792  23.764  1.00  0.00     0.095 A 
ATOM     91  C   UNL A   1      35.313  20.522  24.951  1.00  0.00     0.008 A 
ATOM     92  C   UNL A   1      33.234  19.540  24.196  1.00  0.00     0.270 A 
ATOM     93  C   UNL A   1      34.494  19.400  24.795  1.00  0.00     0.085 A 
BRANCH  92  94
ATOM     94  N   UNL A   1      32.384  18.359  24.011  1.00  0.00     0.062 N 
ATOM     95  O   UNL A   1      32.155  17.991  22.849  1.00  0.00    -0.258 OA
ATOM     96  O   UNL A   1      31.936  17.804  25.024  1.00  0.00    -0.258 OA
ENDBRANCH  92  94
ENDBRANCH  87  88
ENDBRANCH  83  86
ENDBRANCH  77  80
ENDBRANCH  75  76
ENDBRANCH  74  75
ENDBRANCH   1  74
TORSDOF 16
ENDMDL
MODEL 2
REMARK VINA RESULT:     -12.4      5.099     11.055
REMARK SMILES O=C(NCCCCCCNC(=O)c1nc(/N=C/c2cccc([N+](=O)[O-])c2)n[nH]1)c1ccc(-c2c3nc(c(-c4c(F)c(F)c(F)c(F)c4F)c4ccc([nH]4)c(-c4c(F)c(F)c(F)c(F)c4F)c4nc(c(-c5c(F)c(F)c(F)c(F)c5F)c5ccc2[nH]5)C=C4)C=C3)cc1
REMARK SMILES IDX 7 1 6 2 5 3 4 4 3 5 1 6 2 7 29 9 30 10 91 11 31 12 90 13
REMARK SMILES IDX 32 14 33 15 34 16 84 17 35 18 89 19 83 20 85 21 36 22 88 23
REMARK SMILES IDX 82 24 81 25 37 27 69 28 49 29 68 30 50 31 53 32 67 33 86 34
REMARK SMILES IDX 51 35 52 36 66 38 87 39 54 40 38 41 39 42 47 43 40 44 41 45
REMARK SMILES IDX 45 46 48 47 42 48 43 49 46 50 44 51 70 52 71 53 79 54 72 55
REMARK SMILES IDX 73 56 77 57 80 58 74 59 75 60 78 61 76 62 55 63 56 64 64 65
REMARK SMILES IDX 57 66 58 67 62 68 65 69 59 70 60 71 63 72 61 73 8 74 9 75
REMARK SMILES IDX 10 76 11 77 12 79 13 80 14 81 28 82 15 83 27 84 16 86 17 87
REMARK SMILES IDX 18 88 19 89 26 90 20 91 22 92 21 93 23 94 24 95 25 96
REMARK H PARENT 3 8 85 26 53 37 10 78 28 85
REMARK Flexibility Score: inf
ROOT
ATOM      1  C   UNL A   1      36.645  21.921  24.310  1.00  0.00     0.002 C 
ENDROOT
BRANCH   1   2
ATOM      2  C   UNL A   1      36.737  20.604  25.089  1.00  0.00     0.002 C 
BRANCH   2   3
ATOM      3  C   UNL A   1      38.032  19.817  24.889  1.00  0.00     0.021 C 
BRANCH   3   4
ATOM      4  C   UNL A   1      39.164  20.201  25.832  1.00  0.00     0.116 C 
BRANCH   4   5
ATOM      5  N   UNL A   1      40.213  19.195  25.889  1.00  0.00    -0.352 N 
ATOM      6  O   UNL A   1      42.329  18.410  25.970  1.00  0.00    -0.269 OA
ATOM      7  C   UNL A   1      41.559  19.355  26.113  1.00  0.00     0.251 C 
ATOM      8  H   UNL A   1      39.915  18.268  25.745  1.00  0.00     0.163 HD
BRANCH   7   9
ATOM      9  C   UNL A   1      42.085  20.682  26.499  1.00  0.00     0.039 A 
ATOM     10  C   UNL A   1      42.213  21.032  27.844  1.00  0.00     0.014 A 
ATOM     11  C   UNL A   1      42.444  21.592  25.500  1.00  0.00     0.014 A 
ATOM     12  C   UNL A   1      42.541  22.338  28.188  1.00  0.00     0.010 A 
ATOM     13  C   UNL A   1      42.869  22.877  25.851  1.00  0.00     0.010 A 
ATOM     14  C   UNL A   1      42.883  23.273  27.197  1.00  0.00    -0.014 A 
BRANCH  14  15
ATOM     15  C   UNL A   1      43.298  24.640  27.605  1.00  0.00     0.031 A 
ATOM     16  C   UNL A   1      44.739  25.065  27.567  1.00  0.00     0.074 A 
ATOM     17  C   UNL A   1      42.344  25.519  27.974  1.00  0.00     0.049 A 
ATOM     18  N   UNL A   1      45.263  26.234  27.842  1.00  0.00    -0.248 NA
ATOM     19  C   UNL A   1      45.725  24.045  27.180  1.00  0.00     0.031 C 
ATOM     20  C   UNL A   1      40.914  25.218  28.061  1.00  0.00     0.029 A 
ATOM     21  N   UNL A   1      42.426  26.843  28.319  1.00  0.00    -0.354 N 
ATOM     22  C   UNL A   1      46.635  26.086  27.685  1.00  0.00     0.074 A 
ATOM     23  C   UNL A   1      46.867  24.706  27.316  1.00  0.00     0.031 C 
ATOM     24  C   UNL A   1      40.247  26.337  28.374  1.00  0.00     0.029 A 
ATOM     25  C   UNL A   1      41.206  27.417  28.574  1.00  0.00     0.049 A 
ATOM     26  H   UNL A   1      43.278  27.334  28.378  1.00  0.00     0.167 HD
ATOM     27  C   UNL A   1      47.608  27.019  27.830  1.00  0.00     0.037 A 
ATOM     28  C   UNL A   1      40.891  28.674  28.938  1.00  0.00     0.037 A 
ATOM     29  C   UNL A   1      47.366  28.397  28.179  1.00  0.00     0.049 A 
ATOM     30  C   UNL A   1      41.992  29.680  29.110  1.00  0.00     0.074 A 
ATOM     31  C   UNL A   1      48.279  29.431  28.301  1.00  0.00     0.029 A 
ATOM     32  N   UNL A   1      46.119  28.933  28.469  1.00  0.00    -0.354 N 
ATOM     33  N   UNL A   1      43.281  29.538  28.914  1.00  0.00    -0.248 NA
ATOM     34  C   UNL A   1      41.595  31.019  29.559  1.00  0.00     0.031 C 
ATOM     35  C   UNL A   1      47.593  30.577  28.717  1.00  0.00     0.029 A 
ATOM     36  C   UNL A   1      46.243  30.274  28.800  1.00  0.00     0.049 A 
ATOM     37  H   UNL A   1      45.270  28.434  28.446  1.00  0.00     0.167 HD
ATOM     38  C   UNL A   1      43.845  30.774  29.192  1.00  0.00     0.074 A 
ATOM     39  C   UNL A   1      42.755  31.659  29.552  1.00  0.00     0.031 C 
ATOM     40  C   UNL A   1      45.150  31.143  29.154  1.00  0.00     0.037 A 
BRANCH  27  41
ATOM     41  C   UNL A   1      49.031  26.579  27.635  1.00  0.00     0.064 A 
ATOM     42  C   UNL A   1      49.605  26.461  26.359  1.00  0.00     0.173 A 
ATOM     43  C   UNL A   1      49.848  26.312  28.745  1.00  0.00     0.173 A 
ATOM     44  F   UNL A   1      48.868  26.696  25.263  1.00  0.00    -0.203 F 
ATOM     45  C   UNL A   1      50.930  26.064  26.202  1.00  0.00     0.198 A 
ATOM     46  C   UNL A   1      51.182  25.943  28.585  1.00  0.00     0.198 A 
ATOM     47  F   UNL A   1      49.354  26.417  29.988  1.00  0.00    -0.203 F 
ATOM     48  F   UNL A   1      51.442  25.911  24.972  1.00  0.00    -0.200 F 
ATOM     49  C   UNL A   1      51.720  25.811  27.315  1.00  0.00     0.200 A 
ATOM     50  F   UNL A   1      51.945  25.713  29.663  1.00  0.00    -0.200 F 
ATOM     51  F   UNL A   1      52.996  25.435  27.162  1.00  0.00    -0.200 F 
ENDBRANCH  27  41
BRANCH  28  52
ATOM     52  C   UNL A   1      39.470  29.047  29.150  1.00  0.00     0.064 A 
ATOM     53  C   UNL A   1      38.669  29.468  28.081  1.00  0.00     0.173 A 
ATOM     54  C   UNL A   1      38.879  28.980  30.421  1.00  0.00     0.173 A 
ATOM     55  F   UNL A   1      39.193  29.567  26.850  1.00  0.00    -0.203 F 
ATOM     56  C   UNL A   1      37.336  29.823  28.276  1.00  0.00     0.198 A 
ATOM     57  C   UNL A   1      37.538  29.303  30.611  1.00  0.00     0.198 A 
ATOM     58  F   UNL A   1      39.602  28.578  31.478  1.00  0.00    -0.203 F 
ATOM     59  F   UNL A   1      36.604  30.261  27.244  1.00  0.00    -0.200 F 
ATOM     60  C   UNL A   1      36.770  29.732  29.539  1.00  0.00     0.200 A 
ATOM     61  F   UNL A   1      36.991  29.197  31.828  1.00  0.00    -0.200 F 
ATOM     62  F   UNL A   1      35.484  30.064  29.725  1.00  0.00    -0.200 F 
ENDBRANCH  28  52
BRANCH  40  63
ATOM     63  C   UNL A   1      45.461  32.576  29.476  1.00  0.00     0.064 A 
ATOM     64  C   UNL A   1      45.783  32.987  30.777  1.00  0.00     0.173 A 
ATOM     65  C   UNL A   1      45.449  33.548  28.464  1.00  0.00     0.173 A 
ATOM     66  F   UNL A   1      45.789  32.099  31.783  1.00  0.00    -0.203 F 
ATOM     67  C   UNL A   1      46.047  34.324  31.061  1.00  0.00     0.198 A 
ATOM     68  C   UNL A   1      45.747  34.878  28.745  1.00  0.00     0.198 A 
ATOM     69  F   UNL A   1      45.154  33.207  27.200  1.00  0.00    -0.203 F 
ATOM     70  F   UNL A   1      46.294  34.703  32.322  1.00  0.00    -0.200 F 
ATOM     71  C   UNL A   1      46.036  35.268  30.043  1.00  0.00     0.200 A 
ATOM     72  F   UNL A   1      45.747  35.786  27.759  1.00  0.00    -0.200 F 
ATOM     73  F   UNL A   1      46.292  36.553  30.318  1.00  0.00    -0.200 F 
ENDBRANCH  40  63
ENDBRANCH  14  15
ENDBRANCH   7   9
ENDBRANCH   4   5
ENDBRANCH   3   4
ENDBRANCH   2   3
ENDBRANCH   1   2
BRANCH   1  74
ATOM     74  C   UNL A   1      35.407  22.773  24.606  1.00  0.00     0.021 C 
BRANCH  74  75
ATOM     75  C   UNL A   1      34.677  23.288  23.366  1.00  0.00     0.116 C 
BRANCH  75  76
ATOM     76  N   UNL A   1      33.384  22.642  23.214  1.00  0.00    -0.349 N 
ATOM     77  C   UNL A   1      32.158  23.226  23.017  1.00  0.00     0.288 C 
ATOM     78  H   UNL A   1      33.388  21.658  23.259  1.00  0.00     0.163 HD
ATOM     79  O   UNL A   1      31.147  22.537  23.199  1.00  0.00    -0.266 OA
BRANCH  77  80
ATOM     80  C   UNL A   1      32.077  24.610  22.633  1.00  0.00     0.216 A 
ATOM     81  N   UNL A   1      31.804  25.637  23.416  1.00  0.00    -0.185 NA
ATOM     82  N   UNL A   1      32.315  25.074  21.374  1.00  0.00    -0.253 N 
ATOM     83  C   UNL A   1      31.823  26.697  22.559  1.00  0.00     0.268 A 
ATOM     84  N   UNL A   1      32.119  26.400  21.295  1.00  0.00    -0.132 NA
ATOM     85  H   UNL A   1      32.594  24.509  20.618  1.00  0.00     0.192 HD
BRANCH  83  86
ATOM     86  N   UNL A   1      31.474  28.000  22.893  1.00  0.00    -0.218 NA
ATOM     87  C   UNL A   1      30.284  28.295  22.485  1.00  0.00     0.123 C 
BRANCH  87  88
ATOM     88  C   UNL A   1      29.725  29.646  22.690  1.00  0.00    -0.000 A 
ATOM     89  C   UNL A   1      29.865  30.253  23.943  1.00  0.00     0.010 A 
ATOM     90  C   UNL A   1      29.061  30.303  21.650  1.00  0.00     0.095 A 
ATOM     91  C   UNL A   1      29.356  31.536  24.155  1.00  0.00     0.008 A 
ATOM     92  C   UNL A   1      28.543  31.583  21.877  1.00  0.00     0.270 A 
ATOM     93  C   UNL A   1      28.693  32.206  23.124  1.00  0.00     0.085 A 
BRANCH  92  94
ATOM     94  N   UNL A   1      27.828  32.277  20.800  1.00  0.00     0.062 N 
ATOM     95  O   UNL A   1      27.524  31.618  19.794  1.00  0.00    -0.258 OA
ATOM     96  O   UNL A   1      27.579  33.480  20.953  1.00  0.00    -0.258 OA
ENDBRANCH  92  94
ENDBRANCH  87  88
ENDBRANCH  83  86
ENDBRANCH  77  80
ENDBRANCH  75  76
ENDBRANCH  74  75
ENDBRANCH   1  74
TORSDOF 16
ENDMDL
MODEL 3
REMARK VINA RESULT:     -12.2      4.703     10.527
REMARK SMILES O=C(NCCCCCCNC(=O)c1nc(/N=C/c2cccc([N+](=O)[O-])c2)n[nH]1)c1ccc(-c2c3nc(c(-c4c(F)c(F)c(F)c(F)c4F)c4ccc([nH]4)c(-c4c(F)c(F)c(F)c(F)c4F)c4nc(c(-c5c(F)c(F)c(F)c(F)c5F)c5ccc2[nH]5)C=C4)C=C3)cc1
REMARK SMILES IDX 7 1 6 2 5 3 4 4 3 5 1 6 2 7 29 9 30 10 91 11 31 12 90 13
REMARK SMILES IDX 32 14 33 15 34 16 84 17 35 18 89 19 83 20 85 21 36 22 88 23
REMARK SMILES IDX 82 24 81 25 37 27 69 28 49 29 68 30 50 31 53 32 67 33 86 34
REMARK SMILES IDX 51 35 52 36 66 38 87 39 54 40 38 41 39 42 47 43 40 44 41 45
REMARK SMILES IDX 45 46 48 47 42 48 43 49 46 50 44 51 70 52 71 53 79 54 72 55
REMARK SMILES IDX 73 56 77 57 80 58 74 59 75 60 78 61 76 62 55 63 56 64 64 65
REMARK SMILES IDX 57 66 58 67 62 68 65 69 59 70 60 71 63 72 61 73 8 74 9 75
REMARK SMILES IDX 10 76 11 77 12 79 13 80 14 81 28 82 15 83 27 84 16 86 17 87
REMARK SMILES IDX 18 88 19 89 26 90 20 91 22 92 21 93 23 94 24 95 25 96
REMARK H PARENT 3 8 85 26 53 37 10 78 28 85
REMARK Flexibility Score: inf
ROOT
ATOM      1  C   UNL A   1      34.043  23.997  23.111  1.00  0.00     0.002 C 
ENDROOT
BRANCH   1   2
ATOM      2  C   UNL A   1      35.154  24.101  24.162  1.00  0.00     0.002 C 
BRANCH   2   3
ATOM      3  C   UNL A   1      36.020  22.852  24.320  1.00  0.00     0.021 C 
BRANCH   3   4
ATOM      4  C   UNL A   1      36.487  22.575  25.743  1.00  0.00     0.116 C 
BRANCH   4   5
ATOM      5  N   UNL A   1      37.419  21.462  25.821  1.00  0.00    -0.352 N 
ATOM      6  O   UNL A   1      39.433  20.453  25.992  1.00  0.00    -0.269 OA
ATOM      7  C   UNL A   1      38.760  21.470  26.126  1.00  0.00     0.251 C 
ATOM      8  H   UNL A   1      37.035  20.576  25.628  1.00  0.00     0.163 HD
BRANCH   7   9
ATOM      9  C   UNL A   1      39.398  22.721  26.588  1.00  0.00     0.039 A 
ATOM     10  C   UNL A   1      38.981  23.957  26.091  1.00  0.00     0.014 A 
ATOM     11  C   UNL A   1      40.434  22.655  27.524  1.00  0.00     0.014 A 
ATOM     12  C   UNL A   1      39.703  25.104  26.401  1.00  0.00     0.010 A 
ATOM     13  C   UNL A   1      41.097  23.823  27.910  1.00  0.00     0.010 A 
ATOM     14  C   UNL A   1      40.763  25.053  27.322  1.00  0.00    -0.014 A 
BRANCH  14  15
ATOM     15  C   UNL A   1      41.466  26.310  27.683  1.00  0.00     0.031 A 
ATOM     16  C   UNL A   1      42.848  26.608  27.171  1.00  0.00     0.074 A 
ATOM     17  C   UNL A   1      40.823  27.210  28.453  1.00  0.00     0.049 A 
ATOM     18  N   UNL A   1      43.582  27.679  27.350  1.00  0.00    -0.248 NA
ATOM     19  C   UNL A   1      43.497  25.569  26.358  1.00  0.00     0.031 C 
ATOM     20  C   UNL A   1      39.485  27.026  29.019  1.00  0.00     0.029 A 
ATOM     21  N   UNL A   1      41.191  28.463  28.872  1.00  0.00    -0.354 N 
ATOM     22  C   UNL A   1      44.782  27.434  26.697  1.00  0.00     0.074 A 
ATOM     23  C   UNL A   1      44.691  26.103  26.137  1.00  0.00     0.031 C 
ATOM     24  C   UNL A   1      39.120  28.146  29.657  1.00  0.00     0.029 A 
ATOM     25  C   UNL A   1      40.220  29.101  29.603  1.00  0.00     0.049 A 
ATOM     26  H   UNL A   1      42.066  28.865  28.668  1.00  0.00     0.167 HD
ATOM     27  C   UNL A   1      45.858  28.251  26.572  1.00  0.00     0.037 A 
ATOM     28  C   UNL A   1      40.217  30.319  30.175  1.00  0.00     0.037 A 
ATOM     29  C   UNL A   1      45.933  29.584  27.116  1.00  0.00     0.049 A 
ATOM     30  C   UNL A   1      41.431  31.192  30.036  1.00  0.00     0.074 A 
ATOM     31  C   UNL A   1      46.958  30.508  27.000  1.00  0.00     0.029 A 
ATOM     32  N   UNL A   1      44.945  30.182  27.885  1.00  0.00    -0.354 N 
ATOM     33  N   UNL A   1      42.542  30.966  29.377  1.00  0.00    -0.248 NA
ATOM     34  C   UNL A   1      41.391  32.487  30.725  1.00  0.00     0.031 C 
ATOM     35  C   UNL A   1      46.615  31.642  27.744  1.00  0.00     0.029 A 
ATOM     36  C   UNL A   1      45.350  31.450  28.277  1.00  0.00     0.049 A 
ATOM     37  H   UNL A   1      44.084  29.767  28.120  1.00  0.00     0.167 HD
ATOM     38  C   UNL A   1      43.323  32.099  29.551  1.00  0.00     0.074 A 
ATOM     39  C   UNL A   1      42.550  33.018  30.362  1.00  0.00     0.031 C 
ATOM     40  C   UNL A   1      44.569  32.354  29.082  1.00  0.00     0.037 A 
BRANCH  27  41
ATOM     41  C   UNL A   1      47.056  27.719  25.837  1.00  0.00     0.064 A 
ATOM     42  C   UNL A   1      47.182  27.828  24.443  1.00  0.00     0.173 A 
ATOM     43  C   UNL A   1      48.115  27.128  26.543  1.00  0.00     0.173 A 
ATOM     44  F   UNL A   1      46.195  28.377  23.717  1.00  0.00    -0.203 F 
ATOM     45  C   UNL A   1      48.306  27.340  23.783  1.00  0.00     0.198 A 
ATOM     46  C   UNL A   1      49.252  26.666  25.883  1.00  0.00     0.198 A 
ATOM     47  F   UNL A   1      48.052  27.005  27.877  1.00  0.00    -0.203 F 
ATOM     48  F   UNL A   1      48.382  27.411  22.447  1.00  0.00    -0.200 F 
ATOM     49  C   UNL A   1      49.343  26.765  24.504  1.00  0.00     0.200 A 
ATOM     50  F   UNL A   1      50.258  26.125  26.584  1.00  0.00    -0.200 F 
ATOM     51  F   UNL A   1      50.427  26.301  23.868  1.00  0.00    -0.200 F 
ENDBRANCH  27  41
BRANCH  28  52
ATOM     52  C   UNL A   1      39.019  30.782  30.919  1.00  0.00     0.064 A 
ATOM     53  C   UNL A   1      38.858  30.487  32.280  1.00  0.00     0.173 A 
ATOM     54  C   UNL A   1      38.017  31.538  30.292  1.00  0.00     0.173 A 
ATOM     55  F   UNL A   1      39.780  29.751  32.918  1.00  0.00    -0.203 F 
ATOM     56  C   UNL A   1      37.734  30.917  32.980  1.00  0.00     0.198 A 
ATOM     57  C   UNL A   1      36.908  31.995  31.001  1.00  0.00     0.198 A 
ATOM     58  F   UNL A   1      38.126  31.852  28.992  1.00  0.00    -0.203 F 
ATOM     59  F   UNL A   1      37.584  30.586  34.270  1.00  0.00    -0.200 F 
ATOM     60  C   UNL A   1      36.764  31.677  32.343  1.00  0.00     0.200 A 
ATOM     61  F   UNL A   1      35.985  32.744  30.386  1.00  0.00    -0.200 F 
ATOM     62  F   UNL A   1      35.687  32.098  33.021  1.00  0.00    -0.200 F 
ENDBRANCH  28  52
BRANCH  40  63
ATOM     63  C   UNL A   1      45.156  33.697  29.407  1.00  0.00     0.064 A 
ATOM     64  C   UNL A   1      44.956  34.811  28.579  1.00  0.00     0.173 A 
ATOM     65  C   UNL A   1      45.919  33.874  30.572  1.00  0.00     0.173 A 
ATOM     66  F   UNL A   1      44.249  34.689  27.444  1.00  0.00    -0.203 F 
ATOM     67  C   UNL A   1      45.525  36.044  28.886  1.00  0.00     0.198 A 
ATOM     68  C   UNL A   1      46.459  35.116  30.893  1.00  0.00     0.198 A 
ATOM     69  F   UNL A   1      46.135  32.843  31.403  1.00  0.00    -0.203 F 
ATOM     70  F   UNL A   1      45.370  37.078  28.049  1.00  0.00    -0.200 F 
ATOM     71  C   UNL A   1      46.271  36.197  30.046  1.00  0.00     0.200 A 
ATOM     72  F   UNL A   1      47.168  35.265  32.020  1.00  0.00    -0.200 F 
ATOM     73  F   UNL A   1      46.817  37.384  30.340  1.00  0.00    -0.200 F 
ENDBRANCH  40  63
ENDBRANCH  14  15
ENDBRANCH   7   9
ENDBRANCH   4   5
ENDBRANCH   3   4
ENDBRANCH   2   3
ENDBRANCH   1   2
BRANCH   1  74
ATOM     74  C   UNL A   1      33.735  22.579  22.621  1.00  0.00     0.021 C 
BRANCH  74  75
ATOM     75  C   UNL A   1      32.507  21.935  23.266  1.00  0.00     0.116 C 
BRANCH  75  76
ATOM     76  N   UNL A   1      32.885  21.118  24.408  1.00  0.00    -0.349 N 
ATOM     77  C   UNL A   1      32.842  21.444  25.740  1.00  0.00     0.288 C 
ATOM     78  H   UNL A   1      33.214  20.214  24.197  1.00  0.00     0.163 HD
ATOM     79  O   UNL A   1      33.468  20.733  26.535  1.00  0.00    -0.266 OA
BRANCH  77  80
ATOM     80  C   UNL A   1      32.103  22.599  26.171  1.00  0.00     0.216 A 
ATOM     81  N   UNL A   1      32.465  23.864  26.053  1.00  0.00    -0.185 NA
ATOM     82  N   UNL A   1      30.869  22.552  26.748  1.00  0.00    -0.253 N 
ATOM     83  C   UNL A   1      31.436  24.539  26.640  1.00  0.00     0.268 A 
ATOM     84  N   UNL A   1      30.441  23.777  27.092  1.00  0.00    -0.132 NA
ATOM     85  H   UNL A   1      30.357  21.725  26.895  1.00  0.00     0.192 HD
BRANCH  83  86
ATOM     86  N   UNL A   1      31.409  25.909  26.870  1.00  0.00    -0.218 NA
ATOM     87  C   UNL A   1      32.468  26.491  26.411  1.00  0.00     0.123 C 
BRANCH  87  88
ATOM     88  C   UNL A   1      32.672  27.942  26.588  1.00  0.00    -0.000 A 
ATOM     89  C   UNL A   1      31.612  28.813  26.311  1.00  0.00     0.010 A 
ATOM     90  C   UNL A   1      33.907  28.436  27.019  1.00  0.00     0.095 A 
ATOM     91  C   UNL A   1      31.779  30.189  26.484  1.00  0.00     0.008 A 
ATOM     92  C   UNL A   1      34.068  29.817  27.178  1.00  0.00     0.270 A 
ATOM     93  C   UNL A   1      33.006  30.696  26.918  1.00  0.00     0.085 A 
BRANCH  92  94
ATOM     94  N   UNL A   1      35.363  30.351  27.612  1.00  0.00     0.062 N 
ATOM     95  O   UNL A   1      35.501  31.583  27.629  1.00  0.00    -0.258 OA
ATOM     96  O   UNL A   1      36.246  29.542  27.928  1.00  0.00    -0.258 OA
ENDBRANCH  92  94
ENDBRANCH  87  88
ENDBRANCH  83  86
ENDBRANCH  77  80
ENDBRANCH  75  76
ENDBRANCH  74  75
ENDBRANCH   1  74
TORSDOF 16
ENDMDL
