MODEL 1
REMARK VINA RESULT:     -12.1      0.000      0.000
REMARK SMILES O=C(NCCCCCCNC(=O)C1CCN(C(=O)CSCc2ccccc2)CC1)c1ccc(-c2c3nc(c(-c4c(F)c(F)c(F)c(F)c4F)c4ccc([nH]4)c(-c4c(F)c(F)c(F)c(F)c4F)c4nc(c(-c5c(F)c(F)c(F)c(F)c5F)c5ccc2[nH]5)C=C4)C=C3)cc1
REMARK SMILES IDX 7 1 6 2 5 3 4 4 3 5 1 6 2 7 30 9 31 10 92 11 32 12 91 13
REMARK SMILES IDX 33 14 34 15 35 16 85 17 36 18 90 19 84 20 86 21 37 22 89 23
REMARK SMILES IDX 83 24 82 25 38 27 70 28 50 29 69 30 51 31 54 32 68 33 87 34
REMARK SMILES IDX 52 35 53 36 67 38 88 39 55 40 39 41 40 42 48 43 41 44 42 45
REMARK SMILES IDX 46 46 49 47 43 48 44 49 47 50 45 51 71 52 72 53 80 54 73 55
REMARK SMILES IDX 74 56 78 57 81 58 75 59 76 60 79 61 77 62 56 63 57 64 65 65
REMARK SMILES IDX 58 66 59 67 63 68 66 69 60 70 61 71 64 72 62 73 8 74 9 75
REMARK SMILES IDX 10 76 11 77 12 79 13 80 14 81 29 82 15 83 28 84 16 85 17 86
REMARK SMILES IDX 18 87 19 88 20 89 21 90 22 91 23 92 27 93 24 94 26 95 25 96
REMARK H PARENT 3 8 86 26 54 37 10 78
REMARK Flexibility Score: inf
ROOT
ATOM      1  C   UNL A   1      37.688  21.862  25.209  1.00  0.00     0.002 C 
ENDROOT
BRANCH   1   2
ATOM      2  C   UNL A   1      37.297  20.433  24.811  1.00  0.00     0.002 C 
BRANCH   2   3
ATOM      3  C   UNL A   1      38.389  19.383  25.027  1.00  0.00     0.021 C 
BRANCH   3   4
ATOM      4  C   UNL A   1      39.557  19.874  25.872  1.00  0.00     0.116 C 
BRANCH   4   5
ATOM      5  N   UNL A   1      40.617  18.880  25.940  1.00  0.00    -0.352 N 
ATOM      6  O   UNL A   1      42.751  18.153  25.802  1.00  0.00    -0.269 OA
ATOM      7  C   UNL A   1      41.968  19.076  26.020  1.00  0.00     0.251 C 
ATOM      8  H   UNL A   1      40.322  17.941  25.928  1.00  0.00     0.163 HD
BRANCH   7   9
ATOM      9  C   UNL A   1      42.480  20.409  26.387  1.00  0.00     0.039 A 
ATOM     10  C   UNL A   1      43.012  21.241  25.398  1.00  0.00     0.014 A 
ATOM     11  C   UNL A   1      42.393  20.844  27.711  1.00  0.00     0.014 A 
ATOM     12  C   UNL A   1      43.552  22.468  25.747  1.00  0.00     0.010 A 
ATOM     13  C   UNL A   1      42.850  22.121  28.045  1.00  0.00     0.010 A 
ATOM     14  C   UNL A   1      43.429  22.940  27.064  1.00  0.00    -0.014 A 
BRANCH  14  15
ATOM     15  C   UNL A   1      43.773  24.354  27.347  1.00  0.00     0.031 A 
ATOM     16  C   UNL A   1      42.736  25.338  27.794  1.00  0.00     0.074 A 
ATOM     17  C   UNL A   1      45.058  24.726  27.185  1.00  0.00     0.049 A 
ATOM     18  N   UNL A   1      42.879  26.611  28.062  1.00  0.00    -0.248 NA
ATOM     19  C   UNL A   1      41.362  24.840  27.959  1.00  0.00     0.031 C 
ATOM     20  C   UNL A   1      46.138  23.844  26.733  1.00  0.00     0.029 A 
ATOM     21  N   UNL A   1      45.680  25.930  27.385  1.00  0.00    -0.354 N 
ATOM     22  C   UNL A   1      41.616  27.071  28.408  1.00  0.00     0.074 A 
ATOM     23  C   UNL A   1      40.712  25.945  28.303  1.00  0.00     0.031 C 
ATOM     24  C   UNL A   1      47.291  24.525  26.721  1.00  0.00     0.029 A 
ATOM     25  C   UNL A   1      47.021  25.908  27.088  1.00  0.00     0.049 A 
ATOM     26  H   UNL A   1      45.211  26.733  27.709  1.00  0.00     0.167 HD
ATOM     27  C   UNL A   1      41.258  28.323  28.778  1.00  0.00     0.037 A 
ATOM     28  C   UNL A   1      47.927  26.901  27.073  1.00  0.00     0.037 A 
ATOM     29  C   UNL A   1      42.177  29.428  28.892  1.00  0.00     0.049 A 
ATOM     30  C   UNL A   1      47.481  28.284  27.454  1.00  0.00     0.074 A 
ATOM     31  C   UNL A   1      41.923  30.717  29.324  1.00  0.00     0.029 A 
ATOM     32  N   UNL A   1      43.524  29.377  28.559  1.00  0.00    -0.354 N 
ATOM     33  N   UNL A   1      46.298  28.691  27.847  1.00  0.00    -0.248 NA
ATOM     34  C   UNL A   1      48.492  29.346  27.386  1.00  0.00     0.031 C 
ATOM     35  C   UNL A   1      43.097  31.465  29.189  1.00  0.00     0.029 A 
ATOM     36  C   UNL A   1      44.101  30.625  28.733  1.00  0.00     0.049 A 
ATOM     37  H   UNL A   1      43.999  28.573  28.245  1.00  0.00     0.167 HD
ATOM     38  C   UNL A   1      46.425  30.052  28.083  1.00  0.00     0.074 A 
ATOM     39  C   UNL A   1      47.809  30.393  27.825  1.00  0.00     0.031 C 
ATOM     40  C   UNL A   1      45.480  30.943  28.469  1.00  0.00     0.037 A 
BRANCH  27  41
ATOM     41  C   UNL A   1      39.812  28.594  29.072  1.00  0.00     0.064 A 
ATOM     42  C   UNL A   1      39.269  28.410  30.353  1.00  0.00     0.173 A 
ATOM     43  C   UNL A   1      38.984  29.150  28.083  1.00  0.00     0.173 A 
ATOM     44  F   UNL A   1      40.015  27.875  31.331  1.00  0.00    -0.203 F 
ATOM     45  C   UNL A   1      37.952  28.769  30.631  1.00  0.00     0.198 A 
ATOM     46  C   UNL A   1      37.676  29.532  28.371  1.00  0.00     0.198 A 
ATOM     47  F   UNL A   1      39.456  29.353  26.844  1.00  0.00    -0.203 F 
ATOM     48  F   UNL A   1      37.448  28.569  31.856  1.00  0.00    -0.200 F 
ATOM     49  C   UNL A   1      37.161  29.341  29.643  1.00  0.00     0.200 A 
ATOM     50  F   UNL A   1      36.921  30.099  27.421  1.00  0.00    -0.200 F 
ATOM     51  F   UNL A   1      35.904  29.710  29.920  1.00  0.00    -0.200 F 
ENDBRANCH  27  41
BRANCH  28  52
ATOM     52  C   UNL A   1      49.323  26.636  26.639  1.00  0.00     0.064 A 
ATOM     53  C   UNL A   1      50.298  26.208  27.550  1.00  0.00     0.173 A 
ATOM     54  C   UNL A   1      49.718  26.832  25.307  1.00  0.00     0.173 A 
ATOM     55  F   UNL A   1      49.974  26.020  28.838  1.00  0.00    -0.203 F 
ATOM     56  C   UNL A   1      51.621  26.023  27.153  1.00  0.00     0.198 A 
ATOM     57  C   UNL A   1      51.032  26.607  24.903  1.00  0.00     0.198 A 
ATOM     58  F   UNL A   1      48.823  27.233  24.391  1.00  0.00    -0.203 F 
ATOM     59  F   UNL A   1      52.546  25.679  28.059  1.00  0.00    -0.200 F 
ATOM     60  C   UNL A   1      51.986  26.218  25.830  1.00  0.00     0.200 A 
ATOM     61  F   UNL A   1      51.374  26.777  23.619  1.00  0.00    -0.200 F 
ATOM     62  F   UNL A   1      53.259  26.044  25.451  1.00  0.00    -0.200 F 
ENDBRANCH  28  52
BRANCH  40  63
ATOM     63  C   UNL A   1      45.923  32.366  28.649  1.00  0.00     0.064 A 
ATOM     64  C   UNL A   1      45.841  33.298  27.603  1.00  0.00     0.173 A 
ATOM     65  C   UNL A   1      46.410  32.808  29.887  1.00  0.00     0.173 A 
ATOM     66  F   UNL A   1      45.400  32.918  26.394  1.00  0.00    -0.203 F 
ATOM     67  C   UNL A   1      46.261  34.611  27.782  1.00  0.00     0.198 A 
ATOM     68  C   UNL A   1      46.797  34.132  30.072  1.00  0.00     0.198 A 
ATOM     69  F   UNL A   1      46.504  31.958  30.922  1.00  0.00    -0.203 F 
ATOM     70  F   UNL A   1      46.231  35.468  26.752  1.00  0.00    -0.200 F 
ATOM     71  C   UNL A   1      46.731  35.030  29.018  1.00  0.00     0.200 A 
ATOM     72  F   UNL A   1      47.235  34.538  31.272  1.00  0.00    -0.200 F 
ATOM     73  F   UNL A   1      47.129  36.297  29.190  1.00  0.00    -0.200 F 
ENDBRANCH  40  63
ENDBRANCH  14  15
ENDBRANCH   7   9
ENDBRANCH   4   5
ENDBRANCH   3   4
ENDBRANCH   2   3
ENDBRANCH   1   2
BRANCH   1  74
ATOM     74  C   UNL A   1      36.824  22.954  24.578  1.00  0.00     0.021 C 
BRANCH  74  75
ATOM     75  C   UNL A   1      36.064  23.800  25.599  1.00  0.00     0.116 C 
BRANCH  75  76
ATOM     76  N   UNL A   1      35.475  22.993  26.637  1.00  0.00    -0.356 N 
ATOM     77  C   UNL A   1      34.246  22.453  26.797  1.00  0.00     0.223 C 
ATOM     78  H   UNL A   1      36.091  22.794  27.378  1.00  0.00     0.163 HD
ATOM     79  O   UNL A   1      34.096  21.756  27.809  1.00  0.00    -0.275 OA
BRANCH  77  80
ATOM     80  C   UNL A   1      33.056  22.668  25.859  1.00  0.00     0.082 C 
ATOM     81  C   UNL A   1      33.097  21.974  24.502  1.00  0.00     0.035 C 
ATOM     82  C   UNL A   1      32.549  24.099  25.793  1.00  0.00     0.035 C 
ATOM     83  C   UNL A   1      33.470  22.831  23.297  1.00  0.00     0.120 C 
ATOM     84  C   UNL A   1      33.145  24.915  24.666  1.00  0.00     0.120 C 
ATOM     85  N   UNL A   1      33.088  24.243  23.369  1.00  0.00    -0.342 N 
ATOM     86  C   UNL A   1      33.033  24.928  22.151  1.00  0.00     0.232 C 
ATOM     87  O   UNL A   1      33.249  24.348  21.082  1.00  0.00    -0.274 OA
BRANCH  86  88
ATOM     88  C   UNL A   1      32.768  26.426  22.140  1.00  0.00     0.169 C 
BRANCH  88  89
ATOM     89  S   UNL A   1      31.051  26.898  22.546  1.00  0.00    -0.147 SA
BRANCH  89  90
ATOM     90  C   UNL A   1      31.307  28.572  23.198  1.00  0.00     0.105 C 
BRANCH  90  91
ATOM     91  C   UNL A   1      31.448  28.698  24.694  1.00  0.00    -0.038 A 
ATOM     92  C   UNL A   1      31.899  29.857  25.344  1.00  0.00     0.004 A 
ATOM     93  C   UNL A   1      31.175  27.563  25.476  1.00  0.00     0.004 A 
ATOM     94  C   UNL A   1      32.035  29.894  26.731  1.00  0.00     0.000 A 
ATOM     95  C   UNL A   1      31.328  27.595  26.862  1.00  0.00     0.000 A 
ATOM     96  C   UNL A   1      31.753  28.763  27.490  1.00  0.00     0.000 A 
ENDBRANCH  90  91
ENDBRANCH  89  90
ENDBRANCH  88  89
ENDBRANCH  86  88
ENDBRANCH  77  80
ENDBRANCH  75  76
ENDBRANCH  74  75
ENDBRANCH   1  74
TORSDOF 17
ENDMDL
MODEL 2
REMARK VINA RESULT:     -12.0      1.126      2.174
REMARK SMILES O=C(NCCCCCCNC(=O)C1CCN(C(=O)CSCc2ccccc2)CC1)c1ccc(-c2c3nc(c(-c4c(F)c(F)c(F)c(F)c4F)c4ccc([nH]4)c(-c4c(F)c(F)c(F)c(F)c4F)c4nc(c(-c5c(F)c(F)c(F)c(F)c5F)c5ccc2[nH]5)C=C4)C=C3)cc1
REMARK SMILES IDX 7 1 6 2 5 3 4 4 3 5 1 6 2 7 30 9 31 10 92 11 32 12 91 13
REMARK SMILES IDX 33 14 34 15 35 16 85 17 36 18 90 19 84 20 86 21 37 22 89 23
REMARK SMILES IDX 83 24 82 25 38 27 70 28 50 29 69 30 51 31 54 32 68 33 87 34
REMARK SMILES IDX 52 35 53 36 67 38 88 39 55 40 39 41 40 42 48 43 41 44 42 45
REMARK SMILES IDX 46 46 49 47 43 48 44 49 47 50 45 51 71 52 72 53 80 54 73 55
REMARK SMILES IDX 74 56 78 57 81 58 75 59 76 60 79 61 77 62 56 63 57 64 65 65
REMARK SMILES IDX 58 66 59 67 63 68 66 69 60 70 61 71 64 72 62 73 8 74 9 75
REMARK SMILES IDX 10 76 11 77 12 79 13 80 14 81 29 82 15 83 28 84 16 85 17 86
REMARK SMILES IDX 18 87 19 88 20 89 21 90 22 91 23 92 27 93 24 94 26 95 25 96
REMARK H PARENT 3 8 86 26 54 37 10 78
REMARK Flexibility Score: inf
ROOT
ATOM      1  C   UNL A   1      37.392  22.207  25.548  1.00  0.00     0.002 C 
ENDROOT
BRANCH   1   2
ATOM      2  C   UNL A   1      37.208  20.947  24.692  1.00  0.00     0.002 C 
BRANCH   2   3
ATOM      3  C   UNL A   1      38.185  19.810  25.001  1.00  0.00     0.021 C 
BRANCH   3   4
ATOM      4  C   UNL A   1      39.265  20.183  26.008  1.00  0.00     0.116 C 
BRANCH   4   5
ATOM      5  N   UNL A   1      40.290  19.155  26.092  1.00  0.00    -0.352 N 
ATOM      6  O   UNL A   1      42.392  18.344  25.927  1.00  0.00    -0.269 OA
ATOM      7  C   UNL A   1      41.650  19.304  26.126  1.00  0.00     0.251 C 
ATOM      8  H   UNL A   1      39.961  18.227  26.129  1.00  0.00     0.163 HD
BRANCH   7   9
ATOM      9  C   UNL A   1      42.219  20.632  26.418  1.00  0.00     0.039 A 
ATOM     10  C   UNL A   1      42.529  21.498  25.366  1.00  0.00     0.014 A 
ATOM     11  C   UNL A   1      42.406  21.028  27.744  1.00  0.00     0.014 A 
ATOM     12  C   UNL A   1      43.123  22.721  25.634  1.00  0.00     0.010 A 
ATOM     13  C   UNL A   1      42.916  22.299  28.016  1.00  0.00     0.010 A 
ATOM     14  C   UNL A   1      43.274  23.153  26.961  1.00  0.00    -0.014 A 
BRANCH  14  15
ATOM     15  C   UNL A   1      43.661  24.562  27.209  1.00  0.00     0.031 A 
ATOM     16  C   UNL A   1      42.676  25.566  27.723  1.00  0.00     0.074 A 
ATOM     17  C   UNL A   1      44.937  24.912  26.953  1.00  0.00     0.049 A 
ATOM     18  N   UNL A   1      42.859  26.839  27.972  1.00  0.00    -0.248 NA
ATOM     19  C   UNL A   1      41.309  25.093  27.989  1.00  0.00     0.031 C 
ATOM     20  C   UNL A   1      45.967  24.008  26.431  1.00  0.00     0.029 A 
ATOM     21  N   UNL A   1      45.592  26.106  27.100  1.00  0.00    -0.354 N 
ATOM     22  C   UNL A   1      41.632  27.323  28.404  1.00  0.00     0.074 A 
ATOM     23  C   UNL A   1      40.704  26.212  28.371  1.00  0.00     0.031 C 
ATOM     24  C   UNL A   1      47.128  24.670  26.332  1.00  0.00     0.029 A 
ATOM     25  C   UNL A   1      46.908  26.058  26.708  1.00  0.00     0.049 A 
ATOM     26  H   UNL A   1      45.162  26.919  27.452  1.00  0.00     0.167 HD
ATOM     27  C   UNL A   1      41.323  28.582  28.791  1.00  0.00     0.037 A 
ATOM     28  C   UNL A   1      47.827  27.036  26.622  1.00  0.00     0.037 A 
ATOM     29  C   UNL A   1      42.266  29.671  28.831  1.00  0.00     0.049 A 
ATOM     30  C   UNL A   1      47.433  28.428  27.025  1.00  0.00     0.074 A 
ATOM     31  C   UNL A   1      42.066  30.968  29.272  1.00  0.00     0.029 A 
ATOM     32  N   UNL A   1      43.585  29.595  28.403  1.00  0.00    -0.354 N 
ATOM     33  N   UNL A   1      46.289  28.858  27.498  1.00  0.00    -0.248 NA
ATOM     34  C   UNL A   1      48.454  29.472  26.878  1.00  0.00     0.031 C 
ATOM     35  C   UNL A   1      43.240  31.694  29.048  1.00  0.00     0.029 A 
ATOM     36  C   UNL A   1      44.194  30.834  28.527  1.00  0.00     0.049 A 
ATOM     37  H   UNL A   1      44.022  28.782  28.061  1.00  0.00     0.167 HD
ATOM     38  C   UNL A   1      46.456  30.218  27.717  1.00  0.00     0.074 A 
ATOM     39  C   UNL A   1      47.823  30.533  27.358  1.00  0.00     0.031 C 
ATOM     40  C   UNL A   1      45.556  31.127  28.163  1.00  0.00     0.037 A 
BRANCH  27  41
ATOM     41  C   UNL A   1      39.906  28.880  29.185  1.00  0.00     0.064 A 
ATOM     42  C   UNL A   1      38.933  29.238  28.239  1.00  0.00     0.173 A 
ATOM     43  C   UNL A   1      39.492  28.697  30.514  1.00  0.00     0.173 A 
ATOM     44  F   UNL A   1      39.278  29.433  26.958  1.00  0.00    -0.203 F 
ATOM     45  C   UNL A   1      37.601  29.405  28.611  1.00  0.00     0.198 A 
ATOM     46  C   UNL A   1      38.155  28.839  30.877  1.00  0.00     0.198 A 
ATOM     47  F   UNL A   1      40.381  28.347  31.457  1.00  0.00    -0.203 F 
ATOM     48  F   UNL A   1      36.691  29.764  27.695  1.00  0.00    -0.200 F 
ATOM     49  C   UNL A   1      37.211  29.193  29.926  1.00  0.00     0.200 A 
ATOM     50  F   UNL A   1      37.779  28.618  32.144  1.00  0.00    -0.200 F 
ATOM     51  F   UNL A   1      35.925  29.328  30.275  1.00  0.00    -0.200 F 
ENDBRANCH  27  41
BRANCH  28  52
ATOM     52  C   UNL A   1      49.184  26.744  26.091  1.00  0.00     0.064 A 
ATOM     53  C   UNL A   1      50.207  26.278  26.928  1.00  0.00     0.173 A 
ATOM     54  C   UNL A   1      49.494  26.951  24.738  1.00  0.00     0.173 A 
ATOM     55  F   UNL A   1      49.966  26.078  28.232  1.00  0.00    -0.203 F 
ATOM     56  C   UNL A   1      51.495  26.068  26.440  1.00  0.00     0.198 A 
ATOM     57  C   UNL A   1      50.771  26.702  24.243  1.00  0.00     0.198 A 
ATOM     58  F   UNL A   1      48.550  27.388  23.891  1.00  0.00    -0.203 F 
ATOM     59  F   UNL A   1      52.470  25.688  27.277  1.00  0.00    -0.200 F 
ATOM     60  C   UNL A   1      51.776  26.275  25.098  1.00  0.00     0.200 A 
ATOM     61  F   UNL A   1      51.030  26.883  22.941  1.00  0.00    -0.200 F 
ATOM     62  F   UNL A   1      53.015  26.076  24.631  1.00  0.00    -0.200 F 
ENDBRANCH  28  52
BRANCH  40  63
ATOM     63  C   UNL A   1      46.034  32.543  28.301  1.00  0.00     0.064 A 
ATOM     64  C   UNL A   1      46.636  33.002  29.482  1.00  0.00     0.173 A 
ATOM     65  C   UNL A   1      45.911  33.443  27.233  1.00  0.00     0.173 A 
ATOM     66  F   UNL A   1      46.758  32.184  30.540  1.00  0.00    -0.203 F 
ATOM     67  C   UNL A   1      47.068  34.319  29.599  1.00  0.00     0.198 A 
ATOM     68  C   UNL A   1      46.376  34.750  27.342  1.00  0.00     0.198 A 
ATOM     69  F   UNL A   1      45.347  33.053  26.079  1.00  0.00    -0.203 F 
ATOM     70  F   UNL A   1      47.584  34.752  30.757  1.00  0.00    -0.200 F 
ATOM     71  C   UNL A   1      46.946  35.189  28.527  1.00  0.00     0.200 A 
ATOM     72  F   UNL A   1      46.272  35.585  26.298  1.00  0.00    -0.200 F 
ATOM     73  F   UNL A   1      47.368  36.456  28.639  1.00  0.00    -0.200 F 
ENDBRANCH  40  63
ENDBRANCH  14  15
ENDBRANCH   7   9
ENDBRANCH   4   5
ENDBRANCH   3   4
ENDBRANCH   2   3
ENDBRANCH   1   2
BRANCH   1  74
ATOM     74  C   UNL A   1      36.833  23.484  24.922  1.00  0.00     0.021 C 
BRANCH  74  75
ATOM     75  C   UNL A   1      35.727  24.138  25.751  1.00  0.00     0.116 C 
BRANCH  75  76
ATOM     76  N   UNL A   1      35.051  23.186  26.595  1.00  0.00    -0.356 N 
ATOM     77  C   UNL A   1      33.843  22.583  26.518  1.00  0.00     0.223 C 
ATOM     78  H   UNL A   1      35.573  22.922  27.386  1.00  0.00     0.163 HD
ATOM     79  O   UNL A   1      33.599  21.761  27.410  1.00  0.00    -0.275 OA
BRANCH  77  80
ATOM     80  C   UNL A   1      32.779  22.866  25.455  1.00  0.00     0.082 C 
ATOM     81  C   UNL A   1      33.117  22.511  24.011  1.00  0.00     0.035 C 
ATOM     82  C   UNL A   1      32.075  24.205  25.601  1.00  0.00     0.035 C 
ATOM     83  C   UNL A   1      33.521  23.658  23.092  1.00  0.00     0.120 C 
ATOM     84  C   UNL A   1      32.692  25.321  24.787  1.00  0.00     0.120 C 
ATOM     85  N   UNL A   1      32.923  24.961  23.388  1.00  0.00    -0.342 N 
ATOM     86  C   UNL A   1      32.936  25.896  22.348  1.00  0.00     0.232 C 
ATOM     87  O   UNL A   1      33.387  25.605  21.235  1.00  0.00    -0.274 OA
BRANCH  86  88
ATOM     88  C   UNL A   1      32.450  27.315  22.602  1.00  0.00     0.169 C 
BRANCH  88  89
ATOM     89  S   UNL A   1      30.653  27.555  22.382  1.00  0.00    -0.147 SA
BRANCH  89  90
ATOM     90  C   UNL A   1      30.349  28.910  23.550  1.00  0.00     0.105 C 
BRANCH  90  91
ATOM     91  C   UNL A   1      29.568  30.089  23.025  1.00  0.00    -0.038 A 
ATOM     92  C   UNL A   1      29.151  31.168  23.820  1.00  0.00     0.004 A 
ATOM     93  C   UNL A   1      29.178  30.068  21.676  1.00  0.00     0.004 A 
ATOM     94  C   UNL A   1      28.402  32.211  23.275  1.00  0.00     0.000 A 
ATOM     95  C   UNL A   1      28.414  31.103  21.136  1.00  0.00     0.000 A 
ATOM     96  C   UNL A   1      28.032  32.178  21.934  1.00  0.00     0.000 A 
ENDBRANCH  90  91
ENDBRANCH  89  90
ENDBRANCH  88  89
ENDBRANCH  86  88
ENDBRANCH  77  80
ENDBRANCH  75  76
ENDBRANCH  74  75
ENDBRANCH   1  74
TORSDOF 17
ENDMDL
MODEL 3
REMARK VINA RESULT:     -11.8      1.776      2.707
REMARK SMILES O=C(NCCCCCCNC(=O)C1CCN(C(=O)CSCc2ccccc2)CC1)c1ccc(-c2c3nc(c(-c4c(F)c(F)c(F)c(F)c4F)c4ccc([nH]4)c(-c4c(F)c(F)c(F)c(F)c4F)c4nc(c(-c5c(F)c(F)c(F)c(F)c5F)c5ccc2[nH]5)C=C4)C=C3)cc1
REMARK SMILES IDX 7 1 6 2 5 3 4 4 3 5 1 6 2 7 30 9 31 10 92 11 32 12 91 13
REMARK SMILES IDX 33 14 34 15 35 16 85 17 36 18 90 19 84 20 86 21 37 22 89 23
REMARK SMILES IDX 83 24 82 25 38 27 70 28 50 29 69 30 51 31 54 32 68 33 87 34
REMARK SMILES IDX 52 35 53 36 67 38 88 39 55 40 39 41 40 42 48 43 41 44 42 45
REMARK SMILES IDX 46 46 49 47 43 48 44 49 47 50 45 51 71 52 72 53 80 54 73 55
REMARK SMILES IDX 74 56 78 57 81 58 75 59 76 60 79 61 77 62 56 63 57 64 65 65
REMARK SMILES IDX 58 66 59 67 63 68 66 69 60 70 61 71 64 72 62 73 8 74 9 75
REMARK SMILES IDX 10 76 11 77 12 79 13 80 14 81 29 82 15 83 28 84 16 85 17 86
REMARK SMILES IDX 18 87 19 88 20 89 21 90 22 91 23 92 27 93 24 94 26 95 25 96
REMARK H PARENT 3 8 86 26 54 37 10 78
REMARK Flexibility Score: inf
ROOT
ATOM      1  C   UNL A   1      42.274  20.961  27.270  1.00  0.00     0.002 C 
ENDROOT
BRANCH   1   2
ATOM      2  C   UNL A   1      41.987  19.455  27.279  1.00  0.00     0.002 C 
BRANCH   2   3
ATOM      3  C   UNL A   1      42.515  18.690  26.062  1.00  0.00     0.021 C 
BRANCH   3   4
ATOM      4  C   UNL A   1      44.030  18.547  26.036  1.00  0.00     0.116 C 
BRANCH   4   5
ATOM      5  N   UNL A   1      44.542  18.576  24.675  1.00  0.00    -0.352 N 
ATOM      6  O   UNL A   1      44.938  19.512  22.658  1.00  0.00    -0.269 OA
ATOM      7  C   UNL A   1      44.758  19.658  23.866  1.00  0.00     0.251 C 
ATOM      8  H   UNL A   1      44.764  17.699  24.284  1.00  0.00     0.163 HD
BRANCH   7   9
ATOM      9  C   UNL A   1      44.787  21.005  24.461  1.00  0.00     0.039 A 
ATOM     10  C   UNL A   1      45.524  21.231  25.627  1.00  0.00     0.014 A 
ATOM     11  C   UNL A   1      44.109  22.054  23.835  1.00  0.00     0.014 A 
ATOM     12  C   UNL A   1      45.503  22.480  26.224  1.00  0.00     0.010 A 
ATOM     13  C   UNL A   1      44.166  23.335  24.386  1.00  0.00     0.010 A 
ATOM     14  C   UNL A   1      44.866  23.555  25.583  1.00  0.00    -0.014 A 
BRANCH  14  15
ATOM     15  C   UNL A   1      45.085  24.924  26.106  1.00  0.00     0.031 A 
ATOM     16  C   UNL A   1      43.971  25.716  26.719  1.00  0.00     0.074 A 
ATOM     17  C   UNL A   1      46.328  25.436  26.011  1.00  0.00     0.049 A 
ATOM     18  N   UNL A   1      44.003  26.932  27.204  1.00  0.00    -0.248 NA
ATOM     19  C   UNL A   1      42.651  25.073  26.796  1.00  0.00     0.031 C 
ATOM     20  C   UNL A   1      47.477  24.748  25.411  1.00  0.00     0.029 A 
ATOM     21  N   UNL A   1      46.842  26.639  26.416  1.00  0.00    -0.354 N 
ATOM     22  C   UNL A   1      42.710  27.207  27.625  1.00  0.00     0.074 A 
ATOM     23  C   UNL A   1      41.910  26.038  27.327  1.00  0.00     0.031 C 
ATOM     24  C   UNL A   1      48.562  25.525  25.517  1.00  0.00     0.029 A 
ATOM     25  C   UNL A   1      48.174  26.792  26.119  1.00  0.00     0.049 A 
ATOM     26  H   UNL A   1      46.308  27.328  26.875  1.00  0.00     0.167 HD
ATOM     27  C   UNL A   1      42.246  28.337  28.208  1.00  0.00     0.037 A 
ATOM     28  C   UNL A   1      48.986  27.852  26.276  1.00  0.00     0.037 A 
ATOM     29  C   UNL A   1      43.063  29.486  28.511  1.00  0.00     0.049 A 
ATOM     30  C   UNL A   1      48.423  29.101  26.892  1.00  0.00     0.074 A 
ATOM     31  C   UNL A   1      42.701  30.652  29.161  1.00  0.00     0.029 A 
ATOM     32  N   UNL A   1      44.403  29.617  28.173  1.00  0.00    -0.354 N 
ATOM     33  N   UNL A   1      47.216  29.324  27.350  1.00  0.00    -0.248 NA
ATOM     34  C   UNL A   1      49.333  30.247  27.008  1.00  0.00     0.031 C 
ATOM     35  C   UNL A   1      43.800  31.517  29.156  1.00  0.00     0.029 A 
ATOM     36  C   UNL A   1      44.868  30.865  28.561  1.00  0.00     0.049 A 
ATOM     37  H   UNL A   1      44.943  28.928  27.724  1.00  0.00     0.167 HD
ATOM     38  C   UNL A   1      47.223  30.629  27.819  1.00  0.00     0.074 A 
ATOM     39  C   UNL A   1      48.566  31.135  27.623  1.00  0.00     0.031 C 
ATOM     40  C   UNL A   1      46.208  31.349  28.354  1.00  0.00     0.037 A 
BRANCH  27  41
ATOM     41  C   UNL A   1      40.786  28.419  28.545  1.00  0.00     0.064 A 
ATOM     42  C   UNL A   1      40.295  28.039  29.804  1.00  0.00     0.173 A 
ATOM     43  C   UNL A   1      39.884  28.989  27.633  1.00  0.00     0.173 A 
ATOM     44  F   UNL A   1      41.114  27.483  30.708  1.00  0.00    -0.203 F 
ATOM     45  C   UNL A   1      38.954  28.224  30.134  1.00  0.00     0.198 A 
ATOM     46  C   UNL A   1      38.549  29.196  27.977  1.00  0.00     0.198 A 
ATOM     47  F   UNL A   1      40.303  29.376  26.420  1.00  0.00    -0.203 F 
ATOM     48  F   UNL A   1      38.501  27.838  31.334  1.00  0.00    -0.200 F 
ATOM     49  C   UNL A   1      38.086  28.813  29.225  1.00  0.00     0.200 A 
ATOM     50  F   UNL A   1      37.718  29.780  27.103  1.00  0.00    -0.200 F 
ATOM     51  F   UNL A   1      36.803  29.014  29.555  1.00  0.00    -0.200 F 
ENDBRANCH  27  41
BRANCH  28  52
ATOM     52  C   UNL A   1      50.393  27.795  25.801  1.00  0.00     0.064 A 
ATOM     53  C   UNL A   1      51.458  27.638  26.699  1.00  0.00     0.173 A 
ATOM     54  C   UNL A   1      50.705  27.925  24.438  1.00  0.00     0.173 A 
ATOM     55  F   UNL A   1      51.213  27.525  28.013  1.00  0.00    -0.203 F 
ATOM     56  C   UNL A   1      52.779  27.652  26.257  1.00  0.00     0.198 A 
ATOM     57  C   UNL A   1      52.024  27.897  23.994  1.00  0.00     0.198 A 
ATOM     58  F   UNL A   1      49.725  28.070  23.535  1.00  0.00    -0.203 F 
ATOM     59  F   UNL A   1      53.779  27.567  27.145  1.00  0.00    -0.200 F 
ATOM     60  C   UNL A   1      53.062  27.776  24.906  1.00  0.00     0.200 A 
ATOM     61  F   UNL A   1      52.290  27.997  22.685  1.00  0.00    -0.200 F 
ATOM     62  F   UNL A   1      54.332  27.792  24.483  1.00  0.00    -0.200 F 
ENDBRANCH  28  52
BRANCH  40  63
ATOM     63  C   UNL A   1      46.523  32.754  28.779  1.00  0.00     0.064 A 
ATOM     64  C   UNL A   1      46.346  33.840  27.909  1.00  0.00     0.173 A 
ATOM     65  C   UNL A   1      46.983  33.019  30.077  1.00  0.00     0.173 A 
ATOM     66  F   UNL A   1      45.928  33.636  26.650  1.00  0.00    -0.203 F 
ATOM     67  C   UNL A   1      46.649  35.136  28.313  1.00  0.00     0.198 A 
ATOM     68  C   UNL A   1      47.250  34.321  30.489  1.00  0.00     0.198 A 
ATOM     69  F   UNL A   1      47.164  32.016  30.950  1.00  0.00    -0.203 F 
ATOM     70  F   UNL A   1      46.530  36.151  27.446  1.00  0.00    -0.200 F 
ATOM     71  C   UNL A   1      47.092  35.377  29.604  1.00  0.00     0.200 A 
ATOM     72  F   UNL A   1      47.664  34.553  31.743  1.00  0.00    -0.200 F 
ATOM     73  F   UNL A   1      47.377  36.627  29.994  1.00  0.00    -0.200 F 
ENDBRANCH  40  63
ENDBRANCH  14  15
ENDBRANCH   7   9
ENDBRANCH   4   5
ENDBRANCH   3   4
ENDBRANCH   2   3
ENDBRANCH   1   2
BRANCH   1  74
ATOM     74  C   UNL A   1      41.055  21.841  27.547  1.00  0.00     0.021 C 
BRANCH  74  75
ATOM     75  C   UNL A   1      39.947  21.698  26.504  1.00  0.00     0.116 C 
BRANCH  75  76
ATOM     76  N   UNL A   1      39.129  22.882  26.420  1.00  0.00    -0.356 N 
ATOM     77  C   UNL A   1      37.949  23.143  25.816  1.00  0.00     0.223 C 
ATOM     78  H   UNL A   1      39.506  23.654  26.899  1.00  0.00     0.163 HD
ATOM     79  O   UNL A   1      37.497  24.281  25.996  1.00  0.00    -0.275 OA
BRANCH  77  80
ATOM     80  C   UNL A   1      37.176  22.169  24.924  1.00  0.00     0.082 C 
ATOM     81  C   UNL A   1      36.634  22.704  23.603  1.00  0.00     0.035 C 
ATOM     82  C   UNL A   1      36.196  21.271  25.662  1.00  0.00     0.035 C 
ATOM     83  C   UNL A   1      35.147  23.038  23.549  1.00  0.00     0.120 C 
ATOM     84  C   UNL A   1      34.783  21.808  25.712  1.00  0.00     0.120 C 
ATOM     85  N   UNL A   1      34.275  22.234  24.408  1.00  0.00    -0.342 N 
ATOM     86  C   UNL A   1      32.918  22.226  24.073  1.00  0.00     0.232 C 
ATOM     87  O   UNL A   1      32.503  22.829  23.077  1.00  0.00    -0.274 OA
BRANCH  86  88
ATOM     88  C   UNL A   1      31.921  21.521  24.980  1.00  0.00     0.169 C 
BRANCH  88  89
ATOM     89  S   UNL A   1      30.737  22.631  25.816  1.00  0.00    -0.147 SA
BRANCH  89  90
ATOM     90  C   UNL A   1      31.866  23.618  26.839  1.00  0.00     0.105 C 
BRANCH  90  91
ATOM     91  C   UNL A   1      32.208  24.995  26.328  1.00  0.00    -0.038 A 
ATOM     92  C   UNL A   1      33.499  25.389  25.942  1.00  0.00     0.004 A 
ATOM     93  C   UNL A   1      31.185  25.958  26.305  1.00  0.00     0.004 A 
ATOM     94  C   UNL A   1      33.750  26.691  25.509  1.00  0.00     0.000 A 
ATOM     95  C   UNL A   1      31.442  27.265  25.889  1.00  0.00     0.000 A 
ATOM     96  C   UNL A   1      32.724  27.629  25.485  1.00  0.00     0.000 A 
ENDBRANCH  90  91
ENDBRANCH  89  90
ENDBRANCH  88  89
ENDBRANCH  86  88
ENDBRANCH  77  80
ENDBRANCH  75  76
ENDBRANCH  74  75
ENDBRANCH   1  74
TORSDOF 17
ENDMDL
