MODEL 1
REMARK VINA RESULT:     -13.0      0.000      0.000
REMARK SMILES COCc1cc(N2CCCC[C@H]2C(=O)NCCCCCCNC(=O)c2ccc(-c3c4nc(c(-c5c(F)c(F)c(F)c(F)c5F)c5ccc([nH]5)c(-c5c(F)c(F)c(F)c(F)c5F)c5nc(c(-c6c(F)c(F)c(F)c(F)c6F)c6ccc3[nH]6)C=C5)C=C4)cc2)nc(-c2ccc(Cl)cc2)n1
REMARK SMILES IDX 18 1 17 2 16 3 15 4 13 5 14 6 12 8 7 9 8 10 9 11 11 12 10 13
REMARK SMILES IDX 6 14 4 15 5 16 97 17 89 18 88 19 3 20 2 21 1 22 90 23 91 24
REMARK SMILES IDX 96 25 92 26 95 27 93 28 94 29 19 30 20 31 21 32 22 33 23 34
REMARK SMILES IDX 24 36 25 37 26 38 87 39 27 40 86 41 28 42 29 43 30 44 80 45
REMARK SMILES IDX 31 46 85 47 79 48 81 49 32 50 84 51 78 52 77 53 33 55 65 56
REMARK SMILES IDX 45 57 64 58 46 59 49 60 63 61 82 62 47 63 48 64 62 66 83 67
REMARK SMILES IDX 50 68 34 69 35 70 43 71 36 72 37 73 41 74 44 75 38 76 39 77
REMARK SMILES IDX 42 78 40 79 66 80 67 81 75 82 68 83 69 84 73 85 76 86 70 87
REMARK SMILES IDX 71 88 74 89 72 90 51 91 52 92 60 93 53 94 54 95 58 96 61 97
REMARK SMILES IDX 55 98 56 99 59 100 57 101
REMARK H PARENT 15 7 22 35 81 54 49 65
REMARK Flexibility Score: inf
ROOT
ATOM      1  C   UNL A   1      32.246  29.858  25.580  1.00  0.00     0.002 C 
ENDROOT
BRANCH   1   2
ATOM      2  C   UNL A   1      31.595  28.532  25.187  1.00  0.00     0.021 C 
BRANCH   2   3
ATOM      3  C   UNL A   1      32.027  27.348  26.044  1.00  0.00     0.116 C 
BRANCH   3   4
ATOM      4  N   UNL A   1      31.452  26.106  25.588  1.00  0.00    -0.354 N 
ATOM      5  C   UNL A   1      31.963  25.042  24.917  1.00  0.00     0.242 C 
ATOM      6  O   UNL A   1      31.200  24.065  24.860  1.00  0.00    -0.273 OA
ATOM      7  H   UNL A   1      30.497  26.010  25.806  1.00  0.00     0.163 HD
BRANCH   5   8
ATOM      8  C   UNL A   1      33.322  24.988  24.170  1.00  0.00     0.173 C 
ATOM      9  N   UNL A   1      33.652  23.790  23.387  1.00  0.00    -0.344 N 
ATOM     10  C   UNL A   1      33.059  23.598  22.059  1.00  0.00     0.119 C 
ATOM     11  C   UNL A   1      33.109  24.860  21.209  1.00  0.00     0.022 C 
ATOM     12  C   UNL A   1      33.462  26.229  23.263  1.00  0.00     0.035 C 
ATOM     13  C   UNL A   1      32.643  26.084  21.984  1.00  0.00     0.004 C 
BRANCH   9  14
ATOM     14  C   UNL A   1      34.453  22.781  23.906  1.00  0.00     0.133 A 
ATOM     15  C   UNL A   1      36.402  22.078  25.079  1.00  0.00     0.072 A 
ATOM     16  C   UNL A   1      35.757  23.034  24.311  1.00  0.00     0.073 A 
ATOM     17  N   UNL A   1      35.847  20.877  25.304  1.00  0.00    -0.230 NA
ATOM     18  C   UNL A   1      34.643  20.658  24.759  1.00  0.00     0.161 A 
ATOM     19  N   UNL A   1      33.904  21.574  24.113  1.00  0.00    -0.211 NA
BRANCH  15  20
ATOM     20  C   UNL A   1      37.703  22.435  25.775  1.00  0.00     0.216 C 
BRANCH  20  21
ATOM     21  O   UNL A   1      38.734  21.445  25.707  1.00  0.00    -0.378 OA
ATOM     22  C   UNL A   1      39.919  21.810  26.403  1.00  0.00     0.195 C 
ENDBRANCH  20  21
ENDBRANCH  15  20
BRANCH  18  23
ATOM     23  C   UNL A   1      34.134  19.289  24.847  1.00  0.00     0.019 A 
ATOM     24  C   UNL A   1      32.926  19.005  25.509  1.00  0.00     0.013 A 
ATOM     25  C   UNL A   1      34.882  18.215  24.335  1.00  0.00     0.013 A 
ATOM     26  C   UNL A   1      32.482  17.688  25.657  1.00  0.00     0.021 A 
ATOM     27  C   UNL A   1      34.449  16.896  24.497  1.00  0.00     0.021 A 
ATOM     28  C   UNL A   1      33.250  16.640  25.158  1.00  0.00     0.041 A 
ATOM     29  Cl  UNL A   1      32.722  15.016  25.370  1.00  0.00    -0.084 Cl
ENDBRANCH  18  23
ENDBRANCH   9  14
ENDBRANCH   5   8
ENDBRANCH   3   4
ENDBRANCH   2   3
ENDBRANCH   1   2
BRANCH   1  30
ATOM     30  C   UNL A   1      31.678  30.516  26.841  1.00  0.00     0.002 C 
BRANCH  30  31
ATOM     31  C   UNL A   1      31.516  32.038  26.779  1.00  0.00     0.021 C 
BRANCH  31  32
ATOM     32  C   UNL A   1      32.762  32.835  27.148  1.00  0.00     0.116 C 
BRANCH  32  33
ATOM     33  N   UNL A   1      32.445  34.185  27.577  1.00  0.00    -0.352 N 
ATOM     34  C   UNL A   1      32.961  34.915  28.616  1.00  0.00     0.251 C 
ATOM     35  H   UNL A   1      31.755  34.644  27.044  1.00  0.00     0.163 HD
ATOM     36  O   UNL A   1      32.443  35.975  28.947  1.00  0.00    -0.269 OA
BRANCH  34  37
ATOM     37  C   UNL A   1      34.138  34.409  29.350  1.00  0.00     0.039 A 
ATOM     38  C   UNL A   1      33.936  33.732  30.556  1.00  0.00     0.014 A 
ATOM     39  C   UNL A   1      35.431  34.601  28.855  1.00  0.00     0.014 A 
ATOM     40  C   UNL A   1      35.029  33.196  31.236  1.00  0.00     0.010 A 
ATOM     41  C   UNL A   1      36.510  34.004  29.497  1.00  0.00     0.010 A 
ATOM     42  C   UNL A   1      36.320  33.298  30.694  1.00  0.00    -0.014 A 
BRANCH  42  43
ATOM     43  C   UNL A   1      37.484  32.661  31.358  1.00  0.00     0.031 A 
ATOM     44  C   UNL A   1      38.172  31.492  30.714  1.00  0.00     0.074 A 
ATOM     45  C   UNL A   1      37.870  33.091  32.575  1.00  0.00     0.049 A 
ATOM     46  N   UNL A   1      39.143  30.746  31.176  1.00  0.00    -0.248 NA
ATOM     47  C   UNL A   1      37.685  31.090  29.386  1.00  0.00     0.031 C 
ATOM     48  C   UNL A   1      37.251  34.189  33.318  1.00  0.00     0.029 A 
ATOM     49  N   UNL A   1      38.864  32.645  33.410  1.00  0.00    -0.354 N 
ATOM     50  C   UNL A   1      39.371  29.779  30.206  1.00  0.00     0.074 A 
ATOM     51  C   UNL A   1      38.405  30.002  29.152  1.00  0.00     0.031 C 
ATOM     52  C   UNL A   1      37.883  34.338  34.491  1.00  0.00     0.029 A 
ATOM     53  C   UNL A   1      38.923  33.319  34.604  1.00  0.00     0.049 A 
ATOM     54  H   UNL A   1      39.476  31.909  33.174  1.00  0.00     0.167 HD
ATOM     55  C   UNL A   1      40.314  28.807  30.189  1.00  0.00     0.037 A 
ATOM     56  C   UNL A   1      39.712  33.125  35.678  1.00  0.00     0.037 A 
ATOM     57  C   UNL A   1      41.285  28.610  31.232  1.00  0.00     0.049 A 
ATOM     58  C   UNL A   1      40.739  32.025  35.643  1.00  0.00     0.074 A 
ATOM     59  C   UNL A   1      42.333  27.706  31.274  1.00  0.00     0.029 A 
ATOM     60  N   UNL A   1      41.322  29.319  32.424  1.00  0.00    -0.354 N 
ATOM     61  N   UNL A   1      41.001  31.170  34.684  1.00  0.00    -0.248 NA
ATOM     62  C   UNL A   1      41.580  31.863  36.836  1.00  0.00     0.031 C 
ATOM     63  C   UNL A   1      42.963  27.825  32.516  1.00  0.00     0.029 A 
ATOM     64  C   UNL A   1      42.348  28.845  33.225  1.00  0.00     0.049 A 
ATOM     65  H   UNL A   1      40.708  30.051  32.665  1.00  0.00     0.167 HD
ATOM     66  C   UNL A   1      42.047  30.384  35.148  1.00  0.00     0.074 A 
ATOM     67  C   UNL A   1      42.384  30.876  36.468  1.00  0.00     0.031 C 
ATOM     68  C   UNL A   1      42.670  29.346  34.538  1.00  0.00     0.037 A 
BRANCH  55  69
ATOM     69  C   UNL A   1      40.336  27.877  29.010  1.00  0.00     0.064 A 
ATOM     70  C   UNL A   1      41.126  28.134  27.879  1.00  0.00     0.173 A 
ATOM     71  C   UNL A   1      39.586  26.692  29.028  1.00  0.00     0.173 A 
ATOM     72  F   UNL A   1      41.856  29.258  27.806  1.00  0.00    -0.203 F 
ATOM     73  C   UNL A   1      41.137  27.257  26.797  1.00  0.00     0.198 A 
ATOM     74  C   UNL A   1      39.625  25.800  27.959  1.00  0.00     0.198 A 
ATOM     75  F   UNL A   1      38.818  26.392  30.087  1.00  0.00    -0.203 F 
ATOM     76  F   UNL A   1      41.857  27.551  25.706  1.00  0.00    -0.200 F 
ATOM     77  C   UNL A   1      40.393  26.088  26.841  1.00  0.00     0.200 A 
ATOM     78  F   UNL A   1      38.917  24.664  28.010  1.00  0.00    -0.200 F 
ATOM     79  F   UNL A   1      40.411  25.241  25.803  1.00  0.00    -0.200 F 
ENDBRANCH  55  69
BRANCH  56  80
ATOM     80  C   UNL A   1      39.559  33.992  36.875  1.00  0.00     0.064 A 
ATOM     81  C   UNL A   1      38.759  33.598  37.957  1.00  0.00     0.173 A 
ATOM     82  C   UNL A   1      40.213  35.230  36.966  1.00  0.00     0.173 A 
ATOM     83  F   UNL A   1      38.098  32.432  37.910  1.00  0.00    -0.203 F 
ATOM     84  C   UNL A   1      38.605  34.416  39.074  1.00  0.00     0.198 A 
ATOM     85  C   UNL A   1      40.083  36.033  38.098  1.00  0.00     0.198 A 
ATOM     86  F   UNL A   1      40.996  35.652  35.962  1.00  0.00    -0.203 F 
ATOM     87  F   UNL A   1      37.799  34.034  40.075  1.00  0.00    -0.200 F 
ATOM     88  C   UNL A   1      39.272  35.629  39.147  1.00  0.00     0.200 A 
ATOM     89  F   UNL A   1      40.745  37.196  38.170  1.00  0.00    -0.200 F 
ATOM     90  F   UNL A   1      39.131  36.412  40.225  1.00  0.00    -0.200 F 
ENDBRANCH  56  80
BRANCH  68  91
ATOM     91  C   UNL A   1      43.791  28.679  35.282  1.00  0.00     0.064 A 
ATOM     92  C   UNL A   1      45.124  29.085  35.121  1.00  0.00     0.173 A 
ATOM     93  C   UNL A   1      43.521  27.663  36.212  1.00  0.00     0.173 A 
ATOM     94  F   UNL A   1      45.435  30.040  34.233  1.00  0.00    -0.203 F 
ATOM     95  C   UNL A   1      46.147  28.486  35.851  1.00  0.00     0.198 A 
ATOM     96  C   UNL A   1      44.543  27.089  36.963  1.00  0.00     0.198 A 
ATOM     97  F   UNL A   1      42.262  27.242  36.409  1.00  0.00    -0.203 F 
ATOM     98  F   UNL A   1      47.418  28.862  35.651  1.00  0.00    -0.200 F 
ATOM     99  C   UNL A   1      45.855  27.497  36.779  1.00  0.00     0.200 A 
ATOM    100  F   UNL A   1      44.257  26.145  37.870  1.00  0.00    -0.200 F 
ATOM    101  F   UNL A   1      46.840  26.933  37.491  1.00  0.00    -0.200 F 
ENDBRANCH  68  91
ENDBRANCH  42  43
ENDBRANCH  34  37
ENDBRANCH  32  33
ENDBRANCH  31  32
ENDBRANCH  30  31
ENDBRANCH   1  30
TORSDOF 17
ENDMDL
MODEL 2
REMARK VINA RESULT:     -12.9      5.562     11.603
REMARK SMILES COCc1cc(N2CCCC[C@H]2C(=O)NCCCCCCNC(=O)c2ccc(-c3c4nc(c(-c5c(F)c(F)c(F)c(F)c5F)c5ccc([nH]5)c(-c5c(F)c(F)c(F)c(F)c5F)c5nc(c(-c6c(F)c(F)c(F)c(F)c6F)c6ccc3[nH]6)C=C5)C=C4)cc2)nc(-c2ccc(Cl)cc2)n1
REMARK SMILES IDX 18 1 17 2 16 3 15 4 13 5 14 6 12 8 7 9 8 10 9 11 11 12 10 13
REMARK SMILES IDX 6 14 4 15 5 16 97 17 89 18 88 19 3 20 2 21 1 22 90 23 91 24
REMARK SMILES IDX 96 25 92 26 95 27 93 28 94 29 19 30 20 31 21 32 22 33 23 34
REMARK SMILES IDX 24 36 25 37 26 38 87 39 27 40 86 41 28 42 29 43 30 44 80 45
REMARK SMILES IDX 31 46 85 47 79 48 81 49 32 50 84 51 78 52 77 53 33 55 65 56
REMARK SMILES IDX 45 57 64 58 46 59 49 60 63 61 82 62 47 63 48 64 62 66 83 67
REMARK SMILES IDX 50 68 34 69 35 70 43 71 36 72 37 73 41 74 44 75 38 76 39 77
REMARK SMILES IDX 42 78 40 79 66 80 67 81 75 82 68 83 69 84 73 85 76 86 70 87
REMARK SMILES IDX 71 88 74 89 72 90 51 91 52 92 60 93 53 94 54 95 58 96 61 97
REMARK SMILES IDX 55 98 56 99 59 100 57 101
REMARK H PARENT 15 7 22 35 81 54 49 65
REMARK Flexibility Score: inf
ROOT
ATOM      1  C   UNL A   1      37.219  22.016  25.126  1.00  0.00     0.002 C 
ENDROOT
BRANCH   1   2
ATOM      2  C   UNL A   1      36.161  22.858  25.839  1.00  0.00     0.021 C 
BRANCH   2   3
ATOM      3  C   UNL A   1      35.840  24.175  25.142  1.00  0.00     0.116 C 
BRANCH   3   4
ATOM      4  N   UNL A   1      34.646  24.090  24.337  1.00  0.00    -0.354 N 
ATOM      5  C   UNL A   1      33.376  24.537  24.515  1.00  0.00     0.242 C 
ATOM      6  O   UNL A   1      32.656  24.432  23.510  1.00  0.00    -0.273 OA
ATOM      7  H   UNL A   1      34.778  23.609  23.488  1.00  0.00     0.163 HD
BRANCH   5   8
ATOM      8  C   UNL A   1      32.758  25.056  25.840  1.00  0.00     0.173 C 
ATOM      9  N   UNL A   1      31.511  25.830  25.783  1.00  0.00    -0.344 N 
ATOM     10  C   UNL A   1      30.230  25.139  25.605  1.00  0.00     0.119 C 
ATOM     11  C   UNL A   1      30.095  23.915  26.500  1.00  0.00     0.022 C 
ATOM     12  C   UNL A   1      32.569  23.878  26.818  1.00  0.00     0.035 C 
ATOM     13  C   UNL A   1      31.342  23.043  26.459  1.00  0.00     0.004 C 
BRANCH   9  14
ATOM     14  C   UNL A   1      31.515  27.218  25.811  1.00  0.00     0.133 A 
ATOM     15  C   UNL A   1      32.465  29.274  26.546  1.00  0.00     0.072 A 
ATOM     16  C   UNL A   1      32.269  27.917  26.745  1.00  0.00     0.073 A 
ATOM     17  N   UNL A   1      31.827  29.932  25.567  1.00  0.00    -0.230 NA
ATOM     18  C   UNL A   1      31.004  29.212  24.792  1.00  0.00     0.161 A 
ATOM     19  N   UNL A   1      30.860  27.877  24.842  1.00  0.00    -0.211 NA
BRANCH  15  20
ATOM     20  C   UNL A   1      33.507  30.006  27.373  1.00  0.00     0.216 C 
BRANCH  20  21
ATOM     21  O   UNL A   1      33.655  31.400  27.090  1.00  0.00    -0.378 OA
ATOM     22  C   UNL A   1      34.241  32.137  28.156  1.00  0.00     0.195 C 
ENDBRANCH  20  21
ENDBRANCH  15  20
BRANCH  18  23
ATOM     23  C   UNL A   1      30.172  29.966  23.856  1.00  0.00     0.019 A 
ATOM     24  C   UNL A   1      30.017  29.548  22.522  1.00  0.00     0.013 A 
ATOM     25  C   UNL A   1      29.567  31.171  24.251  1.00  0.00     0.013 A 
ATOM     26  C   UNL A   1      29.284  30.313  21.611  1.00  0.00     0.021 A 
ATOM     27  C   UNL A   1      28.847  31.947  23.338  1.00  0.00     0.021 A 
ATOM     28  C   UNL A   1      28.710  31.513  22.022  1.00  0.00     0.041 A 
ATOM     29  Cl  UNL A   1      27.835  32.473  20.893  1.00  0.00    -0.084 Cl
ENDBRANCH  18  23
ENDBRANCH   9  14
ENDBRANCH   5   8
ENDBRANCH   3   4
ENDBRANCH   2   3
ENDBRANCH   1   2
BRANCH   1  30
ATOM     30  C   UNL A   1      36.892  20.524  25.002  1.00  0.00     0.002 C 
BRANCH  30  31
ATOM     31  C   UNL A   1      38.099  19.581  24.985  1.00  0.00     0.021 C 
BRANCH  31  32
ATOM     32  C   UNL A   1      39.310  20.069  25.769  1.00  0.00     0.116 C 
BRANCH  32  33
ATOM     33  N   UNL A   1      40.324  19.039  25.914  1.00  0.00    -0.352 N 
ATOM     34  C   UNL A   1      41.673  19.164  26.119  1.00  0.00     0.251 C 
ATOM     35  H   UNL A   1      39.993  18.114  25.855  1.00  0.00     0.163 HD
ATOM     36  O   UNL A   1      42.407  18.187  26.033  1.00  0.00    -0.269 OA
BRANCH  34  37
ATOM     37  C   UNL A   1      42.245  20.491  26.427  1.00  0.00     0.039 A 
ATOM     38  C   UNL A   1      42.726  21.274  25.376  1.00  0.00     0.014 A 
ATOM     39  C   UNL A   1      42.307  20.958  27.744  1.00  0.00     0.014 A 
ATOM     40  C   UNL A   1      43.217  22.553  25.638  1.00  0.00     0.010 A 
ATOM     41  C   UNL A   1      42.730  22.258  27.994  1.00  0.00     0.010 A 
ATOM     42  C   UNL A   1      43.191  23.068  26.945  1.00  0.00    -0.014 A 
BRANCH  42  43
ATOM     43  C   UNL A   1      43.629  24.455  27.232  1.00  0.00     0.031 A 
ATOM     44  C   UNL A   1      42.632  25.479  27.693  1.00  0.00     0.074 A 
ATOM     45  C   UNL A   1      44.909  24.807  27.005  1.00  0.00     0.049 A 
ATOM     46  N   UNL A   1      42.800  26.760  27.908  1.00  0.00    -0.248 NA
ATOM     47  C   UNL A   1      41.257  25.008  27.916  1.00  0.00     0.031 C 
ATOM     48  C   UNL A   1      45.956  23.910  26.516  1.00  0.00     0.029 A 
ATOM     49  N   UNL A   1      45.543  26.017  27.137  1.00  0.00    -0.354 N 
ATOM     50  C   UNL A   1      41.553  27.248  28.273  1.00  0.00     0.074 A 
ATOM     51  C   UNL A   1      40.627  26.138  28.203  1.00  0.00     0.031 C 
ATOM     52  C   UNL A   1      47.103  24.596  26.400  1.00  0.00     0.029 A 
ATOM     53  C   UNL A   1      46.864  25.989  26.762  1.00  0.00     0.049 A 
ATOM     54  H   UNL A   1      45.093  26.828  27.469  1.00  0.00     0.167 HD
ATOM     55  C   UNL A   1      41.217  28.505  28.651  1.00  0.00     0.037 A 
ATOM     56  C   UNL A   1      47.773  26.980  26.696  1.00  0.00     0.037 A 
ATOM     57  C   UNL A   1      42.151  29.596  28.739  1.00  0.00     0.049 A 
ATOM     58  C   UNL A   1      47.370  28.372  27.102  1.00  0.00     0.074 A 
ATOM     59  C   UNL A   1      41.928  30.886  29.187  1.00  0.00     0.029 A 
ATOM     60  N   UNL A   1      43.484  29.529  28.360  1.00  0.00    -0.354 N 
ATOM     61  N   UNL A   1      46.207  28.805  27.527  1.00  0.00    -0.248 NA
ATOM     62  C   UNL A   1      48.403  29.413  27.022  1.00  0.00     0.031 C 
ATOM     63  C   UNL A   1      43.108  31.616  29.021  1.00  0.00     0.029 A 
ATOM     64  C   UNL A   1      44.085  30.766  28.526  1.00  0.00     0.049 A 
ATOM     65  H   UNL A   1      43.935  28.721  28.023  1.00  0.00     0.167 HD
ATOM     66  C   UNL A   1      46.373  30.159  27.782  1.00  0.00     0.074 A 
ATOM     67  C   UNL A   1      47.755  30.474  27.483  1.00  0.00     0.031 C 
ATOM     68  C   UNL A   1      45.462  31.062  28.222  1.00  0.00     0.037 A 
BRANCH  55  69
ATOM     69  C   UNL A   1      39.777  28.770  28.988  1.00  0.00     0.064 A 
ATOM     70  C   UNL A   1      39.279  28.603  30.289  1.00  0.00     0.173 A 
ATOM     71  C   UNL A   1      38.892  29.235  28.004  1.00  0.00     0.173 A 
ATOM     72  F   UNL A   1      40.080  28.151  31.266  1.00  0.00    -0.203 F 
ATOM     73  C   UNL A   1      37.942  28.859  30.584  1.00  0.00     0.198 A 
ATOM     74  C   UNL A   1      37.564  29.522  28.309  1.00  0.00     0.198 A 
ATOM     75  F   UNL A   1      39.316  29.419  26.744  1.00  0.00    -0.203 F 
ATOM     76  F   UNL A   1      37.477  28.641  31.822  1.00  0.00    -0.200 F 
ATOM     77  C   UNL A   1      37.088  29.326  29.597  1.00  0.00     0.200 A 
ATOM     78  F   UNL A   1      36.745  29.987  27.357  1.00  0.00    -0.200 F 
ATOM     79  F   UNL A   1      35.804  29.579  29.883  1.00  0.00    -0.200 F 
ENDBRANCH  55  69
BRANCH  56  80
ATOM     80  C   UNL A   1      49.153  26.688  26.228  1.00  0.00     0.064 A 
ATOM     81  C   UNL A   1      49.514  26.866  24.885  1.00  0.00     0.173 A 
ATOM     82  C   UNL A   1      50.141  26.232  27.113  1.00  0.00     0.173 A 
ATOM     83  F   UNL A   1      48.600  27.282  23.996  1.00  0.00    -0.203 F 
ATOM     84  C   UNL A   1      50.804  26.580  24.442  1.00  0.00     0.198 A 
ATOM     85  C   UNL A   1      51.440  25.977  26.674  1.00  0.00     0.198 A 
ATOM     86  F   UNL A   1      49.851  26.051  28.410  1.00  0.00    -0.203 F 
ATOM     87  F   UNL A   1      51.109  26.717  23.144  1.00  0.00    -0.200 F 
ATOM     88  C   UNL A   1      51.767  26.143  25.338  1.00  0.00     0.200 A 
ATOM     89  F   UNL A   1      52.371  25.572  27.549  1.00  0.00    -0.200 F 
ATOM     90  F   UNL A   1      53.010  25.878  24.913  1.00  0.00    -0.200 F 
ENDBRANCH  56  80
BRANCH  68  91
ATOM     91  C   UNL A   1      45.931  32.475  28.423  1.00  0.00     0.064 A 
ATOM     92  C   UNL A   1      45.819  33.438  27.410  1.00  0.00     0.173 A 
ATOM     93  C   UNL A   1      46.444  32.883  29.664  1.00  0.00     0.173 A 
ATOM     94  F   UNL A   1      45.351  33.094  26.201  1.00  0.00    -0.203 F 
ATOM     95  C   UNL A   1      46.218  34.754  27.627  1.00  0.00     0.198 A 
ATOM     96  C   UNL A   1      46.811  34.207  29.888  1.00  0.00     0.198 A 
ATOM     97  F   UNL A   1      46.566  32.002  30.669  1.00  0.00    -0.203 F 
ATOM     98  F   UNL A   1      46.139  35.648  26.631  1.00  0.00    -0.200 F 
ATOM     99  C   UNL A   1      46.703  35.140  28.868  1.00  0.00     0.200 A 
ATOM    100  F   UNL A   1      47.265  34.581  31.091  1.00  0.00    -0.200 F 
ATOM    101  F   UNL A   1      47.072  36.411  29.079  1.00  0.00    -0.200 F 
ENDBRANCH  68  91
ENDBRANCH  42  43
ENDBRANCH  34  37
ENDBRANCH  32  33
ENDBRANCH  31  32
ENDBRANCH  30  31
ENDBRANCH   1  30
TORSDOF 17
ENDMDL
MODEL 3
REMARK VINA RESULT:     -12.7      5.642     11.728
REMARK SMILES COCc1cc(N2CCCC[C@H]2C(=O)NCCCCCCNC(=O)c2ccc(-c3c4nc(c(-c5c(F)c(F)c(F)c(F)c5F)c5ccc([nH]5)c(-c5c(F)c(F)c(F)c(F)c5F)c5nc(c(-c6c(F)c(F)c(F)c(F)c6F)c6ccc3[nH]6)C=C5)C=C4)cc2)nc(-c2ccc(Cl)cc2)n1
REMARK SMILES IDX 18 1 17 2 16 3 15 4 13 5 14 6 12 8 7 9 8 10 9 11 11 12 10 13
REMARK SMILES IDX 6 14 4 15 5 16 97 17 89 18 88 19 3 20 2 21 1 22 90 23 91 24
REMARK SMILES IDX 96 25 92 26 95 27 93 28 94 29 19 30 20 31 21 32 22 33 23 34
REMARK SMILES IDX 24 36 25 37 26 38 87 39 27 40 86 41 28 42 29 43 30 44 80 45
REMARK SMILES IDX 31 46 85 47 79 48 81 49 32 50 84 51 78 52 77 53 33 55 65 56
REMARK SMILES IDX 45 57 64 58 46 59 49 60 63 61 82 62 47 63 48 64 62 66 83 67
REMARK SMILES IDX 50 68 34 69 35 70 43 71 36 72 37 73 41 74 44 75 38 76 39 77
REMARK SMILES IDX 42 78 40 79 66 80 67 81 75 82 68 83 69 84 73 85 76 86 70 87
REMARK SMILES IDX 71 88 74 89 72 90 51 91 52 92 60 93 53 94 54 95 58 96 61 97
REMARK SMILES IDX 55 98 56 99 59 100 57 101
REMARK H PARENT 15 7 22 35 81 54 49 65
REMARK Flexibility Score: inf
ROOT
ATOM      1  C   UNL A   1      37.292  21.937  24.694  1.00  0.00     0.002 C 
ENDROOT
BRANCH   1   2
ATOM      2  C   UNL A   1      36.666  22.514  23.424  1.00  0.00     0.021 C 
BRANCH   2   3
ATOM      3  C   UNL A   1      35.848  23.779  23.653  1.00  0.00     0.116 C 
BRANCH   3   4
ATOM      4  N   UNL A   1      34.481  23.631  23.213  1.00  0.00    -0.354 N 
ATOM      5  C   UNL A   1      33.320  24.229  23.585  1.00  0.00     0.242 C 
ATOM      6  O   UNL A   1      32.357  23.971  22.846  1.00  0.00    -0.273 OA
ATOM      7  H   UNL A   1      34.367  22.961  22.501  1.00  0.00     0.163 HD
BRANCH   5   8
ATOM      8  C   UNL A   1      33.092  25.092  24.855  1.00  0.00     0.173 C 
ATOM      9  N   UNL A   1      31.769  25.692  25.074  1.00  0.00    -0.344 N 
ATOM     10  C   UNL A   1      30.670  24.869  25.590  1.00  0.00     0.119 C 
ATOM     11  C   UNL A   1      31.094  23.994  26.761  1.00  0.00     0.022 C 
ATOM     12  C   UNL A   1      33.484  24.281  26.107  1.00  0.00     0.035 C 
ATOM     13  C   UNL A   1      32.404  23.269  26.482  1.00  0.00     0.004 C 
BRANCH   9  14
ATOM     14  C   UNL A   1      31.502  27.009  24.725  1.00  0.00     0.133 A 
ATOM     15  C   UNL A   1      30.313  28.609  23.424  1.00  0.00     0.072 A 
ATOM     16  C   UNL A   1      30.797  27.319  23.569  1.00  0.00     0.073 A 
ATOM     17  N   UNL A   1      30.638  29.576  24.295  1.00  0.00    -0.230 NA
ATOM     18  C   UNL A   1      31.441  29.229  25.310  1.00  0.00     0.161 A 
ATOM     19  N   UNL A   1      31.846  27.978  25.587  1.00  0.00    -0.211 NA
BRANCH  15  20
ATOM     20  C   UNL A   1      29.305  28.907  22.328  1.00  0.00     0.216 C 
BRANCH  20  21
ATOM     21  O   UNL A   1      29.558  30.086  21.558  1.00  0.00    -0.378 OA
ATOM     22  C   UNL A   1      28.382  30.822  21.243  1.00  0.00     0.195 C 
ENDBRANCH  20  21
ENDBRANCH  15  20
BRANCH  18  23
ATOM     23  C   UNL A   1      31.943  30.323  26.141  1.00  0.00     0.019 A 
ATOM     24  C   UNL A   1      31.285  31.565  26.180  1.00  0.00     0.013 A 
ATOM     25  C   UNL A   1      33.140  30.179  26.863  1.00  0.00     0.013 A 
ATOM     26  C   UNL A   1      31.810  32.631  26.916  1.00  0.00     0.021 A 
ATOM     27  C   UNL A   1      33.676  31.248  27.585  1.00  0.00     0.021 A 
ATOM     28  C   UNL A   1      33.008  32.470  27.607  1.00  0.00     0.041 A 
ATOM     29  Cl  UNL A   1      33.674  33.792  28.485  1.00  0.00    -0.084 Cl
ENDBRANCH  18  23
ENDBRANCH   9  14
ENDBRANCH   5   8
ENDBRANCH   3   4
ENDBRANCH   2   3
ENDBRANCH   1   2
BRANCH   1  30
ATOM     30  C   UNL A   1      36.961  20.467  24.975  1.00  0.00     0.002 C 
BRANCH  30  31
ATOM     31  C   UNL A   1      38.154  19.506  24.968  1.00  0.00     0.021 C 
BRANCH  31  32
ATOM     32  C   UNL A   1      39.383  19.998  25.721  1.00  0.00     0.116 C 
BRANCH  32  33
ATOM     33  N   UNL A   1      40.396  18.966  25.857  1.00  0.00    -0.352 N 
ATOM     34  C   UNL A   1      41.744  19.088  26.073  1.00  0.00     0.251 C 
ATOM     35  H   UNL A   1      40.065  18.042  25.781  1.00  0.00     0.163 HD
ATOM     36  O   UNL A   1      42.478  18.112  25.976  1.00  0.00    -0.269 OA
BRANCH  34  37
ATOM     37  C   UNL A   1      42.313  20.409  26.406  1.00  0.00     0.039 A 
ATOM     38  C   UNL A   1      42.847  21.188  25.376  1.00  0.00     0.014 A 
ATOM     39  C   UNL A   1      42.324  20.875  27.724  1.00  0.00     0.014 A 
ATOM     40  C   UNL A   1      43.337  22.463  25.660  1.00  0.00     0.010 A 
ATOM     41  C   UNL A   1      42.746  22.172  27.992  1.00  0.00     0.010 A 
ATOM     42  C   UNL A   1      43.259  22.977  26.964  1.00  0.00    -0.014 A 
BRANCH  42  43
ATOM     43  C   UNL A   1      43.697  24.361  27.271  1.00  0.00     0.031 A 
ATOM     44  C   UNL A   1      42.700  25.379  27.743  1.00  0.00     0.074 A 
ATOM     45  C   UNL A   1      44.977  24.716  27.051  1.00  0.00     0.049 A 
ATOM     46  N   UNL A   1      42.867  26.657  27.975  1.00  0.00    -0.248 NA
ATOM     47  C   UNL A   1      41.323  24.906  27.957  1.00  0.00     0.031 C 
ATOM     48  C   UNL A   1      46.026  23.825  26.552  1.00  0.00     0.029 A 
ATOM     49  N   UNL A   1      45.612  25.923  27.200  1.00  0.00    -0.354 N 
ATOM     50  C   UNL A   1      41.619  27.140  28.343  1.00  0.00     0.074 A 
ATOM     51  C   UNL A   1      40.693  26.032  28.258  1.00  0.00     0.031 C 
ATOM     52  C   UNL A   1      47.173  24.512  26.448  1.00  0.00     0.029 A 
ATOM     53  C   UNL A   1      46.933  25.900  26.827  1.00  0.00     0.049 A 
ATOM     54  H   UNL A   1      45.161  26.730  27.542  1.00  0.00     0.167 HD
ATOM     55  C   UNL A   1      41.282  28.392  28.737  1.00  0.00     0.037 A 
ATOM     56  C   UNL A   1      47.843  26.892  26.777  1.00  0.00     0.037 A 
ATOM     57  C   UNL A   1      42.216  29.481  28.842  1.00  0.00     0.049 A 
ATOM     58  C   UNL A   1      47.439  28.279  27.200  1.00  0.00     0.074 A 
ATOM     59  C   UNL A   1      41.993  30.766  29.306  1.00  0.00     0.029 A 
ATOM     60  N   UNL A   1      43.550  29.419  28.465  1.00  0.00    -0.354 N 
ATOM     61  N   UNL A   1      46.275  28.706  27.628  1.00  0.00    -0.248 NA
ATOM     62  C   UNL A   1      48.472  29.320  27.136  1.00  0.00     0.031 C 
ATOM     63  C   UNL A   1      43.174  31.498  29.152  1.00  0.00     0.029 A 
ATOM     64  C   UNL A   1      44.151  30.654  28.648  1.00  0.00     0.049 A 
ATOM     65  H   UNL A   1      44.002  28.616  28.118  1.00  0.00     0.167 HD
ATOM     66  C   UNL A   1      46.441  30.057  27.902  1.00  0.00     0.074 A 
ATOM     67  C   UNL A   1      47.824  30.375  27.610  1.00  0.00     0.031 C 
ATOM     68  C   UNL A   1      45.529  30.954  28.351  1.00  0.00     0.037 A 
BRANCH  55  69
ATOM     69  C   UNL A   1      39.842  28.654  29.075  1.00  0.00     0.064 A 
ATOM     70  C   UNL A   1      39.336  28.448  30.368  1.00  0.00     0.173 A 
ATOM     71  C   UNL A   1      38.964  29.152  28.101  1.00  0.00     0.173 A 
ATOM     72  F   UNL A   1      40.130  27.963  31.335  1.00  0.00    -0.203 F 
ATOM     73  C   UNL A   1      37.999  28.702  30.663  1.00  0.00     0.198 A 
ATOM     74  C   UNL A   1      37.636  29.436  28.408  1.00  0.00     0.198 A 
ATOM     75  F   UNL A   1      39.396  29.373  26.850  1.00  0.00    -0.203 F 
ATOM     76  F   UNL A   1      37.526  28.447  31.891  1.00  0.00    -0.200 F 
ATOM     77  C   UNL A   1      37.152  29.202  29.686  1.00  0.00     0.200 A 
ATOM     78  F   UNL A   1      36.824  29.933  27.466  1.00  0.00    -0.200 F 
ATOM     79  F   UNL A   1      35.867  29.451  29.973  1.00  0.00    -0.200 F 
ENDBRANCH  55  69
BRANCH  56  80
ATOM     80  C   UNL A   1      49.223  26.606  26.308  1.00  0.00     0.064 A 
ATOM     81  C   UNL A   1      49.600  26.845  24.979  1.00  0.00     0.173 A 
ATOM     82  C   UNL A   1      50.197  26.095  27.179  1.00  0.00     0.173 A 
ATOM     83  F   UNL A   1      48.699  27.315  24.103  1.00  0.00    -0.203 F 
ATOM     84  C   UNL A   1      50.890  26.564  24.534  1.00  0.00     0.198 A 
ATOM     85  C   UNL A   1      51.497  25.845  26.740  1.00  0.00     0.198 A 
ATOM     86  F   UNL A   1      49.892  25.855  28.462  1.00  0.00    -0.203 F 
ATOM     87  F   UNL A   1      51.210  26.760  23.247  1.00  0.00    -0.200 F 
ATOM     88  C   UNL A   1      51.840  26.072  25.416  1.00  0.00     0.200 A 
ATOM     89  F   UNL A   1      52.415  25.387  27.603  1.00  0.00    -0.200 F 
ATOM     90  F   UNL A   1      53.083  25.812  24.991  1.00  0.00    -0.200 F 
ENDBRANCH  56  80
BRANCH  68  91
ATOM     91  C   UNL A   1      45.998  32.364  28.571  1.00  0.00     0.064 A 
ATOM     92  C   UNL A   1      46.572  32.766  29.786  1.00  0.00     0.173 A 
ATOM     93  C   UNL A   1      45.927  33.306  27.533  1.00  0.00     0.173 A 
ATOM     94  F   UNL A   1      46.648  31.908  30.813  1.00  0.00    -0.203 F 
ATOM     95  C   UNL A   1      47.042  34.066  29.959  1.00  0.00     0.198 A 
ATOM     96  C   UNL A   1      46.427  34.595  27.700  1.00  0.00     0.198 A 
ATOM     97  F   UNL A   1      45.393  32.970  26.349  1.00  0.00    -0.203 F 
ATOM     98  F   UNL A   1      47.549  34.439  31.142  1.00  0.00    -0.200 F 
ATOM     99  C   UNL A   1      46.979  34.975  28.913  1.00  0.00     0.200 A 
ATOM    100  F   UNL A   1      46.380  35.466  26.684  1.00  0.00    -0.200 F 
ATOM    101  F   UNL A   1      47.446  36.220  29.078  1.00  0.00    -0.200 F 
ENDBRANCH  68  91
ENDBRANCH  42  43
ENDBRANCH  34  37
ENDBRANCH  32  33
ENDBRANCH  31  32
ENDBRANCH  30  31
ENDBRANCH   1  30
TORSDOF 17
ENDMDL
