MODEL 1
REMARK VINA RESULT:     -12.2      0.000      0.000
REMARK SMILES C[C@H](NC1=[NH+]S(=O)(=O)c2ccccc21)C(=O)NCCCCCCNC(=O)c1ccc(-c2c3nc(c(-c4c(F)c(F)c(F)c(F)c4F)c4ccc([nH]4)c(-c4c(F)c(F)c(F)c(F)c4F)c4nc(c(-c5c(F)c(F)c(F)c(F)c5F)c5ccc2[nH]5)C=C4)C=C3)cc1
REMARK SMILES IDX 21 1 20 2 19 3 18 4 17 5 15 6 16 7 2 9 1 10 3 11 4 12 5 14
REMARK SMILES IDX 14 15 6 16 9 18 13 19 7 20 8 21 10 22 12 23 11 24 22 25
REMARK SMILES IDX 23 26 24 27 25 28 26 30 27 31 28 32 89 33 29 34 88 35 30 36
REMARK SMILES IDX 31 37 32 38 82 39 33 40 87 41 81 42 83 43 34 44 86 45 80 46
REMARK SMILES IDX 79 47 35 49 67 50 47 51 66 52 48 53 51 54 65 55 84 56 49 57
REMARK SMILES IDX 50 58 64 60 85 61 52 62 36 63 37 64 45 65 38 66 39 67 43 68
REMARK SMILES IDX 46 69 40 70 41 71 44 72 42 73 68 74 69 75 77 76 70 77 71 78
REMARK SMILES IDX 75 79 78 80 72 81 73 82 76 83 74 84 53 85 54 86 62 87 55 88
REMARK SMILES IDX 56 89 60 90 63 91 57 92 58 93 61 94 59 95
REMARK H PARENT 17 8 3 13 5 17 24 29 83 48 51 59
REMARK Flexibility Score: inf
ROOT
ATOM      1  C   UNL A   1      31.438  30.775  26.140  1.00  0.00     0.002 C 
ENDROOT
BRANCH   1   2
ATOM      2  C   UNL A   1      32.767  30.107  26.510  1.00  0.00     0.002 C 
BRANCH   2   3
ATOM      3  C   UNL A   1      32.647  28.799  27.299  1.00  0.00     0.021 C 
BRANCH   3   4
ATOM      4  C   UNL A   1      32.486  27.550  26.432  1.00  0.00     0.116 C 
BRANCH   4   5
ATOM      5  N   UNL A   1      31.196  26.923  26.662  1.00  0.00    -0.352 N 
ATOM      6  C   UNL A   1      30.580  25.883  26.025  1.00  0.00     0.264 C 
ATOM      7  O   UNL A   1      29.458  25.559  26.425  1.00  0.00    -0.270 OA
ATOM      8  H   UNL A   1      30.678  27.314  27.402  1.00  0.00     0.163 HD
BRANCH   6   9
ATOM      9  C   UNL A   1      31.269  25.121  24.875  1.00  0.00     0.258 C 
ATOM     10  C   UNL A   1      30.337  25.101  23.662  1.00  0.00     0.069 C 
BRANCH   9  11
ATOM     11  N   UNL A   1      31.659  23.775  25.307  1.00  0.00    -0.262 N 
ATOM     12  C   UNL A   1      32.934  23.281  25.257  1.00  0.00     0.292 C 
ATOM     13  H   UNL A   1      30.953  23.185  25.658  1.00  0.00     0.306 HD
ATOM     14  N   UNL A   1      34.003  24.019  25.205  1.00  0.00    -0.162 N 
ATOM     15  C   UNL A   1      33.166  21.820  25.176  1.00  0.00     0.087 A 
ATOM     16  S   UNL A   1      35.353  23.096  25.070  1.00  0.00     0.329 S 
ATOM     17  H   UNL A   1      34.004  25.002  25.243  1.00  0.00     0.327 HD
ATOM     18  C   UNL A   1      34.514  21.574  25.013  1.00  0.00     0.124 A 
ATOM     19  C   UNL A   1      32.254  20.779  25.131  1.00  0.00     0.018 A 
ATOM     20  O   UNL A   1      36.108  23.116  26.300  1.00  0.00    -0.179 OA
ATOM     21  O   UNL A   1      35.962  23.292  23.770  1.00  0.00    -0.179 OA
ATOM     22  C   UNL A   1      35.032  20.317  24.768  1.00  0.00     0.025 A 
ATOM     23  C   UNL A   1      32.744  19.489  24.897  1.00  0.00     0.001 A 
ATOM     24  C   UNL A   1      34.121  19.262  24.709  1.00  0.00     0.002 A 
ENDBRANCH   9  11
ENDBRANCH   6   9
ENDBRANCH   4   5
ENDBRANCH   3   4
ENDBRANCH   2   3
ENDBRANCH   1   2
BRANCH   1  25
ATOM     25  C   UNL A   1      31.322  32.258  26.503  1.00  0.00     0.021 C 
BRANCH  25  26
ATOM     26  C   UNL A   1      32.521  32.840  27.248  1.00  0.00     0.116 C 
BRANCH  26  27
ATOM     27  N   UNL A   1      32.323  34.229  27.623  1.00  0.00    -0.352 N 
ATOM     28  C   UNL A   1      32.967  34.975  28.579  1.00  0.00     0.251 C 
ATOM     29  H   UNL A   1      31.626  34.706  27.118  1.00  0.00     0.163 HD
ATOM     30  O   UNL A   1      32.561  36.098  28.862  1.00  0.00    -0.269 OA
BRANCH  28  31
ATOM     31  C   UNL A   1      34.141  34.420  29.288  1.00  0.00     0.039 A 
ATOM     32  C   UNL A   1      33.935  33.717  30.479  1.00  0.00     0.014 A 
ATOM     33  C   UNL A   1      35.437  34.609  28.801  1.00  0.00     0.014 A 
ATOM     34  C   UNL A   1      35.022  33.153  31.150  1.00  0.00     0.010 A 
ATOM     35  C   UNL A   1      36.515  33.998  29.439  1.00  0.00     0.010 A 
ATOM     36  C   UNL A   1      36.317  33.266  30.620  1.00  0.00    -0.014 A 
BRANCH  36  37
ATOM     37  C   UNL A   1      37.478  32.626  31.289  1.00  0.00     0.031 A 
ATOM     38  C   UNL A   1      38.210  31.499  30.619  1.00  0.00     0.074 A 
ATOM     39  C   UNL A   1      37.831  33.018  32.528  1.00  0.00     0.049 A 
ATOM     40  N   UNL A   1      39.193  30.764  31.072  1.00  0.00    -0.248 NA
ATOM     41  C   UNL A   1      37.760  31.133  29.267  1.00  0.00     0.031 C 
ATOM     42  C   UNL A   1      37.174  34.072  33.301  1.00  0.00     0.029 A 
ATOM     43  N   UNL A   1      38.824  32.564  33.361  1.00  0.00    -0.354 N 
ATOM     44  C   UNL A   1      39.466  29.840  30.072  1.00  0.00     0.074 A 
ATOM     45  C   UNL A   1      38.519  30.079  29.006  1.00  0.00     0.031 C 
ATOM     46  C   UNL A   1      37.792  34.196  34.487  1.00  0.00     0.029 A 
ATOM     47  C   UNL A   1      38.865  33.211  34.571  1.00  0.00     0.049 A 
ATOM     48  H   UNL A   1      39.447  31.843  33.113  1.00  0.00     0.167 HD
ATOM     49  C   UNL A   1      40.433  28.891  30.040  1.00  0.00     0.037 A 
ATOM     50  C   UNL A   1      39.676  33.026  35.630  1.00  0.00     0.037 A 
ATOM     51  C   UNL A   1      41.397  28.677  31.087  1.00  0.00     0.049 A 
ATOM     52  C   UNL A   1      40.746  31.971  35.565  1.00  0.00     0.074 A 
ATOM     53  C   UNL A   1      42.455  27.785  31.118  1.00  0.00     0.029 A 
ATOM     54  N   UNL A   1      41.421  29.368  32.289  1.00  0.00    -0.354 N 
ATOM     55  N   UNL A   1      41.031  31.143  34.591  1.00  0.00    -0.248 NA
ATOM     56  C   UNL A   1      41.608  31.829  36.747  1.00  0.00     0.031 C 
ATOM     57  C   UNL A   1      43.099  27.912  32.355  1.00  0.00     0.029 A 
ATOM     58  C   UNL A   1      42.466  28.910  33.077  1.00  0.00     0.049 A 
ATOM     59  H   UNL A   1      40.791  30.079  32.545  1.00  0.00     0.167 HD
ATOM     60  C   UNL A   1      42.120  30.401  35.029  1.00  0.00     0.074 A 
ATOM     61  C   UNL A   1      42.450  30.884  36.353  1.00  0.00     0.031 C 
ATOM     62  C   UNL A   1      42.785  29.408  34.390  1.00  0.00     0.037 A 
BRANCH  49  63
ATOM     63  C   UNL A   1      40.498  28.012  28.826  1.00  0.00     0.064 A 
ATOM     64  C   UNL A   1      39.782  26.808  28.753  1.00  0.00     0.173 A 
ATOM     65  C   UNL A   1      41.258  28.394  27.710  1.00  0.00     0.173 A 
ATOM     66  F   UNL A   1      39.051  26.393  29.798  1.00  0.00    -0.203 F 
ATOM     67  C   UNL A   1      39.848  26.003  27.618  1.00  0.00     0.198 A 
ATOM     68  C   UNL A   1      41.300  27.601  26.568  1.00  0.00     0.198 A 
ATOM     69  F   UNL A   1      41.957  29.539  27.728  1.00  0.00    -0.203 F 
ATOM     70  F   UNL A   1      39.195  24.834  27.590  1.00  0.00    -0.200 F 
ATOM     71  C   UNL A   1      40.603  26.403  26.525  1.00  0.00     0.200 A 
ATOM     72  F   UNL A   1      42.022  27.992  25.508  1.00  0.00    -0.200 F 
ATOM     73  F   UNL A   1      40.663  25.629  25.433  1.00  0.00    -0.200 F 
ENDBRANCH  49  63
BRANCH  50  74
ATOM     74  C   UNL A   1      39.526  33.882  36.834  1.00  0.00     0.064 A 
ATOM     75  C   UNL A   1      40.146  35.137  36.902  1.00  0.00     0.173 A 
ATOM     76  C   UNL A   1      38.763  33.468  37.935  1.00  0.00     0.173 A 
ATOM     77  F   UNL A   1      40.903  35.565  35.880  1.00  0.00    -0.203 F 
ATOM     78  C   UNL A   1      40.022  35.940  38.034  1.00  0.00     0.198 A 
ATOM     79  C   UNL A   1      38.621  34.282  39.056  1.00  0.00     0.198 A 
ATOM     80  F   UNL A   1      38.147  32.277  37.915  1.00  0.00    -0.203 F 
ATOM     81  F   UNL A   1      40.658  37.119  38.088  1.00  0.00    -0.200 F 
ATOM     82  C   UNL A   1      39.257  35.514  39.108  1.00  0.00     0.200 A 
ATOM     83  F   UNL A   1      37.870  33.872  40.088  1.00  0.00    -0.200 F 
ATOM     84  F   UNL A   1      39.133  36.288  40.194  1.00  0.00    -0.200 F 
ENDBRANCH  50  74
BRANCH  62  85
ATOM     85  C   UNL A   1      43.958  28.801  35.100  1.00  0.00     0.064 A 
ATOM     86  C   UNL A   1      45.252  29.321  34.956  1.00  0.00     0.173 A 
ATOM     87  C   UNL A   1      43.777  27.709  35.963  1.00  0.00     0.173 A 
ATOM     88  F   UNL A   1      45.476  30.354  34.131  1.00  0.00    -0.203 F 
ATOM     89  C   UNL A   1      46.327  28.757  35.636  1.00  0.00     0.198 A 
ATOM     90  C   UNL A   1      44.852  27.163  36.660  1.00  0.00     0.198 A 
ATOM     91  F   UNL A   1      42.557  27.179  36.137  1.00  0.00    -0.203 F 
ATOM     92  F   UNL A   1      47.563  29.245  35.454  1.00  0.00    -0.200 F 
ATOM     93  C   UNL A   1      46.126  27.684  36.492  1.00  0.00     0.200 A 
ATOM     94  F   UNL A   1      44.654  26.132  37.493  1.00  0.00    -0.200 F 
ATOM     95  F   UNL A   1      47.163  27.146  37.150  1.00  0.00    -0.200 F 
ENDBRANCH  62  85
ENDBRANCH  36  37
ENDBRANCH  28  31
ENDBRANCH  26  27
ENDBRANCH  25  26
ENDBRANCH   1  25
TORSDOF 14
ENDMDL
MODEL 2
REMARK VINA RESULT:     -12.2      2.706      8.318
REMARK SMILES C[C@H](NC1=[NH+]S(=O)(=O)c2ccccc21)C(=O)NCCCCCCNC(=O)c1ccc(-c2c3nc(c(-c4c(F)c(F)c(F)c(F)c4F)c4ccc([nH]4)c(-c4c(F)c(F)c(F)c(F)c4F)c4nc(c(-c5c(F)c(F)c(F)c(F)c5F)c5ccc2[nH]5)C=C4)C=C3)cc1
REMARK SMILES IDX 21 1 20 2 19 3 18 4 17 5 15 6 16 7 2 9 1 10 3 11 4 12 5 14
REMARK SMILES IDX 14 15 6 16 9 18 13 19 7 20 8 21 10 22 12 23 11 24 22 25
REMARK SMILES IDX 23 26 24 27 25 28 26 30 27 31 28 32 89 33 29 34 88 35 30 36
REMARK SMILES IDX 31 37 32 38 82 39 33 40 87 41 81 42 83 43 34 44 86 45 80 46
REMARK SMILES IDX 79 47 35 49 67 50 47 51 66 52 48 53 51 54 65 55 84 56 49 57
REMARK SMILES IDX 50 58 64 60 85 61 52 62 36 63 37 64 45 65 38 66 39 67 43 68
REMARK SMILES IDX 46 69 40 70 41 71 44 72 42 73 68 74 69 75 77 76 70 77 71 78
REMARK SMILES IDX 75 79 78 80 72 81 73 82 76 83 74 84 53 85 54 86 62 87 55 88
REMARK SMILES IDX 56 89 60 90 63 91 57 92 58 93 61 94 59 95
REMARK H PARENT 17 8 3 13 5 17 24 29 83 48 51 59
REMARK Flexibility Score: inf
ROOT
ATOM      1  C   UNL A   1      33.371  35.121  28.786  1.00  0.00     0.002 C 
ENDROOT
BRANCH   1   2
ATOM      2  C   UNL A   1      34.785  34.557  28.975  1.00  0.00     0.002 C 
BRANCH   2   3
ATOM      3  C   UNL A   1      34.860  33.052  29.252  1.00  0.00     0.021 C 
BRANCH   3   4
ATOM      4  C   UNL A   1      34.009  32.193  28.315  1.00  0.00     0.116 C 
BRANCH   4   5
ATOM      5  N   UNL A   1      34.618  30.890  28.111  1.00  0.00    -0.352 N 
ATOM      6  C   UNL A   1      34.289  29.871  27.263  1.00  0.00     0.264 C 
ATOM      7  O   UNL A   1      34.982  28.851  27.308  1.00  0.00    -0.270 OA
ATOM      8  H   UNL A   1      35.402  30.713  28.679  1.00  0.00     0.163 HD
BRANCH   6   9
ATOM      9  C   UNL A   1      33.119  29.999  26.266  1.00  0.00     0.258 C 
ATOM     10  C   UNL A   1      31.826  29.562  26.957  1.00  0.00     0.069 C 
BRANCH   9  11
ATOM     11  N   UNL A   1      33.392  29.231  25.047  1.00  0.00    -0.262 N 
ATOM     12  C   UNL A   1      32.450  28.891  24.115  1.00  0.00     0.292 C 
ATOM     13  H   UNL A   1      34.320  28.940  24.888  1.00  0.00     0.306 HD
ATOM     14  N   UNL A   1      31.314  29.505  23.964  1.00  0.00    -0.162 N 
ATOM     15  C   UNL A   1      32.652  27.708  23.247  1.00  0.00     0.087 A 
ATOM     16  S   UNL A   1      30.398  28.780  22.812  1.00  0.00     0.329 S 
ATOM     17  H   UNL A   1      31.040  30.302  24.473  1.00  0.00     0.327 HD
ATOM     18  C   UNL A   1      31.523  27.498  22.481  1.00  0.00     0.124 A 
ATOM     19  C   UNL A   1      33.701  26.805  23.209  1.00  0.00     0.018 A 
ATOM     20  O   UNL A   1      30.331  29.600  21.625  1.00  0.00    -0.179 OA
ATOM     21  O   UNL A   1      29.229  28.173  23.416  1.00  0.00    -0.179 OA
ATOM     22  C   UNL A   1      31.350  26.391  21.673  1.00  0.00     0.025 A 
ATOM     23  C   UNL A   1      33.566  25.678  22.391  1.00  0.00     0.001 A 
ATOM     24  C   UNL A   1      32.396  25.469  21.635  1.00  0.00     0.002 A 
ENDBRANCH   9  11
ENDBRANCH   6   9
ENDBRANCH   4   5
ENDBRANCH   3   4
ENDBRANCH   2   3
ENDBRANCH   1   2
BRANCH   1  25
ATOM     25  C   UNL A   1      33.226  36.627  29.017  1.00  0.00     0.021 C 
BRANCH  25  26
ATOM     26  C   UNL A   1      33.468  37.090  30.452  1.00  0.00     0.116 C 
BRANCH  26  27
ATOM     27  N   UNL A   1      32.422  36.657  31.362  1.00  0.00    -0.352 N 
ATOM     28  C   UNL A   1      32.425  35.626  32.268  1.00  0.00     0.251 C 
ATOM     29  H   UNL A   1      31.588  37.178  31.322  1.00  0.00     0.163 HD
ATOM     30  O   UNL A   1      31.390  35.311  32.848  1.00  0.00    -0.269 OA
BRANCH  28  31
ATOM     31  C   UNL A   1      33.671  34.875  32.534  1.00  0.00     0.039 A 
ATOM     32  C   UNL A   1      34.891  35.557  32.481  1.00  0.00     0.014 A 
ATOM     33  C   UNL A   1      33.646  33.505  32.811  1.00  0.00     0.014 A 
ATOM     34  C   UNL A   1      36.079  34.881  32.763  1.00  0.00     0.010 A 
ATOM     35  C   UNL A   1      34.825  32.844  33.149  1.00  0.00     0.010 A 
ATOM     36  C   UNL A   1      36.052  33.525  33.126  1.00  0.00    -0.014 A 
BRANCH  36  37
ATOM     37  C   UNL A   1      37.299  32.802  33.485  1.00  0.00     0.031 A 
ATOM     38  C   UNL A   1      38.007  33.108  34.773  1.00  0.00     0.074 A 
ATOM     39  C   UNL A   1      37.827  31.918  32.617  1.00  0.00     0.049 A 
ATOM     40  N   UNL A   1      39.143  32.642  35.225  1.00  0.00    -0.248 NA
ATOM     41  C   UNL A   1      37.362  34.086  35.663  1.00  0.00     0.031 C 
ATOM     42  C   UNL A   1      37.257  31.564  31.317  1.00  0.00     0.029 A 
ATOM     43  N   UNL A   1      38.972  31.163  32.695  1.00  0.00    -0.354 N 
ATOM     44  C   UNL A   1      39.359  33.282  36.438  1.00  0.00     0.074 A 
ATOM     45  C   UNL A   1      38.258  34.199  36.633  1.00  0.00     0.031 C 
ATOM     46  C   UNL A   1      38.044  30.650  30.726  1.00  0.00     0.029 A 
ATOM     47  C   UNL A   1      39.188  30.376  31.591  1.00  0.00     0.049 A 
ATOM     48  H   UNL A   1      39.579  31.184  33.470  1.00  0.00     0.167 HD
ATOM     49  C   UNL A   1      40.374  33.105  37.318  1.00  0.00     0.037 A 
ATOM     50  C   UNL A   1      40.199  29.534  31.307  1.00  0.00     0.037 A 
ATOM     51  C   UNL A   1      41.450  32.166  37.139  1.00  0.00     0.049 A 
ATOM     52  C   UNL A   1      41.310  29.350  32.304  1.00  0.00     0.074 A 
ATOM     53  C   UNL A   1      42.489  31.868  38.004  1.00  0.00     0.029 A 
ATOM     54  N   UNL A   1      41.624  31.371  36.017  1.00  0.00    -0.354 N 
ATOM     55  N   UNL A   1      41.471  29.918  33.474  1.00  0.00    -0.248 NA
ATOM     56  C   UNL A   1      42.375  28.405  31.942  1.00  0.00     0.031 C 
ATOM     57  C   UNL A   1      43.311  30.917  37.389  1.00  0.00     0.029 A 
ATOM     58  C   UNL A   1      42.763  30.594  36.159  1.00  0.00     0.049 A 
ATOM     59  H   UNL A   1      41.026  31.359  35.235  1.00  0.00     0.167 HD
ATOM     60  C   UNL A   1      42.640  29.382  33.999  1.00  0.00     0.074 A 
ATOM     61  C   UNL A   1      43.140  28.435  33.024  1.00  0.00     0.031 C 
ATOM     62  C   UNL A   1      43.242  29.650  35.183  1.00  0.00     0.037 A 
BRANCH  49  63
ATOM     63  C   UNL A   1      40.364  33.945  38.560  1.00  0.00     0.064 A 
ATOM     64  C   UNL A   1      41.049  35.167  38.626  1.00  0.00     0.173 A 
ATOM     65  C   UNL A   1      39.635  33.539  39.689  1.00  0.00     0.173 A 
ATOM     66  F   UNL A   1      41.770  35.593  37.578  1.00  0.00    -0.203 F 
ATOM     67  C   UNL A   1      41.029  35.939  39.785  1.00  0.00     0.198 A 
ATOM     68  C   UNL A   1      39.595  34.326  40.836  1.00  0.00     0.198 A 
ATOM     69  F   UNL A   1      38.960  32.380  39.676  1.00  0.00    -0.203 F 
ATOM     70  F   UNL A   1      41.730  37.079  39.840  1.00  0.00    -0.200 F 
ATOM     71  C   UNL A   1      40.297  35.520  40.887  1.00  0.00     0.200 A 
ATOM     72  F   UNL A   1      38.881  33.925  41.898  1.00  0.00    -0.200 F 
ATOM     73  F   UNL A   1      40.277  36.266  42.000  1.00  0.00    -0.200 F 
ENDBRANCH  49  63
BRANCH  50  74
ATOM     74  C   UNL A   1      40.192  28.775  30.030  1.00  0.00     0.064 A 
ATOM     75  C   UNL A   1      39.543  27.536  29.938  1.00  0.00     0.173 A 
ATOM     76  C   UNL A   1      40.828  29.268  28.883  1.00  0.00     0.173 A 
ATOM     77  F   UNL A   1      38.940  27.015  31.017  1.00  0.00    -0.203 F 
ATOM     78  C   UNL A   1      39.544  26.810  28.749  1.00  0.00     0.198 A 
ATOM     79  C   UNL A   1      40.808  28.553  27.688  1.00  0.00     0.198 A 
ATOM     80  F   UNL A   1      41.458  30.451  28.920  1.00  0.00    -0.203 F 
ATOM     81  F   UNL A   1      38.950  25.610  28.699  1.00  0.00    -0.200 F 
ATOM     82  C   UNL A   1      40.172  27.321  27.624  1.00  0.00     0.200 A 
ATOM     83  F   UNL A   1      41.405  29.055  26.599  1.00  0.00    -0.200 F 
ATOM     84  F   UNL A   1      40.169  26.626  26.479  1.00  0.00    -0.200 F 
ENDBRANCH  50  74
BRANCH  62  85
ATOM     85  C   UNL A   1      44.492  28.887  35.504  1.00  0.00     0.064 A 
ATOM     86  C   UNL A   1      44.446  27.654  36.170  1.00  0.00     0.173 A 
ATOM     87  C   UNL A   1      45.745  29.378  35.110  1.00  0.00     0.173 A 
ATOM     88  F   UNL A   1      43.271  27.151  36.581  1.00  0.00    -0.203 F 
ATOM     89  C   UNL A   1      45.613  26.948  36.447  1.00  0.00     0.198 A 
ATOM     90  C   UNL A   1      46.909  28.658  35.367  1.00  0.00     0.198 A 
ATOM     91  F   UNL A   1      45.840  30.552  34.467  1.00  0.00    -0.203 F 
ATOM     92  F   UNL A   1      45.551  25.790  37.118  1.00  0.00    -0.200 F 
ATOM     93  C   UNL A   1      46.842  27.447  36.039  1.00  0.00     0.200 A 
ATOM     94  F   UNL A   1      48.094  29.136  34.965  1.00  0.00    -0.200 F 
ATOM     95  F   UNL A   1      47.965  26.763  36.302  1.00  0.00    -0.200 F 
ENDBRANCH  62  85
ENDBRANCH  36  37
ENDBRANCH  28  31
ENDBRANCH  26  27
ENDBRANCH  25  26
ENDBRANCH   1  25
TORSDOF 14
ENDMDL
MODEL 3
REMARK VINA RESULT:     -12.2      1.300      2.602
REMARK SMILES C[C@H](NC1=[NH+]S(=O)(=O)c2ccccc21)C(=O)NCCCCCCNC(=O)c1ccc(-c2c3nc(c(-c4c(F)c(F)c(F)c(F)c4F)c4ccc([nH]4)c(-c4c(F)c(F)c(F)c(F)c4F)c4nc(c(-c5c(F)c(F)c(F)c(F)c5F)c5ccc2[nH]5)C=C4)C=C3)cc1
REMARK SMILES IDX 21 1 20 2 19 3 18 4 17 5 15 6 16 7 2 9 1 10 3 11 4 12 5 14
REMARK SMILES IDX 14 15 6 16 9 18 13 19 7 20 8 21 10 22 12 23 11 24 22 25
REMARK SMILES IDX 23 26 24 27 25 28 26 30 27 31 28 32 89 33 29 34 88 35 30 36
REMARK SMILES IDX 31 37 32 38 82 39 33 40 87 41 81 42 83 43 34 44 86 45 80 46
REMARK SMILES IDX 79 47 35 49 67 50 47 51 66 52 48 53 51 54 65 55 84 56 49 57
REMARK SMILES IDX 50 58 64 60 85 61 52 62 36 63 37 64 45 65 38 66 39 67 43 68
REMARK SMILES IDX 46 69 40 70 41 71 44 72 42 73 68 74 69 75 77 76 70 77 71 78
REMARK SMILES IDX 75 79 78 80 72 81 73 82 76 83 74 84 53 85 54 86 62 87 55 88
REMARK SMILES IDX 56 89 60 90 63 91 57 92 58 93 61 94 59 95
REMARK H PARENT 17 8 3 13 5 17 24 29 83 48 51 59
REMARK Flexibility Score: inf
ROOT
ATOM      1  C   UNL A   1      31.378  30.683  26.493  1.00  0.00     0.002 C 
ENDROOT
BRANCH   1   2
ATOM      2  C   UNL A   1      31.821  30.013  25.188  1.00  0.00     0.002 C 
BRANCH   2   3
ATOM      3  C   UNL A   1      30.686  29.557  24.265  1.00  0.00     0.021 C 
BRANCH   3   4
ATOM      4  C   UNL A   1      30.773  28.093  23.831  1.00  0.00     0.116 C 
BRANCH   4   5
ATOM      5  N   UNL A   1      31.865  27.896  22.894  1.00  0.00    -0.352 N 
ATOM      6  C   UNL A   1      33.004  27.147  22.991  1.00  0.00     0.264 C 
ATOM      7  O   UNL A   1      33.781  27.172  22.033  1.00  0.00    -0.270 OA
ATOM      8  H   UNL A   1      31.767  28.383  22.044  1.00  0.00     0.163 HD
BRANCH   6   9
ATOM      9  C   UNL A   1      33.294  26.279  24.233  1.00  0.00     0.258 C 
ATOM     10  C   UNL A   1      33.804  27.178  25.361  1.00  0.00     0.069 C 
BRANCH   9  11
ATOM     11  N   UNL A   1      34.233  25.203  23.903  1.00  0.00    -0.262 N 
ATOM     12  C   UNL A   1      33.986  23.870  24.091  1.00  0.00     0.292 C 
ATOM     13  H   UNL A   1      35.104  25.457  23.520  1.00  0.00     0.306 HD
ATOM     14  N   UNL A   1      32.797  23.355  24.202  1.00  0.00    -0.162 N 
ATOM     15  C   UNL A   1      35.108  22.919  24.264  1.00  0.00     0.087 A 
ATOM     16  S   UNL A   1      32.876  21.744  24.501  1.00  0.00     0.329 S 
ATOM     17  H   UNL A   1      31.960  23.864  24.116  1.00  0.00     0.327 HD
ATOM     18  C   UNL A   1      34.612  21.666  24.557  1.00  0.00     0.124 A 
ATOM     19  C   UNL A   1      36.473  23.153  24.278  1.00  0.00     0.018 A 
ATOM     20  O   UNL A   1      32.457  20.990  23.343  1.00  0.00    -0.179 OA
ATOM     21  O   UNL A   1      32.396  21.462  25.839  1.00  0.00    -0.179 OA
ATOM     22  C   UNL A   1      35.412  20.596  24.909  1.00  0.00     0.025 A 
ATOM     23  C   UNL A   1      37.316  22.088  24.618  1.00  0.00     0.001 A 
ATOM     24  C   UNL A   1      36.789  20.822  24.938  1.00  0.00     0.002 A 
ENDBRANCH   9  11
ENDBRANCH   6   9
ENDBRANCH   4   5
ENDBRANCH   3   4
ENDBRANCH   2   3
ENDBRANCH   1   2
BRANCH   1  25
ATOM     25  C   UNL A   1      31.407  32.213  26.492  1.00  0.00     0.021 C 
BRANCH  25  26
ATOM     26  C   UNL A   1      32.622  32.840  27.173  1.00  0.00     0.116 C 
BRANCH  26  27
ATOM     27  N   UNL A   1      32.378  34.207  27.599  1.00  0.00    -0.352 N 
ATOM     28  C   UNL A   1      32.986  34.933  28.592  1.00  0.00     0.251 C 
ATOM     29  H   UNL A   1      31.674  34.683  27.102  1.00  0.00     0.163 HD
ATOM     30  O   UNL A   1      32.544  36.032  28.913  1.00  0.00    -0.269 OA
BRANCH  28  31
ATOM     31  C   UNL A   1      34.166  34.385  29.297  1.00  0.00     0.039 A 
ATOM     32  C   UNL A   1      33.971  33.710  30.507  1.00  0.00     0.014 A 
ATOM     33  C   UNL A   1      35.456  34.553  28.788  1.00  0.00     0.014 A 
ATOM     34  C   UNL A   1      35.063  33.152  31.175  1.00  0.00     0.010 A 
ATOM     35  C   UNL A   1      36.538  33.947  29.425  1.00  0.00     0.010 A 
ATOM     36  C   UNL A   1      36.351  33.243  30.624  1.00  0.00    -0.014 A 
BRANCH  36  37
ATOM     37  C   UNL A   1      37.517  32.608  31.291  1.00  0.00     0.031 A 
ATOM     38  C   UNL A   1      38.250  31.483  30.621  1.00  0.00     0.074 A 
ATOM     39  C   UNL A   1      37.872  33.004  32.528  1.00  0.00     0.049 A 
ATOM     40  N   UNL A   1      39.238  30.752  31.073  1.00  0.00    -0.248 NA
ATOM     41  C   UNL A   1      37.798  31.112  29.271  1.00  0.00     0.031 C 
ATOM     42  C   UNL A   1      37.214  34.058  33.301  1.00  0.00     0.029 A 
ATOM     43  N   UNL A   1      38.869  32.556  33.359  1.00  0.00    -0.354 N 
ATOM     44  C   UNL A   1      39.511  29.827  30.074  1.00  0.00     0.074 A 
ATOM     45  C   UNL A   1      38.560  30.060  29.010  1.00  0.00     0.031 C 
ATOM     46  C   UNL A   1      37.835  34.187  34.485  1.00  0.00     0.029 A 
ATOM     47  C   UNL A   1      38.912  33.206  34.567  1.00  0.00     0.049 A 
ATOM     48  H   UNL A   1      39.494  31.837  33.110  1.00  0.00     0.167 HD
ATOM     49  C   UNL A   1      40.482  28.882  30.041  1.00  0.00     0.037 A 
ATOM     50  C   UNL A   1      39.727  33.026  35.624  1.00  0.00     0.037 A 
ATOM     51  C   UNL A   1      41.449  28.674  31.085  1.00  0.00     0.049 A 
ATOM     52  C   UNL A   1      40.800  31.975  35.559  1.00  0.00     0.074 A 
ATOM     53  C   UNL A   1      42.511  27.786  31.115  1.00  0.00     0.029 A 
ATOM     54  N   UNL A   1      41.475  29.367  32.286  1.00  0.00    -0.354 N 
ATOM     55  N   UNL A   1      41.085  31.146  34.585  1.00  0.00    -0.248 NA
ATOM     56  C   UNL A   1      41.666  31.839  36.738  1.00  0.00     0.031 C 
ATOM     57  C   UNL A   1      43.158  27.917  32.349  1.00  0.00     0.029 A 
ATOM     58  C   UNL A   1      42.523  28.915  33.072  1.00  0.00     0.049 A 
ATOM     59  H   UNL A   1      40.842  30.076  32.542  1.00  0.00     0.167 HD
ATOM     60  C   UNL A   1      42.178  30.408  35.021  1.00  0.00     0.074 A 
ATOM     61  C   UNL A   1      42.510  30.896  36.343  1.00  0.00     0.031 C 
ATOM     62  C   UNL A   1      42.845  29.417  34.382  1.00  0.00     0.037 A 
BRANCH  49  63
ATOM     63  C   UNL A   1      40.545  28.001  28.829  1.00  0.00     0.064 A 
ATOM     64  C   UNL A   1      41.331  28.336  27.717  1.00  0.00     0.173 A 
ATOM     65  C   UNL A   1      39.838  26.789  28.792  1.00  0.00     0.173 A 
ATOM     66  F   UNL A   1      42.016  29.490  27.699  1.00  0.00    -0.203 F 
ATOM     67  C   UNL A   1      41.384  27.507  26.599  1.00  0.00     0.198 A 
ATOM     68  C   UNL A   1      39.914  25.950  27.684  1.00  0.00     0.198 A 
ATOM     69  F   UNL A   1      39.075  26.419  29.831  1.00  0.00    -0.203 F 
ATOM     70  F   UNL A   1      42.103  27.873  25.530  1.00  0.00    -0.200 F 
ATOM     71  C   UNL A   1      40.680  26.312  26.587  1.00  0.00     0.200 A 
ATOM     72  F   UNL A   1      39.241  24.790  27.676  1.00  0.00    -0.200 F 
ATOM     73  F   UNL A   1      40.734  25.514  25.511  1.00  0.00    -0.200 F 
ENDBRANCH  49  63
BRANCH  50  74
ATOM     74  C   UNL A   1      39.577  33.884  36.827  1.00  0.00     0.064 A 
ATOM     75  C   UNL A   1      38.823  33.451  37.925  1.00  0.00     0.173 A 
ATOM     76  C   UNL A   1      40.184  35.146  36.905  1.00  0.00     0.173 A 
ATOM     77  F   UNL A   1      38.207  32.260  37.885  1.00  0.00    -0.203 F 
ATOM     78  C   UNL A   1      38.665  34.256  39.052  1.00  0.00     0.198 A 
ATOM     79  C   UNL A   1      40.046  35.939  38.042  1.00  0.00     0.198 A 
ATOM     80  F   UNL A   1      40.920  35.602  35.881  1.00  0.00    -0.203 F 
ATOM     81  F   UNL A   1      37.906  33.834  40.072  1.00  0.00    -0.200 F 
ATOM     82  C   UNL A   1      39.280  35.497  39.111  1.00  0.00     0.200 A 
ATOM     83  F   UNL A   1      40.651  37.133  38.101  1.00  0.00    -0.200 F 
ATOM     84  F   UNL A   1      39.134  36.268  40.197  1.00  0.00    -0.200 F 
ENDBRANCH  50  74
BRANCH  62  85
ATOM     85  C   UNL A   1      44.022  28.815  35.091  1.00  0.00     0.064 A 
ATOM     86  C   UNL A   1      43.881  27.700  35.928  1.00  0.00     0.173 A 
ATOM     87  C   UNL A   1      45.309  29.339  34.900  1.00  0.00     0.173 A 
ATOM     88  F   UNL A   1      42.667  27.174  36.154  1.00  0.00    -0.203 F 
ATOM     89  C   UNL A   1      44.985  27.142  36.566  1.00  0.00     0.198 A 
ATOM     90  C   UNL A   1      46.415  28.764  35.520  1.00  0.00     0.198 A 
ATOM     91  F   UNL A   1      45.496  30.403  34.104  1.00  0.00    -0.203 F 
ATOM     92  F   UNL A   1      44.823  26.100  37.394  1.00  0.00    -0.200 F 
ATOM     93  C   UNL A   1      46.251  27.669  36.356  1.00  0.00     0.200 A 
ATOM     94  F   UNL A   1      47.638  29.268  35.310  1.00  0.00    -0.200 F 
ATOM     95  F   UNL A   1      47.314  27.126  36.967  1.00  0.00    -0.200 F 
ENDBRANCH  62  85
ENDBRANCH  36  37
ENDBRANCH  28  31
ENDBRANCH  26  27
ENDBRANCH  25  26
ENDBRANCH   1  25
TORSDOF 14
ENDMDL
