MODEL 1
REMARK VINA RESULT:     -12.2      0.000      0.000
REMARK SMILES CC(C)(C)OC(=O)N1CC[C@@H]([NH2+]Cc2cccc(Br)c2)[C@@H](C(=O)NCCCCCCNC(=O)c2ccc(-c3c4nc(c(-c5c(F)c(F)c(F)c(F)c5F)c5ccc([nH]5)c(-c5c(F)c(F)c(F)c(F)c5F)c5nc(c(-c6c(F)c(F)c(F)c(F)c6F)c6ccc3[nH]6)C=C5)C=C4)cc2)C1
REMARK SMILES IDX 27 1 26 2 25 3 24 4 22 5 23 6 21 8 8 9 9 10 97 11 10 12
REMARK SMILES IDX 11 13 6 14 7 15 5 16 2 17 1 18 3 19 4 20 12 21 13 24 14 25
REMARK SMILES IDX 15 26 20 27 16 28 18 29 17 30 19 31 28 32 29 33 30 34 31 35
REMARK SMILES IDX 32 36 33 38 34 39 35 40 96 41 36 42 95 43 37 44 38 45 39 46
REMARK SMILES IDX 89 47 40 48 94 49 88 50 90 51 41 52 93 53 87 54 86 55 42 57
REMARK SMILES IDX 74 58 54 59 73 60 55 61 58 62 72 63 91 64 56 65 57 66 71 68
REMARK SMILES IDX 92 69 59 70 43 71 44 72 52 73 45 74 46 75 50 76 53 77 47 78
REMARK SMILES IDX 48 79 51 80 49 81 75 82 76 83 84 84 77 85 78 86 82 87 85 88
REMARK SMILES IDX 79 89 80 90 83 91 81 92 60 93 61 94 69 95 62 96 63 97 67 98
REMARK SMILES IDX 70 99 64 100 65 101 68 102 66 103
REMARK H PARENT 24 7 12 22 12 23 31 37 90 56 58 67
REMARK Flexibility Score: inf
ROOT
ATOM      1  C   UNL A   1      32.738  29.642  26.290  1.00  0.00     0.002 C 
ENDROOT
BRANCH   1   2
ATOM      2  C   UNL A   1      32.290  28.896  27.551  1.00  0.00     0.021 C 
BRANCH   2   3
ATOM      3  C   UNL A   1      32.232  27.382  27.405  1.00  0.00     0.116 C 
BRANCH   3   4
ATOM      4  N   UNL A   1      30.965  26.938  26.860  1.00  0.00    -0.356 N 
ATOM      5  C   UNL A   1      30.725  26.099  25.816  1.00  0.00     0.230 C 
ATOM      6  O   UNL A   1      29.552  25.861  25.528  1.00  0.00    -0.274 OA
ATOM      7  H   UNL A   1      30.164  27.294  27.310  1.00  0.00     0.163 HD
BRANCH   5   8
ATOM      8  C   UNL A   1      31.899  25.515  25.047  1.00  0.00     0.156 C 
ATOM      9  N   UNL A   1      32.723  23.629  23.754  1.00  0.00    -0.307 N 
ATOM     10  C   UNL A   1      33.482  24.471  22.834  1.00  0.00     0.129 C 
ATOM     11  C   UNL A   1      31.509  24.232  24.296  1.00  0.00     0.142 C 
ATOM     12  C   UNL A   1      33.775  25.850  23.431  1.00  0.00     0.087 C 
ATOM     13  C   UNL A   1      32.526  26.523  24.043  1.00  0.00     0.198 C 
BRANCH   9  14
ATOM     14  C   UNL A   1      33.177  22.375  24.114  1.00  0.00     0.410 C 
ATOM     15  O   UNL A   1      32.521  21.587  24.783  1.00  0.00    -0.224 OA
BRANCH  14  16
ATOM     16  O   UNL A   1      34.434  22.140  23.658  1.00  0.00    -0.444 OA
BRANCH  16  17
ATOM     17  C   UNL A   1      35.603  22.171  24.520  1.00  0.00     0.106 C 
ATOM     18  C   UNL A   1      36.738  22.690  23.623  1.00  0.00     0.056 C 
ATOM     19  C   UNL A   1      35.926  20.743  24.963  1.00  0.00     0.056 C 
ATOM     20  C   UNL A   1      35.480  23.119  25.720  1.00  0.00     0.056 C 
ENDBRANCH  16  17
ENDBRANCH  14  16
ENDBRANCH   9  14
BRANCH  13  21
ATOM     21  N   UNL A   1      31.507  26.889  23.051  1.00  0.00    -0.339 N 
ATOM     22  H   UNL A   1      30.593  26.687  23.458  1.00  0.00     0.346 HD
ATOM     23  H   UNL A   1      31.734  26.343  22.220  1.00  0.00     0.346 HD
BRANCH  21  24
ATOM     24  C   UNL A   1      31.492  28.276  22.602  1.00  0.00     0.297 C 
BRANCH  24  25
ATOM     25  C   UNL A   1      30.072  28.819  22.567  1.00  0.00     0.007 A 
ATOM     26  C   UNL A   1      29.005  28.160  23.206  1.00  0.00     0.009 A 
ATOM     27  C   UNL A   1      29.793  29.982  21.836  1.00  0.00     0.025 A 
ATOM     28  C   UNL A   1      27.703  28.661  23.144  1.00  0.00     0.002 A 
ATOM     29  C   UNL A   1      28.487  30.472  21.766  1.00  0.00     0.018 A 
ATOM     30  C   UNL A   1      27.442  29.820  22.420  1.00  0.00     0.016 A 
ATOM     31  Br  UNL A   1      28.125  32.034  20.764  1.00  0.00    -0.051 Br
ENDBRANCH  24  25
ENDBRANCH  21  24
ENDBRANCH  13  21
ENDBRANCH   5   8
ENDBRANCH   3   4
ENDBRANCH   2   3
ENDBRANCH   1   2
BRANCH   1  32
ATOM     32  C   UNL A   1      31.753  30.690  25.763  1.00  0.00     0.002 C 
BRANCH  32  33
ATOM     33  C   UNL A   1      31.433  31.827  26.735  1.00  0.00     0.021 C 
BRANCH  33  34
ATOM     34  C   UNL A   1      32.652  32.572  27.261  1.00  0.00     0.116 C 
BRANCH  34  35
ATOM     35  N   UNL A   1      32.373  33.971  27.538  1.00  0.00    -0.352 N 
ATOM     36  C   UNL A   1      32.956  34.802  28.463  1.00  0.00     0.251 C 
ATOM     37  H   UNL A   1      31.668  34.380  26.986  1.00  0.00     0.163 HD
ATOM     38  O   UNL A   1      32.494  35.915  28.681  1.00  0.00    -0.269 OA
BRANCH  36  39
ATOM     39  C   UNL A   1      34.134  34.328  29.217  1.00  0.00     0.039 A 
ATOM     40  C   UNL A   1      33.935  33.583  30.382  1.00  0.00     0.014 A 
ATOM     41  C   UNL A   1      35.427  34.595  28.761  1.00  0.00     0.014 A 
ATOM     42  C   UNL A   1      35.035  33.052  31.056  1.00  0.00     0.010 A 
ATOM     43  C   UNL A   1      36.515  33.997  29.386  1.00  0.00     0.010 A 
ATOM     44  C   UNL A   1      36.331  33.223  30.542  1.00  0.00    -0.014 A 
BRANCH  44  45
ATOM     45  C   UNL A   1      37.511  32.607  31.200  1.00  0.00     0.031 A 
ATOM     46  C   UNL A   1      38.230  31.467  30.537  1.00  0.00     0.074 A 
ATOM     47  C   UNL A   1      37.888  33.025  32.424  1.00  0.00     0.049 A 
ATOM     48  N   UNL A   1      39.217  30.734  30.988  1.00  0.00    -0.248 NA
ATOM     49  C   UNL A   1      37.755  31.080  29.200  1.00  0.00     0.031 C 
ATOM     50  C   UNL A   1      37.242  34.092  33.188  1.00  0.00     0.029 A 
ATOM     51  N   UNL A   1      38.896  32.588  33.248  1.00  0.00    -0.354 N 
ATOM     52  C   UNL A   1      39.473  29.798  29.995  1.00  0.00     0.074 A 
ATOM     53  C   UNL A   1      38.496  30.010  28.951  1.00  0.00     0.031 C 
ATOM     54  C   UNL A   1      37.875  34.235  34.363  1.00  0.00     0.029 A 
ATOM     55  C   UNL A   1      38.942  33.242  34.454  1.00  0.00     0.049 A 
ATOM     56  H   UNL A   1      39.526  31.874  32.997  1.00  0.00     0.167 HD
ATOM     57  C   UNL A   1      40.453  28.864  29.947  1.00  0.00     0.037 A 
ATOM     58  C   UNL A   1      39.739  33.048  35.522  1.00  0.00     0.037 A 
ATOM     59  C   UNL A   1      41.426  28.661  30.989  1.00  0.00     0.049 A 
ATOM     60  C   UNL A   1      40.802  31.984  35.461  1.00  0.00     0.074 A 
ATOM     61  C   UNL A   1      42.484  27.772  31.021  1.00  0.00     0.029 A 
ATOM     62  N   UNL A   1      41.452  29.356  32.191  1.00  0.00    -0.354 N 
ATOM     63  N   UNL A   1      41.078  31.146  34.491  1.00  0.00    -0.248 NA
ATOM     64  C   UNL A   1      41.669  31.843  36.640  1.00  0.00     0.031 C 
ATOM     65  C   UNL A   1      43.113  27.884  32.265  1.00  0.00     0.029 A 
ATOM     66  C   UNL A   1      42.492  28.894  32.982  1.00  0.00     0.049 A 
ATOM     67  H   UNL A   1      40.825  30.071  32.443  1.00  0.00     0.167 HD
ATOM     68  C   UNL A   1      42.165  30.400  34.928  1.00  0.00     0.074 A 
ATOM     69  C   UNL A   1      42.505  30.893  36.246  1.00  0.00     0.031 C 
ATOM     70  C   UNL A   1      42.823  29.399  34.292  1.00  0.00     0.037 A 
BRANCH  57  71
ATOM     71  C   UNL A   1      40.514  27.990  28.726  1.00  0.00     0.064 A 
ATOM     72  C   UNL A   1      41.255  28.358  27.591  1.00  0.00     0.173 A 
ATOM     73  C   UNL A   1      39.832  26.763  28.690  1.00  0.00     0.173 A 
ATOM     74  F   UNL A   1      41.918  29.524  27.566  1.00  0.00    -0.203 F 
ATOM     75  C   UNL A   1      41.272  27.555  26.453  1.00  0.00     0.198 A 
ATOM     76  C   UNL A   1      39.884  25.945  27.565  1.00  0.00     0.198 A 
ATOM     77  F   UNL A   1      39.115  26.357  29.748  1.00  0.00    -0.203 F 
ATOM     78  F   UNL A   1      41.930  27.963  25.358  1.00  0.00    -0.200 F 
ATOM     79  C   UNL A   1      40.592  26.347  26.443  1.00  0.00     0.200 A 
ATOM     80  F   UNL A   1      39.239  24.770  27.564  1.00  0.00    -0.200 F 
ATOM     81  F   UNL A   1      40.611  25.575  25.347  1.00  0.00    -0.200 F 
ENDBRANCH  57  71
BRANCH  58  82
ATOM     82  C   UNL A   1      39.562  33.889  36.736  1.00  0.00     0.064 A 
ATOM     83  C   UNL A   1      38.779  33.452  37.813  1.00  0.00     0.173 A 
ATOM     84  C   UNL A   1      40.182  35.143  36.849  1.00  0.00     0.173 A 
ATOM     85  F   UNL A   1      38.150  32.268  37.747  1.00  0.00    -0.203 F 
ATOM     86  C   UNL A   1      38.607  34.242  38.947  1.00  0.00     0.198 A 
ATOM     87  C   UNL A   1      40.036  35.919  37.996  1.00  0.00     0.198 A 
ATOM     88  F   UNL A   1      40.948  35.605  35.850  1.00  0.00    -0.203 F 
ATOM     89  F   UNL A   1      37.818  33.819  39.944  1.00  0.00    -0.200 F 
ATOM     90  C   UNL A   1      39.242  35.472  39.041  1.00  0.00     0.200 A 
ATOM     91  F   UNL A   1      40.668  37.096  38.090  1.00  0.00    -0.200 F 
ATOM     92  F   UNL A   1      39.086  36.228  40.136  1.00  0.00    -0.200 F 
ENDBRANCH  58  82
BRANCH  70  93
ATOM     93  C   UNL A   1      44.006  28.791  34.991  1.00  0.00     0.064 A 
ATOM     94  C   UNL A   1      43.880  27.663  35.815  1.00  0.00     0.173 A 
ATOM     95  C   UNL A   1      45.292  29.314  34.787  1.00  0.00     0.173 A 
ATOM     96  F   UNL A   1      42.672  27.132  36.056  1.00  0.00    -0.203 F 
ATOM     97  C   UNL A   1      44.996  27.093  36.423  1.00  0.00     0.198 A 
ATOM     98  C   UNL A   1      46.410  28.721  35.369  1.00  0.00     0.198 A 
ATOM     99  F   UNL A   1      45.469  30.388  34.003  1.00  0.00    -0.203 F 
ATOM    100  F   UNL A   1      44.847  26.042  37.242  1.00  0.00    -0.200 F 
ATOM    101  C   UNL A   1      46.260  27.617  36.192  1.00  0.00     0.200 A 
ATOM    102  F   UNL A   1      47.630  29.218  35.128  1.00  0.00    -0.200 F 
ATOM    103  F   UNL A   1      47.333  27.058  36.766  1.00  0.00    -0.200 F 
ENDBRANCH  70  93
ENDBRANCH  44  45
ENDBRANCH  36  39
ENDBRANCH  34  35
ENDBRANCH  33  34
ENDBRANCH  32  33
ENDBRANCH   1  32
TORSDOF 19
ENDMDL
MODEL 2
REMARK VINA RESULT:     -12.0      1.617      7.215
REMARK SMILES CC(C)(C)OC(=O)N1CC[C@@H]([NH2+]Cc2cccc(Br)c2)[C@@H](C(=O)NCCCCCCNC(=O)c2ccc(-c3c4nc(c(-c5c(F)c(F)c(F)c(F)c5F)c5ccc([nH]5)c(-c5c(F)c(F)c(F)c(F)c5F)c5nc(c(-c6c(F)c(F)c(F)c(F)c6F)c6ccc3[nH]6)C=C5)C=C4)cc2)C1
REMARK SMILES IDX 27 1 26 2 25 3 24 4 22 5 23 6 21 8 8 9 9 10 97 11 10 12
REMARK SMILES IDX 11 13 6 14 7 15 5 16 2 17 1 18 3 19 4 20 12 21 13 24 14 25
REMARK SMILES IDX 15 26 20 27 16 28 18 29 17 30 19 31 28 32 29 33 30 34 31 35
REMARK SMILES IDX 32 36 33 38 34 39 35 40 96 41 36 42 95 43 37 44 38 45 39 46
REMARK SMILES IDX 89 47 40 48 94 49 88 50 90 51 41 52 93 53 87 54 86 55 42 57
REMARK SMILES IDX 74 58 54 59 73 60 55 61 58 62 72 63 91 64 56 65 57 66 71 68
REMARK SMILES IDX 92 69 59 70 43 71 44 72 52 73 45 74 46 75 50 76 53 77 47 78
REMARK SMILES IDX 48 79 51 80 49 81 75 82 76 83 84 84 77 85 78 86 82 87 85 88
REMARK SMILES IDX 79 89 80 90 83 91 81 92 60 93 61 94 69 95 62 96 63 97 67 98
REMARK SMILES IDX 70 99 64 100 65 101 68 102 66 103
REMARK H PARENT 24 7 12 22 12 23 31 37 90 56 58 67
REMARK Flexibility Score: inf
ROOT
ATOM      1  C   UNL A   1      34.033  31.824  28.056  1.00  0.00     0.002 C 
ENDROOT
BRANCH   1   2
ATOM      2  C   UNL A   1      35.209  30.842  28.008  1.00  0.00     0.021 C 
BRANCH   2   3
ATOM      3  C   UNL A   1      34.898  29.514  27.330  1.00  0.00     0.116 C 
BRANCH   3   4
ATOM      4  N   UNL A   1      33.583  29.020  27.685  1.00  0.00    -0.356 N 
ATOM      5  C   UNL A   1      32.866  28.007  27.125  1.00  0.00     0.230 C 
ATOM      6  O   UNL A   1      31.756  27.760  27.598  1.00  0.00    -0.274 OA
ATOM      7  H   UNL A   1      33.147  29.482  28.438  1.00  0.00     0.163 HD
BRANCH   5   8
ATOM      8  C   UNL A   1      33.449  27.248  25.945  1.00  0.00     0.156 C 
ATOM      9  N   UNL A   1      33.887  25.064  24.970  1.00  0.00    -0.307 N 
ATOM     10  C   UNL A   1      33.611  25.513  23.609  1.00  0.00     0.129 C 
ATOM     11  C   UNL A   1      33.132  25.746  26.018  1.00  0.00     0.142 C 
ATOM     12  C   UNL A   1      33.732  27.033  23.471  1.00  0.00     0.087 C 
ATOM     13  C   UNL A   1      32.971  27.804  24.573  1.00  0.00     0.198 C 
BRANCH   9  14
ATOM     14  C   UNL A   1      34.844  24.102  25.224  1.00  0.00     0.410 C 
ATOM     15  O   UNL A   1      35.920  24.345  25.757  1.00  0.00    -0.224 OA
BRANCH  14  16
ATOM     16  O   UNL A   1      34.457  22.874  24.795  1.00  0.00    -0.444 OA
BRANCH  16  17
ATOM     17  C   UNL A   1      33.821  21.900  25.667  1.00  0.00     0.106 C 
ATOM     18  C   UNL A   1      34.396  20.545  25.227  1.00  0.00     0.056 C 
ATOM     19  C   UNL A   1      32.314  21.916  25.404  1.00  0.00     0.056 C 
ATOM     20  C   UNL A   1      34.135  22.083  27.157  1.00  0.00     0.056 C 
ENDBRANCH  16  17
ENDBRANCH  14  16
ENDBRANCH   9  14
BRANCH  13  21
ATOM     21  N   UNL A   1      31.511  27.660  24.494  1.00  0.00    -0.339 N 
ATOM     22  H   UNL A   1      31.097  28.406  25.053  1.00  0.00     0.346 HD
ATOM     23  H   UNL A   1      31.317  26.716  24.829  1.00  0.00     0.346 HD
BRANCH  21  24
ATOM     24  C   UNL A   1      30.915  27.721  23.165  1.00  0.00     0.297 C 
BRANCH  24  25
ATOM     25  C   UNL A   1      29.651  28.567  23.179  1.00  0.00     0.007 A 
ATOM     26  C   UNL A   1      28.367  27.991  23.194  1.00  0.00     0.009 A 
ATOM     27  C   UNL A   1      29.751  29.964  23.122  1.00  0.00     0.025 A 
ATOM     28  C   UNL A   1      27.217  28.782  23.184  1.00  0.00     0.002 A 
ATOM     29  C   UNL A   1      28.598  30.752  23.099  1.00  0.00     0.018 A 
ATOM     30  C   UNL A   1      27.332  30.168  23.134  1.00  0.00     0.016 A 
ATOM     31  Br  UNL A   1      28.751  32.634  23.008  1.00  0.00    -0.051 Br
ENDBRANCH  24  25
ENDBRANCH  21  24
ENDBRANCH  13  21
ENDBRANCH   5   8
ENDBRANCH   3   4
ENDBRANCH   2   3
ENDBRANCH   1   2
BRANCH   1  32
ATOM     32  C   UNL A   1      34.315  33.150  28.768  1.00  0.00     0.002 C 
BRANCH  32  33
ATOM     33  C   UNL A   1      33.229  34.215  28.612  1.00  0.00     0.021 C 
BRANCH  33  34
ATOM     34  C   UNL A   1      33.603  35.587  29.157  1.00  0.00     0.116 C 
BRANCH  34  35
ATOM     35  N   UNL A   1      32.706  36.031  30.211  1.00  0.00    -0.352 N 
ATOM     36  C   UNL A   1      32.746  35.750  31.554  1.00  0.00     0.251 C 
ATOM     37  H   UNL A   1      31.968  36.614  29.922  1.00  0.00     0.163 HD
ATOM     38  O   UNL A   1      31.819  36.072  32.288  1.00  0.00    -0.269 OA
BRANCH  36  39
ATOM     39  C   UNL A   1      33.909  35.025  32.105  1.00  0.00     0.039 A 
ATOM     40  C   UNL A   1      33.749  33.696  32.504  1.00  0.00     0.014 A 
ATOM     41  C   UNL A   1      35.156  35.647  32.202  1.00  0.00     0.014 A 
ATOM     42  C   UNL A   1      34.857  32.971  32.942  1.00  0.00     0.010 A 
ATOM     43  C   UNL A   1      36.273  34.900  32.559  1.00  0.00     0.010 A 
ATOM     44  C   UNL A   1      36.135  33.556  32.937  1.00  0.00    -0.014 A 
BRANCH  44  45
ATOM     45  C   UNL A   1      37.340  32.783  33.329  1.00  0.00     0.031 A 
ATOM     46  C   UNL A   1      38.046  33.094  34.618  1.00  0.00     0.074 A 
ATOM     47  C   UNL A   1      37.840  31.853  32.492  1.00  0.00     0.049 A 
ATOM     48  N   UNL A   1      39.163  32.603  35.092  1.00  0.00    -0.248 NA
ATOM     49  C   UNL A   1      37.429  34.119  35.474  1.00  0.00     0.031 C 
ATOM     50  C   UNL A   1      37.270  31.493  31.193  1.00  0.00     0.029 A 
ATOM     51  N   UNL A   1      38.952  31.055  32.601  1.00  0.00    -0.354 N 
ATOM     52  C   UNL A   1      39.383  33.262  36.294  1.00  0.00     0.074 A 
ATOM     53  C   UNL A   1      38.325  34.237  36.441  1.00  0.00     0.031 C 
ATOM     54  C   UNL A   1      38.028  30.538  30.632  1.00  0.00     0.029 A 
ATOM     55  C   UNL A   1      39.160  30.251  31.507  1.00  0.00     0.049 A 
ATOM     56  H   UNL A   1      39.543  31.059  33.389  1.00  0.00     0.167 HD
ATOM     57  C   UNL A   1      40.364  33.055  37.205  1.00  0.00     0.037 A 
ATOM     58  C   UNL A   1      40.163  29.395  31.232  1.00  0.00     0.037 A 
ATOM     59  C   UNL A   1      41.413  32.079  37.052  1.00  0.00     0.049 A 
ATOM     60  C   UNL A   1      41.261  29.202  32.243  1.00  0.00     0.074 A 
ATOM     61  C   UNL A   1      42.430  31.761  37.933  1.00  0.00     0.029 A 
ATOM     62  N   UNL A   1      41.582  31.270  35.938  1.00  0.00    -0.354 N 
ATOM     63  N   UNL A   1      41.427  29.785  33.407  1.00  0.00    -0.248 NA
ATOM     64  C   UNL A   1      42.309  28.227  31.907  1.00  0.00     0.031 C 
ATOM     65  C   UNL A   1      43.250  30.804  37.327  1.00  0.00     0.029 A 
ATOM     66  C   UNL A   1      42.704  30.472  36.097  1.00  0.00     0.049 A 
ATOM     67  H   UNL A   1      40.991  31.263  35.150  1.00  0.00     0.167 HD
ATOM     68  C   UNL A   1      42.575  29.229  33.953  1.00  0.00     0.074 A 
ATOM     69  C   UNL A   1      43.060  28.253  32.999  1.00  0.00     0.031 C 
ATOM     70  C   UNL A   1      43.172  29.500  35.141  1.00  0.00     0.037 A 
BRANCH  57  71
ATOM     71  C   UNL A   1      40.347  33.905  38.443  1.00  0.00     0.064 A 
ATOM     72  C   UNL A   1      41.079  35.102  38.526  1.00  0.00     0.173 A 
ATOM     73  C   UNL A   1      39.586  33.528  39.560  1.00  0.00     0.173 A 
ATOM     74  F   UNL A   1      41.832  35.506  37.492  1.00  0.00    -0.203 F 
ATOM     75  C   UNL A   1      41.084  35.862  39.694  1.00  0.00     0.198 A 
ATOM     76  C   UNL A   1      39.562  34.311  40.712  1.00  0.00     0.198 A 
ATOM     77  F   UNL A   1      38.862  32.399  39.536  1.00  0.00    -0.203 F 
ATOM     78  F   UNL A   1      41.844  36.962  39.770  1.00  0.00    -0.200 F 
ATOM     79  C   UNL A   1      40.321  35.469  40.782  1.00  0.00     0.200 A 
ATOM     80  F   UNL A   1      38.812  33.938  41.757  1.00  0.00    -0.200 F 
ATOM     81  F   UNL A   1      40.326  36.202  41.905  1.00  0.00    -0.200 F 
ENDBRANCH  57  71
BRANCH  58  82
ATOM     82  C   UNL A   1      40.166  28.654  29.942  1.00  0.00     0.064 A 
ATOM     83  C   UNL A   1      39.528  27.414  29.818  1.00  0.00     0.173 A 
ATOM     84  C   UNL A   1      40.799  29.179  28.805  1.00  0.00     0.173 A 
ATOM     85  F   UNL A   1      38.923  26.861  30.880  1.00  0.00    -0.203 F 
ATOM     86  C   UNL A   1      39.537  26.717  28.611  1.00  0.00     0.198 A 
ATOM     87  C   UNL A   1      40.780  28.496  27.591  1.00  0.00     0.198 A 
ATOM     88  F   UNL A   1      41.419  30.366  28.869  1.00  0.00    -0.203 F 
ATOM     89  F   UNL A   1      38.956  25.512  28.531  1.00  0.00    -0.200 F 
ATOM     90  C   UNL A   1      40.157  27.262  27.497  1.00  0.00     0.200 A 
ATOM     91  F   UNL A   1      41.363  29.037  26.513  1.00  0.00    -0.200 F 
ATOM     92  F   UNL A   1      40.156  26.597  26.333  1.00  0.00    -0.200 F 
ENDBRANCH  58  82
BRANCH  70  93
ATOM     93  C   UNL A   1      44.396  28.706  35.500  1.00  0.00     0.064 A 
ATOM     94  C   UNL A   1      44.313  27.490  36.194  1.00  0.00     0.173 A 
ATOM     95  C   UNL A   1      45.666  29.143  35.092  1.00  0.00     0.173 A 
ATOM     96  F   UNL A   1      43.125  27.034  36.620  1.00  0.00    -0.203 F 
ATOM     97  C   UNL A   1      45.458  26.752  36.484  1.00  0.00     0.198 A 
ATOM     98  C   UNL A   1      46.805  28.385  35.353  1.00  0.00     0.198 A 
ATOM     99  F   UNL A   1      45.801  30.296  34.420  1.00  0.00    -0.203 F 
ATOM    100  F   UNL A   1      45.360  25.615  37.188  1.00  0.00    -0.200 F 
ATOM    101  C   UNL A   1      46.700  27.195  36.055  1.00  0.00     0.200 A 
ATOM    102  F   UNL A   1      48.001  28.807  34.922  1.00  0.00    -0.200 F 
ATOM    103  F   UNL A   1      47.798  26.475  36.322  1.00  0.00    -0.200 F 
ENDBRANCH  70  93
ENDBRANCH  44  45
ENDBRANCH  36  39
ENDBRANCH  34  35
ENDBRANCH  33  34
ENDBRANCH  32  33
ENDBRANCH   1  32
TORSDOF 19
ENDMDL
MODEL 3
REMARK VINA RESULT:     -11.9      5.303     10.652
REMARK SMILES CC(C)(C)OC(=O)N1CC[C@@H]([NH2+]Cc2cccc(Br)c2)[C@@H](C(=O)NCCCCCCNC(=O)c2ccc(-c3c4nc(c(-c5c(F)c(F)c(F)c(F)c5F)c5ccc([nH]5)c(-c5c(F)c(F)c(F)c(F)c5F)c5nc(c(-c6c(F)c(F)c(F)c(F)c6F)c6ccc3[nH]6)C=C5)C=C4)cc2)C1
REMARK SMILES IDX 27 1 26 2 25 3 24 4 22 5 23 6 21 8 8 9 9 10 97 11 10 12
REMARK SMILES IDX 11 13 6 14 7 15 5 16 2 17 1 18 3 19 4 20 12 21 13 24 14 25
REMARK SMILES IDX 15 26 20 27 16 28 18 29 17 30 19 31 28 32 29 33 30 34 31 35
REMARK SMILES IDX 32 36 33 38 34 39 35 40 96 41 36 42 95 43 37 44 38 45 39 46
REMARK SMILES IDX 89 47 40 48 94 49 88 50 90 51 41 52 93 53 87 54 86 55 42 57
REMARK SMILES IDX 74 58 54 59 73 60 55 61 58 62 72 63 91 64 56 65 57 66 71 68
REMARK SMILES IDX 92 69 59 70 43 71 44 72 52 73 45 74 46 75 50 76 53 77 47 78
REMARK SMILES IDX 48 79 51 80 49 81 75 82 76 83 84 84 77 85 78 86 82 87 85 88
REMARK SMILES IDX 79 89 80 90 83 91 81 92 60 93 61 94 69 95 62 96 63 97 67 98
REMARK SMILES IDX 70 99 64 100 65 101 68 102 66 103
REMARK H PARENT 24 7 12 22 12 23 31 37 90 56 58 67
REMARK Flexibility Score: inf
ROOT
ATOM      1  C   UNL A   1      38.996  22.371  25.824  1.00  0.00     0.002 C 
ENDROOT
BRANCH   1   2
ATOM      2  C   UNL A   1      38.268  23.672  26.177  1.00  0.00     0.021 C 
BRANCH   2   3
ATOM      3  C   UNL A   1      36.751  23.597  26.070  1.00  0.00     0.116 C 
BRANCH   3   4
ATOM      4  N   UNL A   1      36.298  23.711  24.699  1.00  0.00    -0.356 N 
ATOM      5  C   UNL A   1      35.045  23.957  24.226  1.00  0.00     0.230 C 
ATOM      6  O   UNL A   1      34.893  24.012  23.005  1.00  0.00    -0.274 OA
ATOM      7  H   UNL A   1      36.994  23.595  24.013  1.00  0.00     0.163 HD
BRANCH   5   8
ATOM      8  C   UNL A   1      33.900  24.132  25.209  1.00  0.00     0.156 C 
ATOM      9  N   UNL A   1      31.740  25.168  25.625  1.00  0.00    -0.307 N 
ATOM     10  C   UNL A   1      31.220  24.012  26.349  1.00  0.00     0.129 C 
ATOM     11  C   UNL A   1      32.707  24.864  24.574  1.00  0.00     0.142 C 
ATOM     12  C   UNL A   1      32.343  23.116  26.879  1.00  0.00     0.087 C 
ATOM     13  C   UNL A   1      33.409  22.784  25.811  1.00  0.00     0.198 C 
BRANCH   9  14
ATOM     14  C   UNL A   1      31.372  26.453  25.973  1.00  0.00     0.410 C 
ATOM     15  O   UNL A   1      30.696  26.717  26.959  1.00  0.00    -0.224 OA
BRANCH  14  16
ATOM     16  O   UNL A   1      31.828  27.370  25.081  1.00  0.00    -0.444 OA
BRANCH  16  17
ATOM     17  C   UNL A   1      32.740  28.439  25.450  1.00  0.00     0.106 C 
ATOM     18  C   UNL A   1      33.632  28.638  24.214  1.00  0.00     0.056 C 
ATOM     19  C   UNL A   1      33.604  27.965  26.621  1.00  0.00     0.056 C 
ATOM     20  C   UNL A   1      32.058  29.777  25.759  1.00  0.00     0.056 C 
ENDBRANCH  16  17
ENDBRANCH  14  16
ENDBRANCH   9  14
BRANCH  13  21
ATOM     21  N   UNL A   1      32.908  21.940  24.718  1.00  0.00    -0.339 N 
ATOM     22  H   UNL A   1      33.715  21.605  24.191  1.00  0.00     0.346 HD
ATOM     23  H   UNL A   1      32.271  22.536  24.190  1.00  0.00     0.346 HD
BRANCH  21  24
ATOM     24  C   UNL A   1      32.115  20.776  25.096  1.00  0.00     0.297 C 
BRANCH  24  25
ATOM     25  C   UNL A   1      32.567  19.543  24.331  1.00  0.00     0.007 A 
ATOM     26  C   UNL A   1      32.142  19.282  23.014  1.00  0.00     0.009 A 
ATOM     27  C   UNL A   1      33.392  18.600  24.961  1.00  0.00     0.025 A 
ATOM     28  C   UNL A   1      32.550  18.133  22.335  1.00  0.00     0.002 A 
ATOM     29  C   UNL A   1      33.787  17.445  24.282  1.00  0.00     0.018 A 
ATOM     30  C   UNL A   1      33.373  17.209  22.971  1.00  0.00     0.016 A 
ATOM     31  Br  UNL A   1      34.888  16.177  25.152  1.00  0.00    -0.051 Br
ENDBRANCH  24  25
ENDBRANCH  21  24
ENDBRANCH  13  21
ENDBRANCH   5   8
ENDBRANCH   3   4
ENDBRANCH   2   3
ENDBRANCH   1   2
BRANCH   1  32
ATOM     32  C   UNL A   1      38.105  21.242  25.297  1.00  0.00     0.002 C 
BRANCH  32  33
ATOM     33  C   UNL A   1      38.785  19.878  25.178  1.00  0.00     0.021 C 
BRANCH  33  34
ATOM     34  C   UNL A   1      39.681  19.512  26.355  1.00  0.00     0.116 C 
BRANCH  34  35
ATOM     35  N   UNL A   1      40.917  18.873  25.936  1.00  0.00    -0.352 N 
ATOM     36  C   UNL A   1      42.172  19.417  25.816  1.00  0.00     0.251 C 
ATOM     37  H   UNL A   1      40.845  17.919  25.708  1.00  0.00     0.163 HD
ATOM     38  O   UNL A   1      43.080  18.782  25.294  1.00  0.00    -0.269 OA
BRANCH  36  39
ATOM     39  C   UNL A   1      42.411  20.793  26.295  1.00  0.00     0.039 A 
ATOM     40  C   UNL A   1      42.391  21.042  27.669  1.00  0.00     0.014 A 
ATOM     41  C   UNL A   1      42.681  21.825  25.393  1.00  0.00     0.014 A 
ATOM     42  C   UNL A   1      42.704  22.317  28.142  1.00  0.00     0.010 A 
ATOM     43  C   UNL A   1      43.073  23.071  25.869  1.00  0.00     0.010 A 
ATOM     44  C   UNL A   1      43.084  23.332  27.248  1.00  0.00    -0.014 A 
BRANCH  44  45
ATOM     45  C   UNL A   1      43.493  24.675  27.731  1.00  0.00     0.031 A 
ATOM     46  C   UNL A   1      42.450  25.710  28.043  1.00  0.00     0.074 A 
ATOM     47  C   UNL A   1      44.801  24.985  27.819  1.00  0.00     0.049 A 
ATOM     48  N   UNL A   1      42.602  26.965  28.383  1.00  0.00    -0.248 NA
ATOM     49  C   UNL A   1      41.047  25.285  27.925  1.00  0.00     0.031 C 
ATOM     50  C   UNL A   1      45.906  24.080  27.501  1.00  0.00     0.029 A 
ATOM     51  N   UNL A   1      45.421  26.154  28.183  1.00  0.00    -0.354 N 
ATOM     52  C   UNL A   1      41.318  27.478  28.513  1.00  0.00     0.074 A 
ATOM     53  C   UNL A   1      40.402  26.420  28.147  1.00  0.00     0.031 C 
ATOM     54  C   UNL A   1      47.068  24.722  27.696  1.00  0.00     0.029 A 
ATOM     55  C   UNL A   1      46.791  26.096  28.107  1.00  0.00     0.049 A 
ATOM     56  H   UNL A   1      44.931  26.957  28.473  1.00  0.00     0.167 HD
ATOM     57  C   UNL A   1      40.938  28.709  28.927  1.00  0.00     0.037 A 
ATOM     58  C   UNL A   1      47.718  27.048  28.324  1.00  0.00     0.037 A 
ATOM     59  C   UNL A   1      41.856  29.756  29.293  1.00  0.00     0.049 A 
ATOM     60  C   UNL A   1      47.274  28.421  28.752  1.00  0.00     0.074 A 
ATOM     61  C   UNL A   1      41.575  31.026  29.764  1.00  0.00     0.029 A 
ATOM     62  N   UNL A   1      43.239  29.655  29.220  1.00  0.00    -0.354 N 
ATOM     63  N   UNL A   1      46.058  28.878  28.934  1.00  0.00    -0.248 NA
ATOM     64  C   UNL A   1      48.330  29.410  29.013  1.00  0.00     0.031 C 
ATOM     65  C   UNL A   1      42.783  31.713  29.918  1.00  0.00     0.029 A 
ATOM     66  C   UNL A   1      43.822  30.849  29.611  1.00  0.00     0.049 A 
ATOM     67  H   UNL A   1      43.732  28.853  28.934  1.00  0.00     0.167 HD
ATOM     68  C   UNL A   1      46.202  30.192  29.357  1.00  0.00     0.074 A 
ATOM     69  C   UNL A   1      47.625  30.457  29.416  1.00  0.00     0.031 C 
ATOM     70  C   UNL A   1      45.242  31.097  29.671  1.00  0.00     0.037 A 
BRANCH  57  71
ATOM     71  C   UNL A   1      39.463  28.989  28.998  1.00  0.00     0.064 A 
ATOM     72  C   UNL A   1      38.730  29.376  27.863  1.00  0.00     0.173 A 
ATOM     73  C   UNL A   1      38.768  28.862  30.210  1.00  0.00     0.173 A 
ATOM     74  F   UNL A   1      39.345  29.522  26.680  1.00  0.00    -0.203 F 
ATOM     75  C   UNL A   1      37.371  29.668  27.951  1.00  0.00     0.198 A 
ATOM     76  C   UNL A   1      37.401  29.117  30.286  1.00  0.00     0.198 A 
ATOM     77  F   UNL A   1      39.414  28.489  31.325  1.00  0.00    -0.203 F 
ATOM     78  F   UNL A   1      36.710  30.101  26.868  1.00  0.00    -0.200 F 
ATOM     79  C   UNL A   1      36.707  29.532  29.160  1.00  0.00     0.200 A 
ATOM     80  F   UNL A   1      36.758  28.970  31.452  1.00  0.00    -0.200 F 
ATOM     81  F   UNL A   1      35.399  29.813  29.242  1.00  0.00    -0.200 F 
ENDBRANCH  57  71
BRANCH  58  82
ATOM     82  C   UNL A   1      49.160  26.728  28.143  1.00  0.00     0.064 A 
ATOM     83  C   UNL A   1      49.970  26.392  29.236  1.00  0.00     0.173 A 
ATOM     84  C   UNL A   1      49.753  26.741  26.872  1.00  0.00     0.173 A 
ATOM     85  F   UNL A   1      49.455  26.382  30.474  1.00  0.00    -0.203 F 
ATOM     86  C   UNL A   1      51.322  26.098  29.067  1.00  0.00     0.198 A 
ATOM     87  C   UNL A   1      51.096  26.417  26.700  1.00  0.00     0.198 A 
ATOM     88  F   UNL A   1      49.020  27.049  25.792  1.00  0.00    -0.203 F 
ATOM     89  F   UNL A   1      52.084  25.822  30.133  1.00  0.00    -0.200 F 
ATOM     90  C   UNL A   1      51.882  26.104  27.798  1.00  0.00     0.200 A 
ATOM     91  F   UNL A   1      51.627  26.404  25.470  1.00  0.00    -0.200 F 
ATOM     92  F   UNL A   1      53.179  25.812  27.634  1.00  0.00    -0.200 F 
ENDBRANCH  58  82
BRANCH  70  93
ATOM     93  C   UNL A   1      45.691  32.450  30.147  1.00  0.00     0.064 A 
ATOM     94  C   UNL A   1      45.852  33.529  29.266  1.00  0.00     0.173 A 
ATOM     95  C   UNL A   1      45.908  32.681  31.514  1.00  0.00     0.173 A 
ATOM     96  F   UNL A   1      45.671  33.359  27.948  1.00  0.00    -0.203 F 
ATOM     97  C   UNL A   1      46.233  34.784  29.735  1.00  0.00     0.198 A 
ATOM     98  C   UNL A   1      46.255  33.945  31.983  1.00  0.00     0.198 A 
ATOM     99  F   UNL A   1      45.762  31.684  32.400  1.00  0.00    -0.203 F 
ATOM    100  F   UNL A   1      46.424  35.791  28.869  1.00  0.00    -0.200 F 
ATOM    101  C   UNL A   1      46.424  34.993  31.092  1.00  0.00     0.200 A 
ATOM    102  F   UNL A   1      46.421  34.148  33.297  1.00  0.00    -0.200 F 
ATOM    103  F   UNL A   1      46.776  36.206  31.542  1.00  0.00    -0.200 F 
ENDBRANCH  70  93
ENDBRANCH  44  45
ENDBRANCH  36  39
ENDBRANCH  34  35
ENDBRANCH  33  34
ENDBRANCH  32  33
ENDBRANCH   1  32
TORSDOF 19
ENDMDL
