MODEL 1
REMARK VINA RESULT:     -11.6      0.000      0.000
REMARK SMILES C[C@@H]1C(=O)NC(=O)CN1C(=O)NC1(CC(=O)NCCCCCCNC(=O)c2ccc(-c3c4nc(c(-c5c(F)c(F)c(F)c(F)c5F)c5ccc([nH]5)c(-c5c(F)c(F)c(F)c(F)c5F)c5nc(c(-c6c(F)c(F)c(F)c(F)c6F)c6ccc3[nH]6)C=C5)C=C4)cc2)CCC1
REMARK SMILES IDX 20 1 19 2 18 3 17 4 15 5 16 6 14 8 13 9 90 10 92 11 91 12
REMARK SMILES IDX 12 13 10 14 11 15 9 17 1 18 2 19 3 20 4 21 5 22 8 23 6 24
REMARK SMILES IDX 7 26 21 27 22 28 23 29 24 30 25 31 26 33 27 34 28 35 89 36
REMARK SMILES IDX 29 37 88 38 30 39 31 40 32 41 82 42 33 43 87 44 81 45 83 46
REMARK SMILES IDX 34 47 86 48 80 49 79 50 35 52 67 53 47 54 66 55 48 56 51 57
REMARK SMILES IDX 65 58 84 59 49 60 50 61 64 63 85 64 52 65 36 66 37 67 45 68
REMARK SMILES IDX 38 69 39 70 43 71 46 72 40 73 41 74 44 75 42 76 68 77 69 78
REMARK SMILES IDX 77 79 70 80 71 81 75 82 78 83 72 84 73 85 76 86 74 87 53 88
REMARK SMILES IDX 54 89 62 90 55 91 56 92 60 93 63 94 57 95 58 96 61 97 59 98
REMARK H PARENT 17 7 12 16 5 25 24 32 83 51 51 62
REMARK Flexibility Score: inf
ROOT
ATOM      1  C   UNL A   1      33.924  30.501  27.273  1.00  0.00     0.002 C 
ENDROOT
BRANCH   1   2
ATOM      2  C   UNL A   1      34.473  29.073  27.317  1.00  0.00     0.021 C 
BRANCH   2   3
ATOM      3  C   UNL A   1      33.952  28.202  26.169  1.00  0.00     0.116 C 
BRANCH   3   4
ATOM      4  N   UNL A   1      34.191  28.882  24.915  1.00  0.00    -0.356 N 
ATOM      5  C   UNL A   1      33.379  28.920  23.825  1.00  0.00     0.222 C 
ATOM      6  O   UNL A   1      33.871  29.155  22.722  1.00  0.00    -0.275 OA
ATOM      7  H   UNL A   1      35.042  29.372  24.841  1.00  0.00     0.163 HD
BRANCH   5   8
ATOM      8  C   UNL A   1      31.890  28.735  23.983  1.00  0.00     0.128 C 
BRANCH   8   9
ATOM      9  C   UNL A   1      31.102  28.086  22.818  1.00  0.00     0.051 C 
ATOM     10  C   UNL A   1      30.351  29.243  22.115  1.00  0.00     0.029 C 
ATOM     11  C   UNL A   1      29.737  27.451  23.178  1.00  0.00     0.029 C 
ATOM     12  C   UNL A   1      29.051  28.778  22.803  1.00  0.00     0.005 C 
BRANCH   9  13
ATOM     13  N   UNL A   1      32.004  27.251  21.994  1.00  0.00    -0.332 N 
ATOM     14  C   UNL A   1      32.637  26.066  21.952  1.00  0.00     0.318 C 
ATOM     15  O   UNL A   1      33.276  25.904  20.903  1.00  0.00    -0.249 OA
ATOM     16  H   UNL A   1      32.219  27.747  21.171  1.00  0.00     0.165 HD
BRANCH  14  17
ATOM     17  N   UNL A   1      32.635  25.090  22.899  1.00  0.00    -0.304 N 
ATOM     18  C   UNL A   1      30.977  23.767  24.231  1.00  0.00     0.042 C 
ATOM     19  C   UNL A   1      31.863  23.851  22.988  1.00  0.00     0.174 C 
ATOM     20  C   UNL A   1      32.792  22.636  22.906  1.00  0.00     0.249 C 
ATOM     21  O   UNL A   1      32.379  21.509  22.637  1.00  0.00    -0.272 OA
ATOM     22  N   UNL A   1      34.090  22.827  23.310  1.00  0.00    -0.293 N 
ATOM     23  C   UNL A   1      33.683  25.183  23.930  1.00  0.00     0.222 C 
ATOM     24  C   UNL A   1      34.613  23.972  23.862  1.00  0.00     0.246 C 
ATOM     25  H   UNL A   1      34.707  22.069  23.192  1.00  0.00     0.173 HD
ATOM     26  O   UNL A   1      35.710  23.942  24.416  1.00  0.00    -0.273 OA
ENDBRANCH  14  17
ENDBRANCH   9  13
ENDBRANCH   8   9
ENDBRANCH   5   8
ENDBRANCH   3   4
ENDBRANCH   2   3
ENDBRANCH   1   2
BRANCH   1  27
ATOM     27  C   UNL A   1      32.393  30.576  27.248  1.00  0.00     0.002 C 
BRANCH  27  28
ATOM     28  C   UNL A   1      31.822  31.997  27.230  1.00  0.00     0.021 C 
BRANCH  28  29
ATOM     29  C   UNL A   1      32.843  33.076  26.886  1.00  0.00     0.116 C 
BRANCH  29  30
ATOM     30  N   UNL A   1      32.577  34.306  27.615  1.00  0.00    -0.352 N 
ATOM     31  C   UNL A   1      33.054  34.715  28.833  1.00  0.00     0.251 C 
ATOM     32  H   UNL A   1      31.966  34.936  27.168  1.00  0.00     0.163 HD
ATOM     33  O   UNL A   1      32.520  35.644  29.426  1.00  0.00    -0.269 OA
BRANCH  31  34
ATOM     34  C   UNL A   1      34.216  34.029  29.432  1.00  0.00     0.039 A 
ATOM     35  C   UNL A   1      35.503  34.459  29.100  1.00  0.00     0.014 A 
ATOM     36  C   UNL A   1      34.036  32.942  30.292  1.00  0.00     0.014 A 
ATOM     37  C   UNL A   1      36.610  33.826  29.665  1.00  0.00     0.010 A 
ATOM     38  C   UNL A   1      35.136  32.355  30.908  1.00  0.00     0.010 A 
ATOM     39  C   UNL A   1      36.434  32.785  30.591  1.00  0.00    -0.014 A 
BRANCH  39  40
ATOM     40  C   UNL A   1      37.600  32.124  31.231  1.00  0.00     0.031 A 
ATOM     41  C   UNL A   1      38.347  31.043  30.502  1.00  0.00     0.074 A 
ATOM     42  C   UNL A   1      37.945  32.458  32.489  1.00  0.00     0.049 A 
ATOM     43  N   UNL A   1      39.348  30.307  30.914  1.00  0.00    -0.248 NA
ATOM     44  C   UNL A   1      37.892  30.729  29.138  1.00  0.00     0.031 C 
ATOM     45  C   UNL A   1      37.265  33.458  33.313  1.00  0.00     0.029 A 
ATOM     46  N   UNL A   1      38.946  31.985  33.298  1.00  0.00    -0.354 N 
ATOM     47  C   UNL A   1      39.631  29.437  29.868  1.00  0.00     0.074 A 
ATOM     48  C   UNL A   1      38.664  29.699  28.825  1.00  0.00     0.031 C 
ATOM     49  C   UNL A   1      37.882  33.540  34.502  1.00  0.00     0.029 A 
ATOM     50  C   UNL A   1      38.975  32.574  34.538  1.00  0.00     0.049 A 
ATOM     51  H   UNL A   1      39.583  31.289  33.015  1.00  0.00     0.167 HD
ATOM     52  C   UNL A   1      40.624  28.519  29.780  1.00  0.00     0.037 A 
ATOM     53  C   UNL A   1      39.790  32.353  35.587  1.00  0.00     0.037 A 
ATOM     54  C   UNL A   1      41.599  28.282  30.811  1.00  0.00     0.049 A 
ATOM     55  C   UNL A   1      40.883  31.326  35.462  1.00  0.00     0.074 A 
ATOM     56  C   UNL A   1      42.681  27.418  30.794  1.00  0.00     0.029 A 
ATOM     57  N   UNL A   1      41.610  28.911  32.048  1.00  0.00    -0.354 N 
ATOM     58  N   UNL A   1      41.185  30.557  34.444  1.00  0.00    -0.248 NA
ATOM     59  C   UNL A   1      41.754  31.143  36.630  1.00  0.00     0.031 C 
ATOM     60  C   UNL A   1      43.318  27.492  32.037  1.00  0.00     0.029 A 
ATOM     61  C   UNL A   1      42.666  28.439  32.810  1.00  0.00     0.049 A 
ATOM     62  H   UNL A   1      40.962  29.594  32.340  1.00  0.00     0.167 HD
ATOM     63  C   UNL A   1      42.295  29.822  34.836  1.00  0.00     0.074 A 
ATOM     64  C   UNL A   1      42.622  30.247  36.181  1.00  0.00     0.031 C 
ATOM     65  C   UNL A   1      42.981  28.879  34.145  1.00  0.00     0.037 A 
BRANCH  52  66
ATOM     66  C   UNL A   1      40.707  27.705  28.521  1.00  0.00     0.064 A 
ATOM     67  C   UNL A   1      40.022  26.488  28.385  1.00  0.00     0.173 A 
ATOM     68  C   UNL A   1      41.453  28.164  27.424  1.00  0.00     0.173 A 
ATOM     69  F   UNL A   1      39.304  25.999  29.406  1.00  0.00    -0.203 F 
ATOM     70  C   UNL A   1      40.102  25.748  27.208  1.00  0.00     0.198 A 
ATOM     71  C   UNL A   1      41.506  27.436  26.238  1.00  0.00     0.198 A 
ATOM     72  F   UNL A   1      42.123  29.324  27.499  1.00  0.00    -0.203 F 
ATOM     73  F   UNL A   1      39.480  24.565  27.119  1.00  0.00    -0.200 F 
ATOM     74  C   UNL A   1      40.838  26.226  26.134  1.00  0.00     0.200 A 
ATOM     75  F   UNL A   1      42.207  27.905  25.196  1.00  0.00    -0.200 F 
ATOM     76  F   UNL A   1      40.909  25.515  24.999  1.00  0.00    -0.200 F 
ENDBRANCH  52  66
BRANCH  53  77
ATOM     77  C   UNL A   1      39.618  33.136  36.837  1.00  0.00     0.064 A 
ATOM     78  C   UNL A   1      38.709  32.727  37.823  1.00  0.00     0.173 A 
ATOM     79  C   UNL A   1      40.353  34.306  37.073  1.00  0.00     0.173 A 
ATOM     80  F   UNL A   1      37.969  31.623  37.634  1.00  0.00    -0.203 F 
ATOM     81  C   UNL A   1      38.526  33.469  38.987  1.00  0.00     0.198 A 
ATOM     82  C   UNL A   1      40.191  35.033  38.251  1.00  0.00     0.198 A 
ATOM     83  F   UNL A   1      41.240  34.738  36.165  1.00  0.00    -0.203 F 
ATOM     84  F   UNL A   1      37.618  33.079  39.892  1.00  0.00    -0.200 F 
ATOM     85  C   UNL A   1      39.272  34.619  39.203  1.00  0.00     0.200 A 
ATOM     86  F   UNL A   1      40.924  36.134  38.463  1.00  0.00    -0.200 F 
ATOM     87  F   UNL A   1      39.100  35.330  40.325  1.00  0.00    -0.200 F 
ENDBRANCH  53  77
BRANCH  65  88
ATOM     88  C   UNL A   1      44.175  28.267  34.818  1.00  0.00     0.064 A 
ATOM     89  C   UNL A   1      45.447  28.853  34.739  1.00  0.00     0.173 A 
ATOM     90  C   UNL A   1      44.036  27.097  35.581  1.00  0.00     0.173 A 
ATOM     91  F   UNL A   1      45.634  29.963  34.009  1.00  0.00    -0.203 F 
ATOM     92  C   UNL A   1      46.540  28.277  35.380  1.00  0.00     0.198 A 
ATOM     93  C   UNL A   1      45.126  26.541  36.245  1.00  0.00     0.198 A 
ATOM     94  F   UNL A   1      42.839  26.501  35.693  1.00  0.00    -0.203 F 
ATOM     95  F   UNL A   1      47.756  28.828  35.251  1.00  0.00    -0.200 F 
ATOM     96  C   UNL A   1      46.378  27.127  36.138  1.00  0.00     0.200 A 
ATOM     97  F   UNL A   1      44.964  25.438  36.988  1.00  0.00    -0.200 F 
ATOM     98  F   UNL A   1      47.431  26.579  36.760  1.00  0.00    -0.200 F 
ENDBRANCH  65  88
ENDBRANCH  39  40
ENDBRANCH  31  34
ENDBRANCH  29  30
ENDBRANCH  28  29
ENDBRANCH  27  28
ENDBRANCH   1  27
TORSDOF 16
ENDMDL
MODEL 2
REMARK VINA RESULT:     -11.6      1.878      7.690
REMARK SMILES C[C@@H]1C(=O)NC(=O)CN1C(=O)NC1(CC(=O)NCCCCCCNC(=O)c2ccc(-c3c4nc(c(-c5c(F)c(F)c(F)c(F)c5F)c5ccc([nH]5)c(-c5c(F)c(F)c(F)c(F)c5F)c5nc(c(-c6c(F)c(F)c(F)c(F)c6F)c6ccc3[nH]6)C=C5)C=C4)cc2)CCC1
REMARK SMILES IDX 20 1 19 2 18 3 17 4 15 5 16 6 14 8 13 9 90 10 92 11 91 12
REMARK SMILES IDX 12 13 10 14 11 15 9 17 1 18 2 19 3 20 4 21 5 22 8 23 6 24
REMARK SMILES IDX 7 26 21 27 22 28 23 29 24 30 25 31 26 33 27 34 28 35 89 36
REMARK SMILES IDX 29 37 88 38 30 39 31 40 32 41 82 42 33 43 87 44 81 45 83 46
REMARK SMILES IDX 34 47 86 48 80 49 79 50 35 52 67 53 47 54 66 55 48 56 51 57
REMARK SMILES IDX 65 58 84 59 49 60 50 61 64 63 85 64 52 65 36 66 37 67 45 68
REMARK SMILES IDX 38 69 39 70 43 71 46 72 40 73 41 74 44 75 42 76 68 77 69 78
REMARK SMILES IDX 77 79 70 80 71 81 75 82 78 83 72 84 73 85 76 86 74 87 53 88
REMARK SMILES IDX 54 89 62 90 55 91 56 92 60 93 63 94 57 95 58 96 61 97 59 98
REMARK H PARENT 17 7 12 16 5 25 24 32 83 51 51 62
REMARK Flexibility Score: inf
ROOT
ATOM      1  C   UNL A   1      34.753  32.809  28.004  1.00  0.00     0.002 C 
ENDROOT
BRANCH   1   2
ATOM      2  C   UNL A   1      34.678  31.280  27.991  1.00  0.00     0.021 C 
BRANCH   2   3
ATOM      3  C   UNL A   1      33.507  30.752  27.157  1.00  0.00     0.116 C 
BRANCH   3   4
ATOM      4  N   UNL A   1      33.081  29.479  27.695  1.00  0.00    -0.356 N 
ATOM      5  C   UNL A   1      32.024  28.722  27.296  1.00  0.00     0.222 C 
ATOM      6  O   UNL A   1      31.535  27.915  28.086  1.00  0.00    -0.275 OA
ATOM      7  H   UNL A   1      33.618  29.119  28.438  1.00  0.00     0.163 HD
BRANCH   5   8
ATOM      8  C   UNL A   1      31.501  28.835  25.885  1.00  0.00     0.128 C 
BRANCH   8   9
ATOM      9  C   UNL A   1      32.109  27.911  24.800  1.00  0.00     0.051 C 
ATOM     10  C   UNL A   1      32.894  28.840  23.841  1.00  0.00     0.029 C 
ATOM     11  C   UNL A   1      31.179  27.524  23.624  1.00  0.00     0.029 C 
ATOM     12  C   UNL A   1      31.742  28.712  22.822  1.00  0.00     0.005 C 
BRANCH   9  13
ATOM     13  N   UNL A   1      32.847  26.796  25.432  1.00  0.00    -0.332 N 
ATOM     14  C   UNL A   1      32.815  25.470  25.651  1.00  0.00     0.318 C 
ATOM     15  O   UNL A   1      33.811  25.064  26.266  1.00  0.00    -0.249 OA
ATOM     16  H   UNL A   1      33.663  27.159  25.845  1.00  0.00     0.165 HD
BRANCH  14  17
ATOM     17  N   UNL A   1      31.848  24.589  25.278  1.00  0.00    -0.304 N 
ATOM     18  C   UNL A   1      30.876  23.648  23.169  1.00  0.00     0.042 C 
ATOM     19  C   UNL A   1      31.881  23.492  24.311  1.00  0.00     0.174 C 
ATOM     20  C   UNL A   1      31.685  22.149  25.021  1.00  0.00     0.249 C 
ATOM     21  O   UNL A   1      31.988  21.077  24.497  1.00  0.00    -0.272 OA
ATOM     22  N   UNL A   1      31.000  22.177  26.210  1.00  0.00    -0.293 N 
ATOM     23  C   UNL A   1      30.607  24.612  26.071  1.00  0.00     0.222 C 
ATOM     24  C   UNL A   1      30.398  23.274  26.780  1.00  0.00     0.246 C 
ATOM     25  H   UNL A   1      30.934  21.327  26.704  1.00  0.00     0.173 HD
ATOM     26  O   UNL A   1      29.603  23.127  27.705  1.00  0.00    -0.273 OA
ENDBRANCH  14  17
ENDBRANCH   9  13
ENDBRANCH   8   9
ENDBRANCH   5   8
ENDBRANCH   3   4
ENDBRANCH   2   3
ENDBRANCH   1   2
BRANCH   1  27
ATOM     27  C   UNL A   1      34.069  33.453  29.216  1.00  0.00     0.002 C 
BRANCH  27  28
ATOM     28  C   UNL A   1      33.061  34.554  28.872  1.00  0.00     0.021 C 
BRANCH  28  29
ATOM     29  C   UNL A   1      33.402  35.919  29.460  1.00  0.00     0.116 C 
BRANCH  29  30
ATOM     30  N   UNL A   1      32.593  36.205  30.634  1.00  0.00    -0.352 N 
ATOM     31  C   UNL A   1      32.684  35.686  31.899  1.00  0.00     0.251 C 
ATOM     32  H   UNL A   1      31.876  36.866  30.500  1.00  0.00     0.163 HD
ATOM     33  O   UNL A   1      31.760  35.824  32.693  1.00  0.00    -0.269 OA
BRANCH  31  34
ATOM     34  C   UNL A   1      33.903  34.958  32.306  1.00  0.00     0.039 A 
ATOM     35  C   UNL A   1      33.780  33.664  32.817  1.00  0.00     0.014 A 
ATOM     36  C   UNL A   1      35.159  35.564  32.216  1.00  0.00     0.014 A 
ATOM     37  C   UNL A   1      34.922  32.961  33.199  1.00  0.00     0.010 A 
ATOM     38  C   UNL A   1      36.302  34.839  32.531  1.00  0.00     0.010 A 
ATOM     39  C   UNL A   1      36.194  33.534  33.036  1.00  0.00    -0.014 A 
BRANCH  39  40
ATOM     40  C   UNL A   1      37.424  32.787  33.401  1.00  0.00     0.031 A 
ATOM     41  C   UNL A   1      38.144  33.101  34.681  1.00  0.00     0.074 A 
ATOM     42  C   UNL A   1      37.920  31.870  32.549  1.00  0.00     0.049 A 
ATOM     43  N   UNL A   1      39.263  32.604  35.145  1.00  0.00    -0.248 NA
ATOM     44  C   UNL A   1      37.542  34.129  35.544  1.00  0.00     0.031 C 
ATOM     45  C   UNL A   1      37.335  31.514  31.256  1.00  0.00     0.029 A 
ATOM     46  N   UNL A   1      39.037  31.078  32.639  1.00  0.00    -0.354 N 
ATOM     47  C   UNL A   1      39.504  33.267  36.342  1.00  0.00     0.074 A 
ATOM     48  C   UNL A   1      38.445  34.239  36.508  1.00  0.00     0.031 C 
ATOM     49  C   UNL A   1      38.084  30.559  30.683  1.00  0.00     0.029 A 
ATOM     50  C   UNL A   1      39.220  30.262  31.550  1.00  0.00     0.049 A 
ATOM     51  H   UNL A   1      39.647  31.092  33.411  1.00  0.00     0.167 HD
ATOM     52  C   UNL A   1      40.505  33.065  37.232  1.00  0.00     0.037 A 
ATOM     53  C   UNL A   1      40.200  29.379  31.279  1.00  0.00     0.037 A 
ATOM     54  C   UNL A   1      41.540  32.079  37.073  1.00  0.00     0.049 A 
ATOM     55  C   UNL A   1      41.302  29.176  32.285  1.00  0.00     0.074 A 
ATOM     56  C   UNL A   1      42.564  31.754  37.947  1.00  0.00     0.029 A 
ATOM     57  N   UNL A   1      41.685  31.257  35.965  1.00  0.00    -0.354 N 
ATOM     58  N   UNL A   1      41.482  29.760  33.444  1.00  0.00    -0.248 NA
ATOM     59  C   UNL A   1      42.332  28.185  31.946  1.00  0.00     0.031 C 
ATOM     60  C   UNL A   1      43.354  30.768  37.346  1.00  0.00     0.029 A 
ATOM     61  C   UNL A   1      42.793  30.441  36.122  1.00  0.00     0.049 A 
ATOM     62  H   UNL A   1      41.086  31.253  35.182  1.00  0.00     0.167 HD
ATOM     63  C   UNL A   1      42.625  29.188  33.986  1.00  0.00     0.074 A 
ATOM     64  C   UNL A   1      43.089  28.202  33.034  1.00  0.00     0.031 C 
ATOM     65  C   UNL A   1      43.236  29.457  35.166  1.00  0.00     0.037 A 
BRANCH  52  66
ATOM     66  C   UNL A   1      40.526  33.928  38.461  1.00  0.00     0.064 A 
ATOM     67  C   UNL A   1      41.248  35.130  38.504  1.00  0.00     0.173 A 
ATOM     68  C   UNL A   1      39.787  33.566  39.597  1.00  0.00     0.173 A 
ATOM     69  F   UNL A   1      41.980  35.517  37.449  1.00  0.00    -0.203 F 
ATOM     70  C   UNL A   1      41.252  35.924  39.648  1.00  0.00     0.198 A 
ATOM     71  C   UNL A   1      39.768  34.377  40.729  1.00  0.00     0.198 A 
ATOM     72  F   UNL A   1      39.075  32.429  39.608  1.00  0.00    -0.203 F 
ATOM     73  F   UNL A   1      41.989  37.042  39.683  1.00  0.00    -0.200 F 
ATOM     74  C   UNL A   1      40.507  35.550  40.757  1.00  0.00     0.200 A 
ATOM     75  F   UNL A   1      39.038  34.022  41.795  1.00  0.00    -0.200 F 
ATOM     76  F   UNL A   1      40.506  36.319  41.855  1.00  0.00    -0.200 F 
ENDBRANCH  52  66
BRANCH  53  77
ATOM     77  C   UNL A   1      40.170  28.603  30.014  1.00  0.00     0.064 A 
ATOM     78  C   UNL A   1      40.768  29.104  28.848  1.00  0.00     0.173 A 
ATOM     79  C   UNL A   1      39.546  27.350  29.939  1.00  0.00     0.173 A 
ATOM     80  F   UNL A   1      41.361  30.308  28.865  1.00  0.00    -0.203 F 
ATOM     81  C   UNL A   1      40.724  28.392  27.652  1.00  0.00     0.198 A 
ATOM     82  C   UNL A   1      39.528  26.624  28.750  1.00  0.00     0.198 A 
ATOM     83  F   UNL A   1      38.966  26.822  31.026  1.00  0.00    -0.203 F 
ATOM     84  F   UNL A   1      41.263  28.916  26.543  1.00  0.00    -0.200 F 
ATOM     85  C   UNL A   1      40.108  27.150  27.605  1.00  0.00     0.200 A 
ATOM     86  F   UNL A   1      38.946  25.418  28.711  1.00  0.00    -0.200 F 
ATOM     87  F   UNL A   1      40.070  26.462  26.456  1.00  0.00    -0.200 F 
ENDBRANCH  53  77
BRANCH  65  88
ATOM     88  C   UNL A   1      44.453  28.649  35.510  1.00  0.00     0.064 A 
ATOM     89  C   UNL A   1      45.742  29.069  35.150  1.00  0.00     0.173 A 
ATOM     90  C   UNL A   1      44.329  27.458  36.241  1.00  0.00     0.173 A 
ATOM     91  F   UNL A   1      45.911  30.193  34.436  1.00  0.00    -0.203 F 
ATOM     92  C   UNL A   1      46.861  28.312  35.489  1.00  0.00     0.198 A 
ATOM     93  C   UNL A   1      45.452  26.720  36.604  1.00  0.00     0.198 A 
ATOM     94  F   UNL A   1      43.119  27.016  36.615  1.00  0.00    -0.203 F 
ATOM     95  F   UNL A   1      48.079  28.708  35.092  1.00  0.00    -0.200 F 
ATOM     96  C   UNL A   1      46.716  27.143  36.221  1.00  0.00     0.200 A 
ATOM     97  F   UNL A   1      45.312  25.599  37.324  1.00  0.00    -0.200 F 
ATOM     98  F   UNL A   1      47.795  26.421  36.552  1.00  0.00    -0.200 F 
ENDBRANCH  65  88
ENDBRANCH  39  40
ENDBRANCH  31  34
ENDBRANCH  29  30
ENDBRANCH  28  29
ENDBRANCH  27  28
ENDBRANCH   1  27
TORSDOF 16
ENDMDL
MODEL 3
REMARK VINA RESULT:     -11.5      1.829      7.588
REMARK SMILES C[C@@H]1C(=O)NC(=O)CN1C(=O)NC1(CC(=O)NCCCCCCNC(=O)c2ccc(-c3c4nc(c(-c5c(F)c(F)c(F)c(F)c5F)c5ccc([nH]5)c(-c5c(F)c(F)c(F)c(F)c5F)c5nc(c(-c6c(F)c(F)c(F)c(F)c6F)c6ccc3[nH]6)C=C5)C=C4)cc2)CCC1
REMARK SMILES IDX 20 1 19 2 18 3 17 4 15 5 16 6 14 8 13 9 90 10 92 11 91 12
REMARK SMILES IDX 12 13 10 14 11 15 9 17 1 18 2 19 3 20 4 21 5 22 8 23 6 24
REMARK SMILES IDX 7 26 21 27 22 28 23 29 24 30 25 31 26 33 27 34 28 35 89 36
REMARK SMILES IDX 29 37 88 38 30 39 31 40 32 41 82 42 33 43 87 44 81 45 83 46
REMARK SMILES IDX 34 47 86 48 80 49 79 50 35 52 67 53 47 54 66 55 48 56 51 57
REMARK SMILES IDX 65 58 84 59 49 60 50 61 64 63 85 64 52 65 36 66 37 67 45 68
REMARK SMILES IDX 38 69 39 70 43 71 46 72 40 73 41 74 44 75 42 76 68 77 69 78
REMARK SMILES IDX 77 79 70 80 71 81 75 82 78 83 72 84 73 85 76 86 74 87 53 88
REMARK SMILES IDX 54 89 62 90 55 91 56 92 60 93 63 94 57 95 58 96 61 97 59 98
REMARK H PARENT 17 7 12 16 5 25 24 32 83 51 51 62
REMARK Flexibility Score: inf
ROOT
ATOM      1  C   UNL A   1      34.387  32.111  28.733  1.00  0.00     0.002 C 
ENDROOT
BRANCH   1   2
ATOM      2  C   UNL A   1      33.378  31.717  27.652  1.00  0.00     0.021 C 
BRANCH   2   3
ATOM      3  C   UNL A   1      33.711  30.377  26.989  1.00  0.00     0.116 C 
BRANCH   3   4
ATOM      4  N   UNL A   1      33.011  29.320  27.685  1.00  0.00    -0.356 N 
ATOM      5  C   UNL A   1      31.975  28.568  27.224  1.00  0.00     0.222 C 
ATOM      6  O   UNL A   1      31.221  28.030  28.033  1.00  0.00    -0.275 OA
ATOM      7  H   UNL A   1      33.318  29.122  28.599  1.00  0.00     0.163 HD
BRANCH   5   8
ATOM      8  C   UNL A   1      31.794  28.357  25.741  1.00  0.00     0.128 C 
BRANCH   8   9
ATOM      9  C   UNL A   1      32.228  26.999  25.134  1.00  0.00     0.051 C 
ATOM     10  C   UNL A   1      33.719  27.161  24.751  1.00  0.00     0.029 C 
ATOM     11  C   UNL A   1      31.893  26.773  23.640  1.00  0.00     0.029 C 
ATOM     12  C   UNL A   1      33.294  27.299  23.274  1.00  0.00     0.005 C 
BRANCH   9  13
ATOM     13  N   UNL A   1      31.870  25.892  26.049  1.00  0.00    -0.332 N 
ATOM     14  C   UNL A   1      32.112  24.599  26.322  1.00  0.00     0.318 C 
ATOM     15  O   UNL A   1      31.486  24.195  27.312  1.00  0.00    -0.249 OA
ATOM     16  H   UNL A   1      31.211  26.228  26.698  1.00  0.00     0.165 HD
BRANCH  14  17
ATOM     17  N   UNL A   1      32.935  23.748  25.650  1.00  0.00    -0.304 N 
ATOM     18  C   UNL A   1      32.760  21.673  24.258  1.00  0.00     0.042 C 
ATOM     19  C   UNL A   1      32.839  23.199  24.298  1.00  0.00     0.174 C 
ATOM     20  C   UNL A   1      33.999  23.701  23.434  1.00  0.00     0.249 C 
ATOM     21  O   UNL A   1      33.974  23.653  22.205  1.00  0.00    -0.272 OA
ATOM     22  N   UNL A   1      35.147  24.061  24.096  1.00  0.00    -0.293 N 
ATOM     23  C   UNL A   1      34.220  23.439  26.300  1.00  0.00     0.222 C 
ATOM     24  C   UNL A   1      35.387  23.931  25.444  1.00  0.00     0.246 C 
ATOM     25  H   UNL A   1      35.869  24.451  23.552  1.00  0.00     0.173 HD
ATOM     26  O   UNL A   1      36.531  24.044  25.879  1.00  0.00    -0.273 OA
ENDBRANCH  14  17
ENDBRANCH   9  13
ENDBRANCH   8   9
ENDBRANCH   5   8
ENDBRANCH   3   4
ENDBRANCH   2   3
ENDBRANCH   1   2
BRANCH   1  27
ATOM     27  C   UNL A   1      34.542  33.626  28.914  1.00  0.00     0.002 C 
BRANCH  27  28
ATOM     28  C   UNL A   1      33.224  34.405  28.950  1.00  0.00     0.021 C 
BRANCH  28  29
ATOM     29  C   UNL A   1      33.375  35.871  29.343  1.00  0.00     0.116 C 
BRANCH  29  30
ATOM     30  N   UNL A   1      32.579  36.188  30.517  1.00  0.00    -0.352 N 
ATOM     31  C   UNL A   1      32.675  35.694  31.792  1.00  0.00     0.251 C 
ATOM     32  H   UNL A   1      31.868  36.855  30.375  1.00  0.00     0.163 HD
ATOM     33  O   UNL A   1      31.759  35.857  32.589  1.00  0.00    -0.269 OA
BRANCH  31  34
ATOM     34  C   UNL A   1      33.889  34.962  32.204  1.00  0.00     0.039 A 
ATOM     35  C   UNL A   1      33.768  33.639  32.638  1.00  0.00     0.014 A 
ATOM     36  C   UNL A   1      35.138  35.589  32.195  1.00  0.00     0.014 A 
ATOM     37  C   UNL A   1      34.907  32.933  33.023  1.00  0.00     0.010 A 
ATOM     38  C   UNL A   1      36.280  34.864  32.512  1.00  0.00     0.010 A 
ATOM     39  C   UNL A   1      36.175  33.532  32.940  1.00  0.00    -0.014 A 
BRANCH  39  40
ATOM     40  C   UNL A   1      37.401  32.782  33.310  1.00  0.00     0.031 A 
ATOM     41  C   UNL A   1      38.115  33.092  34.595  1.00  0.00     0.074 A 
ATOM     42  C   UNL A   1      37.903  31.868  32.458  1.00  0.00     0.049 A 
ATOM     43  N   UNL A   1      39.231  32.593  35.064  1.00  0.00    -0.248 NA
ATOM     44  C   UNL A   1      37.508  34.118  35.459  1.00  0.00     0.031 C 
ATOM     45  C   UNL A   1      37.325  31.517  31.161  1.00  0.00     0.029 A 
ATOM     46  N   UNL A   1      39.018  31.075  32.552  1.00  0.00    -0.354 N 
ATOM     47  C   UNL A   1      39.464  33.252  36.264  1.00  0.00     0.074 A 
ATOM     48  C   UNL A   1      38.405  34.223  36.428  1.00  0.00     0.031 C 
ATOM     49  C   UNL A   1      38.077  30.563  30.589  1.00  0.00     0.029 A 
ATOM     50  C   UNL A   1      39.208  30.263  31.461  1.00  0.00     0.049 A 
ATOM     51  H   UNL A   1      39.624  31.087  33.327  1.00  0.00     0.167 HD
ATOM     52  C   UNL A   1      40.460  33.046  37.160  1.00  0.00     0.037 A 
ATOM     53  C   UNL A   1      40.189  29.381  31.193  1.00  0.00     0.037 A 
ATOM     54  C   UNL A   1      41.496  32.060  37.004  1.00  0.00     0.049 A 
ATOM     55  C   UNL A   1      41.284  29.174  32.204  1.00  0.00     0.074 A 
ATOM     56  C   UNL A   1      42.515  31.732  37.882  1.00  0.00     0.029 A 
ATOM     57  N   UNL A   1      41.647  31.242  35.894  1.00  0.00    -0.354 N 
ATOM     58  N   UNL A   1      41.458  29.754  33.367  1.00  0.00    -0.248 NA
ATOM     59  C   UNL A   1      42.316  28.184  31.868  1.00  0.00     0.031 C 
ATOM     60  C   UNL A   1      43.308  30.747  37.283  1.00  0.00     0.029 A 
ATOM     61  C   UNL A   1      42.754  30.425  36.054  1.00  0.00     0.049 A 
ATOM     62  H   UNL A   1      41.053  31.241  35.107  1.00  0.00     0.167 HD
ATOM     63  C   UNL A   1      42.597  29.180  33.914  1.00  0.00     0.074 A 
ATOM     64  C   UNL A   1      43.066  28.196  32.961  1.00  0.00     0.031 C 
ATOM     65  C   UNL A   1      43.202  29.444  35.098  1.00  0.00     0.037 A 
BRANCH  52  66
ATOM     66  C   UNL A   1      40.474  33.905  38.392  1.00  0.00     0.064 A 
ATOM     67  C   UNL A   1      39.773  33.539  39.551  1.00  0.00     0.173 A 
ATOM     68  C   UNL A   1      41.225  35.089  38.426  1.00  0.00     0.173 A 
ATOM     69  F   UNL A   1      39.031  32.422  39.568  1.00  0.00    -0.203 F 
ATOM     70  C   UNL A   1      39.801  34.341  40.689  1.00  0.00     0.198 A 
ATOM     71  C   UNL A   1      41.276  35.873  39.576  1.00  0.00     0.198 A 
ATOM     72  F   UNL A   1      41.918  35.483  37.347  1.00  0.00    -0.203 F 
ATOM     73  F   UNL A   1      39.085  33.997  41.768  1.00  0.00    -0.200 F 
ATOM     74  C   UNL A   1      40.558  35.504  40.703  1.00  0.00     0.200 A 
ATOM     75  F   UNL A   1      42.017  36.990  39.592  1.00  0.00    -0.200 F 
ATOM     76  F   UNL A   1      40.590  36.271  41.801  1.00  0.00    -0.200 F 
ENDBRANCH  52  66
BRANCH  53  77
ATOM     77  C   UNL A   1      40.166  28.609  29.924  1.00  0.00     0.064 A 
ATOM     78  C   UNL A   1      39.525  27.364  29.852  1.00  0.00     0.173 A 
ATOM     79  C   UNL A   1      40.782  29.094  28.762  1.00  0.00     0.173 A 
ATOM     80  F   UNL A   1      38.939  26.849  30.943  1.00  0.00    -0.203 F 
ATOM     81  C   UNL A   1      39.520  26.624  28.672  1.00  0.00     0.198 A 
ATOM     82  C   UNL A   1      40.750  28.367  27.574  1.00  0.00     0.198 A 
ATOM     83  F   UNL A   1      41.402  30.283  28.776  1.00  0.00    -0.203 F 
ATOM     84  F   UNL A   1      38.940  25.417  28.644  1.00  0.00    -0.200 F 
ATOM     85  C   UNL A   1      40.128  27.129  27.532  1.00  0.00     0.200 A 
ATOM     86  F   UNL A   1      41.325  28.865  26.470  1.00  0.00    -0.200 F 
ATOM     87  F   UNL A   1      40.118  26.420  26.395  1.00  0.00    -0.200 F 
ENDBRANCH  53  77
BRANCH  65  88
ATOM     88  C   UNL A   1      44.417  28.635  35.446  1.00  0.00     0.064 A 
ATOM     89  C   UNL A   1      44.320  27.420  36.138  1.00  0.00     0.173 A 
ATOM     90  C   UNL A   1      45.692  29.065  35.048  1.00  0.00     0.173 A 
ATOM     91  F   UNL A   1      43.124  26.974  36.554  1.00  0.00    -0.203 F 
ATOM     92  C   UNL A   1      45.457  26.676  36.442  1.00  0.00     0.198 A 
ATOM     93  C   UNL A   1      46.824  28.304  35.327  1.00  0.00     0.198 A 
ATOM     94  F   UNL A   1      45.839  30.218  34.377  1.00  0.00    -0.203 F 
ATOM     95  F   UNL A   1      45.345  25.542  37.147  1.00  0.00    -0.200 F 
ATOM     96  C   UNL A   1      46.707  27.115  36.029  1.00  0.00     0.200 A 
ATOM     97  F   UNL A   1      48.029  28.723  34.915  1.00  0.00    -0.200 F 
ATOM     98  F   UNL A   1      47.799  26.394  36.316  1.00  0.00    -0.200 F 
ENDBRANCH  65  88
ENDBRANCH  39  40
ENDBRANCH  31  34
ENDBRANCH  29  30
ENDBRANCH  28  29
ENDBRANCH  27  28
ENDBRANCH   1  27
TORSDOF 16
ENDMDL
