MODEL 1
REMARK VINA RESULT:     -11.0      0.000      0.000
REMARK SMILES Cc1ccc(/C=C2/C[N@@H+](C)Cc3c2nc2ccccc2c3C(=O)NCCCCCCNC(=O)c2ccc(-c3c4nc(c(-c5c(F)c(F)c(F)c(F)c5F)c5ccc([nH]5)c(-c5c(F)c(F)c(F)c(F)c5F)c5nc(c(-c6c(F)c(F)c(F)c(F)c6F)c6ccc3[nH]6)C=C5)C=C4)cc2)cc1
REMARK SMILES IDX 28 1 27 2 26 3 25 4 24 5 22 6 23 7 21 9 6 10 7 11 8 12 13 13
REMARK SMILES IDX 9 14 12 15 14 16 10 17 11 18 15 20 20 21 16 22 19 23 17 24
REMARK SMILES IDX 18 25 5 26 1 27 2 28 3 29 98 30 4 31 97 32 29 33 30 34 31 35
REMARK SMILES IDX 32 36 33 38 34 39 35 40 96 41 36 42 95 43 37 44 38 45 39 46
REMARK SMILES IDX 89 47 40 48 94 49 88 50 90 51 41 52 93 53 87 54 86 55 42 57
REMARK SMILES IDX 74 58 54 59 73 60 55 61 58 62 72 63 91 64 56 65 57 66 71 68
REMARK SMILES IDX 92 69 59 70 43 71 44 72 52 73 45 74 46 75 50 76 53 77 47 78
REMARK SMILES IDX 48 79 51 80 49 81 75 82 76 83 84 84 77 85 78 86 82 87 85 88
REMARK SMILES IDX 79 89 80 90 83 91 81 92 60 93 61 94 69 95 62 96 63 97 67 98
REMARK SMILES IDX 70 99 64 100 65 101 68 102 66 103
REMARK H PARENT 24 8 9 19 31 37 90 56 58 67
REMARK Flexibility Score: inf
ROOT
ATOM      1  C   UNL A   1      40.248  34.515  29.557  1.00  0.00     0.002 C 
ENDROOT
BRANCH   1   2
ATOM      2  C   UNL A   1      41.257  33.453  30.024  1.00  0.00     0.002 C 
BRANCH   2   3
ATOM      3  C   UNL A   1      42.767  33.738  30.050  1.00  0.00     0.021 C 
BRANCH   3   4
ATOM      4  C   UNL A   1      43.699  32.947  29.144  1.00  0.00     0.116 C 
BRANCH   4   5
ATOM      5  N   UNL A   1      44.041  33.453  27.844  1.00  0.00    -0.352 N 
ATOM      6  C   UNL A   1      44.541  32.763  26.751  1.00  0.00     0.252 C 
ATOM      7  O   UNL A   1      44.407  33.295  25.648  1.00  0.00    -0.269 OA
ATOM      8  H   UNL A   1      43.901  34.419  27.712  1.00  0.00     0.163 HD
BRANCH   6   9
ATOM      9  C   UNL A   1      45.281  31.451  26.836  1.00  0.00     0.060 A 
ATOM     10  C   UNL A   1      45.670  26.787  25.482  1.00  0.00     0.020 C 
ATOM     11  C   UNL A   1      44.992  27.757  26.136  1.00  0.00     0.033 C 
ATOM     12  C   UNL A   1      43.517  27.623  26.377  1.00  0.00     0.301 C 
ATOM     13  C   UNL A   1      45.511  29.074  26.570  1.00  0.00     0.082 A 
ATOM     14  N   UNL A   1      42.855  28.696  25.623  1.00  0.00    -0.330 N 
ATOM     15  C   UNL A   1      44.689  30.200  26.528  1.00  0.00     0.046 A 
ATOM     16  N   UNL A   1      46.798  29.112  26.954  1.00  0.00    -0.247 NA
ATOM     17  C   UNL A   1      41.401  28.532  25.671  1.00  0.00     0.333 C 
ATOM     18  C   UNL A   1      43.235  29.997  26.198  1.00  0.00     0.302 C 
ATOM     19  H   UNL A   1      43.152  28.652  24.648  1.00  0.00     0.348 HD
ATOM     20  C   UNL A   1      47.392  30.289  27.128  1.00  0.00     0.072 A 
ATOM     21  C   UNL A   1      46.702  31.517  27.068  1.00  0.00     0.013 A 
ATOM     22  C   UNL A   1      48.767  30.255  27.314  1.00  0.00     0.029 A 
ATOM     23  C   UNL A   1      47.494  32.693  27.211  1.00  0.00     0.011 A 
ATOM     24  C   UNL A   1      49.525  31.417  27.411  1.00  0.00     0.002 A 
ATOM     25  C   UNL A   1      48.885  32.643  27.358  1.00  0.00     0.001 A 
BRANCH  10  26
ATOM     26  C   UNL A   1      47.060  26.792  24.997  1.00  0.00    -0.025 A 
ATOM     27  C   UNL A   1      51.203  26.959  23.814  1.00  0.00     0.044 C 
ATOM     28  C   UNL A   1      49.755  26.823  24.174  1.00  0.00    -0.051 A 
ATOM     29  C   UNL A   1      48.779  27.480  23.422  1.00  0.00     0.004 A 
ATOM     30  C   UNL A   1      49.368  26.106  25.311  1.00  0.00     0.004 A 
ATOM     31  C   UNL A   1      47.440  27.430  23.811  1.00  0.00     0.008 A 
ATOM     32  C   UNL A   1      48.030  26.087  25.717  1.00  0.00     0.008 A 
ENDBRANCH  10  26
ENDBRANCH   6   9
ENDBRANCH   4   5
ENDBRANCH   3   4
ENDBRANCH   2   3
ENDBRANCH   1   2
BRANCH   1  33
ATOM     33  C   UNL A   1      38.765  34.162  29.445  1.00  0.00     0.021 C 
BRANCH  33  34
ATOM     34  C   UNL A   1      38.343  32.789  29.944  1.00  0.00     0.116 C 
BRANCH  34  35
ATOM     35  N   UNL A   1      36.905  32.559  29.989  1.00  0.00    -0.352 N 
ATOM     36  C   UNL A   1      36.206  31.382  29.737  1.00  0.00     0.251 C 
ATOM     37  H   UNL A   1      36.354  33.339  30.231  1.00  0.00     0.163 HD
ATOM     38  O   UNL A   1      34.998  31.334  29.821  1.00  0.00    -0.269 OA
BRANCH  36  39
ATOM     39  C   UNL A   1      36.990  30.146  29.478  1.00  0.00     0.039 A 
ATOM     40  C   UNL A   1      37.280  29.311  30.561  1.00  0.00     0.014 A 
ATOM     41  C   UNL A   1      37.611  29.952  28.250  1.00  0.00     0.014 A 
ATOM     42  C   UNL A   1      38.381  28.460  30.483  1.00  0.00     0.010 A 
ATOM     43  C   UNL A   1      38.763  29.192  28.204  1.00  0.00     0.010 A 
ATOM     44  C   UNL A   1      39.188  28.504  29.345  1.00  0.00    -0.014 A 
BRANCH  44  45
ATOM     45  C   UNL A   1      40.543  27.965  29.299  1.00  0.00     0.031 A 
ATOM     46  C   UNL A   1      40.792  26.590  28.820  1.00  0.00     0.074 A 
ATOM     47  C   UNL A   1      41.586  28.766  29.616  1.00  0.00     0.049 A 
ATOM     48  N   UNL A   1      41.872  25.927  29.059  1.00  0.00    -0.248 NA
ATOM     49  C   UNL A   1      39.813  25.837  28.045  1.00  0.00     0.031 C 
ATOM     50  C   UNL A   1      43.007  28.511  29.390  1.00  0.00     0.029 A 
ATOM     51  N   UNL A   1      41.568  29.914  30.426  1.00  0.00    -0.354 N 
ATOM     52  C   UNL A   1      41.838  24.774  28.314  1.00  0.00     0.074 A 
ATOM     53  C   UNL A   1      40.523  24.753  27.714  1.00  0.00     0.031 C 
ATOM     54  C   UNL A   1      43.718  29.229  30.271  1.00  0.00     0.029 A 
ATOM     55  C   UNL A   1      42.773  29.861  31.172  1.00  0.00     0.049 A 
ATOM     56  H   UNL A   1      40.869  30.606  30.469  1.00  0.00     0.167 HD
ATOM     57  C   UNL A   1      42.961  24.006  28.216  1.00  0.00     0.037 A 
ATOM     58  C   UNL A   1      42.746  29.704  32.528  1.00  0.00     0.037 A 
ATOM     59  C   UNL A   1      44.043  24.521  29.047  1.00  0.00     0.049 A 
ATOM     60  C   UNL A   1      43.410  28.440  33.033  1.00  0.00     0.074 A 
ATOM     61  C   UNL A   1      45.147  25.326  28.821  1.00  0.00     0.029 A 
ATOM     62  N   UNL A   1      43.898  24.453  30.420  1.00  0.00    -0.354 N 
ATOM     63  N   UNL A   1      43.898  27.505  32.266  1.00  0.00    -0.248 NA
ATOM     64  C   UNL A   1      43.481  28.088  34.453  1.00  0.00     0.031 C 
ATOM     65  C   UNL A   1      45.653  25.753  30.083  1.00  0.00     0.029 A 
ATOM     66  C   UNL A   1      44.859  25.200  31.070  1.00  0.00     0.049 A 
ATOM     67  H   UNL A   1      43.197  23.935  30.877  1.00  0.00     0.167 HD
ATOM     68  C   UNL A   1      44.300  26.450  33.039  1.00  0.00     0.074 A 
ATOM     69  C   UNL A   1      44.016  26.857  34.401  1.00  0.00     0.031 C 
ATOM     70  C   UNL A   1      44.803  25.296  32.516  1.00  0.00     0.037 A 
BRANCH  57  71
ATOM     71  C   UNL A   1      43.132  22.890  27.221  1.00  0.00     0.064 A 
ATOM     72  C   UNL A   1      42.370  21.707  27.327  1.00  0.00     0.173 A 
ATOM     73  C   UNL A   1      44.055  22.911  26.160  1.00  0.00     0.173 A 
ATOM     74  F   UNL A   1      41.397  21.581  28.239  1.00  0.00    -0.203 F 
ATOM     75  C   UNL A   1      42.591  20.599  26.505  1.00  0.00     0.198 A 
ATOM     76  C   UNL A   1      44.320  21.783  25.379  1.00  0.00     0.198 A 
ATOM     77  F   UNL A   1      44.692  24.039  25.820  1.00  0.00    -0.203 F 
ATOM     78  F   UNL A   1      41.836  19.502  26.652  1.00  0.00    -0.200 F 
ATOM     79  C   UNL A   1      43.593  20.622  25.557  1.00  0.00     0.200 A 
ATOM     80  F   UNL A   1      45.287  21.828  24.451  1.00  0.00    -0.200 F 
ATOM     81  F   UNL A   1      43.844  19.542  24.807  1.00  0.00    -0.200 F 
ENDBRANCH  57  71
BRANCH  58  82
ATOM     82  C   UNL A   1      41.570  30.364  33.153  1.00  0.00     0.064 A 
ATOM     83  C   UNL A   1      41.530  31.773  33.178  1.00  0.00     0.173 A 
ATOM     84  C   UNL A   1      40.367  29.680  33.359  1.00  0.00     0.173 A 
ATOM     85  F   UNL A   1      42.657  32.479  32.987  1.00  0.00    -0.203 F 
ATOM     86  C   UNL A   1      40.322  32.461  33.261  1.00  0.00     0.198 A 
ATOM     87  C   UNL A   1      39.163  30.375  33.469  1.00  0.00     0.198 A 
ATOM     88  F   UNL A   1      40.334  28.339  33.329  1.00  0.00    -0.203 F 
ATOM     89  F   UNL A   1      40.306  33.797  33.141  1.00  0.00    -0.200 F 
ATOM     90  C   UNL A   1      39.137  31.759  33.378  1.00  0.00     0.200 A 
ATOM     91  F   UNL A   1      38.011  29.695  33.559  1.00  0.00    -0.200 F 
ATOM     92  F   UNL A   1      37.966  32.411  33.357  1.00  0.00    -0.200 F 
ENDBRANCH  58  82
BRANCH  70  93
ATOM     93  C   UNL A   1      45.281  24.154  33.358  1.00  0.00     0.064 A 
ATOM     94  C   UNL A   1      44.461  23.054  33.654  1.00  0.00     0.173 A 
ATOM     95  C   UNL A   1      46.540  24.186  33.992  1.00  0.00     0.173 A 
ATOM     96  F   UNL A   1      43.224  22.966  33.141  1.00  0.00    -0.203 F 
ATOM     97  C   UNL A   1      44.890  22.029  34.497  1.00  0.00     0.198 A 
ATOM     98  C   UNL A   1      46.946  23.186  34.873  1.00  0.00     0.198 A 
ATOM     99  F   UNL A   1      47.415  25.174  33.754  1.00  0.00    -0.203 F 
ATOM    100  F   UNL A   1      44.098  20.970  34.713  1.00  0.00    -0.200 F 
ATOM    101  C   UNL A   1      46.128  22.101  35.115  1.00  0.00     0.200 A 
ATOM    102  F   UNL A   1      48.139  23.280  35.480  1.00  0.00    -0.200 F 
ATOM    103  F   UNL A   1      46.531  21.125  35.939  1.00  0.00    -0.200 F 
ENDBRANCH  70  93
ENDBRANCH  44  45
ENDBRANCH  36  39
ENDBRANCH  34  35
ENDBRANCH  33  34
ENDBRANCH   1  33
TORSDOF 14
ENDMDL
MODEL 2
REMARK VINA RESULT:     -10.6      4.712      8.240
REMARK SMILES Cc1ccc(/C=C2/C[N@@H+](C)Cc3c2nc2ccccc2c3C(=O)NCCCCCCNC(=O)c2ccc(-c3c4nc(c(-c5c(F)c(F)c(F)c(F)c5F)c5ccc([nH]5)c(-c5c(F)c(F)c(F)c(F)c5F)c5nc(c(-c6c(F)c(F)c(F)c(F)c6F)c6ccc3[nH]6)C=C5)C=C4)cc2)cc1
REMARK SMILES IDX 28 1 27 2 26 3 25 4 24 5 22 6 23 7 21 9 6 10 7 11 8 12 13 13
REMARK SMILES IDX 9 14 12 15 14 16 10 17 11 18 15 20 20 21 16 22 19 23 17 24
REMARK SMILES IDX 18 25 5 26 1 27 2 28 3 29 98 30 4 31 97 32 29 33 30 34 31 35
REMARK SMILES IDX 32 36 33 38 34 39 35 40 96 41 36 42 95 43 37 44 38 45 39 46
REMARK SMILES IDX 89 47 40 48 94 49 88 50 90 51 41 52 93 53 87 54 86 55 42 57
REMARK SMILES IDX 74 58 54 59 73 60 55 61 58 62 72 63 91 64 56 65 57 66 71 68
REMARK SMILES IDX 92 69 59 70 43 71 44 72 52 73 45 74 46 75 50 76 53 77 47 78
REMARK SMILES IDX 48 79 51 80 49 81 75 82 76 83 84 84 77 85 78 86 82 87 85 88
REMARK SMILES IDX 79 89 80 90 83 91 81 92 60 93 61 94 69 95 62 96 63 97 67 98
REMARK SMILES IDX 70 99 64 100 65 101 68 102 66 103
REMARK H PARENT 24 8 9 19 31 37 90 56 58 67
REMARK Flexibility Score: inf
ROOT
ATOM      1  C   UNL A   1      31.808  30.356  26.818  1.00  0.00     0.002 C 
ENDROOT
BRANCH   1   2
ATOM      2  C   UNL A   1      31.994  29.111  25.935  1.00  0.00     0.002 C 
BRANCH   2   3
ATOM      3  C   UNL A   1      32.628  27.824  26.485  1.00  0.00     0.021 C 
BRANCH   3   4
ATOM      4  C   UNL A   1      33.988  27.376  25.972  1.00  0.00     0.116 C 
BRANCH   4   5
ATOM      5  N   UNL A   1      34.190  27.145  24.569  1.00  0.00    -0.352 N 
ATOM      6  C   UNL A   1      33.969  25.986  23.843  1.00  0.00     0.252 C 
ATOM      7  O   UNL A   1      33.842  26.109  22.624  1.00  0.00    -0.269 OA
ATOM      8  H   UNL A   1      34.528  27.914  24.055  1.00  0.00     0.163 HD
BRANCH   6   9
ATOM      9  C   UNL A   1      33.937  24.599  24.437  1.00  0.00     0.060 A 
ATOM     10  C   UNL A   1      31.343  20.722  25.842  1.00  0.00     0.020 C 
ATOM     11  C   UNL A   1      31.671  22.023  26.003  1.00  0.00     0.033 C 
ATOM     12  C   UNL A   1      30.715  22.973  26.661  1.00  0.00     0.301 C 
ATOM     13  C   UNL A   1      32.872  22.715  25.479  1.00  0.00     0.082 A 
ATOM     14  N   UNL A   1      30.322  23.964  25.650  1.00  0.00    -0.330 N 
ATOM     15  C   UNL A   1      32.786  24.037  25.043  1.00  0.00     0.046 A 
ATOM     16  N   UNL A   1      34.000  21.988  25.418  1.00  0.00    -0.247 NA
ATOM     17  C   UNL A   1      29.259  24.828  26.166  1.00  0.00     0.333 C 
ATOM     18  C   UNL A   1      31.496  24.773  25.283  1.00  0.00     0.302 C 
ATOM     19  H   UNL A   1      29.969  23.478  24.825  1.00  0.00     0.348 HD
ATOM     20  C   UNL A   1      35.046  22.462  24.746  1.00  0.00     0.072 A 
ATOM     21  C   UNL A   1      35.088  23.763  24.205  1.00  0.00     0.013 A 
ATOM     22  C   UNL A   1      36.093  21.574  24.545  1.00  0.00     0.029 A 
ATOM     23  C   UNL A   1      36.253  24.097  23.455  1.00  0.00     0.011 A 
ATOM     24  C   UNL A   1      37.203  21.909  23.777  1.00  0.00     0.002 A 
ATOM     25  C   UNL A   1      37.284  23.177  23.228  1.00  0.00     0.001 A 
BRANCH  10  26
ATOM     26  C   UNL A   1      32.047  19.674  25.085  1.00  0.00    -0.025 A 
ATOM     27  C   UNL A   1      34.356  16.694  22.993  1.00  0.00     0.044 C 
ATOM     28  C   UNL A   1      33.479  17.673  23.711  1.00  0.00    -0.051 A 
ATOM     29  C   UNL A   1      32.861  18.709  23.007  1.00  0.00     0.004 A 
ATOM     30  C   UNL A   1      33.332  17.613  25.101  1.00  0.00     0.004 A 
ATOM     31  C   UNL A   1      32.120  19.676  23.688  1.00  0.00     0.008 A 
ATOM     32  C   UNL A   1      32.618  18.604  25.782  1.00  0.00     0.008 A 
ENDBRANCH  10  26
ENDBRANCH   6   9
ENDBRANCH   4   5
ENDBRANCH   3   4
ENDBRANCH   2   3
ENDBRANCH   1   2
BRANCH   1  33
ATOM     33  C   UNL A   1      33.009  31.240  27.156  1.00  0.00     0.021 C 
BRANCH  33  34
ATOM     34  C   UNL A   1      34.136  30.598  27.949  1.00  0.00     0.116 C 
BRANCH  34  35
ATOM     35  N   UNL A   1      34.802  31.476  28.903  1.00  0.00    -0.352 N 
ATOM     36  C   UNL A   1      36.000  31.270  29.581  1.00  0.00     0.251 C 
ATOM     37  H   UNL A   1      34.346  32.328  29.092  1.00  0.00     0.163 HD
ATOM     38  O   UNL A   1      36.443  32.098  30.347  1.00  0.00    -0.269 OA
BRANCH  36  39
ATOM     39  C   UNL A   1      36.789  30.055  29.252  1.00  0.00     0.039 A 
ATOM     40  C   UNL A   1      37.082  29.158  30.284  1.00  0.00     0.014 A 
ATOM     41  C   UNL A   1      37.412  29.935  28.015  1.00  0.00     0.014 A 
ATOM     42  C   UNL A   1      38.186  28.318  30.157  1.00  0.00     0.010 A 
ATOM     43  C   UNL A   1      38.567  29.184  27.925  1.00  0.00     0.010 A 
ATOM     44  C   UNL A   1      38.994  28.432  29.025  1.00  0.00    -0.014 A 
BRANCH  44  45
ATOM     45  C   UNL A   1      40.351  27.902  28.948  1.00  0.00     0.031 A 
ATOM     46  C   UNL A   1      40.591  26.497  28.560  1.00  0.00     0.074 A 
ATOM     47  C   UNL A   1      41.399  28.733  29.150  1.00  0.00     0.049 A 
ATOM     48  N   UNL A   1      41.690  25.863  28.791  1.00  0.00    -0.248 NA
ATOM     49  C   UNL A   1      39.583  25.681  27.895  1.00  0.00     0.031 C 
ATOM     50  C   UNL A   1      42.810  28.473  28.870  1.00  0.00     0.029 A 
ATOM     51  N   UNL A   1      41.408  29.939  29.873  1.00  0.00    -0.354 N 
ATOM     52  C   UNL A   1      41.631  24.657  28.137  1.00  0.00     0.074 A 
ATOM     53  C   UNL A   1      40.288  24.580  27.609  1.00  0.00     0.031 C 
ATOM     54  C   UNL A   1      43.556  29.261  29.657  1.00  0.00     0.029 A 
ATOM     55  C   UNL A   1      42.651  29.951  30.557  1.00  0.00     0.049 A 
ATOM     56  H   UNL A   1      40.705  30.626  29.900  1.00  0.00     0.167 HD
ATOM     57  C   UNL A   1      42.757  23.893  28.038  1.00  0.00     0.037 A 
ATOM     58  C   UNL A   1      42.695  29.896  31.920  1.00  0.00     0.037 A 
ATOM     59  C   UNL A   1      43.875  24.478  28.772  1.00  0.00     0.049 A 
ATOM     60  C   UNL A   1      43.400  28.679  32.482  1.00  0.00     0.074 A 
ATOM     61  C   UNL A   1      44.956  25.272  28.429  1.00  0.00     0.029 A 
ATOM     62  N   UNL A   1      43.800  24.511  30.151  1.00  0.00    -0.354 N 
ATOM     63  N   UNL A   1      43.859  27.693  31.763  1.00  0.00    -0.248 NA
ATOM     64  C   UNL A   1      43.547  28.434  33.919  1.00  0.00     0.031 C 
ATOM     65  C   UNL A   1      45.520  25.796  29.627  1.00  0.00     0.029 A 
ATOM     66  C   UNL A   1      44.785  25.312  30.693  1.00  0.00     0.049 A 
ATOM     67  H   UNL A   1      43.130  24.023  30.681  1.00  0.00     0.167 HD
ATOM     68  C   UNL A   1      44.312  26.702  32.590  1.00  0.00     0.074 A 
ATOM     69  C   UNL A   1      44.094  27.207  33.931  1.00  0.00     0.031 C 
ATOM     70  C   UNL A   1      44.801  25.516  32.128  1.00  0.00     0.037 A 
BRANCH  57  71
ATOM     71  C   UNL A   1      42.890  22.707  27.122  1.00  0.00     0.064 A 
ATOM     72  C   UNL A   1      42.150  21.529  27.354  1.00  0.00     0.173 A 
ATOM     73  C   UNL A   1      43.758  22.656  26.015  1.00  0.00     0.173 A 
ATOM     74  F   UNL A   1      41.226  21.464  28.323  1.00  0.00    -0.203 F 
ATOM     75  C   UNL A   1      42.341  20.364  26.607  1.00  0.00     0.198 A 
ATOM     76  C   UNL A   1      43.996  21.475  25.307  1.00  0.00     0.198 A 
ATOM     77  F   UNL A   1      44.363  23.761  25.560  1.00  0.00    -0.203 F 
ATOM     78  F   UNL A   1      41.608  19.275  26.874  1.00  0.00    -0.200 F 
ATOM     79  C   UNL A   1      43.293  20.325  25.609  1.00  0.00     0.200 A 
ATOM     80  F   UNL A   1      44.913  21.459  24.329  1.00  0.00    -0.200 F 
ATOM     81  F   UNL A   1      43.518  19.194  24.929  1.00  0.00    -0.200 F 
ENDBRANCH  57  71
BRANCH  58  82
ATOM     82  C   UNL A   1      41.545  30.591  32.555  1.00  0.00     0.064 A 
ATOM     83  C   UNL A   1      41.521  32.000  32.531  1.00  0.00     0.173 A 
ATOM     84  C   UNL A   1      40.341  29.929  32.819  1.00  0.00     0.173 A 
ATOM     85  F   UNL A   1      42.649  32.686  32.283  1.00  0.00    -0.203 F 
ATOM     86  C   UNL A   1      40.324  32.705  32.624  1.00  0.00     0.198 A 
ATOM     87  C   UNL A   1      39.148  30.641  32.939  1.00  0.00     0.198 A 
ATOM     88  F   UNL A   1      40.292  28.588  32.837  1.00  0.00    -0.203 F 
ATOM     89  F   UNL A   1      40.319  34.036  32.458  1.00  0.00    -0.200 F 
ATOM     90  C   UNL A   1      39.135  32.022  32.800  1.00  0.00     0.200 A 
ATOM     91  F   UNL A   1      37.992  29.978  33.085  1.00  0.00    -0.200 F 
ATOM     92  F   UNL A   1      37.971  32.686  32.789  1.00  0.00    -0.200 F 
ENDBRANCH  58  82
BRANCH  70  93
ATOM     93  C   UNL A   1      45.336  24.444  33.027  1.00  0.00     0.064 A 
ATOM     94  C   UNL A   1      44.545  23.364  33.448  1.00  0.00     0.173 A 
ATOM     95  C   UNL A   1      46.626  24.532  33.589  1.00  0.00     0.173 A 
ATOM     96  F   UNL A   1      43.283  23.229  33.010  1.00  0.00    -0.203 F 
ATOM     97  C   UNL A   1      45.029  22.408  34.342  1.00  0.00     0.198 A 
ATOM     98  C   UNL A   1      47.089  23.605  34.520  1.00  0.00     0.198 A 
ATOM     99  F   UNL A   1      47.476  25.506  33.232  1.00  0.00    -0.203 F 
ATOM    100  F   UNL A   1      44.261  21.363  34.678  1.00  0.00    -0.200 F 
ATOM    101  C   UNL A   1      46.296  22.535  34.885  1.00  0.00     0.200 A 
ATOM    102  F   UNL A   1      48.311  23.752  35.053  1.00  0.00    -0.200 F 
ATOM    103  F   UNL A   1      46.753  21.627  35.758  1.00  0.00    -0.200 F 
ENDBRANCH  70  93
ENDBRANCH  44  45
ENDBRANCH  36  39
ENDBRANCH  34  35
ENDBRANCH  33  34
ENDBRANCH   1  33
TORSDOF 14
ENDMDL
MODEL 3
REMARK VINA RESULT:     -10.5      5.426     12.758
REMARK SMILES Cc1ccc(/C=C2/C[N@@H+](C)Cc3c2nc2ccccc2c3C(=O)NCCCCCCNC(=O)c2ccc(-c3c4nc(c(-c5c(F)c(F)c(F)c(F)c5F)c5ccc([nH]5)c(-c5c(F)c(F)c(F)c(F)c5F)c5nc(c(-c6c(F)c(F)c(F)c(F)c6F)c6ccc3[nH]6)C=C5)C=C4)cc2)cc1
REMARK SMILES IDX 28 1 27 2 26 3 25 4 24 5 22 6 23 7 21 9 6 10 7 11 8 12 13 13
REMARK SMILES IDX 9 14 12 15 14 16 10 17 11 18 15 20 20 21 16 22 19 23 17 24
REMARK SMILES IDX 18 25 5 26 1 27 2 28 3 29 98 30 4 31 97 32 29 33 30 34 31 35
REMARK SMILES IDX 32 36 33 38 34 39 35 40 96 41 36 42 95 43 37 44 38 45 39 46
REMARK SMILES IDX 89 47 40 48 94 49 88 50 90 51 41 52 93 53 87 54 86 55 42 57
REMARK SMILES IDX 74 58 54 59 73 60 55 61 58 62 72 63 91 64 56 65 57 66 71 68
REMARK SMILES IDX 92 69 59 70 43 71 44 72 52 73 45 74 46 75 50 76 53 77 47 78
REMARK SMILES IDX 48 79 51 80 49 81 75 82 76 83 84 84 77 85 78 86 82 87 85 88
REMARK SMILES IDX 79 89 80 90 83 91 81 92 60 93 61 94 69 95 62 96 63 97 67 98
REMARK SMILES IDX 70 99 64 100 65 101 68 102 66 103
REMARK H PARENT 24 8 9 19 31 37 90 56 58 67
REMARK Flexibility Score: inf
ROOT
ATOM      1  C   UNL A   1      38.168  22.681  25.811  1.00  0.00     0.002 C 
ENDROOT
BRANCH   1   2
ATOM      2  C   UNL A   1      37.145  22.318  24.722  1.00  0.00     0.002 C 
BRANCH   2   3
ATOM      3  C   UNL A   1      35.797  23.047  24.612  1.00  0.00     0.021 C 
BRANCH   3   4
ATOM      4  C   UNL A   1      35.435  24.118  25.630  1.00  0.00     0.116 C 
BRANCH   4   5
ATOM      5  N   UNL A   1      34.278  23.957  26.465  1.00  0.00    -0.352 N 
ATOM      6  C   UNL A   1      33.007  24.481  26.291  1.00  0.00     0.252 C 
ATOM      7  O   UNL A   1      32.088  23.925  26.895  1.00  0.00    -0.269 OA
ATOM      8  H   UNL A   1      34.404  23.399  27.266  1.00  0.00     0.163 HD
BRANCH   6   9
ATOM      9  C   UNL A   1      32.693  25.707  25.470  1.00  0.00     0.060 A 
ATOM     10  C   UNL A   1      30.878  27.639  21.382  1.00  0.00     0.020 C 
ATOM     11  C   UNL A   1      31.820  26.889  21.997  1.00  0.00     0.033 C 
ATOM     12  C   UNL A   1      32.575  25.841  21.234  1.00  0.00     0.301 C 
ATOM     13  C   UNL A   1      32.149  26.873  23.441  1.00  0.00     0.082 A 
ATOM     14  N   UNL A   1      32.219  24.540  21.815  1.00  0.00    -0.330 N 
ATOM     15  C   UNL A   1      32.514  25.680  24.064  1.00  0.00     0.046 A 
ATOM     16  N   UNL A   1      32.033  28.043  24.093  1.00  0.00    -0.247 NA
ATOM     17  C   UNL A   1      32.784  23.451  21.017  1.00  0.00     0.333 C 
ATOM     18  C   UNL A   1      32.728  24.470  23.195  1.00  0.00     0.302 C 
ATOM     19  H   UNL A   1      31.203  24.442  21.819  1.00  0.00     0.348 HD
ATOM     20  C   UNL A   1      32.081  28.056  25.422  1.00  0.00     0.072 A 
ATOM     21  C   UNL A   1      32.390  26.917  26.193  1.00  0.00     0.013 A 
ATOM     22  C   UNL A   1      31.742  29.256  26.031  1.00  0.00     0.029 A 
ATOM     23  C   UNL A   1      32.336  27.079  27.608  1.00  0.00     0.011 A 
ATOM     24  C   UNL A   1      31.657  29.381  27.413  1.00  0.00     0.002 A 
ATOM     25  C   UNL A   1      31.955  28.286  28.207  1.00  0.00     0.001 A 
BRANCH  10  26
ATOM     26  C   UNL A   1      29.917  28.586  21.970  1.00  0.00    -0.025 A 
ATOM     27  C   UNL A   1      27.320  31.468  23.852  1.00  0.00     0.044 C 
ATOM     28  C   UNL A   1      28.164  30.467  23.125  1.00  0.00    -0.051 A 
ATOM     29  C   UNL A   1      27.980  29.100  23.345  1.00  0.00     0.004 A 
ATOM     30  C   UNL A   1      29.197  30.885  22.280  1.00  0.00     0.004 A 
ATOM     31  C   UNL A   1      28.826  28.170  22.740  1.00  0.00     0.008 A 
ATOM     32  C   UNL A   1      30.064  29.951  21.704  1.00  0.00     0.008 A 
ENDBRANCH  10  26
ENDBRANCH   6   9
ENDBRANCH   4   5
ENDBRANCH   3   4
ENDBRANCH   2   3
ENDBRANCH   1   2
BRANCH   1  33
ATOM     33  C   UNL A   1      39.325  21.731  26.120  1.00  0.00     0.021 C 
BRANCH  33  34
ATOM     34  C   UNL A   1      40.451  22.275  26.985  1.00  0.00     0.116 C 
BRANCH  34  35
ATOM     35  N   UNL A   1      41.619  22.754  26.256  1.00  0.00    -0.352 N 
ATOM     36  C   UNL A   1      41.963  24.063  25.933  1.00  0.00     0.251 C 
ATOM     37  H   UNL A   1      42.248  22.060  25.953  1.00  0.00     0.163 HD
ATOM     38  O   UNL A   1      42.979  24.317  25.323  1.00  0.00    -0.269 OA
BRANCH  36  39
ATOM     39  C   UNL A   1      41.111  25.160  26.461  1.00  0.00     0.039 A 
ATOM     40  C   UNL A   1      41.163  26.402  25.821  1.00  0.00     0.014 A 
ATOM     41  C   UNL A   1      40.467  25.023  27.686  1.00  0.00     0.014 A 
ATOM     42  C   UNL A   1      40.805  27.545  26.534  1.00  0.00     0.010 A 
ATOM     43  C   UNL A   1      40.214  26.157  28.431  1.00  0.00     0.010 A 
ATOM     44  C   UNL A   1      40.454  27.420  27.879  1.00  0.00    -0.014 A 
BRANCH  44  45
ATOM     45  C   UNL A   1      40.433  28.540  28.812  1.00  0.00     0.031 A 
ATOM     46  C   UNL A   1      39.350  29.544  28.761  1.00  0.00     0.074 A 
ATOM     47  C   UNL A   1      41.367  28.607  29.787  1.00  0.00     0.049 A 
ATOM     48  N   UNL A   1      39.427  30.716  29.295  1.00  0.00    -0.248 NA
ATOM     49  C   UNL A   1      38.089  29.307  28.070  1.00  0.00     0.031 C 
ATOM     50  C   UNL A   1      41.373  29.483  30.958  1.00  0.00     0.029 A 
ATOM     51  N   UNL A   1      42.645  28.021  29.790  1.00  0.00    -0.354 N 
ATOM     52  C   UNL A   1      38.188  31.301  29.218  1.00  0.00     0.074 A 
ATOM     53  C   UNL A   1      37.391  30.392  28.425  1.00  0.00     0.031 C 
ATOM     54  C   UNL A   1      42.639  29.640  31.371  1.00  0.00     0.029 A 
ATOM     55  C   UNL A   1      43.492  28.982  30.399  1.00  0.00     0.049 A 
ATOM     56  H   UNL A   1      42.898  27.136  29.444  1.00  0.00     0.167 HD
ATOM     57  C   UNL A   1      37.946  32.453  29.908  1.00  0.00     0.037 A 
ATOM     58  C   UNL A   1      44.489  29.582  29.685  1.00  0.00     0.037 A 
ATOM     59  C   UNL A   1      39.146  32.947  30.574  1.00  0.00     0.049 A 
ATOM     60  C   UNL A   1      44.354  31.084  29.548  1.00  0.00     0.074 A 
ATOM     61  C   UNL A   1      39.661  32.845  31.856  1.00  0.00     0.029 A 
ATOM     62  N   UNL A   1      40.178  33.422  29.787  1.00  0.00    -0.354 N 
ATOM     63  N   UNL A   1      43.337  31.777  29.979  1.00  0.00    -0.248 NA
ATOM     64  C   UNL A   1      45.318  31.909  28.815  1.00  0.00     0.031 C 
ATOM     65  C   UNL A   1      41.025  33.254  31.821  1.00  0.00     0.029 A 
ATOM     66  C   UNL A   1      41.332  33.608  30.520  1.00  0.00     0.049 A 
ATOM     67  H   UNL A   1      40.100  33.606  28.823  1.00  0.00     0.167 HD
ATOM     68  C   UNL A   1      43.471  33.077  29.575  1.00  0.00     0.074 A 
ATOM     69  C   UNL A   1      44.724  33.113  28.846  1.00  0.00     0.031 C 
ATOM     70  C   UNL A   1      42.533  34.033  29.829  1.00  0.00     0.037 A 
BRANCH  57  71
ATOM     71  C   UNL A   1      36.573  33.030  30.126  1.00  0.00     0.064 A 
ATOM     72  C   UNL A   1      35.857  33.611  29.059  1.00  0.00     0.173 A 
ATOM     73  C   UNL A   1      35.923  33.071  31.373  1.00  0.00     0.173 A 
ATOM     74  F   UNL A   1      36.320  33.570  27.802  1.00  0.00    -0.203 F 
ATOM     75  C   UNL A   1      34.641  34.272  29.246  1.00  0.00     0.198 A 
ATOM     76  C   UNL A   1      34.738  33.785  31.573  1.00  0.00     0.198 A 
ATOM     77  F   UNL A   1      36.392  32.381  32.421  1.00  0.00    -0.203 F 
ATOM     78  F   UNL A   1      34.006  34.806  28.194  1.00  0.00    -0.200 F 
ATOM     79  C   UNL A   1      34.100  34.394  30.510  1.00  0.00     0.200 A 
ATOM     80  F   UNL A   1      34.218  33.880  32.805  1.00  0.00    -0.200 F 
ATOM     81  F   UNL A   1      32.963  35.075  30.700  1.00  0.00    -0.200 F 
ENDBRANCH  57  71
BRANCH  58  82
ATOM     82  C   UNL A   1      45.083  28.677  28.666  1.00  0.00     0.064 A 
ATOM     83  C   UNL A   1      45.956  27.660  29.104  1.00  0.00     0.173 A 
ATOM     84  C   UNL A   1      44.530  28.548  27.388  1.00  0.00     0.173 A 
ATOM     85  F   UNL A   1      46.515  27.736  30.323  1.00  0.00    -0.203 F 
ATOM     86  C   UNL A   1      46.152  26.503  28.356  1.00  0.00     0.198 A 
ATOM     87  C   UNL A   1      44.751  27.398  26.630  1.00  0.00     0.198 A 
ATOM     88  F   UNL A   1      43.677  29.471  26.919  1.00  0.00    -0.203 F 
ATOM     89  F   UNL A   1      46.877  25.495  28.863  1.00  0.00    -0.200 F 
ATOM     90  C   UNL A   1      45.525  26.361  27.131  1.00  0.00     0.200 A 
ATOM     91  F   UNL A   1      44.126  27.249  25.454  1.00  0.00    -0.200 F 
ATOM     92  F   UNL A   1      45.629  25.209  26.454  1.00  0.00    -0.200 F 
ENDBRANCH  58  82
BRANCH  70  93
ATOM     93  C   UNL A   1      42.692  35.466  29.424  1.00  0.00     0.064 A 
ATOM     94  C   UNL A   1      42.231  35.946  28.189  1.00  0.00     0.173 A 
ATOM     95  C   UNL A   1      43.421  36.377  30.217  1.00  0.00     0.173 A 
ATOM     96  F   UNL A   1      41.576  35.135  27.342  1.00  0.00    -0.203 F 
ATOM     97  C   UNL A   1      42.447  37.265  27.790  1.00  0.00     0.198 A 
ATOM     98  C   UNL A   1      43.679  37.679  29.794  1.00  0.00     0.198 A 
ATOM     99  F   UNL A   1      43.880  36.032  31.429  1.00  0.00    -0.203 F 
ATOM    100  F   UNL A   1      41.944  37.699  26.626  1.00  0.00    -0.200 F 
ATOM    101  C   UNL A   1      43.180  38.128  28.588  1.00  0.00     0.200 A 
ATOM    102  F   UNL A   1      44.408  38.496  30.569  1.00  0.00    -0.200 F 
ATOM    103  F   UNL A   1      43.403  39.389  28.196  1.00  0.00    -0.200 F 
ENDBRANCH  70  93
ENDBRANCH  44  45
ENDBRANCH  36  39
ENDBRANCH  34  35
ENDBRANCH  33  34
ENDBRANCH   1  33
TORSDOF 14
ENDMDL
