MODEL 1
REMARK VINA RESULT:     -11.7      0.000      0.000
REMARK SMILES CC[C@@](C)(NC(=O)[C@@H](C)NC(=O)c1ccco1)C(=O)NCCCCCCNC(=O)c1ccc(-c2c3nc(c(-c4c(F)c(F)c(F)c(F)c4F)c4ccc([nH]4)c(-c4c(F)c(F)c(F)c(F)c4F)c4nc(c(-c5c(F)c(F)c(F)c(F)c5F)c5ccc2[nH]5)C=C4)C=C3)cc1
REMARK SMILES IDX 22 1 21 2 20 3 18 4 19 5 3 7 4 8 2 9 1 10 5 11 6 12 7 14
REMARK SMILES IDX 8 15 9 16 10 17 11 18 12 20 13 21 14 22 17 23 15 24 16 25
REMARK SMILES IDX 23 26 24 27 25 28 26 29 27 30 28 31 29 33 30 34 31 35 92 36
REMARK SMILES IDX 32 37 91 38 33 39 34 40 35 41 85 42 36 43 90 44 84 45 86 46
REMARK SMILES IDX 37 47 89 48 83 49 82 50 38 52 70 53 50 54 69 55 51 56 54 57
REMARK SMILES IDX 68 58 87 59 52 60 53 61 67 63 88 64 55 65 39 66 40 67 48 68
REMARK SMILES IDX 41 69 42 70 46 71 49 72 43 73 44 74 47 75 45 76 71 77 72 78
REMARK SMILES IDX 80 79 73 80 74 81 78 82 81 83 75 84 76 85 79 86 77 87 56 88
REMARK SMILES IDX 57 89 65 90 58 91 59 92 63 93 66 94 60 95 61 96 64 97 62 98
REMARK H PARENT 20 6 5 13 10 19 27 32 86 51 54 62
REMARK Flexibility Score: inf
ROOT
ATOM      1  C   UNL A   1      33.890  28.944  26.557  1.00  0.00     0.021 C 
ENDROOT
BRANCH   1   2
ATOM      2  C   UNL A   1      33.403  27.796  25.676  1.00  0.00     0.116 C 
BRANCH   2   3
ATOM      3  N   UNL A   1      32.299  27.055  26.269  1.00  0.00    -0.354 N 
ATOM      4  C   UNL A   1      31.087  26.669  25.780  1.00  0.00     0.245 C 
ATOM      5  O   UNL A   1      30.274  26.242  26.606  1.00  0.00    -0.272 OA
ATOM      6  H   UNL A   1      32.459  26.782  27.202  1.00  0.00     0.163 HD
BRANCH   4   7
ATOM      7  C   UNL A   1      30.703  26.819  24.291  1.00  0.00     0.116 C 
ATOM      8  C   UNL A   1      29.257  26.295  24.094  1.00  0.00     0.045 C 
BRANCH   7   9
ATOM      9  C   UNL A   1      30.714  28.286  23.777  1.00  0.00     0.035 C 
ATOM     10  C   UNL A   1      29.797  28.617  22.601  1.00  0.00     0.007 C 
ENDBRANCH   7   9
BRANCH   7  11
ATOM     11  N   UNL A   1      31.640  26.019  23.464  1.00  0.00    -0.340 N 
ATOM     12  C   UNL A   1      32.016  24.715  23.416  1.00  0.00     0.243 C 
ATOM     13  H   UNL A   1      32.099  26.566  22.787  1.00  0.00     0.164 HD
ATOM     14  O   UNL A   1      33.120  24.538  22.873  1.00  0.00    -0.273 OA
BRANCH  12  15
ATOM     15  C   UNL A   1      31.301  23.472  24.035  1.00  0.00     0.168 C 
ATOM     16  C   UNL A   1      31.918  22.157  23.575  1.00  0.00     0.041 C 
BRANCH  15  17
ATOM     17  N   UNL A   1      31.040  23.385  25.468  1.00  0.00    -0.338 N 
ATOM     18  C   UNL A   1      31.929  23.279  26.516  1.00  0.00     0.287 C 
ATOM     19  H   UNL A   1      30.090  23.406  25.724  1.00  0.00     0.164 HD
ATOM     20  O   UNL A   1      31.460  23.240  27.654  1.00  0.00    -0.266 OA
BRANCH  18  21
ATOM     21  C   UNL A   1      33.352  23.199  26.263  1.00  0.00     0.191 A 
ATOM     22  C   UNL A   1      34.341  24.157  26.123  1.00  0.00     0.056 A 
ATOM     23  O   UNL A   1      33.927  21.955  26.207  1.00  0.00    -0.459 OA
ATOM     24  C   UNL A   1      35.566  23.463  25.956  1.00  0.00     0.043 A 
ATOM     25  C   UNL A   1      35.258  22.126  26.008  1.00  0.00     0.196 A 
ENDBRANCH  18  21
ENDBRANCH  15  17
ENDBRANCH  12  15
ENDBRANCH   7  11
ENDBRANCH   4   7
ENDBRANCH   2   3
ENDBRANCH   1   2
BRANCH   1  26
ATOM     26  C   UNL A   1      32.773  29.743  27.225  1.00  0.00     0.002 C 
BRANCH  26  27
ATOM     27  C   UNL A   1      31.947  30.640  26.310  1.00  0.00     0.002 C 
BRANCH  27  28
ATOM     28  C   UNL A   1      31.598  32.002  26.900  1.00  0.00     0.021 C 
BRANCH  28  29
ATOM     29  C   UNL A   1      32.794  32.835  27.349  1.00  0.00     0.116 C 
BRANCH  29  30
ATOM     30  N   UNL A   1      32.449  34.214  27.668  1.00  0.00    -0.352 N 
ATOM     31  C   UNL A   1      33.000  35.045  28.618  1.00  0.00     0.251 C 
ATOM     32  H   UNL A   1      31.723  34.606  27.130  1.00  0.00     0.163 HD
ATOM     33  O   UNL A   1      32.541  36.150  28.852  1.00  0.00    -0.269 OA
BRANCH  31  34
ATOM     34  C   UNL A   1      34.158  34.544  29.386  1.00  0.00     0.039 A 
ATOM     35  C   UNL A   1      33.937  33.903  30.606  1.00  0.00     0.014 A 
ATOM     36  C   UNL A   1      35.438  34.620  28.835  1.00  0.00     0.014 A 
ATOM     37  C   UNL A   1      34.999  33.250  31.233  1.00  0.00     0.010 A 
ATOM     38  C   UNL A   1      36.472  33.898  29.417  1.00  0.00     0.010 A 
ATOM     39  C   UNL A   1      36.260  33.199  30.618  1.00  0.00    -0.014 A 
BRANCH  39  40
ATOM     40  C   UNL A   1      37.377  32.416  31.203  1.00  0.00     0.031 A 
ATOM     41  C   UNL A   1      37.883  32.752  32.577  1.00  0.00     0.074 A 
ATOM     42  C   UNL A   1      37.992  31.470  30.466  1.00  0.00     0.049 A 
ATOM     43  N   UNL A   1      38.906  32.259  33.228  1.00  0.00    -0.248 NA
ATOM     44  C   UNL A   1      37.166  33.812  33.304  1.00  0.00     0.031 C 
ATOM     45  C   UNL A   1      37.640  31.100  29.094  1.00  0.00     0.029 A 
ATOM     46  N   UNL A   1      39.057  30.656  30.764  1.00  0.00    -0.354 N 
ATOM     47  C   UNL A   1      38.973  32.970  34.417  1.00  0.00     0.074 A 
ATOM     48  C   UNL A   1      37.921  33.962  34.381  1.00  0.00     0.031 C 
ATOM     49  C   UNL A   1      38.455  30.117  28.678  1.00  0.00     0.029 A 
ATOM     50  C   UNL A   1      39.410  29.810  29.739  1.00  0.00     0.049 A 
ATOM     51  H   UNL A   1      39.525  30.677  31.629  1.00  0.00     0.167 HD
ATOM     52  C   UNL A   1      39.821  32.796  35.458  1.00  0.00     0.037 A 
ATOM     53  C   UNL A   1      40.393  28.894  29.667  1.00  0.00     0.037 A 
ATOM     54  C   UNL A   1      40.828  31.771  35.514  1.00  0.00     0.049 A 
ATOM     55  C   UNL A   1      41.294  28.691  30.857  1.00  0.00     0.074 A 
ATOM     56  C   UNL A   1      41.672  31.448  36.562  1.00  0.00     0.029 A 
ATOM     57  N   UNL A   1      41.122  30.899  34.477  1.00  0.00    -0.354 N 
ATOM     58  N   UNL A   1      41.291  29.310  32.011  1.00  0.00    -0.248 NA
ATOM     59  C   UNL A   1      42.330  27.656  30.734  1.00  0.00     0.031 C 
ATOM     60  C   UNL A   1      42.504  30.402  36.145  1.00  0.00     0.029 A 
ATOM     61  C   UNL A   1      42.148  30.048  34.854  1.00  0.00     0.049 A 
ATOM     62  H   UNL A   1      40.669  30.886  33.603  1.00  0.00     0.167 HD
ATOM     63  C   UNL A   1      42.300  28.722  32.763  1.00  0.00     0.074 A 
ATOM     64  C   UNL A   1      42.886  27.687  31.937  1.00  0.00     0.031 C 
ATOM     65  C   UNL A   1      42.706  29.012  34.022  1.00  0.00     0.037 A 
BRANCH  52  66
ATOM     66  C   UNL A   1      39.686  33.725  36.628  1.00  0.00     0.064 A 
ATOM     67  C   UNL A   1      40.352  34.959  36.670  1.00  0.00     0.173 A 
ATOM     68  C   UNL A   1      38.855  33.389  37.707  1.00  0.00     0.173 A 
ATOM     69  F   UNL A   1      41.169  35.319  35.669  1.00  0.00    -0.203 F 
ATOM     70  C   UNL A   1      40.214  35.810  37.762  1.00  0.00     0.198 A 
ATOM     71  C   UNL A   1      38.695  34.258  38.785  1.00  0.00     0.198 A 
ATOM     72  F   UNL A   1      38.192  32.224  37.715  1.00  0.00    -0.203 F 
ATOM     73  F   UNL A   1      40.898  36.962  37.803  1.00  0.00    -0.200 F 
ATOM     74  C   UNL A   1      39.380  35.463  38.815  1.00  0.00     0.200 A 
ATOM     75  F   UNL A   1      37.881  33.925  39.796  1.00  0.00    -0.200 F 
ATOM     76  F   UNL A   1      39.243  36.287  39.863  1.00  0.00    -0.200 F 
ENDBRANCH  52  66
BRANCH  53  77
ATOM     77  C   UNL A   1      40.562  28.071  28.441  1.00  0.00     0.064 A 
ATOM     78  C   UNL A   1      39.960  26.808  28.337  1.00  0.00     0.173 A 
ATOM     79  C   UNL A   1      41.338  28.514  27.361  1.00  0.00     0.173 A 
ATOM     80  F   UNL A   1      39.225  26.332  29.353  1.00  0.00    -0.203 F 
ATOM     81  C   UNL A   1      40.150  26.010  27.211  1.00  0.00     0.198 A 
ATOM     82  C   UNL A   1      41.505  27.725  26.224  1.00  0.00     0.198 A 
ATOM     83  F   UNL A   1      41.931  29.715  27.409  1.00  0.00    -0.203 F 
ATOM     84  F   UNL A   1      39.604  24.787  27.160  1.00  0.00    -0.200 F 
ATOM     85  C   UNL A   1      40.920  26.471  26.154  1.00  0.00     0.200 A 
ATOM     86  F   UNL A   1      42.241  28.178  25.199  1.00  0.00    -0.200 F 
ATOM     87  F   UNL A   1      41.103  25.702  25.072  1.00  0.00    -0.200 F 
ENDBRANCH  53  77
BRANCH  65  88
ATOM     88  C   UNL A   1      43.808  28.177  34.600  1.00  0.00     0.064 A 
ATOM     89  C   UNL A   1      45.153  28.560  34.492  1.00  0.00     0.173 A 
ATOM     90  C   UNL A   1      43.510  27.005  35.311  1.00  0.00     0.173 A 
ATOM     91  F   UNL A   1      45.488  29.664  33.809  1.00  0.00    -0.203 F 
ATOM     92  C   UNL A   1      46.162  27.787  35.060  1.00  0.00     0.198 A 
ATOM     93  C   UNL A   1      44.520  26.249  35.901  1.00  0.00     0.198 A 
ATOM     94  F   UNL A   1      42.238  26.601  35.447  1.00  0.00    -0.203 F 
ATOM     95  F   UNL A   1      47.444  28.148  34.909  1.00  0.00    -0.200 F 
ATOM     96  C   UNL A   1      45.845  26.637  35.768  1.00  0.00     0.200 A 
ATOM     97  F   UNL A   1      44.211  25.146  36.596  1.00  0.00    -0.200 F 
ATOM     98  F   UNL A   1      46.817  25.900  36.322  1.00  0.00    -0.200 F 
ENDBRANCH  65  88
ENDBRANCH  39  40
ENDBRANCH  31  34
ENDBRANCH  29  30
ENDBRANCH  28  29
ENDBRANCH  27  28
ENDBRANCH  26  27
ENDBRANCH   1  26
TORSDOF 18
ENDMDL
MODEL 2
REMARK VINA RESULT:     -11.6      0.685      7.304
REMARK SMILES CC[C@@](C)(NC(=O)[C@@H](C)NC(=O)c1ccco1)C(=O)NCCCCCCNC(=O)c1ccc(-c2c3nc(c(-c4c(F)c(F)c(F)c(F)c4F)c4ccc([nH]4)c(-c4c(F)c(F)c(F)c(F)c4F)c4nc(c(-c5c(F)c(F)c(F)c(F)c5F)c5ccc2[nH]5)C=C4)C=C3)cc1
REMARK SMILES IDX 22 1 21 2 20 3 18 4 19 5 3 7 4 8 2 9 1 10 5 11 6 12 7 14
REMARK SMILES IDX 8 15 9 16 10 17 11 18 12 20 13 21 14 22 17 23 15 24 16 25
REMARK SMILES IDX 23 26 24 27 25 28 26 29 27 30 28 31 29 33 30 34 31 35 92 36
REMARK SMILES IDX 32 37 91 38 33 39 34 40 35 41 85 42 36 43 90 44 84 45 86 46
REMARK SMILES IDX 37 47 89 48 83 49 82 50 38 52 70 53 50 54 69 55 51 56 54 57
REMARK SMILES IDX 68 58 87 59 52 60 53 61 67 63 88 64 55 65 39 66 40 67 48 68
REMARK SMILES IDX 41 69 42 70 46 71 49 72 43 73 44 74 47 75 45 76 71 77 72 78
REMARK SMILES IDX 80 79 73 80 74 81 78 82 81 83 75 84 76 85 79 86 77 87 56 88
REMARK SMILES IDX 57 89 65 90 58 91 59 92 63 93 66 94 60 95 61 96 64 97 62 98
REMARK H PARENT 20 6 5 13 10 19 27 32 86 51 54 62
REMARK Flexibility Score: inf
ROOT
ATOM      1  C   UNL A   1      34.145  28.541  26.617  1.00  0.00     0.021 C 
ENDROOT
BRANCH   1   2
ATOM      2  C   UNL A   1      33.653  27.393  25.739  1.00  0.00     0.116 C 
BRANCH   2   3
ATOM      3  N   UNL A   1      32.454  26.754  26.261  1.00  0.00    -0.354 N 
ATOM      4  C   UNL A   1      31.249  26.464  25.694  1.00  0.00     0.245 C 
ATOM      5  O   UNL A   1      30.349  26.116  26.466  1.00  0.00    -0.272 OA
ATOM      6  H   UNL A   1      32.528  26.479  27.204  1.00  0.00     0.163 HD
BRANCH   4   7
ATOM      7  C   UNL A   1      30.979  26.627  24.182  1.00  0.00     0.116 C 
ATOM      8  C   UNL A   1      29.535  26.149  23.878  1.00  0.00     0.045 C 
BRANCH   7   9
ATOM      9  C   UNL A   1      31.073  28.093  23.674  1.00  0.00     0.035 C 
ATOM     10  C   UNL A   1      29.758  28.825  23.415  1.00  0.00     0.007 C 
ENDBRANCH   7   9
BRANCH   7  11
ATOM     11  N   UNL A   1      31.948  25.798  23.422  1.00  0.00    -0.340 N 
ATOM     12  C   UNL A   1      32.302  24.488  23.414  1.00  0.00     0.243 C 
ATOM     13  H   UNL A   1      32.457  26.328  22.766  1.00  0.00     0.164 HD
ATOM     14  O   UNL A   1      33.433  24.284  22.940  1.00  0.00    -0.273 OA
BRANCH  12  15
ATOM     15  C   UNL A   1      31.529  23.267  24.007  1.00  0.00     0.168 C 
ATOM     16  C   UNL A   1      32.118  21.934  23.561  1.00  0.00     0.041 C 
BRANCH  15  17
ATOM     17  N   UNL A   1      31.221  23.185  25.430  1.00  0.00    -0.338 N 
ATOM     18  C   UNL A   1      32.071  23.026  26.503  1.00  0.00     0.287 C 
ATOM     19  H   UNL A   1      30.266  23.254  25.657  1.00  0.00     0.164 HD
ATOM     20  O   UNL A   1      31.566  23.004  27.627  1.00  0.00    -0.266 OA
BRANCH  18  21
ATOM     21  C   UNL A   1      33.495  22.872  26.292  1.00  0.00     0.191 A 
ATOM     22  C   UNL A   1      34.531  23.779  26.155  1.00  0.00     0.056 A 
ATOM     23  O   UNL A   1      34.012  21.602  26.285  1.00  0.00    -0.459 OA
ATOM     24  C   UNL A   1      35.727  23.025  26.040  1.00  0.00     0.043 A 
ATOM     25  C   UNL A   1      35.354  21.705  26.119  1.00  0.00     0.196 A 
ENDBRANCH  18  21
ENDBRANCH  15  17
ENDBRANCH  12  15
ENDBRANCH   7  11
ENDBRANCH   4   7
ENDBRANCH   2   3
ENDBRANCH   1   2
BRANCH   1  26
ATOM     26  C   UNL A   1      33.031  29.404  27.206  1.00  0.00     0.002 C 
BRANCH  26  27
ATOM     27  C   UNL A   1      32.354  30.376  26.247  1.00  0.00     0.002 C 
BRANCH  27  28
ATOM     28  C   UNL A   1      31.839  31.657  26.896  1.00  0.00     0.021 C 
BRANCH  28  29
ATOM     29  C   UNL A   1      32.919  32.559  27.486  1.00  0.00     0.116 C 
BRANCH  29  30
ATOM     30  N   UNL A   1      32.485  33.939  27.661  1.00  0.00    -0.352 N 
ATOM     31  C   UNL A   1      32.965  34.890  28.533  1.00  0.00     0.251 C 
ATOM     32  H   UNL A   1      31.750  34.230  27.075  1.00  0.00     0.163 HD
ATOM     33  O   UNL A   1      32.436  35.983  28.649  1.00  0.00    -0.269 OA
BRANCH  31  34
ATOM     34  C   UNL A   1      34.133  34.539  29.366  1.00  0.00     0.039 A 
ATOM     35  C   UNL A   1      33.925  34.060  30.659  1.00  0.00     0.014 A 
ATOM     36  C   UNL A   1      35.415  34.587  28.813  1.00  0.00     0.014 A 
ATOM     37  C   UNL A   1      35.004  33.536  31.373  1.00  0.00     0.010 A 
ATOM     38  C   UNL A   1      36.468  33.986  29.492  1.00  0.00     0.010 A 
ATOM     39  C   UNL A   1      36.272  33.448  30.774  1.00  0.00    -0.014 A 
BRANCH  39  40
ATOM     40  C   UNL A   1      37.410  32.792  31.464  1.00  0.00     0.031 A 
ATOM     41  C   UNL A   1      38.110  31.634  30.810  1.00  0.00     0.074 A 
ATOM     42  C   UNL A   1      37.752  33.176  32.710  1.00  0.00     0.049 A 
ATOM     43  N   UNL A   1      39.056  30.863  31.284  1.00  0.00    -0.248 NA
ATOM     44  C   UNL A   1      37.659  31.268  29.458  1.00  0.00     0.031 C 
ATOM     45  C   UNL A   1      37.104  34.241  33.478  1.00  0.00     0.029 A 
ATOM     46  N   UNL A   1      38.723  32.701  33.557  1.00  0.00    -0.354 N 
ATOM     47  C   UNL A   1      39.286  29.907  30.304  1.00  0.00     0.074 A 
ATOM     48  C   UNL A   1      38.349  30.161  29.232  1.00  0.00     0.031 C 
ATOM     49  C   UNL A   1      37.709  34.355  34.672  1.00  0.00     0.029 A 
ATOM     50  C   UNL A   1      38.766  33.352  34.767  1.00  0.00     0.049 A 
ATOM     51  H   UNL A   1      39.331  31.966  33.320  1.00  0.00     0.167 HD
ATOM     52  C   UNL A   1      40.212  28.920  30.289  1.00  0.00     0.037 A 
ATOM     53  C   UNL A   1      39.565  33.156  35.832  1.00  0.00     0.037 A 
ATOM     54  C   UNL A   1      41.180  28.707  31.332  1.00  0.00     0.049 A 
ATOM     55  C   UNL A   1      40.616  32.079  35.771  1.00  0.00     0.074 A 
ATOM     56  C   UNL A   1      42.221  27.798  31.368  1.00  0.00     0.029 A 
ATOM     57  N   UNL A   1      41.224  29.418  32.521  1.00  0.00    -0.354 N 
ATOM     58  N   UNL A   1      40.883  31.238  34.803  1.00  0.00    -0.248 NA
ATOM     59  C   UNL A   1      41.482  31.930  36.949  1.00  0.00     0.031 C 
ATOM     60  C   UNL A   1      42.876  27.934  32.597  1.00  0.00     0.029 A 
ATOM     61  C   UNL A   1      42.267  28.956  33.307  1.00  0.00     0.049 A 
ATOM     62  H   UNL A   1      40.607  30.144  32.769  1.00  0.00     0.167 HD
ATOM     63  C   UNL A   1      41.962  30.482  35.239  1.00  0.00     0.074 A 
ATOM     64  C   UNL A   1      42.311  30.974  36.556  1.00  0.00     0.031 C 
ATOM     65  C   UNL A   1      42.607  29.472  34.609  1.00  0.00     0.037 A 
BRANCH  52  66
ATOM     66  C   UNL A   1      40.233  28.004  29.101  1.00  0.00     0.064 A 
ATOM     67  C   UNL A   1      39.517  26.798  29.088  1.00  0.00     0.173 A 
ATOM     68  C   UNL A   1      40.955  28.353  27.950  1.00  0.00     0.173 A 
ATOM     69  F   UNL A   1      38.823  26.414  30.169  1.00  0.00    -0.203 F 
ATOM     70  C   UNL A   1      39.546  25.961  27.976  1.00  0.00     0.198 A 
ATOM     71  C   UNL A   1      40.957  27.527  26.828  1.00  0.00     0.198 A 
ATOM     72  F   UNL A   1      41.654  29.497  27.909  1.00  0.00    -0.203 F 
ATOM     73  F   UNL A   1      38.894  24.790  28.004  1.00  0.00    -0.200 F 
ATOM     74  C   UNL A   1      40.259  26.329  26.845  1.00  0.00     0.200 A 
ATOM     75  F   UNL A   1      41.638  27.890  25.732  1.00  0.00    -0.200 F 
ATOM     76  F   UNL A   1      40.280  25.525  25.773  1.00  0.00    -0.200 F 
ENDBRANCH  52  66
BRANCH  53  77
ATOM     77  C   UNL A   1      39.433  34.017  37.037  1.00  0.00     0.064 A 
ATOM     78  C   UNL A   1      40.074  35.263  37.100  1.00  0.00     0.173 A 
ATOM     79  C   UNL A   1      38.687  33.610  38.152  1.00  0.00     0.173 A 
ATOM     80  F   UNL A   1      40.816  35.687  36.066  1.00  0.00    -0.203 F 
ATOM     81  C   UNL A   1      39.994  36.057  38.243  1.00  0.00     0.198 A 
ATOM     82  C   UNL A   1      38.587  34.417  39.284  1.00  0.00     0.198 A 
ATOM     83  F   UNL A   1      38.053  32.429  38.140  1.00  0.00    -0.203 F 
ATOM     84  F   UNL A   1      40.657  37.221  38.294  1.00  0.00    -0.200 F 
ATOM     85  C   UNL A   1      39.247  35.634  39.332  1.00  0.00     0.200 A 
ATOM     86  F   UNL A   1      37.855  34.011  40.331  1.00  0.00    -0.200 F 
ATOM     87  F   UNL A   1      39.173  36.398  40.431  1.00  0.00    -0.200 F 
ENDBRANCH  53  77
BRANCH  65  88
ATOM     88  C   UNL A   1      43.779  28.856  35.314  1.00  0.00     0.064 A 
ATOM     89  C   UNL A   1      45.089  29.298  35.083  1.00  0.00     0.173 A 
ATOM     90  C   UNL A   1      43.581  27.846  36.267  1.00  0.00     0.173 A 
ATOM     91  F   UNL A   1      45.330  30.251  34.171  1.00  0.00    -0.203 F 
ATOM     92  C   UNL A   1      46.163  28.735  35.768  1.00  0.00     0.198 A 
ATOM     93  C   UNL A   1      44.653  27.305  36.969  1.00  0.00     0.198 A 
ATOM     94  F   UNL A   1      42.344  27.395  36.527  1.00  0.00    -0.203 F 
ATOM     95  F   UNL A   1      47.411  29.142  35.502  1.00  0.00    -0.200 F 
ATOM     96  C   UNL A   1      45.943  27.745  36.714  1.00  0.00     0.200 A 
ATOM     97  F   UNL A   1      44.439  26.358  37.893  1.00  0.00    -0.200 F 
ATOM     98  F   UNL A   1      46.977  27.211  37.379  1.00  0.00    -0.200 F 
ENDBRANCH  65  88
ENDBRANCH  39  40
ENDBRANCH  31  34
ENDBRANCH  29  30
ENDBRANCH  28  29
ENDBRANCH  27  28
ENDBRANCH  26  27
ENDBRANCH   1  26
TORSDOF 18
ENDMDL
MODEL 3
REMARK VINA RESULT:     -11.4      5.375      9.926
REMARK SMILES CC[C@@](C)(NC(=O)[C@@H](C)NC(=O)c1ccco1)C(=O)NCCCCCCNC(=O)c1ccc(-c2c3nc(c(-c4c(F)c(F)c(F)c(F)c4F)c4ccc([nH]4)c(-c4c(F)c(F)c(F)c(F)c4F)c4nc(c(-c5c(F)c(F)c(F)c(F)c5F)c5ccc2[nH]5)C=C4)C=C3)cc1
REMARK SMILES IDX 22 1 21 2 20 3 18 4 19 5 3 7 4 8 2 9 1 10 5 11 6 12 7 14
REMARK SMILES IDX 8 15 9 16 10 17 11 18 12 20 13 21 14 22 17 23 15 24 16 25
REMARK SMILES IDX 23 26 24 27 25 28 26 29 27 30 28 31 29 33 30 34 31 35 92 36
REMARK SMILES IDX 32 37 91 38 33 39 34 40 35 41 85 42 36 43 90 44 84 45 86 46
REMARK SMILES IDX 37 47 89 48 83 49 82 50 38 52 70 53 50 54 69 55 51 56 54 57
REMARK SMILES IDX 68 58 87 59 52 60 53 61 67 63 88 64 55 65 39 66 40 67 48 68
REMARK SMILES IDX 41 69 42 70 46 71 49 72 43 73 44 74 47 75 45 76 71 77 72 78
REMARK SMILES IDX 80 79 73 80 74 81 78 82 81 83 75 84 76 85 79 86 77 87 56 88
REMARK SMILES IDX 57 89 65 90 58 91 59 92 63 93 66 94 60 95 61 96 64 97 62 98
REMARK H PARENT 20 6 5 13 10 19 27 32 86 51 54 62
REMARK Flexibility Score: inf
ROOT
ATOM      1  C   UNL A   1      35.014  20.584  25.040  1.00  0.00     0.021 C 
ENDROOT
BRANCH   1   2
ATOM      2  C   UNL A   1      33.569  21.075  25.010  1.00  0.00     0.116 C 
BRANCH   2   3
ATOM      3  N   UNL A   1      32.935  20.890  23.713  1.00  0.00    -0.354 N 
ATOM      4  C   UNL A   1      32.324  21.759  22.859  1.00  0.00     0.245 C 
ATOM      5  O   UNL A   1      31.682  21.256  21.931  1.00  0.00    -0.272 OA
ATOM      6  H   UNL A   1      32.949  19.959  23.392  1.00  0.00     0.163 HD
BRANCH   4   7
ATOM      7  C   UNL A   1      32.357  23.290  23.064  1.00  0.00     0.116 C 
ATOM      8  C   UNL A   1      30.917  23.785  23.360  1.00  0.00     0.045 C 
BRANCH   7   9
ATOM      9  C   UNL A   1      33.236  23.752  24.260  1.00  0.00     0.035 C 
ATOM     10  C   UNL A   1      34.590  24.374  23.928  1.00  0.00     0.007 C 
ENDBRANCH   7   9
BRANCH   7  11
ATOM     11  N   UNL A   1      32.861  23.937  21.827  1.00  0.00    -0.340 N 
ATOM     12  C   UNL A   1      32.837  25.193  21.314  1.00  0.00     0.243 C 
ATOM     13  H   UNL A   1      33.324  23.300  21.236  1.00  0.00     0.164 HD
ATOM     14  O   UNL A   1      32.990  25.228  20.081  1.00  0.00    -0.273 OA
BRANCH  12  15
ATOM     15  C   UNL A   1      32.543  26.540  22.050  1.00  0.00     0.168 C 
ATOM     16  C   UNL A   1      33.681  27.543  21.904  1.00  0.00     0.041 C 
BRANCH  15  17
ATOM     17  N   UNL A   1      31.278  27.243  21.864  1.00  0.00    -0.338 N 
ATOM     18  C   UNL A   1      30.543  27.980  22.768  1.00  0.00     0.287 C 
ATOM     19  H   UNL A   1      30.893  27.181  20.960  1.00  0.00     0.164 HD
ATOM     20  O   UNL A   1      29.502  28.499  22.361  1.00  0.00    -0.266 OA
BRANCH  18  21
ATOM     21  C   UNL A   1      30.987  28.108  24.140  1.00  0.00     0.191 A 
ATOM     22  C   UNL A   1      31.482  29.170  24.875  1.00  0.00     0.056 A 
ATOM     23  O   UNL A   1      30.855  27.019  24.963  1.00  0.00    -0.459 OA
ATOM     24  C   UNL A   1      31.679  28.699  26.198  1.00  0.00     0.043 A 
ATOM     25  C   UNL A   1      31.288  27.382  26.196  1.00  0.00     0.196 A 
ENDBRANCH  18  21
ENDBRANCH  15  17
ENDBRANCH  12  15
ENDBRANCH   7  11
ENDBRANCH   4   7
ENDBRANCH   2   3
ENDBRANCH   1   2
BRANCH   1  26
ATOM     26  C   UNL A   1      36.014  21.605  25.580  1.00  0.00     0.002 C 
BRANCH  26  27
ATOM     27  C   UNL A   1      37.380  21.632  24.904  1.00  0.00     0.002 C 
BRANCH  27  28
ATOM     28  C   UNL A   1      38.202  20.358  25.075  1.00  0.00     0.021 C 
BRANCH  28  29
ATOM     29  C   UNL A   1      39.450  20.509  25.938  1.00  0.00     0.116 C 
BRANCH  29  30
ATOM     30  N   UNL A   1      40.292  19.320  25.947  1.00  0.00    -0.352 N 
ATOM     31  C   UNL A   1      41.655  19.227  26.122  1.00  0.00     0.251 C 
ATOM     32  H   UNL A   1      39.822  18.466  25.809  1.00  0.00     0.163 HD
ATOM     33  O   UNL A   1      42.250  18.170  26.001  1.00  0.00    -0.269 OA
BRANCH  31  34
ATOM     34  C   UNL A   1      42.397  20.466  26.433  1.00  0.00     0.039 A 
ATOM     35  C   UNL A   1      42.978  21.188  25.390  1.00  0.00     0.014 A 
ATOM     36  C   UNL A   1      42.414  20.953  27.741  1.00  0.00     0.014 A 
ATOM     37  C   UNL A   1      43.501  22.456  25.648  1.00  0.00     0.010 A 
ATOM     38  C   UNL A   1      42.855  22.248  27.977  1.00  0.00     0.010 A 
ATOM     39  C   UNL A   1      43.396  23.015  26.932  1.00  0.00    -0.014 A 
BRANCH  39  40
ATOM     40  C   UNL A   1      43.837  24.405  27.210  1.00  0.00     0.031 A 
ATOM     41  C   UNL A   1      42.847  25.414  27.717  1.00  0.00     0.074 A 
ATOM     42  C   UNL A   1      45.099  24.779  26.920  1.00  0.00     0.049 A 
ATOM     43  N   UNL A   1      43.003  26.697  27.927  1.00  0.00    -0.248 NA
ATOM     44  C   UNL A   1      41.485  24.925  27.987  1.00  0.00     0.031 C 
ATOM     45  C   UNL A   1      46.135  23.910  26.358  1.00  0.00     0.029 A 
ATOM     46  N   UNL A   1      45.722  25.997  27.043  1.00  0.00    -0.354 N 
ATOM     47  C   UNL A   1      41.758  27.168  28.319  1.00  0.00     0.074 A 
ATOM     48  C   UNL A   1      40.844  26.048  28.271  1.00  0.00     0.031 C 
ATOM     49  C   UNL A   1      47.269  24.614  26.209  1.00  0.00     0.029 A 
ATOM     50  C   UNL A   1      47.033  25.991  26.632  1.00  0.00     0.049 A 
ATOM     51  H   UNL A   1      45.272  26.798  27.393  1.00  0.00     0.167 HD
ATOM     52  C   UNL A   1      41.413  28.418  28.708  1.00  0.00     0.037 A 
ATOM     53  C   UNL A   1      47.939  26.986  26.599  1.00  0.00     0.037 A 
ATOM     54  C   UNL A   1      42.338  29.514  28.810  1.00  0.00     0.049 A 
ATOM     55  C   UNL A   1      47.540  28.357  27.079  1.00  0.00     0.074 A 
ATOM     56  C   UNL A   1      42.109  30.793  29.286  1.00  0.00     0.029 A 
ATOM     57  N   UNL A   1      43.670  29.457  28.432  1.00  0.00    -0.354 N 
ATOM     58  N   UNL A   1      46.382  28.770  27.531  1.00  0.00    -0.248 NA
ATOM     59  C   UNL A   1      48.577  29.397  27.050  1.00  0.00     0.031 C 
ATOM     60  C   UNL A   1      43.297  31.522  29.163  1.00  0.00     0.029 A 
ATOM     61  C   UNL A   1      44.274  30.685  28.648  1.00  0.00     0.049 A 
ATOM     62  H   UNL A   1      44.121  28.662  28.065  1.00  0.00     0.167 HD
ATOM     63  C   UNL A   1      46.557  30.104  27.869  1.00  0.00     0.074 A 
ATOM     64  C   UNL A   1      47.938  30.430  27.581  1.00  0.00     0.031 C 
ATOM     65  C   UNL A   1      45.656  30.983  28.371  1.00  0.00     0.037 A 
BRANCH  52  66
ATOM     66  C   UNL A   1      39.977  28.662  29.067  1.00  0.00     0.064 A 
ATOM     67  C   UNL A   1      39.497  28.445  30.367  1.00  0.00     0.173 A 
ATOM     68  C   UNL A   1      39.079  29.150  28.107  1.00  0.00     0.173 A 
ATOM     69  F   UNL A   1      40.313  27.967  31.317  1.00  0.00    -0.203 F 
ATOM     70  C   UNL A   1      38.161  28.679  30.685  1.00  0.00     0.198 A 
ATOM     71  C   UNL A   1      37.751  29.412  28.436  1.00  0.00     0.198 A 
ATOM     72  F   UNL A   1      39.488  29.378  26.850  1.00  0.00    -0.203 F 
ATOM     73  F   UNL A   1      37.713  28.418  31.921  1.00  0.00    -0.200 F 
ATOM     74  C   UNL A   1      37.292  29.169  29.722  1.00  0.00     0.200 A 
ATOM     75  F   UNL A   1      36.914  29.895  27.507  1.00  0.00    -0.200 F 
ATOM     76  F   UNL A   1      36.008  29.400  30.031  1.00  0.00    -0.200 F 
ENDBRANCH  52  66
BRANCH  53  77
ATOM     77  C   UNL A   1      49.324  26.723  26.127  1.00  0.00     0.064 A 
ATOM     78  C   UNL A   1      49.682  26.956  24.791  1.00  0.00     0.173 A 
ATOM     79  C   UNL A   1      50.308  26.218  26.987  1.00  0.00     0.173 A 
ATOM     80  F   UNL A   1      48.769  27.420  23.925  1.00  0.00    -0.203 F 
ATOM     81  C   UNL A   1      50.965  26.669  24.328  1.00  0.00     0.198 A 
ATOM     82  C   UNL A   1      51.599  25.956  26.529  1.00  0.00     0.198 A 
ATOM     83  F   UNL A   1      50.018  25.981  28.275  1.00  0.00    -0.203 F 
ATOM     84  F   UNL A   1      51.265  26.855  23.035  1.00  0.00    -0.200 F 
ATOM     85  C   UNL A   1      51.923  26.172  25.199  1.00  0.00     0.200 A 
ATOM     86  F   UNL A   1      52.526  25.486  27.375  1.00  0.00    -0.200 F 
ATOM     87  F   UNL A   1      53.156  25.895  24.752  1.00  0.00    -0.200 F 
ENDBRANCH  53  77
BRANCH  65  88
ATOM     88  C   UNL A   1      46.143  32.367  28.679  1.00  0.00     0.064 A 
ATOM     89  C   UNL A   1      46.071  33.398  27.732  1.00  0.00     0.173 A 
ATOM     90  C   UNL A   1      46.642  32.675  29.954  1.00  0.00     0.173 A 
ATOM     91  F   UNL A   1      45.615  33.148  26.495  1.00  0.00    -0.203 F 
ATOM     92  C   UNL A   1      46.500  34.685  28.043  1.00  0.00     0.198 A 
ATOM     93  C   UNL A   1      47.044  33.969  30.271  1.00  0.00     0.198 A 
ATOM     94  F   UNL A   1      46.723  31.724  30.896  1.00  0.00    -0.203 F 
ATOM     95  F   UNL A   1      46.463  35.646  27.110  1.00  0.00    -0.200 F 
ATOM     96  C   UNL A   1      46.980  34.971  29.313  1.00  0.00     0.200 A 
ATOM     97  F   UNL A   1      47.495  34.247  31.502  1.00  0.00    -0.200 F 
ATOM     98  F   UNL A   1      47.385  36.212  29.615  1.00  0.00    -0.200 F 
ENDBRANCH  65  88
ENDBRANCH  39  40
ENDBRANCH  31  34
ENDBRANCH  29  30
ENDBRANCH  28  29
ENDBRANCH  27  28
ENDBRANCH  26  27
ENDBRANCH   1  26
TORSDOF 18
ENDMDL
