MODEL 1
REMARK VINA RESULT:     -11.9      0.000      0.000
REMARK SMILES Cc1ccccc1C#CC(=O)NCCCCCCNC(=O)c1ccc(-c2c3nc(c(-c4c(F)c(F)c(F)c(F)c4F)c4ccc([nH]4)c(-c4c(F)c(F)c(F)c(F)c4F)c4nc(c(-c5c(F)c(F)c(F)c(F)c5F)c5ccc2[nH]5)C=C4)C=C3)cc1
REMARK SMILES IDX 16 1 15 2 14 3 13 4 12 5 10 6 11 7 9 9 8 10 7 11 1 12 2 13
REMARK SMILES IDX 3 14 4 15 6 16 5 17 17 18 18 19 19 20 20 21 21 23 22 24
REMARK SMILES IDX 23 25 84 26 24 27 83 28 25 29 26 30 27 31 77 32 28 33 82 34
REMARK SMILES IDX 76 35 78 36 29 37 81 38 75 39 74 40 30 42 62 43 42 44 61 45
REMARK SMILES IDX 43 46 46 47 60 48 79 49 44 50 45 51 59 53 80 54 47 55 31 56
REMARK SMILES IDX 32 57 40 58 33 59 34 60 38 61 41 62 35 63 36 64 39 65 37 66
REMARK SMILES IDX 63 67 64 68 72 69 65 70 66 71 70 72 73 73 67 74 68 75 71 76
REMARK SMILES IDX 69 77 48 78 49 79 57 80 50 81 51 82 55 83 58 84 52 85 53 86
REMARK SMILES IDX 56 87 54 88
REMARK H PARENT 12 8 19 22 78 41 46 52
REMARK Flexibility Score: inf
ROOT
ATOM      1  C   UNL A   1      31.530  27.718  26.181  1.00  0.00     0.002 C 
ENDROOT
BRANCH   1   2
ATOM      2  C   UNL A   1      32.913  27.143  26.502  1.00  0.00     0.002 C 
BRANCH   2   3
ATOM      3  C   UNL A   1      33.679  26.569  25.303  1.00  0.00     0.021 C 
BRANCH   3   4
ATOM      4  C   UNL A   1      32.984  25.396  24.611  1.00  0.00     0.117 C 
BRANCH   4   5
ATOM      5  N   UNL A   1      33.422  25.261  23.237  1.00  0.00    -0.345 N 
ATOM      6  C   UNL A   1      32.890  25.854  22.128  1.00  0.00     0.296 C 
ATOM      7  O   UNL A   1      33.339  25.623  21.011  1.00  0.00    -0.260 OA
ATOM      8  H   UNL A   1      34.195  24.671  23.083  1.00  0.00     0.164 HD
BRANCH   6   9
ATOM      9  C   UNL A   1      31.794  26.776  22.278  1.00  0.00     0.000 C 
ATOM     10  C   UNL A   1      30.874  27.543  22.384  1.00  0.00    -0.056 C 
BRANCH  10  11
ATOM     11  C   UNL A   1      29.780  28.458  22.502  1.00  0.00     0.028 A 
ATOM     12  C   UNL A   1      28.420  26.754  23.815  1.00  0.00     0.045 C 
ATOM     13  C   UNL A   1      28.600  28.107  23.181  1.00  0.00    -0.035 A 
ATOM     14  C   UNL A   1      27.544  29.031  23.222  1.00  0.00     0.005 A 
ATOM     15  C   UNL A   1      27.670  30.286  22.621  1.00  0.00     0.000 A 
ATOM     16  C   UNL A   1      29.903  29.721  21.910  1.00  0.00     0.017 A 
ATOM     17  C   UNL A   1      28.851  30.634  21.971  1.00  0.00     0.001 A 
ENDBRANCH  10  11
ENDBRANCH   6   9
ENDBRANCH   4   5
ENDBRANCH   3   4
ENDBRANCH   2   3
ENDBRANCH   1   2
BRANCH   1  18
ATOM     18  C   UNL A   1      31.537  29.132  25.603  1.00  0.00     0.021 C 
BRANCH  18  19
ATOM     19  C   UNL A   1      32.801  29.928  25.896  1.00  0.00     0.116 C 
BRANCH  19  20
ATOM     20  N   UNL A   1      32.525  31.256  26.429  1.00  0.00    -0.352 N 
ATOM     21  C   UNL A   1      33.260  32.008  27.316  1.00  0.00     0.251 C 
ATOM     22  H   UNL A   1      31.693  31.674  26.110  1.00  0.00     0.163 HD
ATOM     23  O   UNL A   1      32.806  33.049  27.780  1.00  0.00    -0.269 OA
BRANCH  21  24
ATOM     24  C   UNL A   1      34.590  31.525  27.744  1.00  0.00     0.039 A 
ATOM     25  C   UNL A   1      34.795  30.171  28.010  1.00  0.00     0.014 A 
ATOM     26  C   UNL A   1      35.619  32.447  27.953  1.00  0.00     0.014 A 
ATOM     27  C   UNL A   1      35.941  29.773  28.686  1.00  0.00     0.010 A 
ATOM     28  C   UNL A   1      36.817  32.023  28.532  1.00  0.00     0.010 A 
ATOM     29  C   UNL A   1      36.962  30.696  28.967  1.00  0.00    -0.014 A 
BRANCH  29  30
ATOM     30  C   UNL A   1      38.157  30.259  29.737  1.00  0.00     0.031 A 
ATOM     31  C   UNL A   1      38.368  30.716  31.157  1.00  0.00     0.074 A 
ATOM     32  C   UNL A   1      39.029  29.402  29.173  1.00  0.00     0.049 A 
ATOM     33  N   UNL A   1      39.352  30.437  31.977  1.00  0.00    -0.248 NA
ATOM     34  C   UNL A   1      37.347  31.604  31.732  1.00  0.00     0.031 C 
ATOM     35  C   UNL A   1      38.923  28.868  27.815  1.00  0.00     0.029 A 
ATOM     36  N   UNL A   1      40.164  28.816  29.673  1.00  0.00    -0.354 N 
ATOM     37  C   UNL A   1      39.076  31.128  33.152  1.00  0.00     0.074 A 
ATOM     38  C   UNL A   1      37.857  31.872  32.925  1.00  0.00     0.031 C 
ATOM     39  C   UNL A   1      39.918  27.996  27.607  1.00  0.00     0.029 A 
ATOM     40  C   UNL A   1      40.778  27.967  28.786  1.00  0.00     0.049 A 
ATOM     41  H   UNL A   1      40.504  28.986  30.581  1.00  0.00     0.167 HD
ATOM     42  C   UNL A   1      39.767  31.125  34.317  1.00  0.00     0.037 A 
ATOM     43  C   UNL A   1      41.918  27.260  28.895  1.00  0.00     0.037 A 
ATOM     44  C   UNL A   1      40.973  30.369  34.542  1.00  0.00     0.049 A 
ATOM     45  C   UNL A   1      42.706  27.332  30.171  1.00  0.00     0.074 A 
ATOM     46  C   UNL A   1      41.734  30.285  35.695  1.00  0.00     0.029 A 
ATOM     47  N   UNL A   1      41.600  29.573  33.593  1.00  0.00    -0.354 N 
ATOM     48  N   UNL A   1      42.426  27.972  31.280  1.00  0.00    -0.248 NA
ATOM     49  C   UNL A   1      43.972  26.588  30.209  1.00  0.00     0.031 C 
ATOM     50  C   UNL A   1      42.854  29.493  35.425  1.00  0.00     0.029 A 
ATOM     51  C   UNL A   1      42.757  29.023  34.125  1.00  0.00     0.049 A 
ATOM     52  H   UNL A   1      41.270  29.419  32.678  1.00  0.00     0.167 HD
ATOM     53  C   UNL A   1      43.469  27.696  32.154  1.00  0.00     0.074 A 
ATOM     54  C   UNL A   1      44.375  26.811  31.453  1.00  0.00     0.031 C 
ATOM     55  C   UNL A   1      43.658  28.144  33.420  1.00  0.00     0.037 A 
BRANCH  42  56
ATOM     56  C   UNL A   1      39.247  31.974  35.445  1.00  0.00     0.064 A 
ATOM     57  C   UNL A   1      38.429  31.445  36.455  1.00  0.00     0.173 A 
ATOM     58  C   UNL A   1      39.620  33.325  35.548  1.00  0.00     0.173 A 
ATOM     59  F   UNL A   1      38.035  30.164  36.403  1.00  0.00    -0.203 F 
ATOM     60  C   UNL A   1      37.982  32.240  37.508  1.00  0.00     0.198 A 
ATOM     61  C   UNL A   1      39.202  34.106  36.623  1.00  0.00     0.198 A 
ATOM     62  F   UNL A   1      40.408  33.883  34.617  1.00  0.00    -0.203 F 
ATOM     63  F   UNL A   1      37.162  31.724  38.433  1.00  0.00    -0.200 F 
ATOM     64  C   UNL A   1      38.377  33.567  37.597  1.00  0.00     0.200 A 
ATOM     65  F   UNL A   1      39.601  35.382  36.716  1.00  0.00    -0.200 F 
ATOM     66  F   UNL A   1      37.959  34.325  38.620  1.00  0.00    -0.200 F 
ENDBRANCH  42  56
BRANCH  43  67
ATOM     67  C   UNL A   1      42.362  26.418  27.754  1.00  0.00     0.064 A 
ATOM     68  C   UNL A   1      43.253  26.918  26.797  1.00  0.00     0.173 A 
ATOM     69  C   UNL A   1      41.951  25.081  27.629  1.00  0.00     0.173 A 
ATOM     70  F   UNL A   1      43.660  28.194  26.862  1.00  0.00    -0.203 F 
ATOM     71  C   UNL A   1      43.720  26.113  25.760  1.00  0.00     0.198 A 
ATOM     72  C   UNL A   1      42.443  24.268  26.611  1.00  0.00     0.198 A 
ATOM     73  F   UNL A   1      41.100  24.554  28.523  1.00  0.00    -0.203 F 
ATOM     74  F   UNL A   1      44.553  26.623  24.842  1.00  0.00    -0.200 F 
ATOM     75  C   UNL A   1      43.325  24.786  25.675  1.00  0.00     0.200 A 
ATOM     76  F   UNL A   1      42.077  22.981  26.548  1.00  0.00    -0.200 F 
ATOM     77  F   UNL A   1      43.795  24.006  24.693  1.00  0.00    -0.200 F 
ENDBRANCH  43  67
BRANCH  55  78
ATOM     78  C   UNL A   1      44.887  27.679  34.147  1.00  0.00     0.064 A 
ATOM     79  C   UNL A   1      44.899  26.482  34.880  1.00  0.00     0.173 A 
ATOM     80  C   UNL A   1      46.088  28.399  34.053  1.00  0.00     0.173 A 
ATOM     81  F   UNL A   1      43.775  25.761  35.013  1.00  0.00    -0.203 F 
ATOM     82  C   UNL A   1      46.061  26.035  35.504  1.00  0.00     0.198 A 
ATOM     83  C   UNL A   1      47.256  27.931  34.647  1.00  0.00     0.198 A 
ATOM     84  F   UNL A   1      46.136  29.547  33.360  1.00  0.00    -0.203 F 
ATOM     85  F   UNL A   1      46.036  24.911  36.235  1.00  0.00    -0.200 F 
ATOM     86  C   UNL A   1      47.241  26.752  35.378  1.00  0.00     0.200 A 
ATOM     87  F   UNL A   1      48.400  28.615  34.506  1.00  0.00    -0.200 F 
ATOM     88  F   UNL A   1      48.362  26.310  35.962  1.00  0.00    -0.200 F 
ENDBRANCH  55  78
ENDBRANCH  29  30
ENDBRANCH  21  24
ENDBRANCH  19  20
ENDBRANCH  18  19
ENDBRANCH   1  18
TORSDOF 14
ENDMDL
MODEL 2
REMARK VINA RESULT:     -11.8      0.446      7.533
REMARK SMILES Cc1ccccc1C#CC(=O)NCCCCCCNC(=O)c1ccc(-c2c3nc(c(-c4c(F)c(F)c(F)c(F)c4F)c4ccc([nH]4)c(-c4c(F)c(F)c(F)c(F)c4F)c4nc(c(-c5c(F)c(F)c(F)c(F)c5F)c5ccc2[nH]5)C=C4)C=C3)cc1
REMARK SMILES IDX 16 1 15 2 14 3 13 4 12 5 10 6 11 7 9 9 8 10 7 11 1 12 2 13
REMARK SMILES IDX 3 14 4 15 6 16 5 17 17 18 18 19 19 20 20 21 21 23 22 24
REMARK SMILES IDX 23 25 84 26 24 27 83 28 25 29 26 30 27 31 77 32 28 33 82 34
REMARK SMILES IDX 76 35 78 36 29 37 81 38 75 39 74 40 30 42 62 43 42 44 61 45
REMARK SMILES IDX 43 46 46 47 60 48 79 49 44 50 45 51 59 53 80 54 47 55 31 56
REMARK SMILES IDX 32 57 40 58 33 59 34 60 38 61 41 62 35 63 36 64 39 65 37 66
REMARK SMILES IDX 63 67 64 68 72 69 65 70 66 71 70 72 73 73 67 74 68 75 71 76
REMARK SMILES IDX 69 77 48 78 49 79 57 80 50 81 51 82 55 83 58 84 52 85 53 86
REMARK SMILES IDX 56 87 54 88
REMARK H PARENT 12 8 19 22 78 41 46 52
REMARK Flexibility Score: inf
ROOT
ATOM      1  C   UNL A   1      31.768  27.577  26.369  1.00  0.00     0.002 C 
ENDROOT
BRANCH   1   2
ATOM      2  C   UNL A   1      33.176  27.002  26.191  1.00  0.00     0.002 C 
BRANCH   2   3
ATOM      3  C   UNL A   1      33.245  25.482  25.991  1.00  0.00     0.021 C 
BRANCH   3   4
ATOM      4  C   UNL A   1      32.572  24.982  24.713  1.00  0.00     0.117 C 
BRANCH   4   5
ATOM      5  N   UNL A   1      33.401  25.228  23.551  1.00  0.00    -0.345 N 
ATOM      6  C   UNL A   1      33.150  26.073  22.508  1.00  0.00     0.296 C 
ATOM      7  O   UNL A   1      33.927  26.159  21.563  1.00  0.00    -0.260 OA
ATOM      8  H   UNL A   1      34.247  24.725  23.507  1.00  0.00     0.164 HD
BRANCH   6   9
ATOM      9  C   UNL A   1      31.962  26.885  22.529  1.00  0.00     0.000 C 
ATOM     10  C   UNL A   1      30.974  27.569  22.566  1.00  0.00    -0.056 C 
BRANCH  10  11
ATOM     11  C   UNL A   1      29.796  28.382  22.619  1.00  0.00     0.028 A 
ATOM     12  C   UNL A   1      28.523  26.561  23.858  1.00  0.00     0.045 C 
ATOM     13  C   UNL A   1      28.617  27.925  23.231  1.00  0.00    -0.035 A 
ATOM     14  C   UNL A   1      27.481  28.750  23.209  1.00  0.00     0.005 A 
ATOM     15  C   UNL A   1      27.527  30.012  22.612  1.00  0.00     0.000 A 
ATOM     16  C   UNL A   1      29.839  29.652  22.030  1.00  0.00     0.017 A 
ATOM     17  C   UNL A   1      28.707  30.466  22.029  1.00  0.00     0.001 A 
ENDBRANCH  10  11
ENDBRANCH   6   9
ENDBRANCH   4   5
ENDBRANCH   3   4
ENDBRANCH   2   3
ENDBRANCH   1   2
BRANCH   1  18
ATOM     18  C   UNL A   1      31.612  29.041  25.964  1.00  0.00     0.021 C 
BRANCH  18  19
ATOM     19  C   UNL A   1      32.898  29.853  26.024  1.00  0.00     0.116 C 
BRANCH  19  20
ATOM     20  N   UNL A   1      32.686  31.218  26.487  1.00  0.00    -0.352 N 
ATOM     21  C   UNL A   1      33.448  31.973  27.349  1.00  0.00     0.251 C 
ATOM     22  H   UNL A   1      31.882  31.663  26.136  1.00  0.00     0.163 HD
ATOM     23  O   UNL A   1      33.044  33.058  27.756  1.00  0.00    -0.269 OA
BRANCH  21  24
ATOM     24  C   UNL A   1      34.745  31.442  27.822  1.00  0.00     0.039 A 
ATOM     25  C   UNL A   1      34.881  30.089  28.129  1.00  0.00     0.014 A 
ATOM     26  C   UNL A   1      35.810  32.322  28.029  1.00  0.00     0.014 A 
ATOM     27  C   UNL A   1      35.992  29.658  28.842  1.00  0.00     0.010 A 
ATOM     28  C   UNL A   1      36.975  31.860  28.647  1.00  0.00     0.010 A 
ATOM     29  C   UNL A   1      37.049  30.541  29.121  1.00  0.00    -0.014 A 
BRANCH  29  30
ATOM     30  C   UNL A   1      38.204  30.071  29.931  1.00  0.00     0.031 A 
ATOM     31  C   UNL A   1      39.200  29.095  29.360  1.00  0.00     0.074 A 
ATOM     32  C   UNL A   1      38.389  30.568  31.169  1.00  0.00     0.049 A 
ATOM     33  N   UNL A   1      40.264  28.576  29.922  1.00  0.00    -0.248 NA
ATOM     34  C   UNL A   1      38.972  28.638  27.981  1.00  0.00     0.031 C 
ATOM     35  C   UNL A   1      37.508  31.536  31.824  1.00  0.00     0.029 A 
ATOM     36  N   UNL A   1      39.381  30.344  32.089  1.00  0.00    -0.354 N 
ATOM     37  C   UNL A   1      40.818  27.723  28.975  1.00  0.00     0.074 A 
ATOM     38  C   UNL A   1      39.950  27.759  27.819  1.00  0.00     0.031 C 
ATOM     39  C   UNL A   1      38.026  31.861  33.017  1.00  0.00     0.029 A 
ATOM     40  C   UNL A   1      39.229  31.068  33.245  1.00  0.00     0.049 A 
ATOM     41  H   UNL A   1      40.130  29.724  31.934  1.00  0.00     0.167 HD
ATOM     42  C   UNL A   1      41.955  26.991  29.058  1.00  0.00     0.037 A 
ATOM     43  C   UNL A   1      39.960  31.080  34.374  1.00  0.00     0.037 A 
ATOM     44  C   UNL A   1      42.823  26.970  30.208  1.00  0.00     0.049 A 
ATOM     45  C   UNL A   1      41.176  30.203  34.470  1.00  0.00     0.074 A 
ATOM     46  C   UNL A   1      44.009  26.276  30.379  1.00  0.00     0.029 A 
ATOM     47  N   UNL A   1      42.597  27.668  31.386  1.00  0.00    -0.354 N 
ATOM     48  N   UNL A   1      41.699  29.416  33.562  1.00  0.00    -0.248 NA
ATOM     49  C   UNL A   1      41.899  30.211  35.748  1.00  0.00     0.031 C 
ATOM     50  C   UNL A   1      44.465  26.501  31.682  1.00  0.00     0.029 A 
ATOM     51  C   UNL A   1      43.603  27.392  32.301  1.00  0.00     0.049 A 
ATOM     52  H   UNL A   1      41.836  28.271  31.548  1.00  0.00     0.167 HD
ATOM     53  C   UNL A   1      42.821  28.847  34.151  1.00  0.00     0.074 A 
ATOM     54  C   UNL A   1      42.915  29.401  35.486  1.00  0.00     0.031 C 
ATOM     55  C   UNL A   1      43.689  27.944  33.631  1.00  0.00     0.037 A 
BRANCH  42  56
ATOM     56  C   UNL A   1      42.329  26.136  27.878  1.00  0.00     0.064 A 
ATOM     57  C   UNL A   1      41.798  24.850  27.695  1.00  0.00     0.173 A 
ATOM     58  C   UNL A   1      43.187  26.634  26.883  1.00  0.00     0.173 A 
ATOM     59  F   UNL A   1      40.979  24.321  28.617  1.00  0.00    -0.203 F 
ATOM     60  C   UNL A   1      42.131  24.086  26.579  1.00  0.00     0.198 A 
ATOM     61  C   UNL A   1      43.489  25.882  25.750  1.00  0.00     0.198 A 
ATOM     62  F   UNL A   1      43.719  27.860  26.999  1.00  0.00    -0.203 F 
ATOM     63  F   UNL A   1      41.649  22.843  26.453  1.00  0.00    -0.200 F 
ATOM     64  C   UNL A   1      42.968  24.606  25.603  1.00  0.00     0.200 A 
ATOM     65  F   UNL A   1      44.283  26.394  24.800  1.00  0.00    -0.200 F 
ATOM     66  F   UNL A   1      43.275  23.875  24.523  1.00  0.00    -0.200 F 
ENDBRANCH  42  56
BRANCH  43  67
ATOM     67  C   UNL A   1      39.553  31.967  35.494  1.00  0.00     0.064 A 
ATOM     68  C   UNL A   1      40.093  33.253  35.625  1.00  0.00     0.173 A 
ATOM     69  C   UNL A   1      38.576  31.571  36.422  1.00  0.00     0.173 A 
ATOM     70  F   UNL A   1      41.043  33.670  34.775  1.00  0.00    -0.203 F 
ATOM     71  C   UNL A   1      39.670  34.111  36.638  1.00  0.00     0.198 A 
ATOM     72  C   UNL A   1      38.130  32.441  37.414  1.00  0.00     0.198 A 
ATOM     73  F   UNL A   1      38.026  30.351  36.338  1.00  0.00    -0.203 F 
ATOM     74  F   UNL A   1      40.220  35.327  36.756  1.00  0.00    -0.200 F 
ATOM     75  C   UNL A   1      38.680  33.709  37.523  1.00  0.00     0.200 A 
ATOM     76  F   UNL A   1      37.158  32.057  38.251  1.00  0.00    -0.200 F 
ATOM     77  F   UNL A   1      38.255  34.544  38.481  1.00  0.00    -0.200 F 
ENDBRANCH  43  67
BRANCH  55  78
ATOM     78  C   UNL A   1      44.832  27.497  34.497  1.00  0.00     0.064 A 
ATOM     79  C   UNL A   1      46.012  28.250  34.604  1.00  0.00     0.173 A 
ATOM     80  C   UNL A   1      44.720  26.341  35.287  1.00  0.00     0.173 A 
ATOM     81  F   UNL A   1      46.176  29.355  33.862  1.00  0.00    -0.203 F 
ATOM     82  C   UNL A   1      47.042  27.852  35.453  1.00  0.00     0.198 A 
ATOM     83  C   UNL A   1      45.736  25.967  36.161  1.00  0.00     0.198 A 
ATOM     84  F   UNL A   1      43.611  25.588  35.230  1.00  0.00    -0.203 F 
ATOM     85  F   UNL A   1      48.177  28.563  35.504  1.00  0.00    -0.200 F 
ATOM     86  C   UNL A   1      46.899  26.719  36.239  1.00  0.00     0.200 A 
ATOM     87  F   UNL A   1      45.586  24.884  36.936  1.00  0.00    -0.200 F 
ATOM     88  F   UNL A   1      47.882  26.349  37.070  1.00  0.00    -0.200 F 
ENDBRANCH  55  78
ENDBRANCH  29  30
ENDBRANCH  21  24
ENDBRANCH  19  20
ENDBRANCH  18  19
ENDBRANCH   1  18
TORSDOF 14
ENDMDL
MODEL 3
REMARK VINA RESULT:     -11.8      0.286      1.663
REMARK SMILES Cc1ccccc1C#CC(=O)NCCCCCCNC(=O)c1ccc(-c2c3nc(c(-c4c(F)c(F)c(F)c(F)c4F)c4ccc([nH]4)c(-c4c(F)c(F)c(F)c(F)c4F)c4nc(c(-c5c(F)c(F)c(F)c(F)c5F)c5ccc2[nH]5)C=C4)C=C3)cc1
REMARK SMILES IDX 16 1 15 2 14 3 13 4 12 5 10 6 11 7 9 9 8 10 7 11 1 12 2 13
REMARK SMILES IDX 3 14 4 15 6 16 5 17 17 18 18 19 19 20 20 21 21 23 22 24
REMARK SMILES IDX 23 25 84 26 24 27 83 28 25 29 26 30 27 31 77 32 28 33 82 34
REMARK SMILES IDX 76 35 78 36 29 37 81 38 75 39 74 40 30 42 62 43 42 44 61 45
REMARK SMILES IDX 43 46 46 47 60 48 79 49 44 50 45 51 59 53 80 54 47 55 31 56
REMARK SMILES IDX 32 57 40 58 33 59 34 60 38 61 41 62 35 63 36 64 39 65 37 66
REMARK SMILES IDX 63 67 64 68 72 69 65 70 66 71 70 72 73 73 67 74 68 75 71 76
REMARK SMILES IDX 69 77 48 78 49 79 57 80 50 81 51 82 55 83 58 84 52 85 53 86
REMARK SMILES IDX 56 87 54 88
REMARK H PARENT 12 8 19 22 78 41 46 52
REMARK Flexibility Score: inf
ROOT
ATOM      1  C   UNL A   1      32.180  27.507  26.779  1.00  0.00     0.002 C 
ENDROOT
BRANCH   1   2
ATOM      2  C   UNL A   1      33.501  27.148  26.093  1.00  0.00     0.002 C 
BRANCH   2   3
ATOM      3  C   UNL A   1      33.691  25.660  25.769  1.00  0.00     0.021 C 
BRANCH   3   4
ATOM      4  C   UNL A   1      32.772  25.132  24.668  1.00  0.00     0.117 C 
BRANCH   4   5
ATOM      5  N   UNL A   1      33.414  25.196  23.371  1.00  0.00    -0.345 N 
ATOM      6  C   UNL A   1      33.034  25.930  22.284  1.00  0.00     0.296 C 
ATOM      7  O   UNL A   1      33.653  25.862  21.228  1.00  0.00    -0.260 OA
ATOM      8  H   UNL A   1      34.222  24.643  23.259  1.00  0.00     0.164 HD
BRANCH   6   9
ATOM      9  C   UNL A   1      31.897  26.806  22.388  1.00  0.00     0.000 C 
ATOM     10  C   UNL A   1      30.953  27.544  22.494  1.00  0.00    -0.056 C 
BRANCH  10  11
ATOM     11  C   UNL A   1      29.830  28.421  22.628  1.00  0.00     0.028 A 
ATOM     12  C   UNL A   1      28.511  26.638  23.873  1.00  0.00     0.045 C 
ATOM     13  C   UNL A   1      28.655  28.014  23.284  1.00  0.00    -0.035 A 
ATOM     14  C   UNL A   1      27.571  28.904  23.342  1.00  0.00     0.005 A 
ATOM     15  C   UNL A   1      27.665  30.180  22.782  1.00  0.00     0.000 A 
ATOM     16  C   UNL A   1      29.921  29.705  22.077  1.00  0.00     0.017 A 
ATOM     17  C   UNL A   1      28.840  30.584  22.155  1.00  0.00     0.001 A 
ENDBRANCH  10  11
ENDBRANCH   6   9
ENDBRANCH   4   5
ENDBRANCH   3   4
ENDBRANCH   2   3
ENDBRANCH   1   2
BRANCH   1  18
ATOM     18  C   UNL A   1      31.654  28.908  26.475  1.00  0.00     0.021 C 
BRANCH  18  19
ATOM     19  C   UNL A   1      32.717  29.894  26.010  1.00  0.00     0.116 C 
BRANCH  19  20
ATOM     20  N   UNL A   1      32.491  31.247  26.505  1.00  0.00    -0.352 N 
ATOM     21  C   UNL A   1      33.267  32.006  27.350  1.00  0.00     0.251 C 
ATOM     22  H   UNL A   1      31.664  31.678  26.191  1.00  0.00     0.163 HD
ATOM     23  O   UNL A   1      32.853  33.074  27.790  1.00  0.00    -0.269 OA
BRANCH  21  24
ATOM     24  C   UNL A   1      34.592  31.498  27.765  1.00  0.00     0.039 A 
ATOM     25  C   UNL A   1      34.779  30.138  28.012  1.00  0.00     0.014 A 
ATOM     26  C   UNL A   1      35.635  32.403  27.980  1.00  0.00     0.014 A 
ATOM     27  C   UNL A   1      35.923  29.715  28.677  1.00  0.00     0.010 A 
ATOM     28  C   UNL A   1      36.831  31.954  28.547  1.00  0.00     0.010 A 
ATOM     29  C   UNL A   1      36.959  30.620  28.963  1.00  0.00    -0.014 A 
BRANCH  29  30
ATOM     30  C   UNL A   1      38.151  30.156  29.721  1.00  0.00     0.031 A 
ATOM     31  C   UNL A   1      38.390  30.611  31.137  1.00  0.00     0.074 A 
ATOM     32  C   UNL A   1      38.997  29.276  29.150  1.00  0.00     0.049 A 
ATOM     33  N   UNL A   1      39.376  30.311  31.947  1.00  0.00    -0.248 NA
ATOM     34  C   UNL A   1      37.397  31.525  31.721  1.00  0.00     0.031 C 
ATOM     35  C   UNL A   1      38.861  28.742  27.794  1.00  0.00     0.029 A 
ATOM     36  N   UNL A   1      40.122  28.664  29.639  1.00  0.00    -0.354 N 
ATOM     37  C   UNL A   1      39.130  31.011  33.123  1.00  0.00     0.074 A 
ATOM     38  C   UNL A   1      37.927  31.784  32.908  1.00  0.00     0.031 C 
ATOM     39  C   UNL A   1      39.833  27.845  27.578  1.00  0.00     0.029 A 
ATOM     40  C   UNL A   1      40.706  27.798  28.747  1.00  0.00     0.049 A 
ATOM     41  H   UNL A   1      40.477  28.829  30.542  1.00  0.00     0.167 HD
ATOM     42  C   UNL A   1      39.835  30.994  34.280  1.00  0.00     0.037 A 
ATOM     43  C   UNL A   1      41.829  27.064  28.845  1.00  0.00     0.037 A 
ATOM     44  C   UNL A   1      41.025  30.210  34.493  1.00  0.00     0.049 A 
ATOM     45  C   UNL A   1      42.633  27.121  30.112  1.00  0.00     0.074 A 
ATOM     46  C   UNL A   1      41.797  30.111  35.638  1.00  0.00     0.029 A 
ATOM     47  N   UNL A   1      41.621  29.397  33.540  1.00  0.00    -0.354 N 
ATOM     48  N   UNL A   1      42.381  27.770  31.222  1.00  0.00    -0.248 NA
ATOM     49  C   UNL A   1      43.881  26.347  30.138  1.00  0.00     0.031 C 
ATOM     50  C   UNL A   1      42.894  29.291  35.357  1.00  0.00     0.029 A 
ATOM     51  C   UNL A   1      42.770  28.821  34.060  1.00  0.00     0.049 A 
ATOM     52  H   UNL A   1      41.277  29.249  32.629  1.00  0.00     0.167 HD
ATOM     53  C   UNL A   1      43.428  27.472  32.085  1.00  0.00     0.074 A 
ATOM     54  C   UNL A   1      44.304  26.563  31.376  1.00  0.00     0.031 C 
ATOM     55  C   UNL A   1      43.641  27.918  33.348  1.00  0.00     0.037 A 
BRANCH  42  56
ATOM     56  C   UNL A   1      39.349  31.859  35.411  1.00  0.00     0.064 A 
ATOM     57  C   UNL A   1      39.736  33.202  35.537  1.00  0.00     0.173 A 
ATOM     58  C   UNL A   1      38.436  31.353  36.352  1.00  0.00     0.173 A 
ATOM     59  F   UNL A   1      40.612  33.736  34.672  1.00  0.00    -0.203 F 
ATOM     60  C   UNL A   1      39.251  33.997  36.573  1.00  0.00     0.198 A 
ATOM     61  C   UNL A   1      37.925  32.160  37.365  1.00  0.00     0.198 A 
ATOM     62  F   UNL A   1      38.024  30.079  36.277  1.00  0.00    -0.203 F 
ATOM     63  F   UNL A   1      39.674  35.261  36.700  1.00  0.00    -0.200 F 
ATOM     64  C   UNL A   1      38.338  33.478  37.480  1.00  0.00     0.200 A 
ATOM     65  F   UNL A   1      37.029  31.663  38.228  1.00  0.00    -0.200 F 
ATOM     66  F   UNL A   1      37.861  34.249  38.468  1.00  0.00    -0.200 F 
ENDBRANCH  42  56
BRANCH  43  67
ATOM     67  C   UNL A   1      42.239  26.209  27.702  1.00  0.00     0.064 A 
ATOM     68  C   UNL A   1      43.135  26.683  26.736  1.00  0.00     0.173 A 
ATOM     69  C   UNL A   1      41.790  24.883  27.583  1.00  0.00     0.173 A 
ATOM     70  F   UNL A   1      43.577  27.947  26.795  1.00  0.00    -0.203 F 
ATOM     71  C   UNL A   1      43.570  25.864  25.696  1.00  0.00     0.198 A 
ATOM     72  C   UNL A   1      42.251  24.056  26.562  1.00  0.00     0.198 A 
ATOM     73  F   UNL A   1      40.934  24.381  28.485  1.00  0.00    -0.203 F 
ATOM     74  F   UNL A   1      44.409  26.349  24.770  1.00  0.00    -0.200 F 
ATOM     75  C   UNL A   1      43.138  24.548  25.617  1.00  0.00     0.200 A 
ATOM     76  F   UNL A   1      41.849  22.780  26.504  1.00  0.00    -0.200 F 
ATOM     77  F   UNL A   1      43.577  23.754  24.631  1.00  0.00    -0.200 F 
ENDBRANCH  43  67
BRANCH  55  78
ATOM     78  C   UNL A   1      44.868  27.425  34.062  1.00  0.00     0.064 A 
ATOM     79  C   UNL A   1      46.057  28.170  34.079  1.00  0.00     0.173 A 
ATOM     80  C   UNL A   1      44.834  26.230  34.798  1.00  0.00     0.173 A 
ATOM     81  F   UNL A   1      46.148  29.313  33.382  1.00  0.00    -0.203 F 
ATOM     82  C   UNL A   1      47.170  27.729  34.791  1.00  0.00     0.198 A 
ATOM     83  C   UNL A   1      45.935  25.810  35.538  1.00  0.00     0.198 A 
ATOM     84  F   UNL A   1      43.721  25.482  34.822  1.00  0.00    -0.203 F 
ATOM     85  F   UNL A   1      48.308  28.435  34.757  1.00  0.00    -0.200 F 
ATOM     86  C   UNL A   1      47.104  26.556  35.529  1.00  0.00     0.200 A 
ATOM     87  F   UNL A   1      45.863  24.689  36.267  1.00  0.00    -0.200 F 
ATOM     88  F   UNL A   1      48.169  26.143  36.229  1.00  0.00    -0.200 F 
ENDBRANCH  55  78
ENDBRANCH  29  30
ENDBRANCH  21  24
ENDBRANCH  19  20
ENDBRANCH  18  19
ENDBRANCH   1  18
TORSDOF 14
ENDMDL
