MODEL 1
REMARK VINA RESULT:     -11.4      0.000      0.000
REMARK SMILES O=C(Cc1ccc(S(=O)(=O)N2CCNC(=O)C2)cc1)NCCCCCCNC(=O)c1ccc(-c2c3nc(c(-c4c(F)c(F)c(F)c(F)c4F)c4ccc([nH]4)c(-c4c(F)c(F)c(F)c(F)c4F)c4nc(c(-c5c(F)c(F)c(F)c(F)c5F)c5ccc2[nH]5)C=C4)C=C3)cc1
REMARK SMILES IDX 23 1 22 2 21 3 20 4 1 5 2 6 3 8 4 9 5 10 19 11 6 12 18 13
REMARK SMILES IDX 7 14 8 15 9 16 10 17 11 18 12 19 17 20 13 21 15 22 14 23
REMARK SMILES IDX 16 24 24 26 25 27 26 28 27 29 28 30 29 32 30 33 31 34 92 35
REMARK SMILES IDX 32 36 91 37 33 38 34 39 35 40 85 41 36 42 90 43 84 44 86 45
REMARK SMILES IDX 37 46 89 47 83 48 82 49 38 51 70 52 50 53 69 54 51 55 54 56
REMARK SMILES IDX 68 57 87 58 52 59 53 60 67 62 88 63 55 64 39 65 40 66 48 67
REMARK SMILES IDX 41 68 42 69 46 70 49 71 43 72 44 73 47 74 45 75 71 76 72 77
REMARK SMILES IDX 80 78 73 79 74 80 78 81 81 82 75 83 76 84 79 85 77 86 56 87
REMARK SMILES IDX 57 88 65 89 58 90 59 91 63 92 66 93 60 94 61 95 64 96 62 97
REMARK H PARENT 20 7 14 25 27 31 86 50 54 61
REMARK Flexibility Score: inf
ROOT
ATOM      1  C   UNL A   1      34.443  25.374  25.002  1.00  0.00     0.002 C 
ENDROOT
BRANCH   1   2
ATOM      2  C   UNL A   1      34.098  26.805  25.442  1.00  0.00     0.021 C 
BRANCH   2   3
ATOM      3  C   UNL A   1      32.820  27.378  24.831  1.00  0.00     0.116 C 
BRANCH   3   4
ATOM      4  N   UNL A   1      31.826  26.345  24.622  1.00  0.00    -0.356 N 
ATOM      5  O   UNL A   1      31.541  26.700  22.371  1.00  0.00    -0.275 OA
ATOM      6  C   UNL A   1      31.294  26.051  23.382  1.00  0.00     0.224 C 
ATOM      7  H   UNL A   1      31.516  25.828  25.400  1.00  0.00     0.163 HD
BRANCH   6   8
ATOM      8  C   UNL A   1      30.385  24.826  23.377  1.00  0.00     0.135 C 
BRANCH   8   9
ATOM      9  C   UNL A   1      31.111  23.575  23.821  1.00  0.00    -0.039 A 
ATOM     10  C   UNL A   1      32.096  22.974  23.025  1.00  0.00     0.005 A 
ATOM     11  C   UNL A   1      30.818  23.007  25.063  1.00  0.00     0.005 A 
ATOM     12  C   UNL A   1      32.816  21.868  23.499  1.00  0.00     0.022 A 
ATOM     13  C   UNL A   1      31.527  21.906  25.527  1.00  0.00     0.022 A 
ATOM     14  C   UNL A   1      32.549  21.349  24.771  1.00  0.00     0.082 A 
BRANCH  14  15
ATOM     15  S   UNL A   1      33.535  19.991  25.368  1.00  0.00     0.243 S 
ATOM     16  O   UNL A   1      34.812  20.101  24.703  1.00  0.00    -0.207 OA
ATOM     17  O   UNL A   1      33.430  20.023  26.814  1.00  0.00    -0.207 OA
BRANCH  15  18
ATOM     18  N   UNL A   1      32.816  18.559  24.860  1.00  0.00    -0.187 NA
ATOM     19  C   UNL A   1      32.407  18.344  23.461  1.00  0.00     0.124 C 
ATOM     20  C   UNL A   1      32.952  17.321  25.654  1.00  0.00     0.202 C 
ATOM     21  C   UNL A   1      33.385  17.409  22.758  1.00  0.00     0.132 C 
ATOM     22  C   UNL A   1      33.589  16.147  24.906  1.00  0.00     0.235 C 
ATOM     23  N   UNL A   1      33.695  16.224  23.539  1.00  0.00    -0.354 N 
ATOM     24  O   UNL A   1      34.017  15.150  25.485  1.00  0.00    -0.274 OA
ATOM     25  H   UNL A   1      34.001  15.423  23.056  1.00  0.00     0.163 HD
ENDBRANCH  15  18
ENDBRANCH  14  15
ENDBRANCH   8   9
ENDBRANCH   6   8
ENDBRANCH   3   4
ENDBRANCH   2   3
ENDBRANCH   1   2
BRANCH   1  26
ATOM     26  C   UNL A   1      34.391  24.311  26.104  1.00  0.00     0.002 C 
BRANCH  26  27
ATOM     27  C   UNL A   1      35.537  23.298  26.092  1.00  0.00     0.021 C 
BRANCH  27  28
ATOM     28  C   UNL A   1      36.811  23.768  25.395  1.00  0.00     0.116 C 
BRANCH  28  29
ATOM     29  N   UNL A   1      37.932  22.864  25.606  1.00  0.00    -0.352 N 
ATOM     30  C   UNL A   1      39.158  23.109  26.176  1.00  0.00     0.251 C 
ATOM     31  H   UNL A   1      37.791  21.940  25.295  1.00  0.00     0.163 HD
ATOM     32  O   UNL A   1      40.045  22.262  26.120  1.00  0.00    -0.269 OA
BRANCH  30  33
ATOM     33  C   UNL A   1      39.426  24.409  26.832  1.00  0.00     0.039 A 
ATOM     34  C   UNL A   1      38.997  24.600  28.147  1.00  0.00     0.014 A 
ATOM     35  C   UNL A   1      40.102  25.431  26.160  1.00  0.00     0.014 A 
ATOM     36  C   UNL A   1      39.314  25.785  28.815  1.00  0.00     0.010 A 
ATOM     37  C   UNL A   1      40.485  26.579  26.850  1.00  0.00     0.010 A 
ATOM     38  C   UNL A   1      40.101  26.765  28.186  1.00  0.00    -0.014 A 
BRANCH  38  39
ATOM     39  C   UNL A   1      40.560  27.969  28.927  1.00  0.00     0.031 A 
ATOM     40  C   UNL A   1      41.958  28.049  29.471  1.00  0.00     0.074 A 
ATOM     41  C   UNL A   1      39.688  28.967  29.170  1.00  0.00     0.049 A 
ATOM     42  N   UNL A   1      42.516  28.994  30.185  1.00  0.00    -0.248 NA
ATOM     43  C   UNL A   1      42.837  26.903  29.198  1.00  0.00     0.031 C 
ATOM     44  C   UNL A   1      38.288  28.984  28.746  1.00  0.00     0.029 A 
ATOM     45  N   UNL A   1      39.845  30.152  29.845  1.00  0.00    -0.354 N 
ATOM     46  C   UNL A   1      43.807  28.555  30.449  1.00  0.00     0.074 A 
ATOM     47  C   UNL A   1      43.927  27.232  29.876  1.00  0.00     0.031 C 
ATOM     48  C   UNL A   1      37.719  30.130  29.151  1.00  0.00     0.029 A 
ATOM     49  C   UNL A   1      38.700  30.907  29.903  1.00  0.00     0.049 A 
ATOM     50  H   UNL A   1      40.698  30.434  30.248  1.00  0.00     0.167 HD
ATOM     51  C   UNL A   1      44.809  29.207  31.090  1.00  0.00     0.037 A 
ATOM     52  C   UNL A   1      38.458  32.086  30.508  1.00  0.00     0.037 A 
ATOM     53  C   UNL A   1      44.682  30.523  31.662  1.00  0.00     0.049 A 
ATOM     54  C   UNL A   1      39.574  32.779  31.239  1.00  0.00     0.074 A 
ATOM     55  C   UNL A   1      45.651  31.292  32.283  1.00  0.00     0.029 A 
ATOM     56  N   UNL A   1      43.506  31.261  31.698  1.00  0.00    -0.354 N 
ATOM     57  N   UNL A   1      40.815  32.393  31.412  1.00  0.00    -0.248 NA
ATOM     58  C   UNL A   1      39.259  34.077  31.852  1.00  0.00     0.031 C 
ATOM     59  C   UNL A   1      45.046  32.464  32.753  1.00  0.00     0.029 A 
ATOM     60  C   UNL A   1      43.716  32.459  32.366  1.00  0.00     0.049 A 
ATOM     61  H   UNL A   1      42.648  30.975  31.308  1.00  0.00     0.167 HD
ATOM     62  C   UNL A   1      41.433  33.403  32.138  1.00  0.00     0.074 A 
ATOM     63  C   UNL A   1      40.435  34.431  32.351  1.00  0.00     0.031 C 
ATOM     64  C   UNL A   1      42.711  33.470  32.586  1.00  0.00     0.037 A 
BRANCH  51  65
ATOM     65  C   UNL A   1      46.127  28.493  31.212  1.00  0.00     0.064 A 
ATOM     66  C   UNL A   1      46.427  27.680  32.317  1.00  0.00     0.173 A 
ATOM     67  C   UNL A   1      47.102  28.616  30.211  1.00  0.00     0.173 A 
ATOM     68  F   UNL A   1      45.536  27.531  33.309  1.00  0.00    -0.203 F 
ATOM     69  C   UNL A   1      47.669  27.060  32.438  1.00  0.00     0.198 A 
ATOM     70  C   UNL A   1      48.328  27.964  30.316  1.00  0.00     0.198 A 
ATOM     71  F   UNL A   1      46.868  29.371  29.126  1.00  0.00    -0.203 F 
ATOM     72  F   UNL A   1      47.957  26.350  33.537  1.00  0.00    -0.200 F 
ATOM     73  C   UNL A   1      48.616  27.198  31.436  1.00  0.00     0.200 A 
ATOM     74  F   UNL A   1      49.236  28.084  29.338  1.00  0.00    -0.200 F 
ATOM     75  F   UNL A   1      49.811  26.604  31.554  1.00  0.00    -0.200 F 
ENDBRANCH  51  65
BRANCH  52  76
ATOM     76  C   UNL A   1      37.098  32.682  30.432  1.00  0.00     0.064 A 
ATOM     77  C   UNL A   1      36.140  32.432  31.424  1.00  0.00     0.173 A 
ATOM     78  C   UNL A   1      36.739  33.536  29.379  1.00  0.00     0.173 A 
ATOM     79  F   UNL A   1      36.430  31.606  32.441  1.00  0.00    -0.203 F 
ATOM     80  C   UNL A   1      34.872  33.005  31.362  1.00  0.00     0.198 A 
ATOM     81  C   UNL A   1      35.482  34.134  29.334  1.00  0.00     0.198 A 
ATOM     82  F   UNL A   1      37.621  33.814  28.407  1.00  0.00    -0.203 F 
ATOM     83  F   UNL A   1      33.963  32.722  32.304  1.00  0.00    -0.200 F 
ATOM     84  C   UNL A   1      34.547  33.863  30.321  1.00  0.00     0.200 A 
ATOM     85  F   UNL A   1      35.179  34.979  28.338  1.00  0.00    -0.200 F 
ATOM     86  F   UNL A   1      33.333  34.429  30.271  1.00  0.00    -0.200 F 
ENDBRANCH  52  76
BRANCH  64  87
ATOM     87  C   UNL A   1      43.111  34.705  33.343  1.00  0.00     0.064 A 
ATOM     88  C   UNL A   1      43.072  34.757  34.745  1.00  0.00     0.173 A 
ATOM     89  C   UNL A   1      43.572  35.842  32.659  1.00  0.00     0.173 A 
ATOM     90  F   UNL A   1      42.625  33.705  35.447  1.00  0.00    -0.203 F 
ATOM     91  C   UNL A   1      43.453  35.908  35.431  1.00  0.00     0.198 A 
ATOM     92  C   UNL A   1      43.986  36.978  33.351  1.00  0.00     0.198 A 
ATOM     93  F   UNL A   1      43.635  35.846  31.320  1.00  0.00    -0.203 F 
ATOM     94  F   UNL A   1      43.357  35.951  36.768  1.00  0.00    -0.200 F 
ATOM     95  C   UNL A   1      43.917  37.013  34.735  1.00  0.00     0.200 A 
ATOM     96  F   UNL A   1      44.450  38.038  32.675  1.00  0.00    -0.200 F 
ATOM     97  F   UNL A   1      44.293  38.116  35.397  1.00  0.00    -0.200 F 
ENDBRANCH  64  87
ENDBRANCH  38  39
ENDBRANCH  30  33
ENDBRANCH  28  29
ENDBRANCH  27  28
ENDBRANCH  26  27
ENDBRANCH   1  26
TORSDOF 16
ENDMDL
MODEL 2
REMARK VINA RESULT:     -11.4      5.825     10.992
REMARK SMILES O=C(Cc1ccc(S(=O)(=O)N2CCNC(=O)C2)cc1)NCCCCCCNC(=O)c1ccc(-c2c3nc(c(-c4c(F)c(F)c(F)c(F)c4F)c4ccc([nH]4)c(-c4c(F)c(F)c(F)c(F)c4F)c4nc(c(-c5c(F)c(F)c(F)c(F)c5F)c5ccc2[nH]5)C=C4)C=C3)cc1
REMARK SMILES IDX 23 1 22 2 21 3 20 4 1 5 2 6 3 8 4 9 5 10 19 11 6 12 18 13
REMARK SMILES IDX 7 14 8 15 9 16 10 17 11 18 12 19 17 20 13 21 15 22 14 23
REMARK SMILES IDX 16 24 24 26 25 27 26 28 27 29 28 30 29 32 30 33 31 34 92 35
REMARK SMILES IDX 32 36 91 37 33 38 34 39 35 40 85 41 36 42 90 43 84 44 86 45
REMARK SMILES IDX 37 46 89 47 83 48 82 49 38 51 70 52 50 53 69 54 51 55 54 56
REMARK SMILES IDX 68 57 87 58 52 59 53 60 67 62 88 63 55 64 39 65 40 66 48 67
REMARK SMILES IDX 41 68 42 69 46 70 49 71 43 72 44 73 47 74 45 75 71 76 72 77
REMARK SMILES IDX 80 78 73 79 74 80 78 81 81 82 75 83 76 84 79 85 77 86 56 87
REMARK SMILES IDX 57 88 65 89 58 90 59 91 63 92 66 93 60 94 61 95 64 96 62 97
REMARK H PARENT 20 7 14 25 27 31 86 50 54 61
REMARK Flexibility Score: inf
ROOT
ATOM      1  C   UNL A   1      34.707  33.465  33.465  1.00  0.00     0.002 C 
ENDROOT
BRANCH   1   2
ATOM      2  C   UNL A   1      35.669  34.296  34.328  1.00  0.00     0.021 C 
BRANCH   2   3
ATOM      3  C   UNL A   1      36.986  33.603  34.677  1.00  0.00     0.116 C 
BRANCH   3   4
ATOM      4  N   UNL A   1      36.952  32.198  34.325  1.00  0.00    -0.356 N 
ATOM      5  O   UNL A   1      38.342  32.344  32.503  1.00  0.00    -0.275 OA
ATOM      6  C   UNL A   1      37.682  31.665  33.281  1.00  0.00     0.224 C 
ATOM      7  H   UNL A   1      36.382  31.595  34.856  1.00  0.00     0.163 HD
BRANCH   6   8
ATOM      8  C   UNL A   1      37.612  30.143  33.196  1.00  0.00     0.135 C 
BRANCH   8   9
ATOM      9  C   UNL A   1      38.960  29.496  33.421  1.00  0.00    -0.039 A 
ATOM     10  C   UNL A   1      39.348  28.341  32.728  1.00  0.00     0.005 A 
ATOM     11  C   UNL A   1      39.861  30.066  34.324  1.00  0.00     0.005 A 
ATOM     12  C   UNL A   1      40.637  27.814  32.890  1.00  0.00     0.022 A 
ATOM     13  C   UNL A   1      41.135  29.538  34.489  1.00  0.00     0.022 A 
ATOM     14  C   UNL A   1      41.546  28.435  33.754  1.00  0.00     0.082 A 
BRANCH  14  15
ATOM     15  S   UNL A   1      43.198  27.779  33.876  1.00  0.00     0.243 S 
ATOM     16  O   UNL A   1      43.474  27.151  32.605  1.00  0.00    -0.207 OA
ATOM     17  O   UNL A   1      44.024  28.861  34.379  1.00  0.00    -0.207 OA
BRANCH  15  18
ATOM     18  N   UNL A   1      43.200  26.578  35.052  1.00  0.00    -0.187 NA
ATOM     19  C   UNL A   1      42.211  26.554  36.144  1.00  0.00     0.124 C 
ATOM     20  C   UNL A   1      43.883  25.289  34.816  1.00  0.00     0.202 C 
ATOM     21  C   UNL A   1      41.163  25.476  35.889  1.00  0.00     0.132 C 
ATOM     22  C   UNL A   1      42.980  24.058  34.923  1.00  0.00     0.235 C 
ATOM     23  N   UNL A   1      41.744  24.202  35.503  1.00  0.00    -0.354 N 
ATOM     24  O   UNL A   1      43.318  22.955  34.497  1.00  0.00    -0.274 OA
ATOM     25  H   UNL A   1      41.217  23.388  35.670  1.00  0.00     0.163 HD
ENDBRANCH  15  18
ENDBRANCH  14  15
ENDBRANCH   8   9
ENDBRANCH   6   8
ENDBRANCH   3   4
ENDBRANCH   2   3
ENDBRANCH   1   2
BRANCH   1  26
ATOM     26  C   UNL A   1      34.812  33.691  31.953  1.00  0.00     0.002 C 
BRANCH  26  27
ATOM     27  C   UNL A   1      34.819  32.422  31.101  1.00  0.00     0.021 C 
BRANCH  27  28
ATOM     28  C   UNL A   1      35.080  32.640  29.612  1.00  0.00     0.116 C 
BRANCH  28  29
ATOM     29  N   UNL A   1      34.299  31.747  28.769  1.00  0.00    -0.352 N 
ATOM     30  C   UNL A   1      34.686  30.603  28.114  1.00  0.00     0.251 C 
ATOM     31  H   UNL A   1      33.355  31.999  28.650  1.00  0.00     0.163 HD
ATOM     32  O   UNL A   1      33.929  30.066  27.310  1.00  0.00    -0.269 OA
BRANCH  30  33
ATOM     33  C   UNL A   1      36.030  30.030  28.349  1.00  0.00     0.039 A 
ATOM     34  C   UNL A   1      37.000  30.158  27.351  1.00  0.00     0.014 A 
ATOM     35  C   UNL A   1      36.339  29.377  29.546  1.00  0.00     0.014 A 
ATOM     36  C   UNL A   1      38.299  29.702  27.585  1.00  0.00     0.010 A 
ATOM     37  C   UNL A   1      37.652  28.994  29.807  1.00  0.00     0.010 A 
ATOM     38  C   UNL A   1      38.647  29.158  28.833  1.00  0.00    -0.014 A 
BRANCH  38  39
ATOM     39  C   UNL A   1      40.054  28.793  29.143  1.00  0.00     0.031 A 
ATOM     40  C   UNL A   1      40.957  29.757  29.858  1.00  0.00     0.074 A 
ATOM     41  C   UNL A   1      40.540  27.612  28.716  1.00  0.00     0.049 A 
ATOM     42  N   UNL A   1      42.224  29.634  30.167  1.00  0.00    -0.248 NA
ATOM     43  C   UNL A   1      40.364  31.042  30.258  1.00  0.00     0.031 C 
ATOM     44  C   UNL A   1      39.782  26.613  27.961  1.00  0.00     0.029 A 
ATOM     45  N   UNL A   1      41.789  27.056  28.840  1.00  0.00    -0.354 N 
ATOM     46  C   UNL A   1      42.579  30.822  30.791  1.00  0.00     0.074 A 
ATOM     47  C   UNL A   1      41.413  31.679  30.757  1.00  0.00     0.031 C 
ATOM     48  C   UNL A   1      40.573  25.560  27.708  1.00  0.00     0.029 A 
ATOM     49  C   UNL A   1      41.906  25.827  28.240  1.00  0.00     0.049 A 
ATOM     50  H   UNL A   1      42.530  27.497  29.315  1.00  0.00     0.167 HD
ATOM     51  C   UNL A   1      43.762  31.159  31.361  1.00  0.00     0.037 A 
ATOM     52  C   UNL A   1      42.970  25.011  28.116  1.00  0.00     0.037 A 
ATOM     53  C   UNL A   1      44.921  30.303  31.387  1.00  0.00     0.049 A 
ATOM     54  C   UNL A   1      44.281  25.415  28.730  1.00  0.00     0.074 A 
ATOM     55  C   UNL A   1      46.148  30.528  31.985  1.00  0.00     0.029 A 
ATOM     56  N   UNL A   1      45.002  29.060  30.772  1.00  0.00    -0.354 N 
ATOM     57  N   UNL A   1      44.584  26.507  29.389  1.00  0.00    -0.248 NA
ATOM     58  C   UNL A   1      45.398  24.470  28.588  1.00  0.00     0.031 C 
ATOM     59  C   UNL A   1      46.991  29.454  31.677  1.00  0.00     0.029 A 
ATOM     60  C   UNL A   1      46.270  28.525  30.943  1.00  0.00     0.049 A 
ATOM     61  H   UNL A   1      44.265  28.624  30.284  1.00  0.00     0.167 HD
ATOM     62  C   UNL A   1      45.917  26.375  29.756  1.00  0.00     0.074 A 
ATOM     63  C   UNL A   1      46.357  25.086  29.265  1.00  0.00     0.031 C 
ATOM     64  C   UNL A   1      46.703  27.246  30.437  1.00  0.00     0.037 A 
BRANCH  51  65
ATOM     65  C   UNL A   1      43.859  32.521  31.993  1.00  0.00     0.064 A 
ATOM     66  C   UNL A   1      44.242  33.652  31.255  1.00  0.00     0.173 A 
ATOM     67  C   UNL A   1      43.561  32.700  33.352  1.00  0.00     0.173 A 
ATOM     68  F   UNL A   1      44.546  33.539  29.953  1.00  0.00    -0.203 F 
ATOM     69  C   UNL A   1      44.370  34.898  31.863  1.00  0.00     0.198 A 
ATOM     70  C   UNL A   1      43.651  33.955  33.949  1.00  0.00     0.198 A 
ATOM     71  F   UNL A   1      43.179  31.658  34.106  1.00  0.00    -0.203 F 
ATOM     72  F   UNL A   1      44.808  35.947  31.153  1.00  0.00    -0.200 F 
ATOM     73  C   UNL A   1      44.070  35.050  33.208  1.00  0.00     0.200 A 
ATOM     74  F   UNL A   1      43.345  34.103  35.245  1.00  0.00    -0.200 F 
ATOM     75  F   UNL A   1      44.196  36.249  33.793  1.00  0.00    -0.200 F 
ENDBRANCH  51  65
BRANCH  52  76
ATOM     76  C   UNL A   1      42.824  23.725  27.385  1.00  0.00     0.064 A 
ATOM     77  C   UNL A   1      43.201  23.608  26.040  1.00  0.00     0.173 A 
ATOM     78  C   UNL A   1      42.330  22.578  28.025  1.00  0.00     0.173 A 
ATOM     79  F   UNL A   1      43.661  24.680  25.378  1.00  0.00    -0.203 F 
ATOM     80  C   UNL A   1      43.081  22.397  25.361  1.00  0.00     0.198 A 
ATOM     81  C   UNL A   1      42.240  21.361  27.355  1.00  0.00     0.198 A 
ATOM     82  F   UNL A   1      41.962  22.634  29.314  1.00  0.00    -0.203 F 
ATOM     83  F   UNL A   1      43.415  22.321  24.066  1.00  0.00    -0.200 F 
ATOM     84  C   UNL A   1      42.609  21.272  26.021  1.00  0.00     0.200 A 
ATOM     85  F   UNL A   1      41.803  20.272  28.003  1.00  0.00    -0.200 F 
ATOM     86  F   UNL A   1      42.511  20.104  25.373  1.00  0.00    -0.200 F 
ENDBRANCH  52  76
BRANCH  64  87
ATOM     87  C   UNL A   1      48.122  26.827  30.706  1.00  0.00     0.064 A 
ATOM     88  C   UNL A   1      48.460  26.033  31.812  1.00  0.00     0.173 A 
ATOM     89  C   UNL A   1      49.152  27.196  29.826  1.00  0.00     0.173 A 
ATOM     90  F   UNL A   1      47.517  25.666  32.693  1.00  0.00    -0.203 F 
ATOM     91  C   UNL A   1      49.779  25.648  32.042  1.00  0.00     0.198 A 
ATOM     92  C   UNL A   1      50.463  26.778  30.040  1.00  0.00     0.198 A 
ATOM     93  F   UNL A   1      48.885  27.950  28.749  1.00  0.00    -0.203 F 
ATOM     94  F   UNL A   1      50.085  24.934  33.134  1.00  0.00    -0.200 F 
ATOM     95  C   UNL A   1      50.777  26.013  31.152  1.00  0.00     0.200 A 
ATOM     96  F   UNL A   1      51.423  27.119  29.168  1.00  0.00    -0.200 F 
ATOM     97  F   UNL A   1      52.043  25.633  31.369  1.00  0.00    -0.200 F 
ENDBRANCH  64  87
ENDBRANCH  38  39
ENDBRANCH  30  33
ENDBRANCH  28  29
ENDBRANCH  27  28
ENDBRANCH  26  27
ENDBRANCH   1  26
TORSDOF 16
ENDMDL
MODEL 3
REMARK VINA RESULT:     -11.4      4.083      8.962
REMARK SMILES O=C(Cc1ccc(S(=O)(=O)N2CCNC(=O)C2)cc1)NCCCCCCNC(=O)c1ccc(-c2c3nc(c(-c4c(F)c(F)c(F)c(F)c4F)c4ccc([nH]4)c(-c4c(F)c(F)c(F)c(F)c4F)c4nc(c(-c5c(F)c(F)c(F)c(F)c5F)c5ccc2[nH]5)C=C4)C=C3)cc1
REMARK SMILES IDX 23 1 22 2 21 3 20 4 1 5 2 6 3 8 4 9 5 10 19 11 6 12 18 13
REMARK SMILES IDX 7 14 8 15 9 16 10 17 11 18 12 19 17 20 13 21 15 22 14 23
REMARK SMILES IDX 16 24 24 26 25 27 26 28 27 29 28 30 29 32 30 33 31 34 92 35
REMARK SMILES IDX 32 36 91 37 33 38 34 39 35 40 85 41 36 42 90 43 84 44 86 45
REMARK SMILES IDX 37 46 89 47 83 48 82 49 38 51 70 52 50 53 69 54 51 55 54 56
REMARK SMILES IDX 68 57 87 58 52 59 53 60 67 62 88 63 55 64 39 65 40 66 48 67
REMARK SMILES IDX 41 68 42 69 46 70 49 71 43 72 44 73 47 74 45 75 71 76 72 77
REMARK SMILES IDX 80 78 73 79 74 80 78 81 81 82 75 83 76 84 79 85 77 86 56 87
REMARK SMILES IDX 57 88 65 89 58 90 59 91 63 92 66 93 60 94 61 95 64 96 62 97
REMARK H PARENT 20 7 14 25 27 31 86 50 54 61
REMARK Flexibility Score: inf
ROOT
ATOM      1  C   UNL A   1      35.277  32.947  28.820  1.00  0.00     0.002 C 
ENDROOT
BRANCH   1   2
ATOM      2  C   UNL A   1      36.079  31.962  27.956  1.00  0.00     0.021 C 
BRANCH   2   3
ATOM      3  C   UNL A   1      35.703  30.491  28.136  1.00  0.00     0.116 C 
BRANCH   3   4
ATOM      4  N   UNL A   1      34.998  29.981  26.978  1.00  0.00    -0.356 N 
ATOM      5  O   UNL A   1      32.907  30.697  27.601  1.00  0.00    -0.275 OA
ATOM      6  C   UNL A   1      33.645  30.170  26.776  1.00  0.00     0.224 C 
ATOM      7  H   UNL A   1      35.508  29.476  26.304  1.00  0.00     0.163 HD
BRANCH   6   8
ATOM      8  C   UNL A   1      33.153  29.682  25.417  1.00  0.00     0.135 C 
BRANCH   8   9
ATOM      9  C   UNL A   1      32.699  28.240  25.459  1.00  0.00    -0.039 A 
ATOM     10  C   UNL A   1      33.494  27.203  24.953  1.00  0.00     0.005 A 
ATOM     11  C   UNL A   1      31.466  27.917  26.031  1.00  0.00     0.005 A 
ATOM     12  C   UNL A   1      33.089  25.867  25.085  1.00  0.00     0.022 A 
ATOM     13  C   UNL A   1      31.063  26.593  26.153  1.00  0.00     0.022 A 
ATOM     14  C   UNL A   1      31.878  25.560  25.716  1.00  0.00     0.082 A 
BRANCH  14  15
ATOM     15  S   UNL A   1      31.433  23.848  25.931  1.00  0.00     0.243 S 
ATOM     16  O   UNL A   1      30.940  23.729  27.283  1.00  0.00    -0.207 OA
ATOM     17  O   UNL A   1      30.606  23.502  24.791  1.00  0.00    -0.207 OA
BRANCH  15  18
ATOM     18  N   UNL A   1      32.833  22.925  25.814  1.00  0.00    -0.187 NA
ATOM     19  C   UNL A   1      33.813  22.849  26.912  1.00  0.00     0.124 C 
ATOM     20  C   UNL A   1      32.940  21.834  24.823  1.00  0.00     0.202 C 
ATOM     21  C   UNL A   1      33.700  21.510  27.634  1.00  0.00     0.132 C 
ATOM     22  C   UNL A   1      33.224  20.454  25.419  1.00  0.00     0.235 C 
ATOM     23  N   UNL A   1      33.648  20.379  26.723  1.00  0.00    -0.354 N 
ATOM     24  O   UNL A   1      33.075  19.415  24.778  1.00  0.00    -0.274 OA
ATOM     25  H   UNL A   1      33.936  19.502  27.064  1.00  0.00     0.163 HD
ENDBRANCH  15  18
ENDBRANCH  14  15
ENDBRANCH   8   9
ENDBRANCH   6   8
ENDBRANCH   3   4
ENDBRANCH   2   3
ENDBRANCH   1   2
BRANCH   1  26
ATOM     26  C   UNL A   1      34.424  33.960  28.050  1.00  0.00     0.002 C 
BRANCH  26  27
ATOM     27  C   UNL A   1      33.234  34.534  28.820  1.00  0.00     0.021 C 
BRANCH  27  28
ATOM     28  C   UNL A   1      33.524  35.808  29.610  1.00  0.00     0.116 C 
BRANCH  28  29
ATOM     29  N   UNL A   1      32.561  36.039  30.676  1.00  0.00    -0.352 N 
ATOM     30  C   UNL A   1      32.596  35.633  31.988  1.00  0.00     0.251 C 
ATOM     31  H   UNL A   1      31.768  36.562  30.420  1.00  0.00     0.163 HD
ATOM     32  O   UNL A   1      31.611  35.780  32.706  1.00  0.00    -0.269 OA
BRANCH  30  33
ATOM     33  C   UNL A   1      33.810  34.987  32.535  1.00  0.00     0.039 A 
ATOM     34  C   UNL A   1      33.708  33.696  33.058  1.00  0.00     0.014 A 
ATOM     35  C   UNL A   1      35.045  35.642  32.526  1.00  0.00     0.014 A 
ATOM     36  C   UNL A   1      34.855  33.033  33.500  1.00  0.00     0.010 A 
ATOM     37  C   UNL A   1      36.198  34.953  32.893  1.00  0.00     0.010 A 
ATOM     38  C   UNL A   1      36.117  33.640  33.377  1.00  0.00    -0.014 A 
BRANCH  38  39
ATOM     39  C   UNL A   1      37.359  32.897  33.717  1.00  0.00     0.031 A 
ATOM     40  C   UNL A   1      38.120  33.210  34.974  1.00  0.00     0.074 A 
ATOM     41  C   UNL A   1      37.840  31.985  32.851  1.00  0.00     0.049 A 
ATOM     42  N   UNL A   1      39.248  32.704  35.407  1.00  0.00    -0.248 NA
ATOM     43  C   UNL A   1      37.552  34.246  35.848  1.00  0.00     0.031 C 
ATOM     44  C   UNL A   1      37.226  31.632  31.571  1.00  0.00     0.029 A 
ATOM     45  N   UNL A   1      38.963  31.197  32.908  1.00  0.00    -0.354 N 
ATOM     46  C   UNL A   1      39.525  33.362  36.598  1.00  0.00     0.074 A 
ATOM     47  C   UNL A   1      38.482  34.349  36.785  1.00  0.00     0.031 C 
ATOM     48  C   UNL A   1      37.966  30.686  30.973  1.00  0.00     0.029 A 
ATOM     49  C   UNL A   1      39.131  30.398  31.805  1.00  0.00     0.049 A 
ATOM     50  H   UNL A   1      39.589  31.204  33.669  1.00  0.00     0.167 HD
ATOM     51  C   UNL A   1      40.542  33.146  37.469  1.00  0.00     0.037 A 
ATOM     52  C   UNL A   1      40.120  29.541  31.486  1.00  0.00     0.037 A 
ATOM     53  C   UNL A   1      41.578  32.165  37.274  1.00  0.00     0.049 A 
ATOM     54  C   UNL A   1      41.254  29.337  32.452  1.00  0.00     0.074 A 
ATOM     55  C   UNL A   1      42.621  31.831  38.121  1.00  0.00     0.029 A 
ATOM     56  N   UNL A   1      41.714  31.369  36.144  1.00  0.00    -0.354 N 
ATOM     57  N   UNL A   1      41.463  29.906  33.614  1.00  0.00    -0.248 NA
ATOM     58  C   UNL A   1      42.287  28.366  32.064  1.00  0.00     0.031 C 
ATOM     59  C   UNL A   1      43.424  30.883  37.476  1.00  0.00     0.029 A 
ATOM     60  C   UNL A   1      42.845  30.573  36.255  1.00  0.00     0.049 A 
ATOM     61  H   UNL A   1      41.098  31.371  35.376  1.00  0.00     0.167 HD
ATOM     62  C   UNL A   1      42.639  29.352  34.106  1.00  0.00     0.074 A 
ATOM     63  C   UNL A   1      43.084  28.385  33.123  1.00  0.00     0.031 C 
ATOM     64  C   UNL A   1      43.288  29.624  35.265  1.00  0.00     0.037 A 
BRANCH  51  65
ATOM     65  C   UNL A   1      40.582  34.001  38.706  1.00  0.00     0.064 A 
ATOM     66  C   UNL A   1      41.290  35.213  38.743  1.00  0.00     0.173 A 
ATOM     67  C   UNL A   1      39.900  33.609  39.867  1.00  0.00     0.173 A 
ATOM     68  F   UNL A   1      41.967  35.634  37.664  1.00  0.00    -0.203 F 
ATOM     69  C   UNL A   1      41.355  35.972  39.909  1.00  0.00     0.198 A 
ATOM     70  C   UNL A   1      39.934  34.390  41.019  1.00  0.00     0.198 A 
ATOM     71  F   UNL A   1      39.197  32.466  39.888  1.00  0.00    -0.203 F 
ATOM     72  F   UNL A   1      42.099  37.086  39.941  1.00  0.00    -0.200 F 
ATOM     73  C   UNL A   1      40.674  35.563  41.045  1.00  0.00     0.200 A 
ATOM     74  F   UNL A   1      39.260  34.002  42.111  1.00  0.00    -0.200 F 
ATOM     75  F   UNL A   1      40.738  36.293  42.166  1.00  0.00    -0.200 F 
ENDBRANCH  51  65
BRANCH  52  76
ATOM     76  C   UNL A   1      40.064  28.807  30.195  1.00  0.00     0.064 A 
ATOM     77  C   UNL A   1      40.633  29.343  29.031  1.00  0.00     0.173 A 
ATOM     78  C   UNL A   1      39.465  27.542  30.105  1.00  0.00     0.173 A 
ATOM     79  F   UNL A   1      41.199  30.559  29.062  1.00  0.00    -0.203 F 
ATOM     80  C   UNL A   1      40.596  28.647  27.825  1.00  0.00     0.198 A 
ATOM     81  C   UNL A   1      39.458  26.832  28.906  1.00  0.00     0.198 A 
ATOM     82  F   UNL A   1      38.914  26.980  31.191  1.00  0.00    -0.203 F 
ATOM     83  F   UNL A   1      41.115  29.197  26.719  1.00  0.00    -0.200 F 
ATOM     84  C   UNL A   1      40.017  27.388  27.765  1.00  0.00     0.200 A 
ATOM     85  F   UNL A   1      38.915  25.607  28.858  1.00  0.00    -0.200 F 
ATOM     86  F   UNL A   1      39.998  26.710  26.610  1.00  0.00    -0.200 F 
ENDBRANCH  52  76
BRANCH  64  87
ATOM     87  C   UNL A   1      44.548  28.852  35.544  1.00  0.00     0.064 A 
ATOM     88  C   UNL A   1      45.807  29.326  35.147  1.00  0.00     0.173 A 
ATOM     89  C   UNL A   1      44.499  27.639  36.250  1.00  0.00     0.173 A 
ATOM     90  F   UNL A   1      45.911  30.471  34.456  1.00  0.00    -0.203 F 
ATOM     91  C   UNL A   1      46.966  28.602  35.420  1.00  0.00     0.198 A 
ATOM     92  C   UNL A   1      45.662  26.936  36.553  1.00  0.00     0.198 A 
ATOM     93  F   UNL A   1      43.322  27.142  36.659  1.00  0.00    -0.203 F 
ATOM     94  F   UNL A   1      48.152  29.049  34.984  1.00  0.00    -0.200 F 
ATOM     95  C   UNL A   1      46.893  27.413  36.130  1.00  0.00     0.200 A 
ATOM     96  F   UNL A   1      45.590  25.796  37.254  1.00  0.00    -0.200 F 
ATOM     97  F   UNL A   1      48.009  26.723  36.401  1.00  0.00    -0.200 F 
ENDBRANCH  64  87
ENDBRANCH  38  39
ENDBRANCH  30  33
ENDBRANCH  28  29
ENDBRANCH  27  28
ENDBRANCH  26  27
ENDBRANCH   1  26
TORSDOF 16
ENDMDL
