MODEL 1
REMARK VINA RESULT:     -11.2      0.000      0.000
REMARK SMILES O=C(CCc1cccnc1)Nc1ccsc1C(=O)NCCCCCCNC(=O)c1ccc(-c2c3nc(c(-c4c(F)c(F)c(F)c(F)c4F)c4ccc([nH]4)c(-c4c(F)c(F)c(F)c(F)c4F)c4nc(c(-c5c(F)c(F)c(F)c(F)c5F)c5ccc2[nH]5)C=C4)C=C3)cc1
REMARK SMILES IDX 21 1 20 2 19 3 17 4 18 5 16 7 12 8 13 9 14 10 15 11 11 12
REMARK SMILES IDX 1 13 2 14 3 16 4 17 5 18 6 19 10 20 7 21 9 22 8 23 22 24
REMARK SMILES IDX 23 25 24 26 25 27 26 28 27 29 28 31 29 32 30 33 91 34 31 35
REMARK SMILES IDX 90 36 32 37 33 38 34 39 84 40 35 41 89 42 83 43 85 44 36 45
REMARK SMILES IDX 88 46 82 47 81 48 37 50 69 51 49 52 68 53 50 54 53 55 67 56
REMARK SMILES IDX 86 57 51 58 52 59 66 61 87 62 54 63 38 64 39 65 47 66 40 67
REMARK SMILES IDX 41 68 45 69 48 70 42 71 43 72 46 73 44 74 70 75 71 76 79 77
REMARK SMILES IDX 72 78 73 79 77 80 80 81 74 82 75 83 78 84 76 85 55 86 56 87
REMARK SMILES IDX 64 88 57 89 58 90 62 91 65 92 59 93 60 94 63 95 61 96
REMARK H PARENT 19 6 11 15 26 30 85 49 53 60
REMARK Flexibility Score: inf
ROOT
ATOM      1  C   UNL A   1      33.140  29.224  24.741  1.00  0.00     0.021 C 
ENDROOT
BRANCH   1   2
ATOM      2  C   UNL A   1      33.674  27.814  24.409  1.00  0.00     0.116 C 
BRANCH   2   3
ATOM      3  N   UNL A   1      33.699  27.335  23.047  1.00  0.00    -0.351 N 
ATOM      4  C   UNL A   1      33.600  26.022  22.580  1.00  0.00     0.263 C 
ATOM      5  O   UNL A   1      33.653  25.898  21.354  1.00  0.00    -0.268 OA
ATOM      6  H   UNL A   1      33.801  28.027  22.354  1.00  0.00     0.163 HD
BRANCH   4   7
ATOM      7  C   UNL A   1      33.481  24.873  23.486  1.00  0.00     0.115 A 
ATOM      8  C   UNL A   1      32.488  24.437  24.356  1.00  0.00     0.065 A 
ATOM      9  C   UNL A   1      32.895  23.309  25.136  1.00  0.00     0.038 A 
ATOM     10  C   UNL A   1      34.110  22.809  24.735  1.00  0.00     0.068 A 
ATOM     11  S   UNL A   1      34.808  23.761  23.503  1.00  0.00    -0.137 S 
BRANCH   8  12
ATOM     12  N   UNL A   1      31.217  24.983  24.404  1.00  0.00    -0.325 N 
ATOM     13  O   UNL A   1      31.402  26.089  26.423  1.00  0.00    -0.275 OA
ATOM     14  C   UNL A   1      30.740  25.750  25.443  1.00  0.00     0.224 C 
ATOM     15  H   UNL A   1      30.614  24.811  23.645  1.00  0.00     0.169 HD
BRANCH  14  16
ATOM     16  C   UNL A   1      29.294  26.201  25.303  1.00  0.00     0.105 C 
BRANCH  16  17
ATOM     17  C   UNL A   1      28.763  26.331  23.876  1.00  0.00     0.047 C 
BRANCH  17  18
ATOM     18  C   UNL A   1      28.923  27.683  23.219  1.00  0.00    -0.029 A 
ATOM     19  C   UNL A   1      27.865  28.595  23.126  1.00  0.00     0.007 A 
ATOM     20  C   UNL A   1      30.118  28.076  22.638  1.00  0.00     0.114 A 
ATOM     21  C   UNL A   1      28.021  29.829  22.509  1.00  0.00     0.020 A 
ATOM     22  N   UNL A   1      30.304  29.266  22.022  1.00  0.00    -0.264 NA
ATOM     23  C   UNL A   1      29.255  30.115  21.972  1.00  0.00     0.111 A 
ENDBRANCH  17  18
ENDBRANCH  16  17
ENDBRANCH  14  16
ENDBRANCH   8  12
ENDBRANCH   4   7
ENDBRANCH   2   3
ENDBRANCH   1   2
BRANCH   1  24
ATOM     24  C   UNL A   1      31.912  29.610  25.596  1.00  0.00     0.002 C 
BRANCH  24  25
ATOM     25  C   UNL A   1      30.921  30.766  25.374  1.00  0.00     0.002 C 
BRANCH  25  26
ATOM     26  C   UNL A   1      31.020  32.103  26.116  1.00  0.00     0.021 C 
BRANCH  26  27
ATOM     27  C   UNL A   1      32.275  32.457  26.907  1.00  0.00     0.116 C 
BRANCH  27  28
ATOM     28  N   UNL A   1      32.281  33.829  27.384  1.00  0.00    -0.352 N 
ATOM     29  C   UNL A   1      33.055  34.441  28.347  1.00  0.00     0.251 C 
ATOM     30  H   UNL A   1      31.624  34.420  26.948  1.00  0.00     0.163 HD
ATOM     31  O   UNL A   1      32.753  35.574  28.719  1.00  0.00    -0.269 OA
BRANCH  29  32
ATOM     32  C   UNL A   1      34.247  33.783  28.952  1.00  0.00     0.039 A 
ATOM     33  C   UNL A   1      34.050  32.701  29.825  1.00  0.00     0.014 A 
ATOM     34  C   UNL A   1      35.543  34.268  28.764  1.00  0.00     0.014 A 
ATOM     35  C   UNL A   1      35.138  32.101  30.475  1.00  0.00     0.010 A 
ATOM     36  C   UNL A   1      36.635  33.627  29.359  1.00  0.00     0.010 A 
ATOM     37  C   UNL A   1      36.446  32.551  30.240  1.00  0.00    -0.014 A 
BRANCH  37  38
ATOM     38  C   UNL A   1      37.615  31.953  30.948  1.00  0.00     0.031 A 
ATOM     39  C   UNL A   1      38.457  30.906  30.265  1.00  0.00     0.074 A 
ATOM     40  C   UNL A   1      37.896  32.307  32.218  1.00  0.00     0.049 A 
ATOM     41  N   UNL A   1      39.463  30.207  30.733  1.00  0.00    -0.248 NA
ATOM     42  C   UNL A   1      38.100  30.577  28.875  1.00  0.00     0.031 C 
ATOM     43  C   UNL A   1      37.145  33.280  33.009  1.00  0.00     0.029 A 
ATOM     44  N   UNL A   1      38.886  31.879  33.072  1.00  0.00    -0.354 N 
ATOM     45  C   UNL A   1      39.838  29.346  29.708  1.00  0.00     0.074 A 
ATOM     46  C   UNL A   1      38.921  29.571  28.613  1.00  0.00     0.031 C 
ATOM     47  C   UNL A   1      37.708  33.390  34.224  1.00  0.00     0.029 A 
ATOM     48  C   UNL A   1      38.840  32.471  34.311  1.00  0.00     0.049 A 
ATOM     49  H   UNL A   1      39.562  31.211  32.818  1.00  0.00     0.167 HD
ATOM     50  C   UNL A   1      40.870  28.466  29.671  1.00  0.00     0.037 A 
ATOM     51  C   UNL A   1      39.618  32.289  35.396  1.00  0.00     0.037 A 
ATOM     52  C   UNL A   1      41.807  28.272  30.746  1.00  0.00     0.049 A 
ATOM     53  C   UNL A   1      40.760  31.310  35.330  1.00  0.00     0.074 A 
ATOM     54  C   UNL A   1      42.923  27.452  30.782  1.00  0.00     0.029 A 
ATOM     55  N   UNL A   1      41.738  28.907  31.977  1.00  0.00    -0.354 N 
ATOM     56  N   UNL A   1      41.142  30.548  34.333  1.00  0.00    -0.248 NA
ATOM     57  C   UNL A   1      41.586  31.170  36.538  1.00  0.00     0.031 C 
ATOM     58  C   UNL A   1      43.503  27.559  32.050  1.00  0.00     0.029 A 
ATOM     59  C   UNL A   1      42.779  28.483  32.787  1.00  0.00     0.049 A 
ATOM     60  H   UNL A   1      41.052  29.563  32.236  1.00  0.00     0.167 HD
ATOM     61  C   UNL A   1      42.263  29.864  34.782  1.00  0.00     0.074 A 
ATOM     62  C   UNL A   1      42.512  30.311  36.136  1.00  0.00     0.031 C 
ATOM     63  C   UNL A   1      43.019  28.945  34.131  1.00  0.00     0.037 A 
BRANCH  50  64
ATOM     64  C   UNL A   1      41.043  27.647  28.421  1.00  0.00     0.064 A 
ATOM     65  C   UNL A   1      41.884  28.064  27.378  1.00  0.00     0.173 A 
ATOM     66  C   UNL A   1      40.386  26.416  28.279  1.00  0.00     0.173 A 
ATOM     67  F   UNL A   1      42.530  29.237  27.458  1.00  0.00    -0.203 F 
ATOM     68  C   UNL A   1      42.031  27.296  26.225  1.00  0.00     0.198 A 
ATOM     69  C   UNL A   1      40.561  25.635  27.139  1.00  0.00     0.198 A 
ATOM     70  F   UNL A   1      39.576  25.964  29.249  1.00  0.00    -0.203 F 
ATOM     71  F   UNL A   1      42.796  27.743  25.219  1.00  0.00    -0.200 F 
ATOM     72  C   UNL A   1      41.376  26.080  26.109  1.00  0.00     0.200 A 
ATOM     73  F   UNL A   1      39.938  24.453  27.035  1.00  0.00    -0.200 F 
ATOM     74  F   UNL A   1      41.522  25.341  25.000  1.00  0.00    -0.200 F 
ENDBRANCH  50  64
BRANCH  51  75
ATOM     75  C   UNL A   1      39.362  33.072  36.635  1.00  0.00     0.064 A 
ATOM     76  C   UNL A   1      40.027  34.283  36.872  1.00  0.00     0.173 A 
ATOM     77  C   UNL A   1      38.455  32.627  37.608  1.00  0.00     0.173 A 
ATOM     78  F   UNL A   1      40.922  34.740  35.983  1.00  0.00    -0.203 F 
ATOM     79  C   UNL A   1      39.812  35.008  38.042  1.00  0.00     0.198 A 
ATOM     80  C   UNL A   1      38.218  33.368  38.765  1.00  0.00     0.198 A 
ATOM     81  F   UNL A   1      37.789  31.476  37.430  1.00  0.00    -0.203 F 
ATOM     82  F   UNL A   1      40.496  36.138  38.263  1.00  0.00    -0.200 F 
ATOM     83  C   UNL A   1      38.903  34.553  38.984  1.00  0.00     0.200 A 
ATOM     84  F   UNL A   1      37.329  32.930  39.666  1.00  0.00    -0.200 F 
ATOM     85  F   UNL A   1      38.692  35.253  40.108  1.00  0.00    -0.200 F 
ENDBRANCH  51  75
BRANCH  63  86
ATOM     86  C   UNL A   1      44.205  28.384  34.860  1.00  0.00     0.064 A 
ATOM     87  C   UNL A   1      45.456  29.019  34.829  1.00  0.00     0.173 A 
ATOM     88  C   UNL A   1      44.077  27.223  35.637  1.00  0.00     0.173 A 
ATOM     89  F   UNL A   1      45.634  30.125  34.090  1.00  0.00    -0.203 F 
ATOM     90  C   UNL A   1      46.541  28.497  35.528  1.00  0.00     0.198 A 
ATOM     91  C   UNL A   1      45.156  26.721  36.360  1.00  0.00     0.198 A 
ATOM     92  F   UNL A   1      42.901  26.581  35.707  1.00  0.00    -0.203 F 
ATOM     93  F   UNL A   1      47.737  29.094  35.447  1.00  0.00    -0.200 F 
ATOM     94  C   UNL A   1      46.388  27.354  36.299  1.00  0.00     0.200 A 
ATOM     95  F   UNL A   1      45.003  25.624  37.115  1.00  0.00    -0.200 F 
ATOM     96  F   UNL A   1      47.430  26.859  36.980  1.00  0.00    -0.200 F 
ENDBRANCH  63  86
ENDBRANCH  37  38
ENDBRANCH  29  32
ENDBRANCH  27  28
ENDBRANCH  26  27
ENDBRANCH  25  26
ENDBRANCH  24  25
ENDBRANCH   1  24
TORSDOF 17
ENDMDL
MODEL 2
REMARK VINA RESULT:     -11.2      1.062      7.235
REMARK SMILES O=C(CCc1cccnc1)Nc1ccsc1C(=O)NCCCCCCNC(=O)c1ccc(-c2c3nc(c(-c4c(F)c(F)c(F)c(F)c4F)c4ccc([nH]4)c(-c4c(F)c(F)c(F)c(F)c4F)c4nc(c(-c5c(F)c(F)c(F)c(F)c5F)c5ccc2[nH]5)C=C4)C=C3)cc1
REMARK SMILES IDX 21 1 20 2 19 3 17 4 18 5 16 7 12 8 13 9 14 10 15 11 11 12
REMARK SMILES IDX 1 13 2 14 3 16 4 17 5 18 6 19 10 20 7 21 9 22 8 23 22 24
REMARK SMILES IDX 23 25 24 26 25 27 26 28 27 29 28 31 29 32 30 33 91 34 31 35
REMARK SMILES IDX 90 36 32 37 33 38 34 39 84 40 35 41 89 42 83 43 85 44 36 45
REMARK SMILES IDX 88 46 82 47 81 48 37 50 69 51 49 52 68 53 50 54 53 55 67 56
REMARK SMILES IDX 86 57 51 58 52 59 66 61 87 62 54 63 38 64 39 65 47 66 40 67
REMARK SMILES IDX 41 68 45 69 48 70 42 71 43 72 46 73 44 74 70 75 71 76 79 77
REMARK SMILES IDX 72 78 73 79 77 80 80 81 74 82 75 83 78 84 76 85 55 86 56 87
REMARK SMILES IDX 64 88 57 89 58 90 62 91 65 92 59 93 60 94 63 95 61 96
REMARK H PARENT 19 6 11 15 26 30 85 49 53 60
REMARK Flexibility Score: inf
ROOT
ATOM      1  C   UNL A   1      32.604  28.995  23.503  1.00  0.00     0.021 C 
ENDROOT
BRANCH   1   2
ATOM      2  C   UNL A   1      33.273  27.631  23.230  1.00  0.00     0.116 C 
BRANCH   2   3
ATOM      3  N   UNL A   1      33.286  27.067  21.901  1.00  0.00    -0.351 N 
ATOM      4  C   UNL A   1      32.900  25.789  21.489  1.00  0.00     0.263 C 
ATOM      5  O   UNL A   1      33.018  25.570  20.281  1.00  0.00    -0.268 OA
ATOM      6  H   UNL A   1      33.612  27.663  21.188  1.00  0.00     0.163 HD
BRANCH   4   7
ATOM      7  C   UNL A   1      32.426  24.770  22.433  1.00  0.00     0.115 A 
ATOM      8  C   UNL A   1      31.318  24.677  23.267  1.00  0.00     0.065 A 
ATOM      9  C   UNL A   1      31.358  23.524  24.113  1.00  0.00     0.038 A 
ATOM     10  C   UNL A   1      32.397  22.683  23.796  1.00  0.00     0.068 A 
ATOM     11  S   UNL A   1      33.383  23.333  22.566  1.00  0.00    -0.137 S 
BRANCH   8  12
ATOM     12  N   UNL A   1      30.251  25.559  23.226  1.00  0.00    -0.325 N 
ATOM     13  O   UNL A   1      30.590  26.590  25.265  1.00  0.00    -0.275 OA
ATOM     14  C   UNL A   1      29.933  26.440  24.234  1.00  0.00     0.224 C 
ATOM     15  H   UNL A   1      29.682  25.555  22.422  1.00  0.00     0.169 HD
BRANCH  14  16
ATOM     16  C   UNL A   1      28.687  27.279  23.992  1.00  0.00     0.105 C 
BRANCH  16  17
ATOM     17  C   UNL A   1      28.601  27.982  22.638  1.00  0.00     0.047 C 
BRANCH  17  18
ATOM     18  C   UNL A   1      28.557  29.493  22.668  1.00  0.00    -0.029 A 
ATOM     19  C   UNL A   1      27.679  30.196  23.501  1.00  0.00     0.007 A 
ATOM     20  C   UNL A   1      29.357  30.264  21.840  1.00  0.00     0.114 A 
ATOM     21  C   UNL A   1      27.639  31.584  23.511  1.00  0.00     0.020 A 
ATOM     22  N   UNL A   1      29.340  31.616  21.815  1.00  0.00    -0.264 NA
ATOM     23  C   UNL A   1      28.484  32.246  22.650  1.00  0.00     0.111 A 
ENDBRANCH  17  18
ENDBRANCH  16  17
ENDBRANCH  14  16
ENDBRANCH   8  12
ENDBRANCH   4   7
ENDBRANCH   2   3
ENDBRANCH   1   2
BRANCH   1  24
ATOM     24  C   UNL A   1      32.241  29.633  24.863  1.00  0.00     0.002 C 
BRANCH  24  25
ATOM     25  C   UNL A   1      31.005  30.475  25.223  1.00  0.00     0.002 C 
BRANCH  25  26
ATOM     26  C   UNL A   1      31.066  31.690  26.155  1.00  0.00     0.021 C 
BRANCH  26  27
ATOM     27  C   UNL A   1      32.301  31.945  27.013  1.00  0.00     0.116 C 
BRANCH  27  28
ATOM     28  N   UNL A   1      32.539  33.355  27.267  1.00  0.00    -0.352 N 
ATOM     29  C   UNL A   1      33.499  33.979  28.034  1.00  0.00     0.251 C 
ATOM     30  H   UNL A   1      31.911  33.966  26.816  1.00  0.00     0.163 HD
ATOM     31  O   UNL A   1      33.391  35.184  28.255  1.00  0.00    -0.269 OA
BRANCH  29  32
ATOM     32  C   UNL A   1      34.667  33.249  28.604  1.00  0.00     0.039 A 
ATOM     33  C   UNL A   1      34.436  32.071  29.331  1.00  0.00     0.014 A 
ATOM     34  C   UNL A   1      35.968  33.750  28.529  1.00  0.00     0.014 A 
ATOM     35  C   UNL A   1      35.498  31.393  29.949  1.00  0.00     0.010 A 
ATOM     36  C   UNL A   1      37.036  33.038  29.087  1.00  0.00     0.010 A 
ATOM     37  C   UNL A   1      36.813  31.864  29.823  1.00  0.00    -0.014 A 
BRANCH  37  38
ATOM     38  C   UNL A   1      37.953  31.183  30.501  1.00  0.00     0.031 A 
ATOM     39  C   UNL A   1      38.305  31.533  31.925  1.00  0.00     0.074 A 
ATOM     40  C   UNL A   1      38.707  30.288  29.832  1.00  0.00     0.049 A 
ATOM     41  N   UNL A   1      39.304  31.117  32.665  1.00  0.00    -0.248 NA
ATOM     42  C   UNL A   1      37.433  32.509  32.598  1.00  0.00     0.031 C 
ATOM     43  C   UNL A   1      38.501  29.882  28.442  1.00  0.00     0.029 A 
ATOM     44  N   UNL A   1      39.808  29.565  30.229  1.00  0.00    -0.354 N 
ATOM     45  C   UNL A   1      39.191  31.794  33.874  1.00  0.00     0.074 A 
ATOM     46  C   UNL A   1      38.061  32.688  33.750  1.00  0.00     0.031 C 
ATOM     47  C   UNL A   1      39.430  28.971  28.107  1.00  0.00     0.029 A 
ATOM     48  C   UNL A   1      40.319  28.753  29.245  1.00  0.00     0.049 A 
ATOM     49  H   UNL A   1      40.193  29.625  31.132  1.00  0.00     0.167 HD
ATOM     50  C   UNL A   1      39.943  31.666  34.994  1.00  0.00     0.037 A 
ATOM     51  C   UNL A   1      41.387  27.930  29.257  1.00  0.00     0.037 A 
ATOM     52  C   UNL A   1      41.044  30.747  35.130  1.00  0.00     0.049 A 
ATOM     53  C   UNL A   1      42.204  27.801  30.515  1.00  0.00     0.074 A 
ATOM     54  C   UNL A   1      41.827  30.496  36.245  1.00  0.00     0.029 A 
ATOM     55  N   UNL A   1      41.515  29.927  34.118  1.00  0.00    -0.354 N 
ATOM     56  N   UNL A   1      42.048  28.401  31.670  1.00  0.00    -0.248 NA
ATOM     57  C   UNL A   1      43.343  26.872  30.474  1.00  0.00     0.031 C 
ATOM     58  C   UNL A   1      42.799  29.556  35.892  1.00  0.00     0.029 A 
ATOM     59  C   UNL A   1      42.591  29.183  34.573  1.00  0.00     0.049 A 
ATOM     60  H   UNL A   1      41.140  29.879  33.209  1.00  0.00     0.167 HD
ATOM     61  C   UNL A   1      43.046  27.905  32.497  1.00  0.00     0.074 A 
ATOM     62  C   UNL A   1      43.795  26.941  31.718  1.00  0.00     0.031 C 
ATOM     63  C   UNL A   1      43.321  28.220  33.787  1.00  0.00     0.037 A 
BRANCH  50  64
ATOM     64  C   UNL A   1      39.598  32.539  36.170  1.00  0.00     0.064 A 
ATOM     65  C   UNL A   1      40.234  33.771  36.384  1.00  0.00     0.173 A 
ATOM     66  C   UNL A   1      38.597  32.154  37.074  1.00  0.00     0.173 A 
ATOM     67  F   UNL A   1      41.204  34.184  35.555  1.00  0.00    -0.203 F 
ATOM     68  C   UNL A   1      39.907  34.567  37.480  1.00  0.00     0.198 A 
ATOM     69  C   UNL A   1      38.249  32.968  38.150  1.00  0.00     0.198 A 
ATOM     70  F   UNL A   1      37.950  30.990  36.913  1.00  0.00    -0.203 F 
ATOM     71  F   UNL A   1      40.568  35.713  37.693  1.00  0.00    -0.200 F 
ATOM     72  C   UNL A   1      38.910  34.169  38.357  1.00  0.00     0.200 A 
ATOM     73  F   UNL A   1      37.275  32.587  38.989  1.00  0.00    -0.200 F 
ATOM     74  F   UNL A   1      38.593  34.938  39.408  1.00  0.00    -0.200 F 
ENDBRANCH  50  64
BRANCH  51  75
ATOM     75  C   UNL A   1      41.730  27.139  28.045  1.00  0.00     0.064 A 
ATOM     76  C   UNL A   1      42.593  27.657  27.068  1.00  0.00     0.173 A 
ATOM     77  C   UNL A   1      41.200  25.857  27.832  1.00  0.00     0.173 A 
ATOM     78  F   UNL A   1      43.106  28.887  27.213  1.00  0.00    -0.203 F 
ATOM     79  C   UNL A   1      42.897  26.932  25.918  1.00  0.00     0.198 A 
ATOM     80  C   UNL A   1      41.529  25.122  26.695  1.00  0.00     0.198 A 
ATOM     81  F   UNL A   1      40.372  25.314  28.737  1.00  0.00    -0.203 F 
ATOM     82  F   UNL A   1      43.687  27.470  24.979  1.00  0.00    -0.200 F 
ATOM     83  C   UNL A   1      42.370  25.663  25.735  1.00  0.00     0.200 A 
ATOM     84  F   UNL A   1      41.028  23.890  26.530  1.00  0.00    -0.200 F 
ATOM     85  F   UNL A   1      42.667  24.964  24.630  1.00  0.00    -0.200 F 
ENDBRANCH  51  75
BRANCH  63  86
ATOM     86  C   UNL A   1      44.456  27.495  34.450  1.00  0.00     0.064 A 
ATOM     87  C   UNL A   1      45.756  28.024  34.468  1.00  0.00     0.173 A 
ATOM     88  C   UNL A   1      44.232  26.280  35.113  1.00  0.00     0.173 A 
ATOM     89  F   UNL A   1      46.025  29.177  33.837  1.00  0.00    -0.203 F 
ATOM     90  C   UNL A   1      46.793  27.349  35.106  1.00  0.00     0.198 A 
ATOM     91  C   UNL A   1      45.265  25.623  35.776  1.00  0.00     0.198 A 
ATOM     92  F   UNL A   1      43.006  25.734  35.131  1.00  0.00    -0.203 F 
ATOM     93  F   UNL A   1      48.036  27.850  35.072  1.00  0.00    -0.200 F 
ATOM     94  C   UNL A   1      46.546  26.154  35.766  1.00  0.00     0.200 A 
ATOM     95  F   UNL A   1      45.021  24.476  36.425  1.00  0.00    -0.200 F 
ATOM     96  F   UNL A   1      47.543  25.511  36.388  1.00  0.00    -0.200 F 
ENDBRANCH  63  86
ENDBRANCH  37  38
ENDBRANCH  29  32
ENDBRANCH  27  28
ENDBRANCH  26  27
ENDBRANCH  25  26
ENDBRANCH  24  25
ENDBRANCH   1  24
TORSDOF 17
ENDMDL
MODEL 3
REMARK VINA RESULT:     -11.2      0.425      1.972
REMARK SMILES O=C(CCc1cccnc1)Nc1ccsc1C(=O)NCCCCCCNC(=O)c1ccc(-c2c3nc(c(-c4c(F)c(F)c(F)c(F)c4F)c4ccc([nH]4)c(-c4c(F)c(F)c(F)c(F)c4F)c4nc(c(-c5c(F)c(F)c(F)c(F)c5F)c5ccc2[nH]5)C=C4)C=C3)cc1
REMARK SMILES IDX 21 1 20 2 19 3 17 4 18 5 16 7 12 8 13 9 14 10 15 11 11 12
REMARK SMILES IDX 1 13 2 14 3 16 4 17 5 18 6 19 10 20 7 21 9 22 8 23 22 24
REMARK SMILES IDX 23 25 24 26 25 27 26 28 27 29 28 31 29 32 30 33 91 34 31 35
REMARK SMILES IDX 90 36 32 37 33 38 34 39 84 40 35 41 89 42 83 43 85 44 36 45
REMARK SMILES IDX 88 46 82 47 81 48 37 50 69 51 49 52 68 53 50 54 53 55 67 56
REMARK SMILES IDX 86 57 51 58 52 59 66 61 87 62 54 63 38 64 39 65 47 66 40 67
REMARK SMILES IDX 41 68 45 69 48 70 42 71 43 72 46 73 44 74 70 75 71 76 79 77
REMARK SMILES IDX 72 78 73 79 77 80 80 81 74 82 75 83 78 84 76 85 55 86 56 87
REMARK SMILES IDX 64 88 57 89 58 90 62 91 65 92 59 93 60 94 63 95 61 96
REMARK H PARENT 19 6 11 15 26 30 85 49 53 60
REMARK Flexibility Score: inf
ROOT
ATOM      1  C   UNL A   1      33.070  29.205  24.343  1.00  0.00     0.021 C 
ENDROOT
BRANCH   1   2
ATOM      2  C   UNL A   1      33.667  27.805  24.087  1.00  0.00     0.116 C 
BRANCH   2   3
ATOM      3  N   UNL A   1      33.654  27.224  22.765  1.00  0.00    -0.351 N 
ATOM      4  C   UNL A   1      33.563  25.879  22.401  1.00  0.00     0.263 C 
ATOM      5  O   UNL A   1      33.575  25.663  21.187  1.00  0.00    -0.268 OA
ATOM      6  H   UNL A   1      33.718  27.864  22.019  1.00  0.00     0.163 HD
BRANCH   4   7
ATOM      7  C   UNL A   1      33.498  24.800  23.393  1.00  0.00     0.115 A 
ATOM      8  C   UNL A   1      32.556  24.429  24.345  1.00  0.00     0.065 A 
ATOM      9  C   UNL A   1      33.009  23.361  25.183  1.00  0.00     0.038 A 
ATOM     10  C   UNL A   1      34.202  22.833  24.754  1.00  0.00     0.068 A 
ATOM     11  S   UNL A   1      34.829  23.691  23.420  1.00  0.00    -0.137 S 
BRANCH   8  12
ATOM     12  N   UNL A   1      31.287  24.977  24.423  1.00  0.00    -0.325 N 
ATOM     13  O   UNL A   1      31.564  26.194  26.366  1.00  0.00    -0.275 OA
ATOM     14  C   UNL A   1      30.857  25.801  25.438  1.00  0.00     0.224 C 
ATOM     15  H   UNL A   1      30.649  24.762  23.704  1.00  0.00     0.169 HD
BRANCH  14  16
ATOM     16  C   UNL A   1      29.405  26.244  25.341  1.00  0.00     0.105 C 
BRANCH  16  17
ATOM     17  C   UNL A   1      28.819  26.327  23.933  1.00  0.00     0.047 C 
BRANCH  17  18
ATOM     18  C   UNL A   1      28.904  27.672  23.248  1.00  0.00    -0.029 A 
ATOM     19  C   UNL A   1      27.819  28.556  23.205  1.00  0.00     0.007 A 
ATOM     20  C   UNL A   1      30.051  28.086  22.590  1.00  0.00     0.114 A 
ATOM     21  C   UNL A   1      27.906  29.783  22.562  1.00  0.00     0.020 A 
ATOM     22  N   UNL A   1      30.170  29.270  21.947  1.00  0.00    -0.264 NA
ATOM     23  C   UNL A   1      29.098  30.092  21.947  1.00  0.00     0.111 A 
ENDBRANCH  17  18
ENDBRANCH  16  17
ENDBRANCH  14  16
ENDBRANCH   8  12
ENDBRANCH   4   7
ENDBRANCH   2   3
ENDBRANCH   1   2
BRANCH   1  24
ATOM     24  C   UNL A   1      32.125  29.654  25.480  1.00  0.00     0.002 C 
BRANCH  24  25
ATOM     25  C   UNL A   1      30.979  30.679  25.420  1.00  0.00     0.002 C 
BRANCH  25  26
ATOM     26  C   UNL A   1      31.034  32.032  26.137  1.00  0.00     0.021 C 
BRANCH  26  27
ATOM     27  C   UNL A   1      32.262  32.429  26.948  1.00  0.00     0.116 C 
BRANCH  27  28
ATOM     28  N   UNL A   1      32.229  33.810  27.396  1.00  0.00    -0.352 N 
ATOM     29  C   UNL A   1      33.001  34.470  28.328  1.00  0.00     0.251 C 
ATOM     30  H   UNL A   1      31.542  34.368  26.962  1.00  0.00     0.163 HD
ATOM     31  O   UNL A   1      32.666  35.599  28.683  1.00  0.00    -0.269 OA
BRANCH  29  32
ATOM     32  C   UNL A   1      34.228  33.868  28.922  1.00  0.00     0.039 A 
ATOM     33  C   UNL A   1      34.092  32.767  29.781  1.00  0.00     0.014 A 
ATOM     34  C   UNL A   1      35.495  34.423  28.736  1.00  0.00     0.014 A 
ATOM     35  C   UNL A   1      35.211  32.216  30.421  1.00  0.00     0.010 A 
ATOM     36  C   UNL A   1      36.622  33.833  29.320  1.00  0.00     0.010 A 
ATOM     37  C   UNL A   1      36.493  32.737  30.188  1.00  0.00    -0.014 A 
BRANCH  37  38
ATOM     38  C   UNL A   1      37.694  32.193  30.884  1.00  0.00     0.031 A 
ATOM     39  C   UNL A   1      38.539  31.136  30.219  1.00  0.00     0.074 A 
ATOM     40  C   UNL A   1      38.004  32.604  32.130  1.00  0.00     0.049 A 
ATOM     41  N   UNL A   1      39.573  30.477  30.685  1.00  0.00    -0.248 NA
ATOM     42  C   UNL A   1      38.150  30.743  28.855  1.00  0.00     0.031 C 
ATOM     43  C   UNL A   1      37.255  33.593  32.903  1.00  0.00     0.029 A 
ATOM     44  N   UNL A   1      39.027  32.231  32.970  1.00  0.00    -0.354 N 
ATOM     45  C   UNL A   1      39.937  29.583  29.685  1.00  0.00     0.074 A 
ATOM     46  C   UNL A   1      38.984  29.744  28.609  1.00  0.00     0.031 C 
ATOM     47  C   UNL A   1      37.850  33.763  34.095  1.00  0.00     0.029 A 
ATOM     48  C   UNL A   1      39.003  32.872  34.186  1.00  0.00     0.049 A 
ATOM     49  H   UNL A   1      39.710  31.568  32.724  1.00  0.00     0.167 HD
ATOM     50  C   UNL A   1      40.986  28.724  29.653  1.00  0.00     0.037 A 
ATOM     51  C   UNL A   1      39.816  32.750  35.254  1.00  0.00     0.037 A 
ATOM     52  C   UNL A   1      41.958  28.593  30.707  1.00  0.00     0.049 A 
ATOM     53  C   UNL A   1      40.977  31.793  35.193  1.00  0.00     0.074 A 
ATOM     54  C   UNL A   1      43.091  27.799  30.743  1.00  0.00     0.029 A 
ATOM     55  N   UNL A   1      41.911  29.276  31.912  1.00  0.00    -0.354 N 
ATOM     56  N   UNL A   1      41.346  30.999  34.217  1.00  0.00    -0.248 NA
ATOM     57  C   UNL A   1      41.840  31.720  36.381  1.00  0.00     0.031 C 
ATOM     58  C   UNL A   1      43.705  27.969  31.987  1.00  0.00     0.029 A 
ATOM     59  C   UNL A   1      42.983  28.907  32.708  1.00  0.00     0.049 A 
ATOM     60  H   UNL A   1      41.218  29.928  32.166  1.00  0.00     0.167 HD
ATOM     61  C   UNL A   1      42.494  30.357  34.660  1.00  0.00     0.074 A 
ATOM     62  C   UNL A   1      42.772  30.864  35.987  1.00  0.00     0.031 C 
ATOM     63  C   UNL A   1      43.251  29.428  34.025  1.00  0.00     0.037 A 
BRANCH  50  64
ATOM     64  C   UNL A   1      41.141  27.859  28.432  1.00  0.00     0.064 A 
ATOM     65  C   UNL A   1      40.501  26.615  28.324  1.00  0.00     0.173 A 
ATOM     66  C   UNL A   1      41.914  28.293  27.344  1.00  0.00     0.173 A 
ATOM     67  F   UNL A   1      39.757  26.148  29.338  1.00  0.00    -0.203 F 
ATOM     68  C   UNL A   1      40.658  25.823  27.189  1.00  0.00     0.198 A 
ATOM     69  C   UNL A   1      42.042  27.513  26.197  1.00  0.00     0.198 A 
ATOM     70  F   UNL A   1      42.541  29.478  27.389  1.00  0.00    -0.203 F 
ATOM     71  F   UNL A   1      40.081  24.614  27.134  1.00  0.00    -0.200 F 
ATOM     72  C   UNL A   1      41.422  26.275  26.124  1.00  0.00     0.200 A 
ATOM     73  F   UNL A   1      42.769  27.959  25.163  1.00  0.00    -0.200 F 
ATOM     74  F   UNL A   1      41.568  25.513  25.031  1.00  0.00    -0.200 F 
ENDBRANCH  50  64
BRANCH  51  75
ATOM     75  C   UNL A   1      39.579  33.578  36.467  1.00  0.00     0.064 A 
ATOM     76  C   UNL A   1      38.781  33.104  37.518  1.00  0.00     0.173 A 
ATOM     77  C   UNL A   1      40.136  34.859  36.600  1.00  0.00     0.173 A 
ATOM     78  F   UNL A   1      38.206  31.895  37.429  1.00  0.00    -0.203 F 
ATOM     79  C   UNL A   1      38.532  33.885  38.645  1.00  0.00     0.198 A 
ATOM     80  C   UNL A   1      39.911  35.627  37.741  1.00  0.00     0.198 A 
ATOM     81  F   UNL A   1      40.910  35.359  35.625  1.00  0.00    -0.203 F 
ATOM     82  F   UNL A   1      37.728  33.425  39.612  1.00  0.00    -0.200 F 
ATOM     83  C   UNL A   1      39.103  35.143  38.758  1.00  0.00     0.200 A 
ATOM     84  F   UNL A   1      40.475  36.838  37.851  1.00  0.00    -0.200 F 
ATOM     85  F   UNL A   1      38.868  35.893  39.844  1.00  0.00    -0.200 F 
ENDBRANCH  51  75
BRANCH  63  86
ATOM     86  C   UNL A   1      44.470  28.921  34.741  1.00  0.00     0.064 A 
ATOM     87  C   UNL A   1      44.443  27.736  35.491  1.00  0.00     0.173 A 
ATOM     88  C   UNL A   1      45.689  29.606  34.637  1.00  0.00     0.173 A 
ATOM     89  F   UNL A   1      43.298  27.052  35.631  1.00  0.00    -0.203 F 
ATOM     90  C   UNL A   1      45.588  27.269  36.131  1.00  0.00     0.198 A 
ATOM     91  C   UNL A   1      46.840  29.120  35.253  1.00  0.00     0.198 A 
ATOM     92  F   UNL A   1      45.770  30.741  33.926  1.00  0.00    -0.203 F 
ATOM     93  F   UNL A   1      45.529  26.159  36.879  1.00  0.00    -0.200 F 
ATOM     94  C   UNL A   1      46.786  27.956  36.004  1.00  0.00     0.200 A 
ATOM     95  F   UNL A   1      48.000  29.778  35.118  1.00  0.00    -0.200 F 
ATOM     96  F   UNL A   1      47.889  27.500  36.613  1.00  0.00    -0.200 F 
ENDBRANCH  63  86
ENDBRANCH  37  38
ENDBRANCH  29  32
ENDBRANCH  27  28
ENDBRANCH  26  27
ENDBRANCH  25  26
ENDBRANCH  24  25
ENDBRANCH   1  24
TORSDOF 17
ENDMDL
