MODEL 1
REMARK VINA RESULT:     -12.2      0.000      0.000
REMARK SMILES O=C(NCCCCCCNC(=O)c1ccc(Cl)c(NC(=S)NC(=O)c2cc([N+](=O)[O-])ccc2Cl)c1)c1ccc(-c2c3nc(c(-c4c(F)c(F)c(F)c(F)c4F)c4ccc([nH]4)c(-c4c(F)c(F)c(F)c(F)c4F)c4nc(c(-c5c(F)c(F)c(F)c(F)c5F)c5ccc2[nH]5)C=C4)C=C3)cc1
REMARK SMILES IDX 8 1 7 2 6 3 5 4 4 5 3 6 1 7 2 8 36 10 37 11 98 12 38 13
REMARK SMILES IDX 97 14 39 15 40 16 41 17 91 18 42 19 96 20 90 21 92 22 43 23
REMARK SMILES IDX 95 24 89 25 88 26 44 28 76 29 56 30 75 31 57 32 60 33 74 34
REMARK SMILES IDX 93 35 58 36 59 37 73 39 94 40 61 41 45 42 46 43 54 44 47 45
REMARK SMILES IDX 48 46 52 47 55 48 49 49 50 50 53 51 51 52 77 53 78 54 86 55
REMARK SMILES IDX 79 56 80 57 84 58 87 59 81 60 82 61 85 62 83 63 62 64 63 65
REMARK SMILES IDX 71 66 64 67 65 68 69 69 72 70 66 71 67 72 70 73 68 74 9 75
REMARK SMILES IDX 10 76 11 77 12 79 13 80 14 81 35 82 15 83 18 84 16 85 17 86
REMARK SMILES IDX 19 87 20 89 21 90 22 91 23 92 24 94 25 95 26 96 33 97 27 98
REMARK SMILES IDX 32 99 34 100 31 101 28 102 29 103 30 104
REMARK H PARENT 3 9 92 27 60 38 10 78 19 88 22 93
REMARK Flexibility Score: inf
ROOT
ATOM      1  C   UNL A   1      35.547  20.595  25.003  1.00  0.00     0.021 C 
ENDROOT
BRANCH   1   2
ATOM      2  C   UNL A   1      34.842  21.164  26.240  1.00  0.00     0.002 C 
BRANCH   2   3
ATOM      3  C   UNL A   1      34.905  22.683  26.411  1.00  0.00     0.002 C 
BRANCH   3   4
ATOM      4  C   UNL A   1      35.515  23.465  25.243  1.00  0.00     0.021 C 
BRANCH   4   5
ATOM      5  C   UNL A   1      36.908  24.040  25.486  1.00  0.00     0.116 C 
BRANCH   5   6
ATOM      6  N   UNL A   1      37.931  23.021  25.617  1.00  0.00    -0.352 N 
ATOM      7  O   UNL A   1      39.960  22.178  26.120  1.00  0.00    -0.269 OA
ATOM      8  C   UNL A   1      39.178  23.122  26.179  1.00  0.00     0.251 C 
ATOM      9  H   UNL A   1      37.699  22.136  25.253  1.00  0.00     0.163 HD
BRANCH   8  10
ATOM     10  C   UNL A   1      39.604  24.382  26.829  1.00  0.00     0.039 A 
ATOM     11  C   UNL A   1      40.302  25.371  26.128  1.00  0.00     0.014 A 
ATOM     12  C   UNL A   1      39.243  24.591  28.164  1.00  0.00     0.014 A 
ATOM     13  C   UNL A   1      40.700  26.538  26.783  1.00  0.00     0.010 A 
ATOM     14  C   UNL A   1      39.620  25.768  28.812  1.00  0.00     0.010 A 
ATOM     15  C   UNL A   1      40.364  26.742  28.130  1.00  0.00    -0.014 A 
BRANCH  15  16
ATOM     16  C   UNL A   1      40.759  27.990  28.819  1.00  0.00     0.031 A 
ATOM     17  C   UNL A   1      42.160  28.172  29.322  1.00  0.00     0.074 A 
ATOM     18  C   UNL A   1      39.841  28.952  29.016  1.00  0.00     0.049 A 
ATOM     19  N   UNL A   1      42.674  29.177  29.986  1.00  0.00    -0.248 NA
ATOM     20  C   UNL A   1      43.108  27.084  29.045  1.00  0.00     0.031 C 
ATOM     21  C   UNL A   1      38.444  28.886  28.588  1.00  0.00     0.029 A 
ATOM     22  N   UNL A   1      39.945  30.170  29.638  1.00  0.00    -0.354 N 
ATOM     23  C   UNL A   1      43.996  28.836  30.222  1.00  0.00     0.074 A 
ATOM     24  C   UNL A   1      44.211  27.531  29.631  1.00  0.00     0.031 C 
ATOM     25  C   UNL A   1      37.819  30.015  28.958  1.00  0.00     0.029 A 
ATOM     26  C   UNL A   1      38.768  30.871  29.668  1.00  0.00     0.049 A 
ATOM     27  H   UNL A   1      40.785  30.508  30.026  1.00  0.00     0.167 HD
ATOM     28  C   UNL A   1      44.946  29.549  30.872  1.00  0.00     0.037 A 
ATOM     29  C   UNL A   1      38.479  32.063  30.222  1.00  0.00     0.037 A 
ATOM     30  C   UNL A   1      44.749  30.855  31.440  1.00  0.00     0.049 A 
ATOM     31  C   UNL A   1      39.546  32.825  30.949  1.00  0.00     0.074 A 
ATOM     32  C   UNL A   1      45.676  31.682  32.051  1.00  0.00     0.029 A 
ATOM     33  N   UNL A   1      43.535  31.522  31.471  1.00  0.00    -0.354 N 
ATOM     34  N   UNL A   1      40.802  32.507  31.136  1.00  0.00    -0.248 NA
ATOM     35  C   UNL A   1      39.149  34.105  31.552  1.00  0.00     0.031 C 
ATOM     36  C   UNL A   1      45.016  32.845  32.469  1.00  0.00     0.029 A 
ATOM     37  C   UNL A   1      43.683  32.741  32.110  1.00  0.00     0.049 A 
ATOM     38  H   UNL A   1      42.692  31.179  31.095  1.00  0.00     0.167 HD
ATOM     39  C   UNL A   1      41.348  33.541  31.880  1.00  0.00     0.074 A 
ATOM     40  C   UNL A   1      40.288  34.504  32.105  1.00  0.00     0.031 C 
ATOM     41  C   UNL A   1      42.615  33.678  32.338  1.00  0.00     0.037 A 
BRANCH  28  42
ATOM     42  C   UNL A   1      46.296  28.922  31.008  1.00  0.00     0.064 A 
ATOM     43  C   UNL A   1      46.614  28.122  32.113  1.00  0.00     0.173 A 
ATOM     44  C   UNL A   1      47.265  29.097  30.012  1.00  0.00     0.173 A 
ATOM     45  F   UNL A   1      45.719  27.941  33.096  1.00  0.00    -0.203 F 
ATOM     46  C   UNL A   1      47.865  27.519  32.218  1.00  0.00     0.198 A 
ATOM     47  C   UNL A   1      48.512  28.488  30.117  1.00  0.00     0.198 A 
ATOM     48  F   UNL A   1      47.002  29.862  28.941  1.00  0.00    -0.203 F 
ATOM     49  F   UNL A   1      48.158  26.771  33.290  1.00  0.00    -0.200 F 
ATOM     50  C   UNL A   1      48.810  27.701  31.219  1.00  0.00     0.200 A 
ATOM     51  F   UNL A   1      49.428  28.669  29.155  1.00  0.00    -0.200 F 
ATOM     52  F   UNL A   1      50.015  27.123  31.325  1.00  0.00    -0.200 F 
ENDBRANCH  28  42
BRANCH  29  53
ATOM     53  C   UNL A   1      37.102  32.592  30.119  1.00  0.00     0.064 A 
ATOM     54  C   UNL A   1      36.178  32.387  31.150  1.00  0.00     0.173 A 
ATOM     55  C   UNL A   1      36.699  33.340  29.006  1.00  0.00     0.173 A 
ATOM     56  F   UNL A   1      36.523  31.662  32.224  1.00  0.00    -0.203 F 
ATOM     57  C   UNL A   1      34.893  32.917  31.072  1.00  0.00     0.198 A 
ATOM     58  C   UNL A   1      35.417  33.877  28.933  1.00  0.00     0.198 A 
ATOM     59  F   UNL A   1      37.556  33.556  27.997  1.00  0.00    -0.203 F 
ATOM     60  F   UNL A   1      34.020  32.702  32.065  1.00  0.00    -0.200 F 
ATOM     61  C   UNL A   1      34.515  33.664  29.965  1.00  0.00     0.200 A 
ATOM     62  F   UNL A   1      35.055  34.599  27.864  1.00  0.00    -0.200 F 
ATOM     63  F   UNL A   1      33.279  34.178  29.893  1.00  0.00    -0.200 F 
ENDBRANCH  29  53
BRANCH  41  64
ATOM     64  C   UNL A   1      42.919  34.903  33.136  1.00  0.00     0.064 A 
ATOM     65  C   UNL A   1      43.348  36.081  32.508  1.00  0.00     0.173 A 
ATOM     66  C   UNL A   1      42.752  34.913  34.527  1.00  0.00     0.173 A 
ATOM     67  F   UNL A   1      43.533  36.108  31.180  1.00  0.00    -0.203 F 
ATOM     68  C   UNL A   1      43.604  37.229  33.250  1.00  0.00     0.198 A 
ATOM     69  C   UNL A   1      43.003  36.066  35.265  1.00  0.00     0.198 A 
ATOM     70  F   UNL A   1      42.348  33.806  35.166  1.00  0.00    -0.203 F 
ATOM     71  F   UNL A   1      44.029  38.343  32.635  1.00  0.00    -0.200 F 
ATOM     72  C   UNL A   1      43.429  37.222  34.626  1.00  0.00     0.200 A 
ATOM     73  F   UNL A   1      42.838  36.058  36.595  1.00  0.00    -0.200 F 
ATOM     74  F   UNL A   1      43.679  38.329  35.340  1.00  0.00    -0.200 F 
ENDBRANCH  41  64
ENDBRANCH  15  16
ENDBRANCH   8  10
ENDBRANCH   5   6
ENDBRANCH   4   5
ENDBRANCH   3   4
ENDBRANCH   2   3
ENDBRANCH   1   2
BRANCH   1  75
ATOM     75  C   UNL A   1      35.471  19.078  24.830  1.00  0.00     0.116 C 
BRANCH  75  76
ATOM     76  N   UNL A   1      34.255  18.517  25.378  1.00  0.00    -0.352 N 
ATOM     77  C   UNL A   1      32.934  18.614  25.010  1.00  0.00     0.251 C 
ATOM     78  H   UNL A   1      34.403  17.955  26.173  1.00  0.00     0.163 HD
ATOM     79  O   UNL A   1      32.155  17.795  25.494  1.00  0.00    -0.269 OA
BRANCH  77  80
ATOM     80  C   UNL A   1      32.415  19.718  23.749  1.00  0.00     0.041 A 
ATOM     81  C   UNL A   1      31.977  18.789  22.997  1.00  0.00     0.015 A 
ATOM     82  C   UNL A   1      32.346  21.754  23.756  1.00  0.00     0.041 A 
ATOM     83  C   UNL A   1      32.528  19.891  22.624  1.00  0.00     0.023 A 
ATOM     84  C   UNL A   1      31.735  22.805  23.339  1.00  0.00     0.060 A 
ATOM     85  C   UNL A   1      32.458  21.936  22.733  1.00  0.00     0.064 A 
ATOM     86  Cl  UNL A   1      33.578  23.329  21.604  1.00  0.00    -0.082 Cl
BRANCH  84  87
ATOM     87  N   UNL A   1      31.825  23.997  24.044  1.00  0.00    -0.331 N 
ATOM     88  H   UNL A   1      32.603  24.573  23.869  1.00  0.00     0.169 HD
BRANCH  87  89
ATOM     89  C   UNL A   1      30.908  24.432  24.974  1.00  0.00     0.177 C 
ATOM     90  S   UNL A   1      31.116  23.960  26.565  1.00  0.00    -0.040 S 
BRANCH  89  91
ATOM     91  N   UNL A   1      29.791  25.234  24.668  1.00  0.00    -0.299 N 
ATOM     92  C   UNL A   1      29.356  26.482  24.106  1.00  0.00     0.259 C 
ATOM     93  H   UNL A   1      28.987  24.743  24.954  1.00  0.00     0.172 HD
ATOM     94  O   UNL A   1      28.168  26.673  23.876  1.00  0.00    -0.269 OA
BRANCH  92  95
ATOM     95  C   UNL A   1      30.364  27.529  23.752  1.00  0.00     0.065 A 
ATOM     96  C   UNL A   1      31.075  28.548  25.292  1.00  0.00     0.101 A 
ATOM     97  C   UNL A   1      31.770  27.120  22.384  1.00  0.00     0.054 A 
ATOM     98  C   UNL A   1      32.969  29.010  25.529  1.00  0.00     0.270 A 
ATOM     99  C   UNL A   1      33.664  27.586  22.632  1.00  0.00     0.028 A 
ATOM    100  Cl  UNL A   1      31.403  25.998  21.106  1.00  0.00    -0.083 Cl
ATOM    101  C   UNL A   1      34.390  28.551  24.234  1.00  0.00     0.087 A 
BRANCH  98 102
ATOM    102  N   UNL A   1      33.360  29.683  26.749  1.00  0.00     0.062 N 
ATOM    103  O   UNL A   1      33.892  28.991  27.622  1.00  0.00    -0.258 OA
ATOM    104  O   UNL A   1      33.130  30.895  26.811  1.00  0.00    -0.258 OA
ENDBRANCH  98 102
ENDBRANCH  92  95
ENDBRANCH  89  91
ENDBRANCH  87  89
ENDBRANCH  84  87
ENDBRANCH  77  80
ENDBRANCH  75  76
ENDBRANCH   1  75
TORSDOF 18
ENDMDL
MODEL 2
REMARK VINA RESULT:     -11.6      1.489      2.411
REMARK SMILES O=C(NCCCCCCNC(=O)c1ccc(Cl)c(NC(=S)NC(=O)c2cc([N+](=O)[O-])ccc2Cl)c1)c1ccc(-c2c3nc(c(-c4c(F)c(F)c(F)c(F)c4F)c4ccc([nH]4)c(-c4c(F)c(F)c(F)c(F)c4F)c4nc(c(-c5c(F)c(F)c(F)c(F)c5F)c5ccc2[nH]5)C=C4)C=C3)cc1
REMARK SMILES IDX 8 1 7 2 6 3 5 4 4 5 3 6 1 7 2 8 36 10 37 11 98 12 38 13
REMARK SMILES IDX 97 14 39 15 40 16 41 17 91 18 42 19 96 20 90 21 92 22 43 23
REMARK SMILES IDX 95 24 89 25 88 26 44 28 76 29 56 30 75 31 57 32 60 33 74 34
REMARK SMILES IDX 93 35 58 36 59 37 73 39 94 40 61 41 45 42 46 43 54 44 47 45
REMARK SMILES IDX 48 46 52 47 55 48 49 49 50 50 53 51 51 52 77 53 78 54 86 55
REMARK SMILES IDX 79 56 80 57 84 58 87 59 81 60 82 61 85 62 83 63 62 64 63 65
REMARK SMILES IDX 71 66 64 67 65 68 69 69 72 70 66 71 67 72 70 73 68 74 9 75
REMARK SMILES IDX 10 76 11 77 12 79 13 80 14 81 35 82 15 83 18 84 16 85 17 86
REMARK SMILES IDX 19 87 20 89 21 90 22 91 23 92 24 94 25 95 26 96 33 97 27 98
REMARK SMILES IDX 32 99 34 100 31 101 28 102 29 103 30 104
REMARK H PARENT 3 9 92 27 60 38 10 78 19 88 22 93
REMARK Flexibility Score: inf
ROOT
ATOM      1  C   UNL A   1      35.713  20.526  24.978  1.00  0.00     0.021 C 
ENDROOT
BRANCH   1   2
ATOM      2  C   UNL A   1      34.839  21.112  26.094  1.00  0.00     0.002 C 
BRANCH   2   3
ATOM      3  C   UNL A   1      34.889  22.633  26.258  1.00  0.00     0.002 C 
BRANCH   3   4
ATOM      4  C   UNL A   1      35.562  23.409  25.121  1.00  0.00     0.021 C 
BRANCH   4   5
ATOM      5  C   UNL A   1      36.931  24.002  25.445  1.00  0.00     0.116 C 
BRANCH   5   6
ATOM      6  N   UNL A   1      37.970  22.999  25.578  1.00  0.00    -0.352 N 
ATOM      7  O   UNL A   1      39.996  22.180  26.126  1.00  0.00    -0.269 OA
ATOM      8  C   UNL A   1      39.194  23.106  26.189  1.00  0.00     0.251 C 
ATOM      9  H   UNL A   1      37.769  22.123  25.176  1.00  0.00     0.163 HD
BRANCH   8  10
ATOM     10  C   UNL A   1      39.570  24.350  26.897  1.00  0.00     0.039 A 
ATOM     11  C   UNL A   1      39.243  24.558  28.241  1.00  0.00     0.014 A 
ATOM     12  C   UNL A   1      40.316  25.305  26.200  1.00  0.00     0.014 A 
ATOM     13  C   UNL A   1      39.602  25.754  28.866  1.00  0.00     0.010 A 
ATOM     14  C   UNL A   1      40.696  26.490  26.832  1.00  0.00     0.010 A 
ATOM     15  C   UNL A   1      40.328  26.728  28.164  1.00  0.00    -0.014 A 
BRANCH  15  16
ATOM     16  C   UNL A   1      40.735  27.983  28.833  1.00  0.00     0.031 A 
ATOM     17  C   UNL A   1      42.138  28.159  29.332  1.00  0.00     0.074 A 
ATOM     18  C   UNL A   1      39.827  28.958  29.016  1.00  0.00     0.049 A 
ATOM     19  N   UNL A   1      42.662  29.170  29.980  1.00  0.00    -0.248 NA
ATOM     20  C   UNL A   1      43.075  27.058  29.072  1.00  0.00     0.031 C 
ATOM     21  C   UNL A   1      38.429  28.898  28.589  1.00  0.00     0.029 A 
ATOM     22  N   UNL A   1      39.944  30.184  29.619  1.00  0.00    -0.354 N 
ATOM     23  C   UNL A   1      43.982  28.819  30.222  1.00  0.00     0.074 A 
ATOM     24  C   UNL A   1      44.183  27.503  29.651  1.00  0.00     0.031 C 
ATOM     25  C   UNL A   1      37.816  30.039  28.942  1.00  0.00     0.029 A 
ATOM     26  C   UNL A   1      38.773  30.896  29.638  1.00  0.00     0.049 A 
ATOM     27  H   UNL A   1      40.787  30.520  30.000  1.00  0.00     0.167 HD
ATOM     28  C   UNL A   1      44.939  29.533  30.859  1.00  0.00     0.037 A 
ATOM     29  C   UNL A   1      38.497  32.100  30.173  1.00  0.00     0.037 A 
ATOM     30  C   UNL A   1      44.755  30.850  31.407  1.00  0.00     0.049 A 
ATOM     31  C   UNL A   1      39.571  32.863  30.888  1.00  0.00     0.074 A 
ATOM     32  C   UNL A   1      45.690  31.677  32.004  1.00  0.00     0.029 A 
ATOM     33  N   UNL A   1      43.548  31.529  31.428  1.00  0.00    -0.354 N 
ATOM     34  N   UNL A   1      40.825  32.535  31.078  1.00  0.00    -0.248 NA
ATOM     35  C   UNL A   1      39.188  34.156  31.470  1.00  0.00     0.031 C 
ATOM     36  C   UNL A   1      45.042  32.853  32.404  1.00  0.00     0.029 A 
ATOM     37  C   UNL A   1      43.708  32.757  32.047  1.00  0.00     0.049 A 
ATOM     38  H   UNL A   1      42.701  31.189  31.058  1.00  0.00     0.167 HD
ATOM     39  C   UNL A   1      41.381  33.576  31.807  1.00  0.00     0.074 A 
ATOM     40  C   UNL A   1      40.330  34.552  32.016  1.00  0.00     0.031 C 
ATOM     41  C   UNL A   1      42.650  33.707  32.261  1.00  0.00     0.037 A 
BRANCH  28  42
ATOM     42  C   UNL A   1      46.282  28.895  31.005  1.00  0.00     0.064 A 
ATOM     43  C   UNL A   1      47.271  29.057  30.026  1.00  0.00     0.173 A 
ATOM     44  C   UNL A   1      46.592  28.143  32.146  1.00  0.00     0.173 A 
ATOM     45  F   UNL A   1      47.010  29.757  28.912  1.00  0.00    -0.203 F 
ATOM     46  C   UNL A   1      48.529  28.481  30.183  1.00  0.00     0.198 A 
ATOM     47  C   UNL A   1      47.852  27.575  32.303  1.00  0.00     0.198 A 
ATOM     48  F   UNL A   1      45.671  27.958  33.104  1.00  0.00    -0.203 F 
ATOM     49  F   UNL A   1      49.457  28.633  29.229  1.00  0.00    -0.200 F 
ATOM     50  C   UNL A   1      48.819  27.744  31.322  1.00  0.00     0.200 A 
ATOM     51  F   UNL A   1      48.131  26.856  33.400  1.00  0.00    -0.200 F 
ATOM     52  F   UNL A   1      50.030  27.187  31.469  1.00  0.00    -0.200 F 
ENDBRANCH  28  42
BRANCH  29  53
ATOM     53  C   UNL A   1      37.125  32.641  30.063  1.00  0.00     0.064 A 
ATOM     54  C   UNL A   1      36.745  33.411  28.957  1.00  0.00     0.173 A 
ATOM     55  C   UNL A   1      36.162  32.368  31.043  1.00  0.00     0.173 A 
ATOM     56  F   UNL A   1      37.644  33.705  28.006  1.00  0.00    -0.203 F 
ATOM     57  C   UNL A   1      35.444  33.889  28.834  1.00  0.00     0.198 A 
ATOM     58  C   UNL A   1      34.859  32.839  30.914  1.00  0.00     0.198 A 
ATOM     59  F   UNL A   1      36.489  31.636  32.118  1.00  0.00    -0.203 F 
ATOM     60  F   UNL A   1      35.103  34.632  27.771  1.00  0.00    -0.200 F 
ATOM     61  C   UNL A   1      34.501  33.600  29.810  1.00  0.00     0.200 A 
ATOM     62  F   UNL A   1      33.950  32.558  31.857  1.00  0.00    -0.200 F 
ATOM     63  F   UNL A   1      33.247  34.057  29.688  1.00  0.00    -0.200 F 
ENDBRANCH  29  53
BRANCH  41  64
ATOM     64  C   UNL A   1      42.966  34.942  33.040  1.00  0.00     0.064 A 
ATOM     65  C   UNL A   1      43.380  36.114  32.390  1.00  0.00     0.173 A 
ATOM     66  C   UNL A   1      42.826  34.967  34.433  1.00  0.00     0.173 A 
ATOM     67  F   UNL A   1      43.539  36.126  31.059  1.00  0.00    -0.203 F 
ATOM     68  C   UNL A   1      43.647  37.271  33.115  1.00  0.00     0.198 A 
ATOM     69  C   UNL A   1      43.088  36.129  35.153  1.00  0.00     0.198 A 
ATOM     70  F   UNL A   1      42.437  33.865  35.092  1.00  0.00    -0.203 F 
ATOM     71  F   UNL A   1      44.058  38.378  32.480  1.00  0.00    -0.200 F 
ATOM     72  C   UNL A   1      43.499  37.278  34.494  1.00  0.00     0.200 A 
ATOM     73  F   UNL A   1      42.950  36.135  36.487  1.00  0.00    -0.200 F 
ATOM     74  F   UNL A   1      43.761  38.394  35.191  1.00  0.00    -0.200 F 
ENDBRANCH  41  64
ENDBRANCH  15  16
ENDBRANCH   8  10
ENDBRANCH   5   6
ENDBRANCH   4   5
ENDBRANCH   3   4
ENDBRANCH   2   3
ENDBRANCH   1   2
BRANCH   1  75
ATOM     75  C   UNL A   1      35.508  19.041  24.682  1.00  0.00     0.116 C 
BRANCH  75  76
ATOM     76  N   UNL A   1      34.332  18.502  25.330  1.00  0.00    -0.352 N 
ATOM     77  C   UNL A   1      32.993  18.547  25.022  1.00  0.00     0.251 C 
ATOM     78  H   UNL A   1      34.530  18.005  26.157  1.00  0.00     0.163 HD
ATOM     79  O   UNL A   1      32.256  17.754  25.605  1.00  0.00    -0.269 OA
BRANCH  77  80
ATOM     80  C   UNL A   1      32.390  19.541  23.709  1.00  0.00     0.041 A 
ATOM     81  C   UNL A   1      31.895  18.555  23.074  1.00  0.00     0.015 A 
ATOM     82  C   UNL A   1      32.332  21.570  23.541  1.00  0.00     0.041 A 
ATOM     83  C   UNL A   1      32.423  19.613  22.567  1.00  0.00     0.023 A 
ATOM     84  C   UNL A   1      31.697  22.588  23.077  1.00  0.00     0.060 A 
ATOM     85  C   UNL A   1      32.370  21.661  22.501  1.00  0.00     0.064 A 
ATOM     86  Cl  UNL A   1      33.414  22.937  21.176  1.00  0.00    -0.082 Cl
BRANCH  84  87
ATOM     87  N   UNL A   1      31.843  23.835  23.666  1.00  0.00    -0.331 N 
ATOM     88  H   UNL A   1      32.331  23.882  24.519  1.00  0.00     0.169 HD
BRANCH  87  89
ATOM     89  C   UNL A   1      31.355  25.013  23.147  1.00  0.00     0.177 C 
ATOM     90  S   UNL A   1      32.280  25.812  22.004  1.00  0.00    -0.040 S 
BRANCH  89  91
ATOM     91  N   UNL A   1      30.134  25.602  23.531  1.00  0.00    -0.299 N 
ATOM     92  C   UNL A   1      29.428  26.839  23.709  1.00  0.00     0.259 C 
ATOM     93  H   UNL A   1      29.519  24.872  23.776  1.00  0.00     0.172 HD
ATOM     94  O   UNL A   1      28.220  26.835  23.910  1.00  0.00    -0.269 OA
BRANCH  92  95
ATOM     95  C   UNL A   1      30.162  28.137  23.595  1.00  0.00     0.065 A 
ATOM     96  C   UNL A   1      29.055  29.667  23.003  1.00  0.00     0.101 A 
ATOM     97  C   UNL A   1      31.486  28.647  25.010  1.00  0.00     0.054 A 
ATOM     98  C   UNL A   1      29.145  31.463  23.791  1.00  0.00     0.270 A 
ATOM     99  C   UNL A   1      31.567  30.449  25.793  1.00  0.00     0.028 A 
ATOM    100  Cl  UNL A   1      32.348  27.391  25.852  1.00  0.00    -0.083 Cl
ATOM    101  C   UNL A   1      30.386  31.974  25.242  1.00  0.00     0.087 A 
BRANCH  98 102
ATOM    102  N   UNL A   1      28.212  32.463  23.318  1.00  0.00     0.062 N 
ATOM    103  O   UNL A   1      28.694  33.497  22.847  1.00  0.00    -0.258 OA
ATOM    104  O   UNL A   1      27.010  32.195  23.422  1.00  0.00    -0.258 OA
ENDBRANCH  98 102
ENDBRANCH  92  95
ENDBRANCH  89  91
ENDBRANCH  87  89
ENDBRANCH  84  87
ENDBRANCH  77  80
ENDBRANCH  75  76
ENDBRANCH   1  75
TORSDOF 18
ENDMDL
MODEL 3
REMARK VINA RESULT:     -11.5      1.129      2.273
REMARK SMILES O=C(NCCCCCCNC(=O)c1ccc(Cl)c(NC(=S)NC(=O)c2cc([N+](=O)[O-])ccc2Cl)c1)c1ccc(-c2c3nc(c(-c4c(F)c(F)c(F)c(F)c4F)c4ccc([nH]4)c(-c4c(F)c(F)c(F)c(F)c4F)c4nc(c(-c5c(F)c(F)c(F)c(F)c5F)c5ccc2[nH]5)C=C4)C=C3)cc1
REMARK SMILES IDX 8 1 7 2 6 3 5 4 4 5 3 6 1 7 2 8 36 10 37 11 98 12 38 13
REMARK SMILES IDX 97 14 39 15 40 16 41 17 91 18 42 19 96 20 90 21 92 22 43 23
REMARK SMILES IDX 95 24 89 25 88 26 44 28 76 29 56 30 75 31 57 32 60 33 74 34
REMARK SMILES IDX 93 35 58 36 59 37 73 39 94 40 61 41 45 42 46 43 54 44 47 45
REMARK SMILES IDX 48 46 52 47 55 48 49 49 50 50 53 51 51 52 77 53 78 54 86 55
REMARK SMILES IDX 79 56 80 57 84 58 87 59 81 60 82 61 85 62 83 63 62 64 63 65
REMARK SMILES IDX 71 66 64 67 65 68 69 69 72 70 66 71 67 72 70 73 68 74 9 75
REMARK SMILES IDX 10 76 11 77 12 79 13 80 14 81 35 82 15 83 18 84 16 85 17 86
REMARK SMILES IDX 19 87 20 89 21 90 22 91 23 92 24 94 25 95 26 96 33 97 27 98
REMARK SMILES IDX 32 99 34 100 31 101 28 102 29 103 30 104
REMARK H PARENT 3 9 92 27 60 38 10 78 19 88 22 93
REMARK Flexibility Score: inf
ROOT
ATOM      1  C   UNL A   1      35.796  20.270  24.997  1.00  0.00     0.021 C 
ENDROOT
BRANCH   1   2
ATOM      2  C   UNL A   1      34.844  20.914  26.012  1.00  0.00     0.002 C 
BRANCH   2   3
ATOM      3  C   UNL A   1      35.083  22.395  26.313  1.00  0.00     0.002 C 
BRANCH   3   4
ATOM      4  C   UNL A   1      35.692  23.221  25.175  1.00  0.00     0.021 C 
BRANCH   4   5
ATOM      5  C   UNL A   1      37.119  23.711  25.403  1.00  0.00     0.116 C 
BRANCH   5   6
ATOM      6  N   UNL A   1      38.020  22.662  25.839  1.00  0.00    -0.352 N 
ATOM      7  O   UNL A   1      39.902  21.781  26.710  1.00  0.00    -0.269 OA
ATOM      8  C   UNL A   1      39.217  22.776  26.500  1.00  0.00     0.251 C 
ATOM      9  H   UNL A   1      37.733  21.743  25.633  1.00  0.00     0.163 HD
BRANCH   8  10
ATOM     10  C   UNL A   1      39.709  24.104  26.931  1.00  0.00     0.039 A 
ATOM     11  C   UNL A   1      40.070  25.090  26.006  1.00  0.00     0.014 A 
ATOM     12  C   UNL A   1      39.754  24.378  28.301  1.00  0.00     0.014 A 
ATOM     13  C   UNL A   1      40.544  26.324  26.454  1.00  0.00     0.010 A 
ATOM     14  C   UNL A   1      40.206  25.620  28.749  1.00  0.00     0.010 A 
ATOM     15  C   UNL A   1      40.618  26.595  27.829  1.00  0.00    -0.014 A 
BRANCH  15  16
ATOM     16  C   UNL A   1      41.092  27.912  28.307  1.00  0.00     0.031 A 
ATOM     17  C   UNL A   1      42.560  28.192  28.436  1.00  0.00     0.074 A 
ATOM     18  C   UNL A   1      40.194  28.850  28.653  1.00  0.00     0.049 A 
ATOM     19  N   UNL A   1      43.158  29.270  28.879  1.00  0.00    -0.248 NA
ATOM     20  C   UNL A   1      43.476  27.123  28.015  1.00  0.00     0.031 C 
ATOM     21  C   UNL A   1      38.741  28.692  28.587  1.00  0.00     0.029 A 
ATOM     22  N   UNL A   1      40.373  30.120  29.140  1.00  0.00    -0.354 N 
ATOM     23  C   UNL A   1      44.517  29.002  28.808  1.00  0.00     0.074 A 
ATOM     24  C   UNL A   1      44.659  27.662  28.279  1.00  0.00     0.031 C 
ATOM     25  C   UNL A   1      38.158  29.823  29.016  1.00  0.00     0.029 A 
ATOM     26  C   UNL A   1      39.198  30.773  29.407  1.00  0.00     0.049 A 
ATOM     27  H   UNL A   1      41.260  30.523  29.284  1.00  0.00     0.167 HD
ATOM     28  C   UNL A   1      45.551  29.806  29.151  1.00  0.00     0.037 A 
ATOM     29  C   UNL A   1      38.981  31.995  29.926  1.00  0.00     0.037 A 
ATOM     30  C   UNL A   1      45.420  31.146  29.654  1.00  0.00     0.049 A 
ATOM     31  C   UNL A   1      40.144  32.859  30.312  1.00  0.00     0.074 A 
ATOM     32  C   UNL A   1      46.416  32.059  29.956  1.00  0.00     0.029 A 
ATOM     33  N   UNL A   1      44.212  31.764  29.932  1.00  0.00    -0.354 N 
ATOM     34  N   UNL A   1      41.426  32.608  30.207  1.00  0.00    -0.248 NA
ATOM     35  C   UNL A   1      39.830  34.169  30.899  1.00  0.00     0.031 C 
ATOM     36  C   UNL A   1      45.808  33.226  30.438  1.00  0.00     0.029 A 
ATOM     37  C   UNL A   1      44.437  33.039  30.425  1.00  0.00     0.049 A 
ATOM     38  H   UNL A   1      43.325  31.358  29.801  1.00  0.00     0.167 HD
ATOM     39  C   UNL A   1      42.073  33.723  30.718  1.00  0.00     0.074 A 
ATOM     40  C   UNL A   1      41.042  34.658  31.125  1.00  0.00     0.031 C 
ATOM     41  C   UNL A   1      43.402  33.948  30.839  1.00  0.00     0.037 A 
BRANCH  28  42
ATOM     42  C   UNL A   1      46.929  29.247  28.997  1.00  0.00     0.064 A 
ATOM     43  C   UNL A   1      47.700  29.523  27.861  1.00  0.00     0.173 A 
ATOM     44  C   UNL A   1      47.491  28.456  30.008  1.00  0.00     0.173 A 
ATOM     45  F   UNL A   1      47.193  30.265  26.865  1.00  0.00    -0.203 F 
ATOM     46  C   UNL A   1      48.993  29.021  27.739  1.00  0.00     0.198 A 
ATOM     47  C   UNL A   1      48.786  27.960  29.886  1.00  0.00     0.198 A 
ATOM     48  F   UNL A   1      46.783  28.161  31.108  1.00  0.00    -0.203 F 
ATOM     49  F   UNL A   1      49.710  29.282  26.638  1.00  0.00    -0.200 F 
ATOM     50  C   UNL A   1      49.534  28.243  28.752  1.00  0.00     0.200 A 
ATOM     51  F   UNL A   1      49.308  27.202  30.861  1.00  0.00    -0.200 F 
ATOM     52  F   UNL A   1      50.778  27.756  28.631  1.00  0.00    -0.200 F 
ENDBRANCH  28  42
BRANCH  29  53
ATOM     53  C   UNL A   1      37.591  32.459  30.127  1.00  0.00     0.064 A 
ATOM     54  C   UNL A   1      36.937  33.206  29.141  1.00  0.00     0.173 A 
ATOM     55  C   UNL A   1      36.884  32.132  31.290  1.00  0.00     0.173 A 
ATOM     56  F   UNL A   1      37.587  33.551  28.020  1.00  0.00    -0.203 F 
ATOM     57  C   UNL A   1      35.616  33.611  29.312  1.00  0.00     0.198 A 
ATOM     58  C   UNL A   1      35.560  32.529  31.457  1.00  0.00     0.198 A 
ATOM     59  F   UNL A   1      37.478  31.419  32.258  1.00  0.00    -0.203 F 
ATOM     60  F   UNL A   1      35.010  34.334  28.360  1.00  0.00    -0.200 F 
ATOM     61  C   UNL A   1      34.928  33.269  30.468  1.00  0.00     0.200 A 
ATOM     62  F   UNL A   1      34.897  32.197  32.572  1.00  0.00    -0.200 F 
ATOM     63  F   UNL A   1      33.654  33.655  30.629  1.00  0.00    -0.200 F 
ENDBRANCH  29  53
BRANCH  41  64
ATOM     64  C   UNL A   1      43.816  35.248  31.447  1.00  0.00     0.064 A 
ATOM     65  C   UNL A   1      43.976  35.373  32.834  1.00  0.00     0.173 A 
ATOM     66  C   UNL A   1      44.083  36.364  30.643  1.00  0.00     0.173 A 
ATOM     67  F   UNL A   1      43.717  34.332  33.639  1.00  0.00    -0.203 F 
ATOM     68  C   UNL A   1      44.388  36.577  33.397  1.00  0.00     0.198 A 
ATOM     69  C   UNL A   1      44.501  37.564  31.209  1.00  0.00     0.198 A 
ATOM     70  F   UNL A   1      43.936  36.287  29.312  1.00  0.00    -0.203 F 
ATOM     71  F   UNL A   1      44.521  36.684  34.726  1.00  0.00    -0.200 F 
ATOM     72  C   UNL A   1      44.652  37.670  32.584  1.00  0.00     0.200 A 
ATOM     73  F   UNL A   1      44.751  38.622  30.425  1.00  0.00    -0.200 F 
ATOM     74  F   UNL A   1      45.046  38.831  33.129  1.00  0.00    -0.200 F 
ENDBRANCH  41  64
ENDBRANCH  15  16
ENDBRANCH   8  10
ENDBRANCH   5   6
ENDBRANCH   4   5
ENDBRANCH   3   4
ENDBRANCH   2   3
ENDBRANCH   1   2
BRANCH   1  75
ATOM     75  C   UNL A   1      35.493  18.819  24.625  1.00  0.00     0.116 C 
BRANCH  75  76
ATOM     76  N   UNL A   1      34.276  18.331  25.237  1.00  0.00    -0.352 N 
ATOM     77  C   UNL A   1      32.945  18.520  24.949  1.00  0.00     0.251 C 
ATOM     78  H   UNL A   1      34.432  17.749  26.016  1.00  0.00     0.163 HD
ATOM     79  O   UNL A   1      32.143  17.748  25.469  1.00  0.00    -0.269 OA
BRANCH  77  80
ATOM     80  C   UNL A   1      32.429  19.675  23.732  1.00  0.00     0.041 A 
ATOM     81  C   UNL A   1      31.963  18.779  22.956  1.00  0.00     0.015 A 
ATOM     82  C   UNL A   1      32.398  21.710  23.807  1.00  0.00     0.041 A 
ATOM     83  C   UNL A   1      32.530  19.882  22.612  1.00  0.00     0.023 A 
ATOM     84  C   UNL A   1      31.800  22.785  23.434  1.00  0.00     0.060 A 
ATOM     85  C   UNL A   1      32.498  21.923  22.789  1.00  0.00     0.064 A 
ATOM     86  Cl  UNL A   1      33.628  23.333  21.690  1.00  0.00    -0.082 Cl
BRANCH  84  87
ATOM     87  N   UNL A   1      31.922  23.951  24.176  1.00  0.00    -0.331 N 
ATOM     88  H   UNL A   1      32.734  24.491  24.046  1.00  0.00     0.169 HD
BRANCH  87  89
ATOM     89  C   UNL A   1      30.992  24.407  25.083  1.00  0.00     0.177 C 
ATOM     90  S   UNL A   1      31.204  24.008  26.694  1.00  0.00    -0.040 S 
BRANCH  89  91
ATOM     91  N   UNL A   1      29.861  25.172  24.740  1.00  0.00    -0.299 N 
ATOM     92  C   UNL A   1      29.403  26.393  24.138  1.00  0.00     0.259 C 
ATOM     93  H   UNL A   1      29.065  24.667  25.027  1.00  0.00     0.172 HD
ATOM     94  O   UNL A   1      28.214  26.547  23.885  1.00  0.00    -0.269 OA
BRANCH  92  95
ATOM     95  C   UNL A   1      30.389  27.456  23.772  1.00  0.00     0.065 A 
ATOM     96  C   UNL A   1      31.114  28.478  25.304  1.00  0.00     0.101 A 
ATOM     97  C   UNL A   1      31.776  27.074  22.377  1.00  0.00     0.054 A 
ATOM     98  C   UNL A   1      33.005  28.965  25.509  1.00  0.00     0.270 A 
ATOM     99  C   UNL A   1      33.668  27.566  22.593  1.00  0.00     0.028 A 
ATOM    100  Cl  UNL A   1      31.402  25.952  21.099  1.00  0.00    -0.083 Cl
ATOM    101  C   UNL A   1      34.409  28.532  24.186  1.00  0.00     0.087 A 
BRANCH  98 102
ATOM    102  N   UNL A   1      33.408  29.637  26.725  1.00  0.00     0.062 N 
ATOM    103  O   UNL A   1      34.117  28.999  27.507  1.00  0.00    -0.258 OA
ATOM    104  O   UNL A   1      33.009  30.797  26.876  1.00  0.00    -0.258 OA
ENDBRANCH  98 102
ENDBRANCH  92  95
ENDBRANCH  89  91
ENDBRANCH  87  89
ENDBRANCH  84  87
ENDBRANCH  77  80
ENDBRANCH  75  76
ENDBRANCH   1  75
TORSDOF 18
ENDMDL
