MODEL 1
REMARK VINA RESULT:     -11.7      0.000      0.000
REMARK SMILES Cc1ncn(CC[C@@H]2CCC[C@@]2([NH3+])C(=O)NCCCCCCNC(=O)c2ccc(-c3c4nc(c(-c5c(F)c(F)c(F)c(F)c5F)c5ccc([nH]5)c(-c5c(F)c(F)c(F)c(F)c5F)c5nc(c(-c6c(F)c(F)c(F)c(F)c6F)c6ccc3[nH]6)C=C5)C=C4)cc2)c1C
REMARK SMILES IDX 19 1 18 2 17 3 16 4 14 5 15 6 12 8 8 9 9 10 10 11 11 12 7 13
REMARK SMILES IDX 6 14 5 15 1 16 2 17 3 18 89 19 4 20 90 21 13 22 20 26 21 27
REMARK SMILES IDX 22 28 23 29 24 30 25 32 26 33 27 34 88 35 28 36 87 37 29 38
REMARK SMILES IDX 30 39 31 40 81 41 32 42 86 43 80 44 82 45 33 46 85 47 79 48
REMARK SMILES IDX 78 49 34 51 66 52 46 53 65 54 47 55 50 56 64 57 83 58 48 59
REMARK SMILES IDX 49 60 63 62 84 63 51 64 35 65 36 66 44 67 37 68 38 69 42 70
REMARK SMILES IDX 45 71 39 72 40 73 43 74 41 75 67 76 68 77 76 78 69 79 70 80
REMARK SMILES IDX 74 81 77 82 71 83 72 84 75 85 73 86 52 87 53 88 61 89 54 90
REMARK SMILES IDX 55 91 59 92 62 93 56 94 57 95 60 96 58 97
REMARK H PARENT 16 7 13 23 13 24 13 25 23 31 82 50 50 61
REMARK Flexibility Score: inf
ROOT
ATOM      1  C   UNL A   1      39.404  21.808  25.963  1.00  0.00     0.002 C 
ENDROOT
BRANCH   1   2
ATOM      2  C   UNL A   1      38.911  23.155  26.498  1.00  0.00     0.021 C 
BRANCH   2   3
ATOM      3  C   UNL A   1      37.483  23.454  26.059  1.00  0.00     0.116 C 
BRANCH   3   4
ATOM      4  N   UNL A   1      37.422  23.463  24.616  1.00  0.00    -0.351 N 
ATOM      5  C   UNL A   1      36.351  23.263  23.796  1.00  0.00     0.281 C 
ATOM      6  O   UNL A   1      36.592  22.944  22.629  1.00  0.00    -0.268 OA
ATOM      7  H   UNL A   1      38.276  23.641  24.159  1.00  0.00     0.163 HD
BRANCH   5   8
ATOM      8  C   UNL A   1      34.912  23.589  24.301  1.00  0.00     0.176 C 
ATOM      9  C   UNL A   1      34.335  22.398  25.126  1.00  0.00     0.062 C 
ATOM     10  C   UNL A   1      33.328  22.984  26.124  1.00  0.00     0.011 C 
ATOM     11  C   UNL A   1      33.529  24.491  26.105  1.00  0.00     0.008 C 
ATOM     12  C   UNL A   1      34.806  24.743  25.314  1.00  0.00     0.079 C 
BRANCH   9  13
ATOM     13  C   UNL A   1      33.894  21.097  24.407  1.00  0.00     0.032 C 
BRANCH  13  14
ATOM     14  C   UNL A   1      34.583  19.742  24.684  1.00  0.00     0.124 C 
BRANCH  14  15
ATOM     15  N   UNL A   1      33.720  18.579  24.642  1.00  0.00    -0.335 N 
ATOM     16  C   UNL A   1      32.577  15.333  25.746  1.00  0.00     0.069 C 
ATOM     17  C   UNL A   1      32.846  16.641  25.105  1.00  0.00     0.058 A 
ATOM     18  N   UNL A   1      31.802  17.488  24.812  1.00  0.00    -0.242 NA
ATOM     19  C   UNL A   1      34.062  17.262  24.852  1.00  0.00     0.037 A 
ATOM     20  C   UNL A   1      32.361  18.630  24.489  1.00  0.00     0.199 A 
ATOM     21  C   UNL A   1      35.456  16.775  25.009  1.00  0.00     0.066 C 
ENDBRANCH  14  15
ENDBRANCH  13  14
ENDBRANCH   9  13
BRANCH   8  22
ATOM     22  N   UNL A   1      34.116  23.933  23.126  1.00  0.00    -0.345 N 
ATOM     23  H   UNL A   1      33.743  24.876  23.233  1.00  0.00     0.345 HD
ATOM     24  H   UNL A   1      33.345  23.271  23.033  1.00  0.00     0.345 HD
ATOM     25  H   UNL A   1      34.703  23.891  22.294  1.00  0.00     0.345 HD
ENDBRANCH   8  22
ENDBRANCH   5   8
ENDBRANCH   3   4
ENDBRANCH   2   3
ENDBRANCH   1   2
BRANCH   1  26
ATOM     26  C   UNL A   1      40.507  21.151  26.809  1.00  0.00     0.002 C 
BRANCH  26  27
ATOM     27  C   UNL A   1      41.227  19.961  26.156  1.00  0.00     0.021 C 
BRANCH  27  28
ATOM     28  C   UNL A   1      42.604  19.712  26.743  1.00  0.00     0.116 C 
BRANCH  28  29
ATOM     29  N   UNL A   1      43.631  19.672  25.701  1.00  0.00    -0.352 N 
ATOM     30  C   UNL A   1      44.137  20.706  24.940  1.00  0.00     0.251 C 
ATOM     31  H   UNL A   1      44.016  18.784  25.518  1.00  0.00     0.163 HD
ATOM     32  O   UNL A   1      44.712  20.500  23.886  1.00  0.00    -0.269 OA
BRANCH  30  33
ATOM     33  C   UNL A   1      43.978  22.076  25.449  1.00  0.00     0.039 A 
ATOM     34  C   UNL A   1      43.025  22.953  24.928  1.00  0.00     0.014 A 
ATOM     35  C   UNL A   1      44.804  22.453  26.502  1.00  0.00     0.014 A 
ATOM     36  C   UNL A   1      42.886  24.204  25.522  1.00  0.00     0.010 A 
ATOM     37  C   UNL A   1      44.508  23.571  27.221  1.00  0.00     0.010 A 
ATOM     38  C   UNL A   1      43.632  24.494  26.672  1.00  0.00    -0.014 A 
BRANCH  38  39
ATOM     39  C   UNL A   1      43.477  25.741  27.396  1.00  0.00     0.031 A 
ATOM     40  C   UNL A   1      44.421  26.806  26.980  1.00  0.00     0.074 A 
ATOM     41  C   UNL A   1      42.406  25.971  28.187  1.00  0.00     0.049 A 
ATOM     42  N   UNL A   1      45.368  27.326  27.684  1.00  0.00    -0.248 NA
ATOM     43  C   UNL A   1      44.420  27.234  25.571  1.00  0.00     0.031 C 
ATOM     44  C   UNL A   1      41.236  25.116  28.427  1.00  0.00     0.029 A 
ATOM     45  N   UNL A   1      42.087  27.103  28.865  1.00  0.00    -0.354 N 
ATOM     46  C   UNL A   1      45.952  28.299  26.879  1.00  0.00     0.074 A 
ATOM     47  C   UNL A   1      45.468  28.059  25.545  1.00  0.00     0.031 C 
ATOM     48  C   UNL A   1      40.245  25.846  28.984  1.00  0.00     0.029 A 
ATOM     49  C   UNL A   1      40.762  27.164  29.290  1.00  0.00     0.049 A 
ATOM     50  H   UNL A   1      42.737  27.820  29.043  1.00  0.00     0.167 HD
ATOM     51  C   UNL A   1      46.574  29.375  27.437  1.00  0.00     0.037 A 
ATOM     52  C   UNL A   1      40.146  28.265  29.791  1.00  0.00     0.037 A 
ATOM     53  C   UNL A   1      46.865  29.133  28.831  1.00  0.00     0.049 A 
ATOM     54  C   UNL A   1      41.225  29.176  30.273  1.00  0.00     0.074 A 
ATOM     55  C   UNL A   1      47.584  28.165  29.507  1.00  0.00     0.029 A 
ATOM     56  N   UNL A   1      46.040  29.700  29.774  1.00  0.00    -0.354 N 
ATOM     57  N   UNL A   1      42.013  28.883  31.275  1.00  0.00    -0.248 NA
ATOM     58  C   UNL A   1      41.763  30.135  29.316  1.00  0.00     0.031 C 
ATOM     59  C   UNL A   1      46.786  27.846  30.647  1.00  0.00     0.029 A 
ATOM     60  C   UNL A   1      45.686  28.704  30.651  1.00  0.00     0.049 A 
ATOM     61  H   UNL A   1      45.757  30.641  29.813  1.00  0.00     0.167 HD
ATOM     62  C   UNL A   1      43.279  29.271  30.858  1.00  0.00     0.074 A 
ATOM     63  C   UNL A   1      43.053  30.081  29.660  1.00  0.00     0.031 C 
ATOM     64  C   UNL A   1      44.407  28.654  31.321  1.00  0.00     0.037 A 
BRANCH  51  65
ATOM     65  C   UNL A   1      46.560  30.767  26.852  1.00  0.00     0.064 A 
ATOM     66  C   UNL A   1      47.758  31.510  26.849  1.00  0.00     0.173 A 
ATOM     67  C   UNL A   1      45.387  31.507  26.589  1.00  0.00     0.173 A 
ATOM     68  F   UNL A   1      48.934  30.912  27.092  1.00  0.00    -0.203 F 
ATOM     69  C   UNL A   1      47.765  32.898  26.697  1.00  0.00     0.198 A 
ATOM     70  C   UNL A   1      45.405  32.885  26.383  1.00  0.00     0.198 A 
ATOM     71  F   UNL A   1      44.167  30.961  26.631  1.00  0.00    -0.203 F 
ATOM     72  F   UNL A   1      48.912  33.576  26.841  1.00  0.00    -0.200 F 
ATOM     73  C   UNL A   1      46.587  33.585  26.474  1.00  0.00     0.200 A 
ATOM     74  F   UNL A   1      44.248  33.533  26.184  1.00  0.00    -0.200 F 
ATOM     75  F   UNL A   1      46.581  34.922  26.398  1.00  0.00    -0.200 F 
ENDBRANCH  51  65
BRANCH  52  76
ATOM     76  C   UNL A   1      38.757  28.713  29.519  1.00  0.00     0.064 A 
ATOM     77  C   UNL A   1      37.877  29.049  30.561  1.00  0.00     0.173 A 
ATOM     78  C   UNL A   1      38.341  29.068  28.218  1.00  0.00     0.173 A 
ATOM     79  F   UNL A   1      38.216  28.798  31.834  1.00  0.00    -0.203 F 
ATOM     80  C   UNL A   1      36.664  29.707  30.317  1.00  0.00     0.198 A 
ATOM     81  C   UNL A   1      37.129  29.718  27.975  1.00  0.00     0.198 A 
ATOM     82  F   UNL A   1      39.143  28.878  27.161  1.00  0.00    -0.203 F 
ATOM     83  F   UNL A   1      35.876  30.059  31.342  1.00  0.00    -0.200 F 
ATOM     84  C   UNL A   1      36.295  30.047  29.026  1.00  0.00     0.200 A 
ATOM     85  F   UNL A   1      36.807  30.077  26.724  1.00  0.00    -0.200 F 
ATOM     86  F   UNL A   1      35.162  30.726  28.797  1.00  0.00    -0.200 F 
ENDBRANCH  52  76
BRANCH  64  87
ATOM     87  C   UNL A   1      44.282  27.672  32.456  1.00  0.00     0.064 A 
ATOM     88  C   UNL A   1      44.129  26.285  32.289  1.00  0.00     0.173 A 
ATOM     89  C   UNL A   1      44.516  28.136  33.758  1.00  0.00     0.173 A 
ATOM     90  F   UNL A   1      44.007  25.746  31.071  1.00  0.00    -0.203 F 
ATOM     91  C   UNL A   1      44.171  25.411  33.376  1.00  0.00     0.198 A 
ATOM     92  C   UNL A   1      44.594  27.260  34.837  1.00  0.00     0.198 A 
ATOM     93  F   UNL A   1      44.729  29.443  33.976  1.00  0.00    -0.203 F 
ATOM     94  F   UNL A   1      44.019  24.092  33.185  1.00  0.00    -0.200 F 
ATOM     95  C   UNL A   1      44.413  25.900  34.648  1.00  0.00     0.200 A 
ATOM     96  F   UNL A   1      44.881  27.733  36.058  1.00  0.00    -0.200 F 
ATOM     97  F   UNL A   1      44.500  25.058  35.688  1.00  0.00    -0.200 F 
ENDBRANCH  64  87
ENDBRANCH  38  39
ENDBRANCH  30  33
ENDBRANCH  28  29
ENDBRANCH  27  28
ENDBRANCH  26  27
ENDBRANCH   1  26
TORSDOF 17
ENDMDL
MODEL 2
REMARK VINA RESULT:     -11.6      2.598      4.429
REMARK SMILES Cc1ncn(CC[C@@H]2CCC[C@@]2([NH3+])C(=O)NCCCCCCNC(=O)c2ccc(-c3c4nc(c(-c5c(F)c(F)c(F)c(F)c5F)c5ccc([nH]5)c(-c5c(F)c(F)c(F)c(F)c5F)c5nc(c(-c6c(F)c(F)c(F)c(F)c6F)c6ccc3[nH]6)C=C5)C=C4)cc2)c1C
REMARK SMILES IDX 19 1 18 2 17 3 16 4 14 5 15 6 12 8 8 9 9 10 10 11 11 12 7 13
REMARK SMILES IDX 6 14 5 15 1 16 2 17 3 18 89 19 4 20 90 21 13 22 20 26 21 27
REMARK SMILES IDX 22 28 23 29 24 30 25 32 26 33 27 34 88 35 28 36 87 37 29 38
REMARK SMILES IDX 30 39 31 40 81 41 32 42 86 43 80 44 82 45 33 46 85 47 79 48
REMARK SMILES IDX 78 49 34 51 66 52 46 53 65 54 47 55 50 56 64 57 83 58 48 59
REMARK SMILES IDX 49 60 63 62 84 63 51 64 35 65 36 66 44 67 37 68 38 69 42 70
REMARK SMILES IDX 45 71 39 72 40 73 43 74 41 75 67 76 68 77 76 78 69 79 70 80
REMARK SMILES IDX 74 81 77 82 71 83 72 84 75 85 73 86 52 87 53 88 61 89 54 90
REMARK SMILES IDX 55 91 59 92 62 93 56 94 57 95 60 96 58 97
REMARK H PARENT 16 7 13 23 13 24 13 25 23 31 82 50 50 61
REMARK Flexibility Score: inf
ROOT
ATOM      1  C   UNL A   1      36.773  23.686  24.674  1.00  0.00     0.002 C 
ENDROOT
BRANCH   1   2
ATOM      2  C   UNL A   1      35.781  24.247  25.696  1.00  0.00     0.021 C 
BRANCH   2   3
ATOM      3  C   UNL A   1      34.459  24.641  25.050  1.00  0.00     0.116 C 
BRANCH   3   4
ATOM      4  N   UNL A   1      33.454  24.784  26.077  1.00  0.00    -0.351 N 
ATOM      5  C   UNL A   1      32.329  24.043  26.293  1.00  0.00     0.281 C 
ATOM      6  O   UNL A   1      31.440  24.560  26.972  1.00  0.00    -0.268 OA
ATOM      7  H   UNL A   1      33.601  25.521  26.712  1.00  0.00     0.163 HD
BRANCH   5   8
ATOM      8  C   UNL A   1      32.277  22.555  25.826  1.00  0.00     0.176 C 
ATOM      9  C   UNL A   1      32.601  22.444  24.305  1.00  0.00     0.062 C 
ATOM     10  C   UNL A   1      33.205  21.054  24.071  1.00  0.00     0.011 C 
ATOM     11  C   UNL A   1      33.515  20.482  25.445  1.00  0.00     0.008 C 
ATOM     12  C   UNL A   1      33.341  21.626  26.435  1.00  0.00     0.079 C 
BRANCH   9  13
ATOM     13  C   UNL A   1      31.562  22.915  23.253  1.00  0.00     0.032 C 
BRANCH  13  14
ATOM     14  C   UNL A   1      30.981  24.346  23.270  1.00  0.00     0.124 C 
BRANCH  14  15
ATOM     15  N   UNL A   1      31.819  25.371  22.680  1.00  0.00    -0.335 N 
ATOM     16  C   UNL A   1      33.972  28.272  22.785  1.00  0.00     0.069 C 
ATOM     17  C   UNL A   1      33.125  27.098  22.469  1.00  0.00     0.058 A 
ATOM     18  N   UNL A   1      33.574  26.149  21.580  1.00  0.00    -0.242 NA
ATOM     19  C   UNL A   1      31.934  26.691  23.056  1.00  0.00     0.037 A 
ATOM     20  C   UNL A   1      32.739  25.143  21.694  1.00  0.00     0.199 A 
ATOM     21  C   UNL A   1      31.071  27.351  24.067  1.00  0.00     0.066 C 
ENDBRANCH  14  15
ENDBRANCH  13  14
ENDBRANCH   9  13
BRANCH   8  22
ATOM     22  N   UNL A   1      30.957  22.042  26.186  1.00  0.00    -0.345 N 
ATOM     23  H   UNL A   1      31.006  21.593  27.101  1.00  0.00     0.345 HD
ATOM     24  H   UNL A   1      30.656  21.361  25.489  1.00  0.00     0.345 HD
ATOM     25  H   UNL A   1      30.291  22.813  26.221  1.00  0.00     0.345 HD
ENDBRANCH   8  22
ENDBRANCH   5   8
ENDBRANCH   3   4
ENDBRANCH   2   3
ENDBRANCH   1   2
BRANCH   1  26
ATOM     26  C   UNL A   1      36.745  22.157  24.531  1.00  0.00     0.002 C 
BRANCH  26  27
ATOM     27  C   UNL A   1      37.738  21.386  25.416  1.00  0.00     0.021 C 
BRANCH  27  28
ATOM     28  C   UNL A   1      38.722  22.296  26.127  1.00  0.00     0.116 C 
BRANCH  28  29
ATOM     29  N   UNL A   1      40.104  21.863  25.912  1.00  0.00    -0.352 N 
ATOM     30  C   UNL A   1      41.270  22.593  26.026  1.00  0.00     0.251 C 
ATOM     31  H   UNL A   1      40.218  20.920  25.651  1.00  0.00     0.163 HD
ATOM     32  O   UNL A   1      42.302  22.233  25.489  1.00  0.00    -0.269 OA
BRANCH  30  33
ATOM     33  C   UNL A   1      41.239  23.817  26.838  1.00  0.00     0.039 A 
ATOM     34  C   UNL A   1      41.905  23.912  28.061  1.00  0.00     0.014 A 
ATOM     35  C   UNL A   1      40.537  24.898  26.317  1.00  0.00     0.014 A 
ATOM     36  C   UNL A   1      41.892  25.133  28.727  1.00  0.00     0.010 A 
ATOM     37  C   UNL A   1      40.721  26.138  26.847  1.00  0.00     0.010 A 
ATOM     38  C   UNL A   1      41.299  26.239  28.102  1.00  0.00    -0.014 A 
BRANCH  38  39
ATOM     39  C   UNL A   1      41.323  27.562  28.694  1.00  0.00     0.031 A 
ATOM     40  C   UNL A   1      42.368  28.456  28.140  1.00  0.00     0.074 A 
ATOM     41  C   UNL A   1      40.322  28.000  29.488  1.00  0.00     0.049 A 
ATOM     42  N   UNL A   1      43.399  28.926  28.756  1.00  0.00    -0.248 NA
ATOM     43  C   UNL A   1      42.358  28.736  26.694  1.00  0.00     0.031 C 
ATOM     44  C   UNL A   1      39.070  27.323  29.852  1.00  0.00     0.029 A 
ATOM     45  N   UNL A   1      40.167  29.225  30.053  1.00  0.00    -0.354 N 
ATOM     46  C   UNL A   1      44.059  29.733  27.836  1.00  0.00     0.074 A 
ATOM     47  C   UNL A   1      43.494  29.421  26.550  1.00  0.00     0.031 C 
ATOM     48  C   UNL A   1      38.197  28.221  30.358  1.00  0.00     0.029 A 
ATOM     49  C   UNL A   1      38.879  29.491  30.508  1.00  0.00     0.049 A 
ATOM     50  H   UNL A   1      40.905  29.872  30.134  1.00  0.00     0.167 HD
ATOM     51  C   UNL A   1      44.827  30.776  28.259  1.00  0.00     0.037 A 
ATOM     52  C   UNL A   1      38.419  30.703  30.908  1.00  0.00     0.037 A 
ATOM     53  C   UNL A   1      45.146  30.643  29.661  1.00  0.00     0.049 A 
ATOM     54  C   UNL A   1      39.618  31.519  31.259  1.00  0.00     0.074 A 
ATOM     55  C   UNL A   1      45.774  29.668  30.414  1.00  0.00     0.029 A 
ATOM     56  N   UNL A   1      44.435  31.399  30.563  1.00  0.00    -0.354 N 
ATOM     57  N   UNL A   1      40.407  31.236  32.262  1.00  0.00    -0.248 NA
ATOM     58  C   UNL A   1      40.223  32.304  30.190  1.00  0.00     0.031 C 
ATOM     59  C   UNL A   1      44.993  29.566  31.604  1.00  0.00     0.029 A 
ATOM     60  C   UNL A   1      44.004  30.548  31.551  1.00  0.00     0.049 A 
ATOM     61  H   UNL A   1      44.267  32.367  30.511  1.00  0.00     0.167 HD
ATOM     62  C   UNL A   1      41.691  31.422  31.769  1.00  0.00     0.074 A 
ATOM     63  C   UNL A   1      41.512  32.128  30.499  1.00  0.00     0.031 C 
ATOM     64  C   UNL A   1      42.757  30.722  32.260  1.00  0.00     0.037 A 
BRANCH  51  65
ATOM     65  C   UNL A   1      44.953  32.093  27.531  1.00  0.00     0.064 A 
ATOM     66  C   UNL A   1      46.132  32.352  26.803  1.00  0.00     0.173 A 
ATOM     67  C   UNL A   1      44.127  33.214  27.765  1.00  0.00     0.173 A 
ATOM     68  F   UNL A   1      46.995  31.363  26.525  1.00  0.00    -0.203 F 
ATOM     69  C   UNL A   1      46.502  33.647  26.432  1.00  0.00     0.198 A 
ATOM     70  C   UNL A   1      44.473  34.496  27.346  1.00  0.00     0.198 A 
ATOM     71  F   UNL A   1      43.014  33.145  28.504  1.00  0.00    -0.203 F 
ATOM     72  F   UNL A   1      47.698  33.861  25.867  1.00  0.00    -0.200 F 
ATOM     73  C   UNL A   1      45.676  34.719  26.713  1.00  0.00     0.200 A 
ATOM     74  F   UNL A   1      43.665  35.524  27.643  1.00  0.00    -0.200 F 
ATOM     75  F   UNL A   1      46.059  35.969  26.423  1.00  0.00    -0.200 F 
ENDBRANCH  51  65
BRANCH  52  76
ATOM     76  C   UNL A   1      37.082  31.287  30.632  1.00  0.00     0.064 A 
ATOM     77  C   UNL A   1      36.199  31.623  31.671  1.00  0.00     0.173 A 
ATOM     78  C   UNL A   1      36.741  31.768  29.350  1.00  0.00     0.173 A 
ATOM     79  F   UNL A   1      36.473  31.255  32.931  1.00  0.00    -0.203 F 
ATOM     80  C   UNL A   1      35.055  32.398  31.444  1.00  0.00     0.198 A 
ATOM     81  C   UNL A   1      35.597  32.536  29.123  1.00  0.00     0.198 A 
ATOM     82  F   UNL A   1      37.559  31.585  28.304  1.00  0.00    -0.203 F 
ATOM     83  F   UNL A   1      34.265  32.744  32.470  1.00  0.00    -0.200 F 
ATOM     84  C   UNL A   1      34.759  32.860  30.172  1.00  0.00     0.200 A 
ATOM     85  F   UNL A   1      35.348  33.009  27.893  1.00  0.00    -0.200 F 
ATOM     86  F   UNL A   1      33.695  33.649  29.962  1.00  0.00    -0.200 F 
ENDBRANCH  52  76
BRANCH  64  87
ATOM     87  C   UNL A   1      42.565  29.883  33.496  1.00  0.00     0.064 A 
ATOM     88  C   UNL A   1      42.632  30.383  34.809  1.00  0.00     0.173 A 
ATOM     89  C   UNL A   1      42.113  28.566  33.337  1.00  0.00     0.173 A 
ATOM     90  F   UNL A   1      42.953  31.659  35.046  1.00  0.00    -0.203 F 
ATOM     91  C   UNL A   1      42.297  29.591  35.907  1.00  0.00     0.198 A 
ATOM     92  C   UNL A   1      41.744  27.789  34.431  1.00  0.00     0.198 A 
ATOM     93  F   UNL A   1      41.970  28.050  32.106  1.00  0.00    -0.203 F 
ATOM     94  F   UNL A   1      42.373  30.095  37.148  1.00  0.00    -0.200 F 
ATOM     95  C   UNL A   1      41.844  28.297  35.715  1.00  0.00     0.200 A 
ATOM     96  F   UNL A   1      41.255  26.556  34.236  1.00  0.00    -0.200 F 
ATOM     97  F   UNL A   1      41.477  27.549  36.766  1.00  0.00    -0.200 F 
ENDBRANCH  64  87
ENDBRANCH  38  39
ENDBRANCH  30  33
ENDBRANCH  28  29
ENDBRANCH  27  28
ENDBRANCH  26  27
ENDBRANCH   1  26
TORSDOF 17
ENDMDL
MODEL 3
REMARK VINA RESULT:     -11.5      3.417      8.743
REMARK SMILES Cc1ncn(CC[C@@H]2CCC[C@@]2([NH3+])C(=O)NCCCCCCNC(=O)c2ccc(-c3c4nc(c(-c5c(F)c(F)c(F)c(F)c5F)c5ccc([nH]5)c(-c5c(F)c(F)c(F)c(F)c5F)c5nc(c(-c6c(F)c(F)c(F)c(F)c6F)c6ccc3[nH]6)C=C5)C=C4)cc2)c1C
REMARK SMILES IDX 19 1 18 2 17 3 16 4 14 5 15 6 12 8 8 9 9 10 10 11 11 12 7 13
REMARK SMILES IDX 6 14 5 15 1 16 2 17 3 18 89 19 4 20 90 21 13 22 20 26 21 27
REMARK SMILES IDX 22 28 23 29 24 30 25 32 26 33 27 34 88 35 28 36 87 37 29 38
REMARK SMILES IDX 30 39 31 40 81 41 32 42 86 43 80 44 82 45 33 46 85 47 79 48
REMARK SMILES IDX 78 49 34 51 66 52 46 53 65 54 47 55 50 56 64 57 83 58 48 59
REMARK SMILES IDX 49 60 63 62 84 63 51 64 35 65 36 66 44 67 37 68 38 69 42 70
REMARK SMILES IDX 45 71 39 72 40 73 43 74 41 75 67 76 68 77 76 78 69 79 70 80
REMARK SMILES IDX 74 81 77 82 71 83 72 84 75 85 73 86 52 87 53 88 61 89 54 90
REMARK SMILES IDX 55 91 59 92 62 93 56 94 57 95 60 96 58 97
REMARK H PARENT 16 7 13 23 13 24 13 25 23 31 82 50 50 61
REMARK Flexibility Score: inf
ROOT
ATOM      1  C   UNL A   1      33.954  28.222  26.149  1.00  0.00     0.002 C 
ENDROOT
BRANCH   1   2
ATOM      2  C   UNL A   1      32.710  27.464  26.618  1.00  0.00     0.021 C 
BRANCH   2   3
ATOM      3  C   UNL A   1      32.700  26.024  26.122  1.00  0.00     0.116 C 
BRANCH   3   4
ATOM      4  N   UNL A   1      31.744  25.263  26.892  1.00  0.00    -0.351 N 
ATOM      5  C   UNL A   1      31.350  23.966  26.740  1.00  0.00     0.281 C 
ATOM      6  O   UNL A   1      30.275  23.645  27.251  1.00  0.00    -0.268 OA
ATOM      7  H   UNL A   1      31.316  25.751  27.633  1.00  0.00     0.163 HD
BRANCH   5   8
ATOM      8  C   UNL A   1      32.317  22.931  26.089  1.00  0.00     0.176 C 
ATOM      9  C   UNL A   1      32.723  23.384  24.653  1.00  0.00     0.062 C 
ATOM     10  C   UNL A   1      34.105  22.787  24.362  1.00  0.00     0.011 C 
ATOM     11  C   UNL A   1      34.634  22.261  25.687  1.00  0.00     0.008 C 
ATOM     12  C   UNL A   1      33.693  22.785  26.763  1.00  0.00     0.079 C 
BRANCH   9  13
ATOM     13  C   UNL A   1      31.695  23.302  23.494  1.00  0.00     0.032 C 
BRANCH  13  14
ATOM     14  C   UNL A   1      30.952  24.555  22.977  1.00  0.00     0.124 C 
BRANCH  14  15
ATOM     15  N   UNL A   1      31.794  25.615  22.461  1.00  0.00    -0.335 N 
ATOM     16  C   UNL A   1      33.620  28.725  22.695  1.00  0.00     0.069 C 
ATOM     17  C   UNL A   1      32.958  27.449  22.338  1.00  0.00     0.058 A 
ATOM     18  N   UNL A   1      33.652  26.490  21.637  1.00  0.00    -0.242 NA
ATOM     19  C   UNL A   1      31.717  26.964  22.728  1.00  0.00     0.037 A 
ATOM     20  C   UNL A   1      32.904  25.413  21.687  1.00  0.00     0.199 A 
ATOM     21  C   UNL A   1      30.619  27.602  23.497  1.00  0.00     0.066 C 
ENDBRANCH  14  15
ENDBRANCH  13  14
ENDBRANCH   9  13
BRANCH   8  22
ATOM     22  N   UNL A   1      31.645  21.635  26.130  1.00  0.00    -0.345 N 
ATOM     23  H   UNL A   1      31.268  21.478  27.064  1.00  0.00     0.345 HD
ATOM     24  H   UNL A   1      32.313  20.898  25.904  1.00  0.00     0.345 HD
ATOM     25  H   UNL A   1      30.884  21.625  25.450  1.00  0.00     0.345 HD
ENDBRANCH   8  22
ENDBRANCH   5   8
ENDBRANCH   3   4
ENDBRANCH   2   3
ENDBRANCH   1   2
BRANCH   1  26
ATOM     26  C   UNL A   1      34.596  29.118  27.220  1.00  0.00     0.002 C 
BRANCH  26  27
ATOM     27  C   UNL A   1      34.005  30.530  27.350  1.00  0.00     0.021 C 
BRANCH  27  28
ATOM     28  C   UNL A   1      35.058  31.586  27.636  1.00  0.00     0.116 C 
BRANCH  28  29
ATOM     29  N   UNL A   1      34.784  32.291  28.889  1.00  0.00    -0.352 N 
ATOM     30  C   UNL A   1      35.247  32.014  30.160  1.00  0.00     0.251 C 
ATOM     31  H   UNL A   1      34.188  33.071  28.815  1.00  0.00     0.163 HD
ATOM     32  O   UNL A   1      34.681  32.441  31.151  1.00  0.00    -0.269 OA
BRANCH  30  33
ATOM     33  C   UNL A   1      36.464  31.201  30.286  1.00  0.00     0.039 A 
ATOM     34  C   UNL A   1      36.417  29.809  30.385  1.00  0.00     0.014 A 
ATOM     35  C   UNL A   1      37.677  31.880  30.271  1.00  0.00     0.014 A 
ATOM     36  C   UNL A   1      37.619  29.109  30.420  1.00  0.00     0.010 A 
ATOM     37  C   UNL A   1      38.832  31.188  30.069  1.00  0.00     0.010 A 
ATOM     38  C   UNL A   1      38.819  29.815  30.255  1.00  0.00    -0.014 A 
BRANCH  38  39
ATOM     39  C   UNL A   1      40.104  29.145  30.192  1.00  0.00     0.031 A 
ATOM     40  C   UNL A   1      40.729  28.909  31.515  1.00  0.00     0.074 A 
ATOM     41  C   UNL A   1      40.548  28.574  29.052  1.00  0.00     0.049 A 
ATOM     42  N   UNL A   1      41.814  29.437  31.970  1.00  0.00    -0.248 NA
ATOM     43  C   UNL A   1      39.987  28.118  32.511  1.00  0.00     0.031 C 
ATOM     44  C   UNL A   1      39.872  28.461  27.752  1.00  0.00     0.029 A 
ATOM     45  N   UNL A   1      41.685  27.857  28.855  1.00  0.00    -0.354 N 
ATOM     46  C   UNL A   1      42.008  28.885  33.231  1.00  0.00     0.074 A 
ATOM     47  C   UNL A   1      40.768  28.248  33.586  1.00  0.00     0.031 C 
ATOM     48  C   UNL A   1      40.490  27.526  26.998  1.00  0.00     0.029 A 
ATOM     49  C   UNL A   1      41.692  27.100  27.686  1.00  0.00     0.049 A 
ATOM     50  H   UNL A   1      42.440  27.871  29.486  1.00  0.00     0.167 HD
ATOM     51  C   UNL A   1      43.262  28.779  33.753  1.00  0.00     0.037 A 
ATOM     52  C   UNL A   1      42.604  26.145  27.373  1.00  0.00     0.037 A 
ATOM     53  C   UNL A   1      44.187  29.631  33.043  1.00  0.00     0.049 A 
ATOM     54  C   UNL A   1      43.813  26.422  28.201  1.00  0.00     0.074 A 
ATOM     55  C   UNL A   1      44.237  30.989  32.785  1.00  0.00     0.029 A 
ATOM     56  N   UNL A   1      45.021  29.053  32.115  1.00  0.00    -0.354 N 
ATOM     57  N   UNL A   1      44.550  27.492  28.056  1.00  0.00    -0.248 NA
ATOM     58  C   UNL A   1      43.877  25.794  29.515  1.00  0.00     0.031 C 
ATOM     59  C   UNL A   1      44.650  31.086  31.422  1.00  0.00     0.029 A 
ATOM     60  C   UNL A   1      44.924  29.797  30.965  1.00  0.00     0.049 A 
ATOM     61  H   UNL A   1      45.583  28.256  32.251  1.00  0.00     0.167 HD
ATOM     62  C   UNL A   1      44.822  27.916  29.350  1.00  0.00     0.074 A 
ATOM     63  C   UNL A   1      44.421  26.799  30.207  1.00  0.00     0.031 C 
ATOM     64  C   UNL A   1      45.047  29.232  29.642  1.00  0.00     0.037 A 
BRANCH  51  65
ATOM     65  C   UNL A   1      43.732  27.636  34.621  1.00  0.00     0.064 A 
ATOM     66  C   UNL A   1      44.285  27.929  35.884  1.00  0.00     0.173 A 
ATOM     67  C   UNL A   1      43.950  26.322  34.155  1.00  0.00     0.173 A 
ATOM     68  F   UNL A   1      44.145  29.149  36.425  1.00  0.00    -0.203 F 
ATOM     69  C   UNL A   1      45.080  27.011  36.574  1.00  0.00     0.198 A 
ATOM     70  C   UNL A   1      44.697  25.390  34.872  1.00  0.00     0.198 A 
ATOM     71  F   UNL A   1      43.554  25.912  32.944  1.00  0.00    -0.203 F 
ATOM     72  F   UNL A   1      45.699  27.384  37.702  1.00  0.00    -0.200 F 
ATOM     73  C   UNL A   1      45.293  25.745  36.061  1.00  0.00     0.200 A 
ATOM     74  F   UNL A   1      44.905  24.173  34.348  1.00  0.00    -0.200 F 
ATOM     75  F   UNL A   1      46.111  24.887  36.684  1.00  0.00    -0.200 F 
ENDBRANCH  51  65
BRANCH  52  76
ATOM     76  C   UNL A   1      42.340  24.839  26.718  1.00  0.00     0.064 A 
ATOM     77  C   UNL A   1      43.104  24.398  25.625  1.00  0.00     0.173 A 
ATOM     78  C   UNL A   1      41.497  23.876  27.313  1.00  0.00     0.173 A 
ATOM     79  F   UNL A   1      43.973  25.231  25.034  1.00  0.00    -0.203 F 
ATOM     80  C   UNL A   1      43.036  23.077  25.164  1.00  0.00     0.198 A 
ATOM     81  C   UNL A   1      41.425  22.561  26.848  1.00  0.00     0.198 A 
ATOM     82  F   UNL A   1      40.793  24.163  28.416  1.00  0.00    -0.203 F 
ATOM     83  F   UNL A   1      43.822  22.680  24.153  1.00  0.00    -0.200 F 
ATOM     84  C   UNL A   1      42.203  22.158  25.780  1.00  0.00     0.200 A 
ATOM     85  F   UNL A   1      40.644  21.675  27.483  1.00  0.00    -0.200 F 
ATOM     86  F   UNL A   1      42.179  20.880  25.376  1.00  0.00    -0.200 F 
ENDBRANCH  52  76
BRANCH  64  87
ATOM     87  C   UNL A   1      45.204  30.209  28.507  1.00  0.00     0.064 A 
ATOM     88  C   UNL A   1      44.153  30.978  27.975  1.00  0.00     0.173 A 
ATOM     89  C   UNL A   1      46.501  30.513  28.071  1.00  0.00     0.173 A 
ATOM     90  F   UNL A   1      42.899  30.828  28.411  1.00  0.00    -0.203 F 
ATOM     91  C   UNL A   1      44.389  31.975  27.028  1.00  0.00     0.198 A 
ATOM     92  C   UNL A   1      46.738  31.532  27.153  1.00  0.00     0.198 A 
ATOM     93  F   UNL A   1      47.552  29.854  28.585  1.00  0.00    -0.203 F 
ATOM     94  F   UNL A   1      43.366  32.691  26.537  1.00  0.00    -0.200 F 
ATOM     95  C   UNL A   1      45.683  32.257  26.625  1.00  0.00     0.200 A 
ATOM     96  F   UNL A   1      47.997  31.836  26.808  1.00  0.00    -0.200 F 
ATOM     97  F   UNL A   1      45.915  33.246  25.751  1.00  0.00    -0.200 F 
ENDBRANCH  64  87
ENDBRANCH  38  39
ENDBRANCH  30  33
ENDBRANCH  28  29
ENDBRANCH  27  28
ENDBRANCH  26  27
ENDBRANCH   1  26
TORSDOF 17
ENDMDL
