MODEL 1
REMARK VINA RESULT:     -13.0      0.000      0.000
REMARK SMILES O=C(NCCCCCCNC(=O)[C@@H](Cc1ccccc1)N1C(=O)/C(=C/c2ccncc2)SC1=S)c1ccc(-c2c3nc(c(-c4c(F)c(F)c(F)c(F)c4F)c4ccc([nH]4)c(-c4c(F)c(F)c(F)c(F)c4F)c4nc(c(-c5c(F)c(F)c(F)c(F)c5F)c5ccc2[nH]5)C=C4)C=C3)cc1
REMARK SMILES IDX 6 1 5 2 4 3 3 4 1 5 2 6 35 8 36 9 97 10 37 11 96 12 38 13
REMARK SMILES IDX 39 14 40 15 90 16 41 17 95 18 89 19 91 20 42 21 94 22 88 23
REMARK SMILES IDX 87 24 43 26 75 27 55 28 74 29 56 30 59 31 73 32 92 33 57 34
REMARK SMILES IDX 58 35 72 37 93 38 60 39 44 40 45 41 53 42 46 43 47 44 51 45
REMARK SMILES IDX 54 46 48 47 49 48 52 49 50 50 76 51 77 52 85 53 78 54 79 55
REMARK SMILES IDX 83 56 86 57 80 58 81 59 84 60 82 61 61 62 62 63 70 64 63 65
REMARK SMILES IDX 64 66 68 67 71 68 65 69 66 70 69 71 67 72 7 73 8 74 9 75
REMARK SMILES IDX 10 76 11 77 12 79 13 80 14 81 15 82 16 83 20 84 17 85 19 86
REMARK SMILES IDX 18 87 21 88 22 89 33 90 23 91 24 92 32 93 34 94 25 95 26 96
REMARK SMILES IDX 27 97 31 98 28 99 30 100 29 101
REMARK H PARENT 3 7 91 25 59 36 10 78
REMARK Flexibility Score: inf
ROOT
ATOM      1  C   UNL A   1      31.552  30.500  25.745  1.00  0.00     0.002 C 
ENDROOT
BRANCH   1   2
ATOM      2  C   UNL A   1      31.370  31.804  26.530  1.00  0.00     0.021 C 
BRANCH   2   3
ATOM      3  C   UNL A   1      32.657  32.462  27.022  1.00  0.00     0.116 C 
BRANCH   3   4
ATOM      4  N   UNL A   1      32.444  33.833  27.450  1.00  0.00    -0.352 N 
ATOM      5  O   UNL A   1      32.554  35.641  28.778  1.00  0.00    -0.269 OA
ATOM      6  C   UNL A   1      33.025  34.552  28.459  1.00  0.00     0.251 C 
ATOM      7  H   UNL A   1      31.772  34.326  26.928  1.00  0.00     0.163 HD
BRANCH   6   8
ATOM      8  C   UNL A   1      34.209  34.036  29.179  1.00  0.00     0.039 A 
ATOM      9  C   UNL A   1      34.087  33.129  30.236  1.00  0.00     0.014 A 
ATOM     10  C   UNL A   1      35.476  34.402  28.713  1.00  0.00     0.014 A 
ATOM     11  C   UNL A   1      35.229  32.649  30.878  1.00  0.00     0.010 A 
ATOM     12  C   UNL A   1      36.618  33.882  29.322  1.00  0.00     0.010 A 
ATOM     13  C   UNL A   1      36.503  33.012  30.417  1.00  0.00    -0.014 A 
BRANCH  13  14
ATOM     14  C   UNL A   1      37.725  32.439  31.032  1.00  0.00     0.031 A 
ATOM     15  C   UNL A   1      38.480  31.341  30.346  1.00  0.00     0.074 A 
ATOM     16  C   UNL A   1      38.112  32.870  32.247  1.00  0.00     0.049 A 
ATOM     17  N   UNL A   1      39.501  30.644  30.777  1.00  0.00    -0.248 NA
ATOM     18  C   UNL A   1      38.018  30.966  29.001  1.00  0.00     0.031 C 
ATOM     19  C   UNL A   1      37.445  33.919  33.018  1.00  0.00     0.029 A 
ATOM     20  N   UNL A   1      39.142  32.462  33.056  1.00  0.00    -0.354 N 
ATOM     21  C   UNL A   1      39.791  29.734  29.768  1.00  0.00     0.074 A 
ATOM     22  C   UNL A   1      38.826  29.956  28.711  1.00  0.00     0.031 C 
ATOM     23  C   UNL A   1      38.078  34.070  34.192  1.00  0.00     0.029 A 
ATOM     24  C   UNL A   1      39.163  33.096  34.274  1.00  0.00     0.049 A 
ATOM     25  H   UNL A   1      39.802  31.783  32.789  1.00  0.00     0.167 HD
ATOM     26  C   UNL A   1      40.774  28.805  29.731  1.00  0.00     0.037 A 
ATOM     27  C   UNL A   1      39.945  32.894  35.349  1.00  0.00     0.037 A 
ATOM     28  C   UNL A   1      41.737  28.597  30.783  1.00  0.00     0.049 A 
ATOM     29  C   UNL A   1      41.015  31.842  35.296  1.00  0.00     0.074 A 
ATOM     30  C   UNL A   1      42.806  27.720  30.814  1.00  0.00     0.029 A 
ATOM     31  N   UNL A   1      41.735  29.271  31.996  1.00  0.00    -0.354 N 
ATOM     32  N   UNL A   1      41.315  31.023  34.318  1.00  0.00    -0.248 NA
ATOM     33  C   UNL A   1      41.856  31.686  36.489  1.00  0.00     0.031 C 
ATOM     34  C   UNL A   1      43.426  27.831  32.064  1.00  0.00     0.029 A 
ATOM     35  C   UNL A   1      42.770  28.810  32.794  1.00  0.00     0.049 A 
ATOM     36  H   UNL A   1      41.093  29.973  32.252  1.00  0.00     0.167 HD
ATOM     37  C   UNL A   1      42.389  30.268  34.767  1.00  0.00     0.074 A 
ATOM     38  C   UNL A   1      42.693  30.730  36.106  1.00  0.00     0.031 C 
ATOM     39  C   UNL A   1      43.064  29.284  34.123  1.00  0.00     0.037 A 
BRANCH  26  40
ATOM     40  C   UNL A   1      40.843  27.922  28.520  1.00  0.00     0.064 A 
ATOM     41  C   UNL A   1      41.618  28.263  27.401  1.00  0.00     0.173 A 
ATOM     42  C   UNL A   1      40.142  26.707  28.488  1.00  0.00     0.173 A 
ATOM     43  F   UNL A   1      42.299  29.419  27.378  1.00  0.00    -0.203 F 
ATOM     44  C   UNL A   1      41.662  27.435  26.282  1.00  0.00     0.198 A 
ATOM     45  C   UNL A   1      40.210  25.869  27.377  1.00  0.00     0.198 A 
ATOM     46  F   UNL A   1      39.393  26.330  29.534  1.00  0.00    -0.203 F 
ATOM     47  F   UNL A   1      42.370  27.805  25.206  1.00  0.00    -0.200 F 
ATOM     48  C   UNL A   1      40.962  26.238  26.272  1.00  0.00     0.200 A 
ATOM     49  F   UNL A   1      39.540  24.708  27.373  1.00  0.00    -0.200 F 
ATOM     50  F   UNL A   1      41.005  25.443  25.194  1.00  0.00    -0.200 F 
ENDBRANCH  26  40
BRANCH  27  51
ATOM     51  C   UNL A   1      39.724  33.712  36.567  1.00  0.00     0.064 A 
ATOM     52  C   UNL A   1      40.293  34.985  36.692  1.00  0.00     0.173 A 
ATOM     53  C   UNL A   1      38.888  33.261  37.600  1.00  0.00     0.173 A 
ATOM     54  F   UNL A   1      41.111  35.449  35.736  1.00  0.00    -0.203 F 
ATOM     55  C   UNL A   1      40.035  35.779  37.808  1.00  0.00     0.198 A 
ATOM     56  C   UNL A   1      38.612  34.065  38.704  1.00  0.00     0.198 A 
ATOM     57  F   UNL A   1      38.315  32.051  37.521  1.00  0.00    -0.203 F 
ATOM     58  F   UNL A   1      40.605  36.987  37.914  1.00  0.00    -0.200 F 
ATOM     59  C   UNL A   1      39.186  35.323  38.807  1.00  0.00     0.200 A 
ATOM     60  F   UNL A   1      37.780  33.628  39.658  1.00  0.00    -0.200 F 
ATOM     61  F   UNL A   1      38.923  36.096  39.869  1.00  0.00    -0.200 F 
ENDBRANCH  27  51
BRANCH  39  62
ATOM     62  C   UNL A   1      44.221  28.658  34.841  1.00  0.00     0.064 A 
ATOM     63  C   UNL A   1      44.065  27.501  35.616  1.00  0.00     0.173 A 
ATOM     64  C   UNL A   1      45.513  29.184  34.693  1.00  0.00     0.173 A 
ATOM     65  F   UNL A   1      42.846  26.970  35.799  1.00  0.00    -0.203 F 
ATOM     66  C   UNL A   1      45.161  26.897  36.225  1.00  0.00     0.198 A 
ATOM     67  C   UNL A   1      46.610  28.566  35.285  1.00  0.00     0.198 A 
ATOM     68  F   UNL A   1      45.712  30.290  33.959  1.00  0.00    -0.203 F 
ATOM     69  F   UNL A   1      44.988  25.806  36.984  1.00  0.00    -0.200 F 
ATOM     70  C   UNL A   1      46.433  27.424  36.052  1.00  0.00     0.200 A 
ATOM     71  F   UNL A   1      47.838  29.071  35.109  1.00  0.00    -0.200 F 
ATOM     72  F   UNL A   1      47.489  26.834  36.628  1.00  0.00    -0.200 F 
ENDBRANCH  39  62
ENDBRANCH  13  14
ENDBRANCH   6   8
ENDBRANCH   3   4
ENDBRANCH   2   3
ENDBRANCH   1   2
BRANCH   1  73
ATOM     73  C   UNL A   1      31.939  29.256  26.559  1.00  0.00     0.002 C 
BRANCH  73  74
ATOM     74  C   UNL A   1      33.396  28.801  26.438  1.00  0.00     0.021 C 
BRANCH  74  75
ATOM     75  C   UNL A   1      33.560  27.320  26.122  1.00  0.00     0.116 C 
BRANCH  75  76
ATOM     76  N   UNL A   1      32.470  26.500  26.619  1.00  0.00    -0.354 N 
ATOM     77  C   UNL A   1      32.042  25.276  26.198  1.00  0.00     0.243 C 
ATOM     78  H   UNL A   1      31.966  26.885  27.372  1.00  0.00     0.163 HD
ATOM     79  O   UNL A   1      31.462  24.577  27.039  1.00  0.00    -0.273 OA
BRANCH  77  80
ATOM     80  C   UNL A   1      32.233  24.734  24.752  1.00  0.00     0.185 C 
BRANCH  80  81
ATOM     81  C   UNL A   1      32.478  25.830  23.676  1.00  0.00     0.071 C 
BRANCH  81  82
ATOM     82  C   UNL A   1      31.416  26.849  23.345  1.00  0.00    -0.045 A 
ATOM     83  C   UNL A   1      30.069  26.660  23.677  1.00  0.00     0.004 A 
ATOM     84  C   UNL A   1      31.790  28.065  22.749  1.00  0.00     0.004 A 
ATOM     85  C   UNL A   1      29.110  27.619  23.341  1.00  0.00     0.000 A 
ATOM     86  C   UNL A   1      30.834  29.032  22.432  1.00  0.00     0.000 A 
ATOM     87  C   UNL A   1      29.490  28.800  22.711  1.00  0.00     0.000 A 
ENDBRANCH  81  82
ENDBRANCH  80  81
BRANCH  80  88
ATOM     88  N   UNL A   1      32.889  23.423  24.530  1.00  0.00    -0.280 N 
ATOM     89  C   UNL A   1      32.201  22.368  23.969  1.00  0.00     0.266 C 
ATOM     90  C   UNL A   1      34.191  23.128  24.905  1.00  0.00     0.149 C 
ATOM     91  O   UNL A   1      31.176  22.415  23.313  1.00  0.00    -0.268 OA
ATOM     92  C   UNL A   1      32.916  21.088  24.188  1.00  0.00     0.081 C 
ATOM     93  S   UNL A   1      34.500  21.396  24.736  1.00  0.00    -0.054 SA
ATOM     94  S   UNL A   1      35.373  24.151  25.493  1.00  0.00    -0.052 S 
ATOM     95  C   UNL A   1      32.286  19.928  23.962  1.00  0.00     0.029 C 
BRANCH  95  96
ATOM     96  C   UNL A   1      32.793  18.562  24.117  1.00  0.00    -0.021 A 
ATOM     97  C   UNL A   1      33.418  17.862  23.086  1.00  0.00     0.028 A 
ATOM     98  C   UNL A   1      32.722  17.974  25.381  1.00  0.00     0.028 A 
ATOM     99  C   UNL A   1      33.911  16.596  23.355  1.00  0.00     0.111 A 
ATOM    100  C   UNL A   1      33.246  16.704  25.552  1.00  0.00     0.111 A 
ATOM    101  N   UNL A   1      33.838  16.002  24.565  1.00  0.00    -0.265 NA
ENDBRANCH  95  96
ENDBRANCH  80  88
ENDBRANCH  77  80
ENDBRANCH  75  76
ENDBRANCH  74  75
ENDBRANCH  73  74
ENDBRANCH   1  73
TORSDOF 17
ENDMDL
MODEL 2
REMARK VINA RESULT:     -12.8      1.310      1.931
REMARK SMILES O=C(NCCCCCCNC(=O)[C@@H](Cc1ccccc1)N1C(=O)/C(=C/c2ccncc2)SC1=S)c1ccc(-c2c3nc(c(-c4c(F)c(F)c(F)c(F)c4F)c4ccc([nH]4)c(-c4c(F)c(F)c(F)c(F)c4F)c4nc(c(-c5c(F)c(F)c(F)c(F)c5F)c5ccc2[nH]5)C=C4)C=C3)cc1
REMARK SMILES IDX 6 1 5 2 4 3 3 4 1 5 2 6 35 8 36 9 97 10 37 11 96 12 38 13
REMARK SMILES IDX 39 14 40 15 90 16 41 17 95 18 89 19 91 20 42 21 94 22 88 23
REMARK SMILES IDX 87 24 43 26 75 27 55 28 74 29 56 30 59 31 73 32 92 33 57 34
REMARK SMILES IDX 58 35 72 37 93 38 60 39 44 40 45 41 53 42 46 43 47 44 51 45
REMARK SMILES IDX 54 46 48 47 49 48 52 49 50 50 76 51 77 52 85 53 78 54 79 55
REMARK SMILES IDX 83 56 86 57 80 58 81 59 84 60 82 61 61 62 62 63 70 64 63 65
REMARK SMILES IDX 64 66 68 67 71 68 65 69 66 70 69 71 67 72 7 73 8 74 9 75
REMARK SMILES IDX 10 76 11 77 12 79 13 80 14 81 15 82 16 83 20 84 17 85 19 86
REMARK SMILES IDX 18 87 21 88 22 89 33 90 23 91 24 92 32 93 34 94 25 95 26 96
REMARK SMILES IDX 27 97 31 98 28 99 30 100 29 101
REMARK H PARENT 3 7 91 25 59 36 10 78
REMARK Flexibility Score: inf
ROOT
ATOM      1  C   UNL A   1      31.389  30.868  26.180  1.00  0.00     0.002 C 
ENDROOT
BRANCH   1   2
ATOM      2  C   UNL A   1      31.357  32.367  26.499  1.00  0.00     0.021 C 
BRANCH   2   3
ATOM      3  C   UNL A   1      32.583  32.914  27.226  1.00  0.00     0.116 C 
BRANCH   3   4
ATOM      4  N   UNL A   1      32.406  34.293  27.641  1.00  0.00    -0.352 N 
ATOM      5  O   UNL A   1      32.554  36.108  28.956  1.00  0.00    -0.269 OA
ATOM      6  C   UNL A   1      32.996  35.003  28.651  1.00  0.00     0.251 C 
ATOM      7  H   UNL A   1      31.754  34.802  27.107  1.00  0.00     0.163 HD
BRANCH   6   8
ATOM      8  C   UNL A   1      34.156  34.458  29.389  1.00  0.00     0.039 A 
ATOM      9  C   UNL A   1      33.996  33.730  30.572  1.00  0.00     0.014 A 
ATOM     10  C   UNL A   1      35.426  34.603  28.822  1.00  0.00     0.014 A 
ATOM     11  C   UNL A   1      35.114  33.215  31.229  1.00  0.00     0.010 A 
ATOM     12  C   UNL A   1      36.538  34.043  29.452  1.00  0.00     0.010 A 
ATOM     13  C   UNL A   1      36.392  33.356  30.667  1.00  0.00    -0.014 A 
BRANCH  13  14
ATOM     14  C   UNL A   1      37.577  32.735  31.308  1.00  0.00     0.031 A 
ATOM     15  C   UNL A   1      38.277  31.580  30.658  1.00  0.00     0.074 A 
ATOM     16  C   UNL A   1      37.977  33.178  32.514  1.00  0.00     0.049 A 
ATOM     17  N   UNL A   1      39.255  30.842  31.116  1.00  0.00    -0.248 NA
ATOM     18  C   UNL A   1      37.805  31.195  29.320  1.00  0.00     0.031 C 
ATOM     19  C   UNL A   1      37.361  34.282  33.251  1.00  0.00     0.029 A 
ATOM     20  N   UNL A   1      38.978  32.738  33.343  1.00  0.00    -0.354 N 
ATOM     21  C   UNL A   1      39.504  29.891  30.134  1.00  0.00     0.074 A 
ATOM     22  C   UNL A   1      38.560  30.135  29.064  1.00  0.00     0.031 C 
ATOM     23  C   UNL A   1      37.992  34.430  34.426  1.00  0.00     0.029 A 
ATOM     24  C   UNL A   1      39.023  33.403  34.543  1.00  0.00     0.049 A 
ATOM     25  H   UNL A   1      39.602  32.017  33.100  1.00  0.00     0.167 HD
ATOM     26  C   UNL A   1      40.437  28.910  30.131  1.00  0.00     0.037 A 
ATOM     27  C   UNL A   1      39.785  33.188  35.631  1.00  0.00     0.037 A 
ATOM     28  C   UNL A   1      41.379  28.680  31.197  1.00  0.00     0.049 A 
ATOM     29  C   UNL A   1      40.798  32.080  35.615  1.00  0.00     0.074 A 
ATOM     30  C   UNL A   1      42.400  27.749  31.261  1.00  0.00     0.029 A 
ATOM     31  N   UNL A   1      41.404  29.386  32.391  1.00  0.00    -0.354 N 
ATOM     32  N   UNL A   1      41.061  31.219  34.662  1.00  0.00    -0.248 NA
ATOM     33  C   UNL A   1      41.621  31.911  36.820  1.00  0.00     0.031 C 
ATOM     34  C   UNL A   1      43.015  27.860  32.513  1.00  0.00     0.029 A 
ATOM     35  C   UNL A   1      42.407  28.892  33.210  1.00  0.00     0.049 A 
ATOM     36  H   UNL A   1      40.799  30.127  32.623  1.00  0.00     0.167 HD
ATOM     37  C   UNL A   1      42.090  30.421  35.141  1.00  0.00     0.074 A 
ATOM     38  C   UNL A   1      42.408  30.903  36.469  1.00  0.00     0.031 C 
ATOM     39  C   UNL A   1      42.715  29.386  34.529  1.00  0.00     0.037 A 
BRANCH  26  40
ATOM     40  C   UNL A   1      40.467  27.992  28.945  1.00  0.00     0.064 A 
ATOM     41  C   UNL A   1      41.254  28.270  27.816  1.00  0.00     0.173 A 
ATOM     42  C   UNL A   1      39.717  26.807  28.946  1.00  0.00     0.173 A 
ATOM     43  F   UNL A   1      41.981  29.396  27.762  1.00  0.00    -0.203 F 
ATOM     44  C   UNL A   1      41.262  27.411  26.720  1.00  0.00     0.198 A 
ATOM     45  C   UNL A   1      39.748  25.937  27.858  1.00  0.00     0.198 A 
ATOM     46  F   UNL A   1      38.954  26.490  30.003  1.00  0.00    -0.203 F 
ATOM     47  F   UNL A   1      41.982  27.722  25.634  1.00  0.00    -0.200 F 
ATOM     48  C   UNL A   1      40.513  26.244  26.744  1.00  0.00     0.200 A 
ATOM     49  F   UNL A   1      39.031  24.805  27.887  1.00  0.00    -0.200 F 
ATOM     50  F   UNL A   1      40.522  25.419  25.687  1.00  0.00    -0.200 F 
ENDBRANCH  26  40
BRANCH  27  51
ATOM     51  C   UNL A   1      39.599  34.049  36.824  1.00  0.00     0.064 A 
ATOM     52  C   UNL A   1      38.795  33.636  37.893  1.00  0.00     0.173 A 
ATOM     53  C   UNL A   1      40.272  35.275  36.945  1.00  0.00     0.173 A 
ATOM     54  F   UNL A   1      38.121  32.479  37.814  1.00  0.00    -0.203 F 
ATOM     55  C   UNL A   1      38.670  34.416  39.040  1.00  0.00     0.198 A 
ATOM     56  C   UNL A   1      40.165  36.044  38.101  1.00  0.00     0.198 A 
ATOM     57  F   UNL A   1      41.059  35.709  35.949  1.00  0.00    -0.203 F 
ATOM     58  F   UNL A   1      37.880  34.008  40.043  1.00  0.00    -0.200 F 
ATOM     59  C   UNL A   1      39.363  35.614  39.148  1.00  0.00     0.200 A 
ATOM     60  F   UNL A   1      40.848  37.191  38.208  1.00  0.00    -0.200 F 
ATOM     61  F   UNL A   1      39.258  36.353  40.261  1.00  0.00    -0.200 F 
ENDBRANCH  27  51
BRANCH  39  62
ATOM     62  C   UNL A   1      43.833  28.719  35.273  1.00  0.00     0.064 A 
ATOM     63  C   UNL A   1      43.593  27.664  36.165  1.00  0.00     0.173 A 
ATOM     64  C   UNL A   1      45.163  29.095  35.038  1.00  0.00     0.173 A 
ATOM     65  F   UNL A   1      42.336  27.279  36.433  1.00  0.00    -0.203 F 
ATOM     66  C   UNL A   1      44.647  27.014  36.800  1.00  0.00     0.198 A 
ATOM     67  C   UNL A   1      46.216  28.430  35.658  1.00  0.00     0.198 A 
ATOM     68  F   UNL A   1      45.441  30.098  34.191  1.00  0.00    -0.203 F 
ATOM     69  F   UNL A   1      44.397  26.025  37.669  1.00  0.00    -0.200 F 
ATOM     70  C   UNL A   1      45.957  27.391  36.540  1.00  0.00     0.200 A 
ATOM     71  F   UNL A   1      47.480  28.788  35.399  1.00  0.00    -0.200 F 
ATOM     72  F   UNL A   1      46.972  26.756  37.143  1.00  0.00    -0.200 F 
ENDBRANCH  39  62
ENDBRANCH  13  14
ENDBRANCH   6   8
ENDBRANCH   3   4
ENDBRANCH   2   3
ENDBRANCH   1   2
BRANCH   1  73
ATOM     73  C   UNL A   1      32.386  30.017  26.982  1.00  0.00     0.002 C 
BRANCH  73  74
ATOM     74  C   UNL A   1      32.188  28.500  26.903  1.00  0.00     0.021 C 
BRANCH  74  75
ATOM     75  C   UNL A   1      33.439  27.731  26.499  1.00  0.00     0.116 C 
BRANCH  75  76
ATOM     76  N   UNL A   1      33.811  27.925  25.109  1.00  0.00    -0.354 N 
ATOM     77  C   UNL A   1      33.054  27.800  23.982  1.00  0.00     0.243 C 
ATOM     78  H   UNL A   1      34.749  28.185  24.958  1.00  0.00     0.163 HD
ATOM     79  O   UNL A   1      33.412  28.466  23.002  1.00  0.00    -0.273 OA
BRANCH  77  80
ATOM     80  C   UNL A   1      31.805  26.880  23.867  1.00  0.00     0.185 C 
BRANCH  80  81
ATOM     81  C   UNL A   1      30.894  27.174  22.641  1.00  0.00     0.071 C 
BRANCH  81  82
ATOM     82  C   UNL A   1      29.786  28.196  22.721  1.00  0.00    -0.045 A 
ATOM     83  C   UNL A   1      28.487  27.860  23.120  1.00  0.00     0.004 A 
ATOM     84  C   UNL A   1      30.073  29.545  22.457  1.00  0.00     0.004 A 
ATOM     85  C   UNL A   1      27.482  28.830  23.167  1.00  0.00     0.000 A 
ATOM     86  C   UNL A   1      29.073  30.518  22.525  1.00  0.00     0.000 A 
ATOM     87  C   UNL A   1      27.773  30.156  22.861  1.00  0.00     0.000 A 
ENDBRANCH  81  82
ENDBRANCH  80  81
BRANCH  80  88
ATOM     88  N   UNL A   1      31.875  25.470  24.323  1.00  0.00    -0.280 N 
ATOM     89  C   UNL A   1      32.847  24.616  23.849  1.00  0.00     0.266 C 
ATOM     90  C   UNL A   1      30.966  24.886  25.192  1.00  0.00     0.149 C 
ATOM     91  O   UNL A   1      33.901  24.913  23.316  1.00  0.00    -0.268 OA
ATOM     92  C   UNL A   1      32.503  23.203  24.139  1.00  0.00     0.081 C 
ATOM     93  S   UNL A   1      31.220  23.138  25.259  1.00  0.00    -0.054 SA
ATOM     94  S   UNL A   1      29.737  25.602  26.066  1.00  0.00    -0.052 S 
ATOM     95  C   UNL A   1      33.174  22.218  23.529  1.00  0.00     0.029 C 
BRANCH  95  96
ATOM     96  C   UNL A   1      32.998  20.769  23.660  1.00  0.00    -0.021 A 
ATOM     97  C   UNL A   1      32.237  20.013  22.771  1.00  0.00     0.028 A 
ATOM     98  C   UNL A   1      33.698  20.112  24.673  1.00  0.00     0.028 A 
ATOM     99  C   UNL A   1      32.182  18.641  22.954  1.00  0.00     0.111 A 
ATOM    100  C   UNL A   1      33.581  18.735  24.774  1.00  0.00     0.111 A 
ATOM    101  N   UNL A   1      32.837  17.986  23.937  1.00  0.00    -0.265 NA
ENDBRANCH  95  96
ENDBRANCH  80  88
ENDBRANCH  77  80
ENDBRANCH  75  76
ENDBRANCH  74  75
ENDBRANCH  73  74
ENDBRANCH   1  73
TORSDOF 17
ENDMDL
MODEL 3
REMARK VINA RESULT:     -12.8      1.351      2.587
REMARK SMILES O=C(NCCCCCCNC(=O)[C@@H](Cc1ccccc1)N1C(=O)/C(=C/c2ccncc2)SC1=S)c1ccc(-c2c3nc(c(-c4c(F)c(F)c(F)c(F)c4F)c4ccc([nH]4)c(-c4c(F)c(F)c(F)c(F)c4F)c4nc(c(-c5c(F)c(F)c(F)c(F)c5F)c5ccc2[nH]5)C=C4)C=C3)cc1
REMARK SMILES IDX 6 1 5 2 4 3 3 4 1 5 2 6 35 8 36 9 97 10 37 11 96 12 38 13
REMARK SMILES IDX 39 14 40 15 90 16 41 17 95 18 89 19 91 20 42 21 94 22 88 23
REMARK SMILES IDX 87 24 43 26 75 27 55 28 74 29 56 30 59 31 73 32 92 33 57 34
REMARK SMILES IDX 58 35 72 37 93 38 60 39 44 40 45 41 53 42 46 43 47 44 51 45
REMARK SMILES IDX 54 46 48 47 49 48 52 49 50 50 76 51 77 52 85 53 78 54 79 55
REMARK SMILES IDX 83 56 86 57 80 58 81 59 84 60 82 61 61 62 62 63 70 64 63 65
REMARK SMILES IDX 64 66 68 67 71 68 65 69 66 70 69 71 67 72 7 73 8 74 9 75
REMARK SMILES IDX 10 76 11 77 12 79 13 80 14 81 15 82 16 83 20 84 17 85 19 86
REMARK SMILES IDX 18 87 21 88 22 89 33 90 23 91 24 92 32 93 34 94 25 95 26 96
REMARK SMILES IDX 27 97 31 98 28 99 30 100 29 101
REMARK H PARENT 3 7 91 25 59 36 10 78
REMARK Flexibility Score: inf
ROOT
ATOM      1  C   UNL A   1      31.400  30.914  26.127  1.00  0.00     0.002 C 
ENDROOT
BRANCH   1   2
ATOM      2  C   UNL A   1      31.335  32.390  26.535  1.00  0.00     0.021 C 
BRANCH   2   3
ATOM      3  C   UNL A   1      32.556  32.923  27.280  1.00  0.00     0.116 C 
BRANCH   3   4
ATOM      4  N   UNL A   1      32.398  34.312  27.672  1.00  0.00    -0.352 N 
ATOM      5  O   UNL A   1      32.576  36.147  28.954  1.00  0.00    -0.269 OA
ATOM      6  C   UNL A   1      33.003  35.032  28.666  1.00  0.00     0.251 C 
ATOM      7  H   UNL A   1      31.749  34.819  27.133  1.00  0.00     0.163 HD
BRANCH   6   8
ATOM      8  C   UNL A   1      34.162  34.487  29.405  1.00  0.00     0.039 A 
ATOM      9  C   UNL A   1      34.005  33.817  30.623  1.00  0.00     0.014 A 
ATOM     10  C   UNL A   1      35.424  34.569  28.809  1.00  0.00     0.014 A 
ATOM     11  C   UNL A   1      35.121  33.299  31.281  1.00  0.00     0.010 A 
ATOM     12  C   UNL A   1      36.532  34.006  29.443  1.00  0.00     0.010 A 
ATOM     13  C   UNL A   1      36.390  33.378  30.689  1.00  0.00    -0.014 A 
BRANCH  13  14
ATOM     14  C   UNL A   1      37.570  32.751  31.335  1.00  0.00     0.031 A 
ATOM     15  C   UNL A   1      38.260  31.586  30.694  1.00  0.00     0.074 A 
ATOM     16  C   UNL A   1      37.973  33.199  32.539  1.00  0.00     0.049 A 
ATOM     17  N   UNL A   1      39.233  30.843  31.158  1.00  0.00    -0.248 NA
ATOM     18  C   UNL A   1      37.787  31.195  29.358  1.00  0.00     0.031 C 
ATOM     19  C   UNL A   1      37.366  34.313  33.268  1.00  0.00     0.029 A 
ATOM     20  N   UNL A   1      38.970  32.757  33.371  1.00  0.00    -0.354 N 
ATOM     21  C   UNL A   1      39.474  29.884  30.183  1.00  0.00     0.074 A 
ATOM     22  C   UNL A   1      38.533  30.128  29.110  1.00  0.00     0.031 C 
ATOM     23  C   UNL A   1      37.998  34.465  34.441  1.00  0.00     0.029 A 
ATOM     24  C   UNL A   1      39.020  33.429  34.567  1.00  0.00     0.049 A 
ATOM     25  H   UNL A   1      39.589  32.029  33.134  1.00  0.00     0.167 HD
ATOM     26  C   UNL A   1      40.399  28.895  30.186  1.00  0.00     0.037 A 
ATOM     27  C   UNL A   1      39.780  33.216  35.656  1.00  0.00     0.037 A 
ATOM     28  C   UNL A   1      41.338  28.665  31.254  1.00  0.00     0.049 A 
ATOM     29  C   UNL A   1      40.784  32.099  35.648  1.00  0.00     0.074 A 
ATOM     30  C   UNL A   1      42.351  27.725  31.325  1.00  0.00     0.029 A 
ATOM     31  N   UNL A   1      41.369  29.378  32.444  1.00  0.00    -0.354 N 
ATOM     32  N   UNL A   1      41.040  31.230  34.701  1.00  0.00    -0.248 NA
ATOM     33  C   UNL A   1      41.604  31.933  36.855  1.00  0.00     0.031 C 
ATOM     34  C   UNL A   1      42.967  27.840  32.577  1.00  0.00     0.029 A 
ATOM     35  C   UNL A   1      42.367  28.882  33.267  1.00  0.00     0.049 A 
ATOM     36  H   UNL A   1      40.769  30.126  32.670  1.00  0.00     0.167 HD
ATOM     37  C   UNL A   1      42.061  30.427  35.187  1.00  0.00     0.074 A 
ATOM     38  C   UNL A   1      42.383  30.915  36.512  1.00  0.00     0.031 C 
ATOM     39  C   UNL A   1      42.679  29.382  34.582  1.00  0.00     0.037 A 
BRANCH  26  40
ATOM     40  C   UNL A   1      40.423  27.969  29.007  1.00  0.00     0.064 A 
ATOM     41  C   UNL A   1      39.668  26.786  28.981  1.00  0.00     0.173 A 
ATOM     42  C   UNL A   1      41.195  28.279  27.877  1.00  0.00     0.173 A 
ATOM     43  F   UNL A   1      38.921  26.439  30.040  1.00  0.00    -0.203 F 
ATOM     44  C   UNL A   1      39.710  25.933  27.881  1.00  0.00     0.198 A 
ATOM     45  C   UNL A   1      41.214  27.436  26.768  1.00  0.00     0.198 A 
ATOM     46  F   UNL A   1      41.929  29.401  27.847  1.00  0.00    -0.203 F 
ATOM     47  F   UNL A   1      39.019  24.785  27.899  1.00  0.00    -0.200 F 
ATOM     48  C   UNL A   1      40.480  26.261  26.774  1.00  0.00     0.200 A 
ATOM     49  F   UNL A   1      41.951  27.759  25.696  1.00  0.00    -0.200 F 
ATOM     50  F   UNL A   1      40.520  25.438  25.717  1.00  0.00    -0.200 F 
ENDBRANCH  26  40
BRANCH  27  51
ATOM     51  C   UNL A   1      39.600  34.087  36.843  1.00  0.00     0.064 A 
ATOM     52  C   UNL A   1      38.803  33.682  37.921  1.00  0.00     0.173 A 
ATOM     53  C   UNL A   1      40.273  35.314  36.950  1.00  0.00     0.173 A 
ATOM     54  F   UNL A   1      38.129  32.524  37.856  1.00  0.00    -0.203 F 
ATOM     55  C   UNL A   1      38.684  34.472  39.062  1.00  0.00     0.198 A 
ATOM     56  C   UNL A   1      40.172  36.092  38.100  1.00  0.00     0.198 A 
ATOM     57  F   UNL A   1      41.053  35.741  35.946  1.00  0.00    -0.203 F 
ATOM     58  F   UNL A   1      37.901  34.071  40.073  1.00  0.00    -0.200 F 
ATOM     59  C   UNL A   1      39.377  35.671  39.156  1.00  0.00     0.200 A 
ATOM     60  F   UNL A   1      40.855  37.241  38.193  1.00  0.00    -0.200 F 
ATOM     61  F   UNL A   1      39.278  36.419  40.263  1.00  0.00    -0.200 F 
ENDBRANCH  27  51
BRANCH  39  62
ATOM     62  C   UNL A   1      43.790  28.711  35.332  1.00  0.00     0.064 A 
ATOM     63  C   UNL A   1      45.124  29.115  35.183  1.00  0.00     0.173 A 
ATOM     64  C   UNL A   1      43.507  27.700  36.261  1.00  0.00     0.173 A 
ATOM     65  F   UNL A   1      45.447  30.069  34.295  1.00  0.00    -0.203 F 
ATOM     66  C   UNL A   1      46.137  28.523  35.933  1.00  0.00     0.198 A 
ATOM     67  C   UNL A   1      44.517  27.125  37.025  1.00  0.00     0.198 A 
ATOM     68  F   UNL A   1      42.244  27.281  36.439  1.00  0.00    -0.203 F 
ATOM     69  F   UNL A   1      47.409  28.905  35.758  1.00  0.00    -0.200 F 
ATOM     70  C   UNL A   1      45.832  27.536  36.859  1.00  0.00     0.200 A 
ATOM     71  F   UNL A   1      44.221  26.179  37.925  1.00  0.00    -0.200 F 
ATOM     72  F   UNL A   1      46.806  26.977  37.590  1.00  0.00    -0.200 F 
ENDBRANCH  39  62
ENDBRANCH  13  14
ENDBRANCH   6   8
ENDBRANCH   3   4
ENDBRANCH   2   3
ENDBRANCH   1   2
BRANCH   1  73
ATOM     73  C   UNL A   1      32.286  30.001  26.989  1.00  0.00     0.002 C 
BRANCH  73  74
ATOM     74  C   UNL A   1      31.666  28.665  27.407  1.00  0.00     0.021 C 
BRANCH  74  75
ATOM     75  C   UNL A   1      32.050  27.495  26.510  1.00  0.00     0.116 C 
BRANCH  75  76
ATOM     76  N   UNL A   1      32.845  27.887  25.359  1.00  0.00    -0.354 N 
ATOM     77  C   UNL A   1      32.515  27.885  24.036  1.00  0.00     0.243 C 
ATOM     78  H   UNL A   1      33.755  28.199  25.565  1.00  0.00     0.163 HD
ATOM     79  O   UNL A   1      33.123  28.690  23.318  1.00  0.00    -0.273 OA
BRANCH  77  80
ATOM     80  C   UNL A   1      31.453  26.943  23.402  1.00  0.00     0.185 C 
BRANCH  80  81
ATOM     81  C   UNL A   1      30.522  27.625  22.359  1.00  0.00     0.071 C 
BRANCH  81  82
ATOM     82  C   UNL A   1      29.524  28.677  22.776  1.00  0.00    -0.045 A 
ATOM     83  C   UNL A   1      29.883  30.019  22.952  1.00  0.00     0.004 A 
ATOM     84  C   UNL A   1      28.173  28.325  22.924  1.00  0.00     0.004 A 
ATOM     85  C   UNL A   1      28.935  30.964  23.354  1.00  0.00     0.000 A 
ATOM     86  C   UNL A   1      27.221  29.274  23.305  1.00  0.00     0.000 A 
ATOM     87  C   UNL A   1      27.607  30.590  23.539  1.00  0.00     0.000 A 
ENDBRANCH  81  82
ENDBRANCH  80  81
BRANCH  80  88
ATOM     88  N   UNL A   1      31.767  25.511  23.179  1.00  0.00    -0.280 N 
ATOM     89  C   UNL A   1      31.521  24.568  24.152  1.00  0.00     0.266 C 
ATOM     90  C   UNL A   1      32.370  25.013  22.033  1.00  0.00     0.149 C 
ATOM     91  O   UNL A   1      30.772  24.665  25.108  1.00  0.00    -0.268 OA
ATOM     92  C   UNL A   1      32.242  23.305  23.868  1.00  0.00     0.081 C 
ATOM     93  S   UNL A   1      32.836  23.325  22.270  1.00  0.00    -0.054 SA
ATOM     94  S   UNL A   1      32.711  25.798  20.599  1.00  0.00    -0.052 S 
ATOM     95  C   UNL A   1      32.351  22.371  24.822  1.00  0.00     0.029 C 
BRANCH  95  96
ATOM     96  C   UNL A   1      33.018  21.068  24.760  1.00  0.00    -0.021 A 
ATOM     97  C   UNL A   1      32.373  19.903  24.351  1.00  0.00     0.028 A 
ATOM     98  C   UNL A   1      34.384  21.016  25.043  1.00  0.00     0.028 A 
ATOM     99  C   UNL A   1      33.111  18.734  24.275  1.00  0.00     0.111 A 
ATOM    100  C   UNL A   1      35.037  19.799  24.936  1.00  0.00     0.111 A 
ATOM    101  N   UNL A   1      34.429  18.657  24.560  1.00  0.00    -0.265 NA
ENDBRANCH  95  96
ENDBRANCH  80  88
ENDBRANCH  77  80
ENDBRANCH  75  76
ENDBRANCH  74  75
ENDBRANCH  73  74
ENDBRANCH   1  73
TORSDOF 17
ENDMDL
