MODEL 1
REMARK VINA RESULT:     -13.4      0.000      0.000
REMARK SMILES Cc1cc(F)cc(NC(=O)N[C@@H]2COC[C@H]2C(=O)NCCCCCCNC(=O)c2ccc(-c3c4nc(c(-c5c(F)c(F)c(F)c(F)c5F)c5ccc([nH]5)c(-c5c(F)c(F)c(F)c(F)c5F)c5nc(c(-c6c(F)c(F)c(F)c(F)c6F)c6ccc3[nH]6)C=C5)C=C4)cc2)c1
REMARK SMILES IDX 22 1 21 2 20 3 19 4 17 5 18 6 16 8 12 9 13 10 14 11 15 12
REMARK SMILES IDX 11 13 8 14 9 15 10 17 7 19 1 20 2 21 3 22 92 23 4 24 5 25
REMARK SMILES IDX 6 26 23 27 24 28 25 29 26 30 27 31 28 33 29 34 30 35 91 36
REMARK SMILES IDX 31 37 90 38 32 39 33 40 34 41 84 42 35 43 89 44 83 45 85 46
REMARK SMILES IDX 36 47 88 48 82 49 81 50 37 52 69 53 49 54 68 55 50 56 53 57
REMARK SMILES IDX 67 58 86 59 51 60 52 61 66 63 87 64 54 65 38 66 39 67 47 68
REMARK SMILES IDX 40 69 41 70 45 71 48 72 42 73 43 74 46 75 44 76 70 77 71 78
REMARK SMILES IDX 79 79 72 80 73 81 77 82 80 83 74 84 75 85 78 86 76 87 55 88
REMARK SMILES IDX 56 89 64 90 57 91 58 92 62 93 65 94 59 95 60 96 63 97 61 98
REMARK H PARENT 19 7 8 16 11 18 26 32 85 51 53 62
REMARK Flexibility Score: inf
ROOT
ATOM      1  C   UNL A   1      34.830  22.700  26.342  1.00  0.00     0.002 C 
ENDROOT
BRANCH   1   2
ATOM      2  C   UNL A   1      33.484  23.333  26.664  1.00  0.00     0.021 C 
BRANCH   2   3
ATOM      3  C   UNL A   1      33.343  24.704  26.041  1.00  0.00     0.116 C 
BRANCH   3   4
ATOM      4  N   UNL A   1      32.212  25.423  26.574  1.00  0.00    -0.356 N 
ATOM      5  C   UNL A   1      32.060  26.759  26.764  1.00  0.00     0.227 C 
ATOM      6  O   UNL A   1      30.988  27.159  27.219  1.00  0.00    -0.275 OA
ATOM      7  H   UNL A   1      31.443  24.867  26.837  1.00  0.00     0.163 HD
BRANCH   5   8
ATOM      8  C   UNL A   1      33.180  27.722  26.421  1.00  0.00     0.129 C 
ATOM      9  C   UNL A   1      32.809  28.698  25.318  1.00  0.00     0.124 C 
ATOM     10  C   UNL A   1      33.038  30.103  25.874  1.00  0.00     0.186 C 
ATOM     11  O   UNL A   1      33.408  29.972  27.261  1.00  0.00    -0.378 OA
ATOM     12  C   UNL A   1      33.534  28.583  27.626  1.00  0.00     0.176 C 
BRANCH   9  13
ATOM     13  N   UNL A   1      33.323  28.419  23.973  1.00  0.00    -0.332 N 
ATOM     14  N   UNL A   1      31.912  28.716  22.028  1.00  0.00    -0.308 N 
ATOM     15  C   UNL A   1      33.044  28.445  22.679  1.00  0.00     0.319 C 
ATOM     16  H   UNL A   1      32.097  28.821  21.066  1.00  0.00     0.171 HD
ATOM     17  O   UNL A   1      34.025  28.201  21.956  1.00  0.00    -0.248 OA
ATOM     18  H   UNL A   1      34.240  28.075  24.072  1.00  0.00     0.165 HD
BRANCH  14  19
ATOM     19  C   UNL A   1      30.545  28.899  22.272  1.00  0.00     0.046 A 
ATOM     20  C   UNL A   1      27.851  31.543  21.628  1.00  0.00     0.044 C 
ATOM     21  C   UNL A   1      28.542  30.295  22.076  1.00  0.00    -0.046 A 
ATOM     22  C   UNL A   1      27.787  29.334  22.750  1.00  0.00     0.042 A 
ATOM     23  C   UNL A   1      29.921  30.080  21.852  1.00  0.00     0.029 A 
ATOM     24  C   UNL A   1      28.396  28.165  23.129  1.00  0.00     0.125 A 
ATOM     25  F   UNL A   1      27.695  27.217  23.763  1.00  0.00    -0.207 F 
ATOM     26  C   UNL A   1      29.740  27.958  22.859  1.00  0.00     0.065 A 
ENDBRANCH  14  19
ENDBRANCH   9  13
ENDBRANCH   5   8
ENDBRANCH   3   4
ENDBRANCH   2   3
ENDBRANCH   1   2
BRANCH   1  27
ATOM     27  C   UNL A   1      35.513  23.269  25.085  1.00  0.00     0.002 C 
BRANCH  27  28
ATOM     28  C   UNL A   1      37.049  23.375  25.131  1.00  0.00     0.021 C 
BRANCH  28  29
ATOM     29  C   UNL A   1      37.514  24.174  26.314  1.00  0.00     0.116 C 
BRANCH  29  30
ATOM     30  N   UNL A   1      38.680  23.547  26.916  1.00  0.00    -0.352 N 
ATOM     31  C   UNL A   1      39.838  24.178  27.300  1.00  0.00     0.251 C 
ATOM     32  H   UNL A   1      38.635  22.574  27.062  1.00  0.00     0.163 HD
ATOM     33  O   UNL A   1      40.906  23.597  27.339  1.00  0.00    -0.269 OA
BRANCH  31  34
ATOM     34  C   UNL A   1      39.711  25.580  27.715  1.00  0.00     0.039 A 
ATOM     35  C   UNL A   1      40.056  26.636  26.869  1.00  0.00     0.014 A 
ATOM     36  C   UNL A   1      39.297  25.806  29.025  1.00  0.00     0.014 A 
ATOM     37  C   UNL A   1      40.015  27.925  27.381  1.00  0.00     0.010 A 
ATOM     38  C   UNL A   1      38.989  27.057  29.426  1.00  0.00     0.010 A 
ATOM     39  C   UNL A   1      39.496  28.100  28.667  1.00  0.00    -0.014 A 
BRANCH  39  40
ATOM     40  C   UNL A   1      39.501  29.338  29.405  1.00  0.00     0.031 A 
ATOM     41  C   UNL A   1      38.494  30.324  29.057  1.00  0.00     0.074 A 
ATOM     42  C   UNL A   1      40.369  29.389  30.441  1.00  0.00     0.049 A 
ATOM     43  N   UNL A   1      38.692  31.589  29.079  1.00  0.00    -0.248 NA
ATOM     44  C   UNL A   1      37.181  29.948  28.530  1.00  0.00     0.031 C 
ATOM     45  C   UNL A   1      40.506  30.325  31.539  1.00  0.00     0.029 A 
ATOM     46  N   UNL A   1      41.467  28.522  30.612  1.00  0.00    -0.354 N 
ATOM     47  C   UNL A   1      37.438  32.150  29.026  1.00  0.00     0.074 A 
ATOM     48  C   UNL A   1      36.617  31.152  28.394  1.00  0.00     0.031 C 
ATOM     49  C   UNL A   1      41.760  30.220  32.027  1.00  0.00     0.029 A 
ATOM     50  C   UNL A   1      42.494  29.292  31.175  1.00  0.00     0.049 A 
ATOM     51  H   UNL A   1      41.505  27.565  30.382  1.00  0.00     0.167 HD
ATOM     52  C   UNL A   1      37.211  33.259  29.788  1.00  0.00     0.037 A 
ATOM     53  C   UNL A   1      43.557  29.581  30.362  1.00  0.00     0.037 A 
ATOM     54  C   UNL A   1      38.455  33.644  30.479  1.00  0.00     0.049 A 
ATOM     55  C   UNL A   1      43.542  31.026  29.910  1.00  0.00     0.074 A 
ATOM     56  C   UNL A   1      38.905  33.534  31.784  1.00  0.00     0.029 A 
ATOM     57  N   UNL A   1      39.581  33.904  29.718  1.00  0.00    -0.354 N 
ATOM     58  N   UNL A   1      42.548  31.846  30.128  1.00  0.00    -0.248 NA
ATOM     59  C   UNL A   1      44.619  31.652  29.154  1.00  0.00     0.031 C 
ATOM     60  C   UNL A   1      40.329  33.696  31.776  1.00  0.00     0.029 A 
ATOM     61  C   UNL A   1      40.735  33.926  30.473  1.00  0.00     0.049 A 
ATOM     62  H   UNL A   1      39.562  34.057  28.746  1.00  0.00     0.167 HD
ATOM     63  C   UNL A   1      42.835  33.078  29.620  1.00  0.00     0.074 A 
ATOM     64  C   UNL A   1      44.125  32.891  28.971  1.00  0.00     0.031 C 
ATOM     65  C   UNL A   1      42.000  34.151  29.783  1.00  0.00     0.037 A 
BRANCH  52  66
ATOM     66  C   UNL A   1      35.864  33.854  30.153  1.00  0.00     0.064 A 
ATOM     67  C   UNL A   1      35.072  34.427  29.134  1.00  0.00     0.173 A 
ATOM     68  C   UNL A   1      35.306  33.955  31.445  1.00  0.00     0.173 A 
ATOM     69  F   UNL A   1      35.434  34.353  27.845  1.00  0.00    -0.203 F 
ATOM     70  C   UNL A   1      33.872  35.098  29.394  1.00  0.00     0.198 A 
ATOM     71  C   UNL A   1      34.096  34.606  31.702  1.00  0.00     0.198 A 
ATOM     72  F   UNL A   1      35.891  33.445  32.528  1.00  0.00    -0.203 F 
ATOM     73  F   UNL A   1      33.192  35.657  28.383  1.00  0.00    -0.200 F 
ATOM     74  C   UNL A   1      33.386  35.193  30.681  1.00  0.00     0.200 A 
ATOM     75  F   UNL A   1      33.633  34.667  32.960  1.00  0.00    -0.200 F 
ATOM     76  F   UNL A   1      32.241  35.838  30.934  1.00  0.00    -0.200 F 
ENDBRANCH  52  66
BRANCH  53  77
ATOM     77  C   UNL A   1      43.939  28.383  29.538  1.00  0.00     0.064 A 
ATOM     78  C   UNL A   1      43.680  28.460  28.149  1.00  0.00     0.173 A 
ATOM     79  C   UNL A   1      44.927  27.477  29.951  1.00  0.00     0.173 A 
ATOM     80  F   UNL A   1      42.722  29.283  27.693  1.00  0.00    -0.203 F 
ATOM     81  C   UNL A   1      44.509  27.838  27.219  1.00  0.00     0.198 A 
ATOM     82  C   UNL A   1      45.721  26.809  29.010  1.00  0.00     0.198 A 
ATOM     83  F   UNL A   1      45.209  27.327  31.252  1.00  0.00    -0.203 F 
ATOM     84  F   UNL A   1      44.357  28.093  25.911  1.00  0.00    -0.200 F 
ATOM     85  C   UNL A   1      45.553  27.042  27.651  1.00  0.00     0.200 A 
ATOM     86  F   UNL A   1      46.706  26.000  29.426  1.00  0.00    -0.200 F 
ATOM     87  F   UNL A   1      46.417  26.540  26.757  1.00  0.00    -0.200 F 
ENDBRANCH  53  77
BRANCH  65  88
ATOM     88  C   UNL A   1      42.307  35.536  29.276  1.00  0.00     0.064 A 
ATOM     89  C   UNL A   1      43.106  36.441  29.987  1.00  0.00     0.173 A 
ATOM     90  C   UNL A   1      41.721  36.043  28.091  1.00  0.00     0.173 A 
ATOM     91  F   UNL A   1      43.587  36.133  31.201  1.00  0.00    -0.203 F 
ATOM     92  C   UNL A   1      43.404  37.709  29.485  1.00  0.00     0.198 A 
ATOM     93  C   UNL A   1      41.963  37.331  27.628  1.00  0.00     0.198 A 
ATOM     94  F   UNL A   1      40.907  35.310  27.320  1.00  0.00    -0.203 F 
ATOM     95  F   UNL A   1      44.247  38.503  30.157  1.00  0.00    -0.200 F 
ATOM     96  C   UNL A   1      42.833  38.153  28.307  1.00  0.00     0.200 A 
ATOM     97  F   UNL A   1      41.356  37.758  26.512  1.00  0.00    -0.200 F 
ATOM     98  F   UNL A   1      43.114  39.371  27.831  1.00  0.00    -0.200 F 
ENDBRANCH  65  88
ENDBRANCH  39  40
ENDBRANCH  31  34
ENDBRANCH  29  30
ENDBRANCH  28  29
ENDBRANCH  27  28
ENDBRANCH   1  27
TORSDOF 15
ENDMDL
MODEL 2
REMARK VINA RESULT:     -13.4      3.924     10.326
REMARK SMILES Cc1cc(F)cc(NC(=O)N[C@@H]2COC[C@H]2C(=O)NCCCCCCNC(=O)c2ccc(-c3c4nc(c(-c5c(F)c(F)c(F)c(F)c5F)c5ccc([nH]5)c(-c5c(F)c(F)c(F)c(F)c5F)c5nc(c(-c6c(F)c(F)c(F)c(F)c6F)c6ccc3[nH]6)C=C5)C=C4)cc2)c1
REMARK SMILES IDX 22 1 21 2 20 3 19 4 17 5 18 6 16 8 12 9 13 10 14 11 15 12
REMARK SMILES IDX 11 13 8 14 9 15 10 17 7 19 1 20 2 21 3 22 92 23 4 24 5 25
REMARK SMILES IDX 6 26 23 27 24 28 25 29 26 30 27 31 28 33 29 34 30 35 91 36
REMARK SMILES IDX 31 37 90 38 32 39 33 40 34 41 84 42 35 43 89 44 83 45 85 46
REMARK SMILES IDX 36 47 88 48 82 49 81 50 37 52 69 53 49 54 68 55 50 56 53 57
REMARK SMILES IDX 67 58 86 59 51 60 52 61 66 63 87 64 54 65 38 66 39 67 47 68
REMARK SMILES IDX 40 69 41 70 45 71 48 72 42 73 43 74 46 75 44 76 70 77 71 78
REMARK SMILES IDX 79 79 72 80 73 81 77 82 80 83 74 84 75 85 78 86 76 87 55 88
REMARK SMILES IDX 56 89 64 90 57 91 58 92 62 93 65 94 59 95 60 96 63 97 61 98
REMARK H PARENT 19 7 8 16 11 18 26 32 85 51 53 62
REMARK Flexibility Score: inf
ROOT
ATOM      1  C   UNL A   1      31.379  27.431  26.408  1.00  0.00     0.002 C 
ENDROOT
BRANCH   1   2
ATOM      2  C   UNL A   1      30.840  27.469  24.986  1.00  0.00     0.021 C 
BRANCH   2   3
ATOM      3  C   UNL A   1      31.912  27.838  23.986  1.00  0.00     0.116 C 
BRANCH   3   4
ATOM      4  N   UNL A   1      31.587  27.384  22.656  1.00  0.00    -0.356 N 
ATOM      5  C   UNL A   1      31.721  26.144  22.118  1.00  0.00     0.227 C 
ATOM      6  O   UNL A   1      31.354  25.976  20.955  1.00  0.00    -0.275 OA
ATOM      7  H   UNL A   1      31.214  28.069  22.054  1.00  0.00     0.163 HD
BRANCH   5   8
ATOM      8  C   UNL A   1      32.304  25.007  22.934  1.00  0.00     0.129 C 
ATOM      9  C   UNL A   1      31.276  23.953  23.306  1.00  0.00     0.124 C 
ATOM     10  C   UNL A   1      31.808  22.615  22.798  1.00  0.00     0.186 C 
ATOM     11  O   UNL A   1      33.022  22.874  22.064  1.00  0.00    -0.378 OA
ATOM     12  C   UNL A   1      33.374  24.270  22.138  1.00  0.00     0.176 C 
BRANCH   9  13
ATOM     13  N   UNL A   1      30.745  23.985  24.674  1.00  0.00    -0.332 N 
ATOM     14  N   UNL A   1      32.186  23.537  26.567  1.00  0.00    -0.308 N 
ATOM     15  C   UNL A   1      31.049  23.875  25.958  1.00  0.00     0.319 C 
ATOM     16  H   UNL A   1      32.118  23.728  27.531  1.00  0.00     0.171 HD
ATOM     17  O   UNL A   1      30.110  24.170  26.716  1.00  0.00    -0.248 OA
ATOM     18  H   UNL A   1      29.777  24.156  24.612  1.00  0.00     0.165 HD
BRANCH  14  19
ATOM     19  C   UNL A   1      33.445  22.995  26.277  1.00  0.00     0.046 A 
ATOM     20  C   UNL A   1      34.917  19.698  25.001  1.00  0.00     0.044 C 
ATOM     21  C   UNL A   1      34.792  21.099  25.507  1.00  0.00    -0.046 A 
ATOM     22  C   UNL A   1      35.962  21.836  25.690  1.00  0.00     0.042 A 
ATOM     23  C   UNL A   1      33.538  21.677  25.815  1.00  0.00     0.029 A 
ATOM     24  C   UNL A   1      35.862  23.138  26.111  1.00  0.00     0.125 A 
ATOM     25  F   UNL A   1      36.966  23.876  26.281  1.00  0.00    -0.207 F 
ATOM     26  C   UNL A   1      34.619  23.696  26.365  1.00  0.00     0.065 A 
ENDBRANCH  14  19
ENDBRANCH   9  13
ENDBRANCH   5   8
ENDBRANCH   3   4
ENDBRANCH   2   3
ENDBRANCH   1   2
BRANCH   1  27
ATOM     27  C   UNL A   1      32.915  27.483  26.504  1.00  0.00     0.002 C 
BRANCH  27  28
ATOM     28  C   UNL A   1      33.512  28.686  27.260  1.00  0.00     0.021 C 
BRANCH  28  29
ATOM     29  C   UNL A   1      34.952  28.909  26.898  1.00  0.00     0.116 C 
BRANCH  29  30
ATOM     30  N   UNL A   1      35.353  30.261  27.250  1.00  0.00    -0.352 N 
ATOM     31  C   UNL A   1      36.319  30.614  28.162  1.00  0.00     0.251 C 
ATOM     32  H   UNL A   1      34.886  30.997  26.790  1.00  0.00     0.163 HD
ATOM     33  O   UNL A   1      36.289  31.676  28.754  1.00  0.00    -0.269 OA
BRANCH  31  34
ATOM     34  C   UNL A   1      37.423  29.664  28.343  1.00  0.00     0.039 A 
ATOM     35  C   UNL A   1      37.514  28.842  29.468  1.00  0.00     0.014 A 
ATOM     36  C   UNL A   1      38.419  29.674  27.371  1.00  0.00     0.014 A 
ATOM     37  C   UNL A   1      38.649  28.059  29.616  1.00  0.00     0.010 A 
ATOM     38  C   UNL A   1      39.370  28.716  27.373  1.00  0.00     0.010 A 
ATOM     39  C   UNL A   1      39.566  28.032  28.562  1.00  0.00    -0.014 A 
BRANCH  39  40
ATOM     40  C   UNL A   1      40.854  27.386  28.595  1.00  0.00     0.031 A 
ATOM     41  C   UNL A   1      40.885  25.953  28.365  1.00  0.00     0.074 A 
ATOM     42  C   UNL A   1      41.914  28.218  28.705  1.00  0.00     0.049 A 
ATOM     43  N   UNL A   1      41.698  25.152  28.947  1.00  0.00    -0.248 NA
ATOM     44  C   UNL A   1      39.898  25.274  27.525  1.00  0.00     0.031 C 
ATOM     45  C   UNL A   1      43.336  27.996  28.536  1.00  0.00     0.029 A 
ATOM     46  N   UNL A   1      41.843  29.557  29.142  1.00  0.00    -0.354 N 
ATOM     47  C   UNL A   1      41.637  23.987  28.220  1.00  0.00     0.074 A 
ATOM     48  C   UNL A   1      40.342  24.015  27.592  1.00  0.00     0.031 C 
ATOM     49  C   UNL A   1      43.996  28.978  29.185  1.00  0.00     0.029 A 
ATOM     50  C   UNL A   1      43.009  29.792  29.884  1.00  0.00     0.049 A 
ATOM     51  H   UNL A   1      41.118  30.198  28.962  1.00  0.00     0.167 HD
ATOM     52  C   UNL A   1      42.802  23.307  28.018  1.00  0.00     0.037 A 
ATOM     53  C   UNL A   1      42.855  29.922  31.238  1.00  0.00     0.037 A 
ATOM     54  C   UNL A   1      43.901  23.997  28.719  1.00  0.00     0.049 A 
ATOM     55  C   UNL A   1      43.353  28.700  31.980  1.00  0.00     0.074 A 
ATOM     56  C   UNL A   1      44.956  24.795  28.309  1.00  0.00     0.029 A 
ATOM     57  N   UNL A   1      43.788  24.204  30.083  1.00  0.00    -0.354 N 
ATOM     58  N   UNL A   1      43.721  27.593  31.393  1.00  0.00    -0.248 NA
ATOM     59  C   UNL A   1      43.444  28.612  33.432  1.00  0.00     0.031 C 
ATOM     60  C   UNL A   1      45.440  25.510  29.452  1.00  0.00     0.029 A 
ATOM     61  C   UNL A   1      44.697  25.128  30.555  1.00  0.00     0.049 A 
ATOM     62  H   UNL A   1      43.131  23.743  30.654  1.00  0.00     0.167 HD
ATOM     63  C   UNL A   1      44.136  26.684  32.320  1.00  0.00     0.074 A 
ATOM     64  C   UNL A   1      43.893  27.353  33.590  1.00  0.00     0.031 C 
ATOM     65  C   UNL A   1      44.656  25.466  31.972  1.00  0.00     0.037 A 
BRANCH  52  66
ATOM     66  C   UNL A   1      43.054  22.209  27.003  1.00  0.00     0.064 A 
ATOM     67  C   UNL A   1      42.324  21.003  27.107  1.00  0.00     0.173 A 
ATOM     68  C   UNL A   1      44.000  22.223  25.957  1.00  0.00     0.173 A 
ATOM     69  F   UNL A   1      41.342  20.859  28.008  1.00  0.00    -0.203 F 
ATOM     70  C   UNL A   1      42.570  19.896  26.288  1.00  0.00     0.198 A 
ATOM     71  C   UNL A   1      44.229  21.125  25.123  1.00  0.00     0.198 A 
ATOM     72  F   UNL A   1      44.759  23.283  25.682  1.00  0.00    -0.203 F 
ATOM     73  F   UNL A   1      41.870  18.768  26.470  1.00  0.00    -0.200 F 
ATOM     74  C   UNL A   1      43.528  19.955  25.298  1.00  0.00     0.200 A 
ATOM     75  F   UNL A   1      45.153  21.213  24.154  1.00  0.00    -0.200 F 
ATOM     76  F   UNL A   1      43.769  18.896  24.515  1.00  0.00    -0.200 F 
ENDBRANCH  52  66
BRANCH  53  77
ATOM     77  C   UNL A   1      41.632  30.737  31.560  1.00  0.00     0.064 A 
ATOM     78  C   UNL A   1      40.556  30.050  32.169  1.00  0.00     0.173 A 
ATOM     79  C   UNL A   1      41.689  32.125  31.749  1.00  0.00     0.173 A 
ATOM     80  F   UNL A   1      40.427  28.724  31.998  1.00  0.00    -0.203 F 
ATOM     81  C   UNL A   1      39.721  30.678  33.090  1.00  0.00     0.198 A 
ATOM     82  C   UNL A   1      40.808  32.761  32.633  1.00  0.00     0.198 A 
ATOM     83  F   UNL A   1      42.663  32.849  31.181  1.00  0.00    -0.203 F 
ATOM     84  F   UNL A   1      38.840  29.953  33.797  1.00  0.00    -0.200 F 
ATOM     85  C   UNL A   1      39.872  32.027  33.349  1.00  0.00     0.200 A 
ATOM     86  F   UNL A   1      40.924  34.079  32.853  1.00  0.00    -0.200 F 
ATOM     87  F   UNL A   1      39.145  32.601  34.318  1.00  0.00    -0.200 F 
ENDBRANCH  53  77
BRANCH  65  88
ATOM     88  C   UNL A   1      45.167  24.458  32.968  1.00  0.00     0.064 A 
ATOM     89  C   UNL A   1      44.368  23.422  33.471  1.00  0.00     0.173 A 
ATOM     90  C   UNL A   1      46.462  24.556  33.533  1.00  0.00     0.173 A 
ATOM     91  F   UNL A   1      43.074  23.320  33.133  1.00  0.00    -0.203 F 
ATOM     92  C   UNL A   1      44.869  22.478  34.369  1.00  0.00     0.198 A 
ATOM     93  C   UNL A   1      46.935  23.656  34.480  1.00  0.00     0.198 A 
ATOM     94  F   UNL A   1      47.330  25.512  33.179  1.00  0.00    -0.203 F 
ATOM     95  F   UNL A   1      44.096  21.453  34.749  1.00  0.00    -0.200 F 
ATOM     96  C   UNL A   1      46.152  22.595  34.872  1.00  0.00     0.200 A 
ATOM     97  F   UNL A   1      48.162  23.821  34.994  1.00  0.00    -0.200 F 
ATOM     98  F   UNL A   1      46.628  21.694  35.739  1.00  0.00    -0.200 F 
ENDBRANCH  65  88
ENDBRANCH  39  40
ENDBRANCH  31  34
ENDBRANCH  29  30
ENDBRANCH  28  29
ENDBRANCH  27  28
ENDBRANCH   1  27
TORSDOF 15
ENDMDL
MODEL 3
REMARK VINA RESULT:     -13.3      4.096     10.571
REMARK SMILES Cc1cc(F)cc(NC(=O)N[C@@H]2COC[C@H]2C(=O)NCCCCCCNC(=O)c2ccc(-c3c4nc(c(-c5c(F)c(F)c(F)c(F)c5F)c5ccc([nH]5)c(-c5c(F)c(F)c(F)c(F)c5F)c5nc(c(-c6c(F)c(F)c(F)c(F)c6F)c6ccc3[nH]6)C=C5)C=C4)cc2)c1
REMARK SMILES IDX 22 1 21 2 20 3 19 4 17 5 18 6 16 8 12 9 13 10 14 11 15 12
REMARK SMILES IDX 11 13 8 14 9 15 10 17 7 19 1 20 2 21 3 22 92 23 4 24 5 25
REMARK SMILES IDX 6 26 23 27 24 28 25 29 26 30 27 31 28 33 29 34 30 35 91 36
REMARK SMILES IDX 31 37 90 38 32 39 33 40 34 41 84 42 35 43 89 44 83 45 85 46
REMARK SMILES IDX 36 47 88 48 82 49 81 50 37 52 69 53 49 54 68 55 50 56 53 57
REMARK SMILES IDX 67 58 86 59 51 60 52 61 66 63 87 64 54 65 38 66 39 67 47 68
REMARK SMILES IDX 40 69 41 70 45 71 48 72 42 73 43 74 46 75 44 76 70 77 71 78
REMARK SMILES IDX 79 79 72 80 73 81 77 82 80 83 74 84 75 85 78 86 76 87 55 88
REMARK SMILES IDX 56 89 64 90 57 91 58 92 62 93 65 94 59 95 60 96 63 97 61 98
REMARK H PARENT 19 7 8 16 11 18 26 32 85 51 53 62
REMARK Flexibility Score: inf
ROOT
ATOM      1  C   UNL A   1      32.215  28.095  25.040  1.00  0.00     0.002 C 
ENDROOT
BRANCH   1   2
ATOM      2  C   UNL A   1      33.314  27.583  24.121  1.00  0.00     0.021 C 
BRANCH   2   3
ATOM      3  C   UNL A   1      33.767  26.192  24.505  1.00  0.00     0.116 C 
BRANCH   3   4
ATOM      4  N   UNL A   1      33.758  25.294  23.377  1.00  0.00    -0.356 N 
ATOM      5  C   UNL A   1      34.424  24.121  23.211  1.00  0.00     0.227 C 
ATOM      6  O   UNL A   1      34.249  23.501  22.162  1.00  0.00    -0.275 OA
ATOM      7  H   UNL A   1      33.190  25.569  22.621  1.00  0.00     0.163 HD
BRANCH   5   8
ATOM      8  C   UNL A   1      35.349  23.598  24.292  1.00  0.00     0.129 C 
ATOM      9  C   UNL A   1      34.977  22.206  24.772  1.00  0.00     0.124 C 
ATOM     10  C   UNL A   1      36.216  21.330  24.599  1.00  0.00     0.186 C 
ATOM     11  O   UNL A   1      37.227  22.123  23.944  1.00  0.00    -0.378 OA
ATOM     12  C   UNL A   1      36.774  23.481  23.766  1.00  0.00     0.176 C 
BRANCH   9  13
ATOM     13  N   UNL A   1      34.260  22.105  26.048  1.00  0.00    -0.332 N 
ATOM     14  N   UNL A   1      33.089  20.072  26.647  1.00  0.00    -0.308 N 
ATOM     15  C   UNL A   1      33.557  21.306  26.837  1.00  0.00     0.319 C 
ATOM     16  H   UNL A   1      32.764  19.704  27.501  1.00  0.00     0.171 HD
ATOM     17  O   UNL A   1      33.325  21.794  27.955  1.00  0.00    -0.248 OA
ATOM     18  H   UNL A   1      34.329  22.979  26.497  1.00  0.00     0.165 HD
BRANCH  14  19
ATOM     19  C   UNL A   1      32.911  19.132  25.625  1.00  0.00     0.046 A 
ATOM     20  C   UNL A   1      32.818  15.325  25.222  1.00  0.00     0.044 C 
ATOM     21  C   UNL A   1      32.780  16.789  24.922  1.00  0.00    -0.046 A 
ATOM     22  C   UNL A   1      32.575  17.181  23.599  1.00  0.00     0.042 A 
ATOM     23  C   UNL A   1      32.961  17.766  25.928  1.00  0.00     0.029 A 
ATOM     24  C   UNL A   1      32.493  18.520  23.314  1.00  0.00     0.125 A 
ATOM     25  F   UNL A   1      32.281  18.927  22.056  1.00  0.00    -0.207 F 
ATOM     26  C   UNL A   1      32.630  19.458  24.324  1.00  0.00     0.065 A 
ENDBRANCH  14  19
ENDBRANCH   9  13
ENDBRANCH   5   8
ENDBRANCH   3   4
ENDBRANCH   2   3
ENDBRANCH   1   2
BRANCH   1  27
ATOM     27  C   UNL A   1      32.662  29.213  26.000  1.00  0.00     0.002 C 
BRANCH  27  28
ATOM     28  C   UNL A   1      33.481  28.773  27.227  1.00  0.00     0.021 C 
BRANCH  28  29
ATOM     29  C   UNL A   1      34.953  28.983  27.014  1.00  0.00     0.116 C 
BRANCH  29  30
ATOM     30  N   UNL A   1      35.332  30.326  27.423  1.00  0.00    -0.352 N 
ATOM     31  C   UNL A   1      36.284  30.656  28.358  1.00  0.00     0.251 C 
ATOM     32  H   UNL A   1      34.859  31.073  26.988  1.00  0.00     0.163 HD
ATOM     33  O   UNL A   1      36.233  31.694  28.990  1.00  0.00    -0.269 OA
BRANCH  31  34
ATOM     34  C   UNL A   1      37.399  29.714  28.514  1.00  0.00     0.039 A 
ATOM     35  C   UNL A   1      37.509  28.877  29.625  1.00  0.00     0.014 A 
ATOM     36  C   UNL A   1      38.385  29.750  27.532  1.00  0.00     0.014 A 
ATOM     37  C   UNL A   1      38.654  28.103  29.750  1.00  0.00     0.010 A 
ATOM     38  C   UNL A   1      39.346  28.802  27.510  1.00  0.00     0.010 A 
ATOM     39  C   UNL A   1      39.560  28.102  28.687  1.00  0.00    -0.014 A 
BRANCH  39  40
ATOM     40  C   UNL A   1      40.855  27.468  28.697  1.00  0.00     0.031 A 
ATOM     41  C   UNL A   1      40.897  26.038  28.456  1.00  0.00     0.074 A 
ATOM     42  C   UNL A   1      41.908  28.311  28.800  1.00  0.00     0.049 A 
ATOM     43  N   UNL A   1      41.726  25.240  29.020  1.00  0.00    -0.248 NA
ATOM     44  C   UNL A   1      39.906  25.355  27.623  1.00  0.00     0.031 C 
ATOM     45  C   UNL A   1      43.330  28.104  28.610  1.00  0.00     0.029 A 
ATOM     46  N   UNL A   1      41.829  29.645  29.249  1.00  0.00    -0.354 N 
ATOM     47  C   UNL A   1      41.667  24.081  28.284  1.00  0.00     0.074 A 
ATOM     48  C   UNL A   1      40.363  24.100  27.674  1.00  0.00     0.031 C 
ATOM     49  C   UNL A   1      43.988  29.088  29.258  1.00  0.00     0.029 A 
ATOM     50  C   UNL A   1      43.003  29.886  29.977  1.00  0.00     0.049 A 
ATOM     51  H   UNL A   1      41.096  30.280  29.084  1.00  0.00     0.167 HD
ATOM     52  C   UNL A   1      42.836  23.414  28.061  1.00  0.00     0.037 A 
ATOM     53  C   UNL A   1      42.866  30.004  31.334  1.00  0.00     0.037 A 
ATOM     54  C   UNL A   1      43.938  24.109  28.753  1.00  0.00     0.049 A 
ATOM     55  C   UNL A   1      43.387  28.781  32.059  1.00  0.00     0.074 A 
ATOM     56  C   UNL A   1      44.978  24.921  28.335  1.00  0.00     0.029 A 
ATOM     57  N   UNL A   1      43.841  24.305  30.120  1.00  0.00    -0.354 N 
ATOM     58  N   UNL A   1      43.758  27.682  31.458  1.00  0.00    -0.248 NA
ATOM     59  C   UNL A   1      43.499  28.683  33.509  1.00  0.00     0.031 C 
ATOM     60  C   UNL A   1      45.471  25.632  29.477  1.00  0.00     0.029 A 
ATOM     61  C   UNL A   1      44.747  25.234  30.587  1.00  0.00     0.049 A 
ATOM     62  H   UNL A   1      43.197  23.832  30.696  1.00  0.00     0.167 HD
ATOM     63  C   UNL A   1      44.195  26.770  32.372  1.00  0.00     0.074 A 
ATOM     64  C   UNL A   1      43.962  27.427  33.651  1.00  0.00     0.031 C 
ATOM     65  C   UNL A   1      44.722  25.561  32.008  1.00  0.00     0.037 A 
BRANCH  52  66
ATOM     66  C   UNL A   1      43.085  22.327  27.034  1.00  0.00     0.064 A 
ATOM     67  C   UNL A   1      42.378  21.109  27.145  1.00  0.00     0.173 A 
ATOM     68  C   UNL A   1      44.009  22.363  25.969  1.00  0.00     0.173 A 
ATOM     69  F   UNL A   1      41.417  20.943  28.065  1.00  0.00    -0.203 F 
ATOM     70  C   UNL A   1      42.624  20.011  26.314  1.00  0.00     0.198 A 
ATOM     71  C   UNL A   1      44.240  21.274  25.124  1.00  0.00     0.198 A 
ATOM     72  F   UNL A   1      44.745  23.437  25.686  1.00  0.00    -0.203 F 
ATOM     73  F   UNL A   1      41.947  18.870  26.503  1.00  0.00    -0.200 F 
ATOM     74  C   UNL A   1      43.561  20.091  25.305  1.00  0.00     0.200 A 
ATOM     75  F   UNL A   1      45.142  21.383  24.136  1.00  0.00    -0.200 F 
ATOM     76  F   UNL A   1      43.803  19.042  24.511  1.00  0.00    -0.200 F 
ENDBRANCH  52  66
BRANCH  53  77
ATOM     77  C   UNL A   1      41.640  30.804  31.678  1.00  0.00     0.064 A 
ATOM     78  C   UNL A   1      40.580  30.101  32.297  1.00  0.00     0.173 A 
ATOM     79  C   UNL A   1      41.685  32.191  31.877  1.00  0.00     0.173 A 
ATOM     80  F   UNL A   1      40.462  28.776  32.118  1.00  0.00    -0.203 F 
ATOM     81  C   UNL A   1      39.751  30.714  33.234  1.00  0.00     0.198 A 
ATOM     82  C   UNL A   1      40.811  32.812  32.778  1.00  0.00     0.198 A 
ATOM     83  F   UNL A   1      42.644  32.928  31.300  1.00  0.00    -0.203 F 
ATOM     84  F   UNL A   1      38.889  29.976  33.949  1.00  0.00    -0.200 F 
ATOM     85  C   UNL A   1      39.892  32.063  33.501  1.00  0.00     0.200 A 
ATOM     86  F   UNL A   1      40.916  34.129  33.005  1.00  0.00    -0.200 F 
ATOM     87  F   UNL A   1      39.173  32.622  34.485  1.00  0.00    -0.200 F 
ENDBRANCH  53  77
BRANCH  65  88
ATOM     88  C   UNL A   1      45.256  24.550  32.988  1.00  0.00     0.064 A 
ATOM     89  C   UNL A   1      46.548  24.626  33.524  1.00  0.00     0.173 A 
ATOM     90  C   UNL A   1      44.514  23.400  33.352  1.00  0.00     0.173 A 
ATOM     91  F   UNL A   1      47.404  25.581  33.131  1.00  0.00    -0.203 F 
ATOM     92  C   UNL A   1      47.013  23.696  34.455  1.00  0.00     0.198 A 
ATOM     93  C   UNL A   1      45.006  22.438  34.227  1.00  0.00     0.198 A 
ATOM     94  F   UNL A   1      43.276  23.168  32.897  1.00  0.00    -0.203 F 
ATOM     95  F   UNL A   1      48.221  23.864  35.008  1.00  0.00    -0.200 F 
ATOM     96  C   UNL A   1      46.243  22.604  34.806  1.00  0.00     0.200 A 
ATOM     97  F   UNL A   1      44.262  21.359  34.510  1.00  0.00    -0.200 F 
ATOM     98  F   UNL A   1      46.693  21.709  35.694  1.00  0.00    -0.200 F 
ENDBRANCH  65  88
ENDBRANCH  39  40
ENDBRANCH  31  34
ENDBRANCH  29  30
ENDBRANCH  28  29
ENDBRANCH  27  28
ENDBRANCH   1  27
TORSDOF 15
ENDMDL
