MODEL 1
REMARK VINA RESULT:     -11.5      0.000      0.000
REMARK SMILES Cc1cc([C@H](O)C[C@@H](C)CC(=O)NCCCCCCNC(=O)c2ccc(-c3c4nc(c(-c5c(F)c(F)c(F)c(F)c5F)c5ccc([nH]5)c(-c5c(F)c(F)c(F)c(F)c5F)c5nc(c(-c6c(F)c(F)c(F)c(F)c6F)c6ccc3[nH]6)C=C5)C=C4)cc2)sc1Br
REMARK SMILES IDX 15 1 14 2 13 3 11 4 12 5 10 7 8 8 9 9 7 10 5 11 4 12 1 13
REMARK SMILES IDX 2 14 3 15 87 16 86 17 88 18 6 19 16 21 17 22 18 23 19 24
REMARK SMILES IDX 20 25 21 26 22 28 23 29 24 30 85 31 25 32 84 33 26 34 27 35
REMARK SMILES IDX 28 36 78 37 29 38 83 39 77 40 79 41 30 42 82 43 76 44 75 45
REMARK SMILES IDX 31 47 63 48 43 49 62 50 44 51 47 52 61 53 80 54 45 55 46 56
REMARK SMILES IDX 60 58 81 59 48 60 32 61 33 62 41 63 34 64 35 65 39 66 42 67
REMARK SMILES IDX 36 68 37 69 40 70 38 71 64 72 65 73 73 74 66 75 67 76 71 77
REMARK SMILES IDX 74 78 68 79 69 80 72 81 70 82 49 83 50 84 58 85 51 86 52 87
REMARK SMILES IDX 56 88 59 89 53 90 54 91 57 92 55 93
REMARK H PARENT 13 6 6 20 20 27 79 46 47 57
REMARK Flexibility Score: inf
ROOT
ATOM      1  C   UNL A   1      39.121  21.736  25.952  1.00  0.00     0.021 C 
ENDROOT
BRANCH   1   2
ATOM      2  C   UNL A   1      38.229  22.983  26.076  1.00  0.00     0.116 C 
BRANCH   2   3
ATOM      3  N   UNL A   1      37.641  23.321  24.791  1.00  0.00    -0.356 N 
ATOM      4  C   UNL A   1      36.785  22.629  23.987  1.00  0.00     0.220 C 
ATOM      5  O   UNL A   1      36.581  23.062  22.852  1.00  0.00    -0.275 OA
ATOM      6  H   UNL A   1      37.905  24.202  24.441  1.00  0.00     0.163 HD
BRANCH   4   7
ATOM      7  C   UNL A   1      36.066  21.379  24.474  1.00  0.00     0.103 C 
BRANCH   7   8
ATOM      8  C   UNL A   1      34.662  21.626  25.069  1.00  0.00    -0.002 C 
ATOM      9  C   UNL A   1      34.750  21.655  26.600  1.00  0.00     0.008 C 
BRANCH   8  10
ATOM     10  C   UNL A   1      33.702  20.513  24.630  1.00  0.00     0.041 C 
BRANCH  10  11
ATOM     11  C   UNL A   1      32.254  20.914  24.368  1.00  0.00     0.155 C 
BRANCH  11  12
ATOM     12  C   UNL A   1      32.134  22.351  23.937  1.00  0.00     0.035 A 
ATOM     13  C   UNL A   1      32.660  25.279  21.618  1.00  0.00     0.046 C 
ATOM     14  C   UNL A   1      32.223  24.383  22.730  1.00  0.00    -0.026 A 
ATOM     15  C   UNL A   1      32.655  23.017  22.841  1.00  0.00     0.022 A 
ATOM     16  C   UNL A   1      31.355  24.660  23.766  1.00  0.00     0.073 A 
ATOM     17  S   UNL A   1      31.165  23.400  24.877  1.00  0.00    -0.130 S 
ATOM     18  Br  UNL A   1      30.370  26.225  24.002  1.00  0.00    -0.039 Br
ENDBRANCH  11  12
BRANCH  11  19
ATOM     19  O   UNL A   1      31.520  20.799  25.583  1.00  0.00    -0.388 OA
ATOM     20  H   UNL A   1      31.543  19.879  25.889  1.00  0.00     0.211 HD
ENDBRANCH  11  19
ENDBRANCH  10  11
ENDBRANCH   8  10
ENDBRANCH   7   8
ENDBRANCH   4   7
ENDBRANCH   2   3
ENDBRANCH   1   2
BRANCH   1  21
ATOM     21  C   UNL A   1      40.500  21.831  26.600  1.00  0.00     0.002 C 
BRANCH  21  22
ATOM     22  C   UNL A   1      41.079  20.510  27.121  1.00  0.00     0.002 C 
BRANCH  22  23
ATOM     23  C   UNL A   1      41.687  19.563  26.075  1.00  0.00     0.021 C 
BRANCH  23  24
ATOM     24  C   UNL A   1      43.113  19.133  26.382  1.00  0.00     0.116 C 
BRANCH  24  25
ATOM     25  N   UNL A   1      43.961  19.083  25.193  1.00  0.00    -0.352 N 
ATOM     26  C   UNL A   1      44.403  20.133  24.407  1.00  0.00     0.251 C 
ATOM     27  H   UNL A   1      44.256  18.186  24.914  1.00  0.00     0.163 HD
ATOM     28  O   UNL A   1      44.814  19.947  23.276  1.00  0.00    -0.269 OA
BRANCH  26  29
ATOM     29  C   UNL A   1      44.365  21.496  24.971  1.00  0.00     0.039 A 
ATOM     30  C   UNL A   1      43.450  22.448  24.516  1.00  0.00     0.014 A 
ATOM     31  C   UNL A   1      45.260  21.807  25.988  1.00  0.00     0.014 A 
ATOM     32  C   UNL A   1      43.403  23.692  25.145  1.00  0.00     0.010 A 
ATOM     33  C   UNL A   1      45.086  22.951  26.721  1.00  0.00     0.010 A 
ATOM     34  C   UNL A   1      44.209  23.933  26.271  1.00  0.00    -0.014 A 
BRANCH  34  35
ATOM     35  C   UNL A   1      44.062  25.160  27.061  1.00  0.00     0.031 A 
ATOM     36  C   UNL A   1      45.097  26.215  26.792  1.00  0.00     0.074 A 
ATOM     37  C   UNL A   1      42.950  25.397  27.802  1.00  0.00     0.049 A 
ATOM     38  N   UNL A   1      45.752  26.938  27.641  1.00  0.00    -0.248 NA
ATOM     39  C   UNL A   1      45.504  26.468  25.396  1.00  0.00     0.031 C 
ATOM     40  C   UNL A   1      41.743  24.566  27.947  1.00  0.00     0.029 A 
ATOM     41  N   UNL A   1      42.610  26.503  28.522  1.00  0.00    -0.354 N 
ATOM     42  C   UNL A   1      46.524  27.837  26.899  1.00  0.00     0.074 A 
ATOM     43  C   UNL A   1      46.368  27.477  25.519  1.00  0.00     0.031 C 
ATOM     44  C   UNL A   1      40.735  25.294  28.478  1.00  0.00     0.029 A 
ATOM     45  C   UNL A   1      41.267  26.574  28.896  1.00  0.00     0.049 A 
ATOM     46  H   UNL A   1      43.263  27.199  28.762  1.00  0.00     0.167 HD
ATOM     47  C   UNL A   1      47.109  28.914  27.494  1.00  0.00     0.037 A 
ATOM     48  C   UNL A   1      40.636  27.609  29.505  1.00  0.00     0.037 A 
ATOM     49  C   UNL A   1      47.349  28.641  28.887  1.00  0.00     0.049 A 
ATOM     50  C   UNL A   1      41.690  28.458  30.107  1.00  0.00     0.074 A 
ATOM     51  C   UNL A   1      48.092  27.681  29.547  1.00  0.00     0.029 A 
ATOM     52  N   UNL A   1      46.468  29.129  29.820  1.00  0.00    -0.354 N 
ATOM     53  N   UNL A   1      42.439  28.086  31.105  1.00  0.00    -0.248 NA
ATOM     54  C   UNL A   1      42.216  29.534  29.284  1.00  0.00     0.031 C 
ATOM     55  C   UNL A   1      47.271  27.275  30.638  1.00  0.00     0.029 A 
ATOM     56  C   UNL A   1      46.131  28.078  30.636  1.00  0.00     0.049 A 
ATOM     57  H   UNL A   1      46.142  30.055  29.890  1.00  0.00     0.167 HD
ATOM     58  C   UNL A   1      43.702  28.552  30.779  1.00  0.00     0.074 A 
ATOM     59  C   UNL A   1      43.490  29.494  29.679  1.00  0.00     0.031 C 
ATOM     60  C   UNL A   1      44.825  27.921  31.228  1.00  0.00     0.037 A 
BRANCH  47  61
ATOM     61  C   UNL A   1      47.105  30.315  26.924  1.00  0.00     0.064 A 
ATOM     62  C   UNL A   1      48.293  31.074  26.964  1.00  0.00     0.173 A 
ATOM     63  C   UNL A   1      45.931  31.050  26.665  1.00  0.00     0.173 A 
ATOM     64  F   UNL A   1      49.478  30.480  27.165  1.00  0.00    -0.203 F 
ATOM     65  C   UNL A   1      48.281  32.471  26.898  1.00  0.00     0.198 A 
ATOM     66  C   UNL A   1      45.921  32.443  26.586  1.00  0.00     0.198 A 
ATOM     67  F   UNL A   1      44.740  30.460  26.551  1.00  0.00    -0.203 F 
ATOM     68  F   UNL A   1      49.421  33.154  27.067  1.00  0.00    -0.200 F 
ATOM     69  C   UNL A   1      47.091  33.155  26.739  1.00  0.00     0.200 A 
ATOM     70  F   UNL A   1      44.756  33.088  26.433  1.00  0.00    -0.200 F 
ATOM     71  F   UNL A   1      47.066  34.495  26.764  1.00  0.00    -0.200 F 
ENDBRANCH  47  61
BRANCH  48  72
ATOM     72  C   UNL A   1      39.238  28.094  29.376  1.00  0.00     0.064 A 
ATOM     73  C   UNL A   1      38.435  28.274  30.518  1.00  0.00     0.173 A 
ATOM     74  C   UNL A   1      38.777  28.692  28.189  1.00  0.00     0.173 A 
ATOM     75  F   UNL A   1      38.814  27.761  31.697  1.00  0.00    -0.203 F 
ATOM     76  C   UNL A   1      37.273  29.052  30.487  1.00  0.00     0.198 A 
ATOM     77  C   UNL A   1      37.613  29.467  28.159  1.00  0.00     0.198 A 
ATOM     78  F   UNL A   1      39.497  28.623  27.062  1.00  0.00    -0.203 F 
ATOM     79  F   UNL A   1      36.579  29.265  31.614  1.00  0.00    -0.200 F 
ATOM     80  C   UNL A   1      36.874  29.663  29.311  1.00  0.00     0.200 A 
ATOM     81  F   UNL A   1      37.250  30.080  27.023  1.00  0.00    -0.200 F 
ATOM     82  F   UNL A   1      35.805  30.472  29.297  1.00  0.00    -0.200 F 
ENDBRANCH  48  72
BRANCH  60  83
ATOM     83  C   UNL A   1      44.668  26.836  32.261  1.00  0.00     0.064 A 
ATOM     84  C   UNL A   1      44.484  27.062  33.638  1.00  0.00     0.173 A 
ATOM     85  C   UNL A   1      44.550  25.514  31.812  1.00  0.00     0.173 A 
ATOM     86  F   UNL A   1      44.479  28.300  34.144  1.00  0.00    -0.203 F 
ATOM     87  C   UNL A   1      44.236  26.011  34.521  1.00  0.00     0.198 A 
ATOM     88  C   UNL A   1      44.265  24.472  32.689  1.00  0.00     0.198 A 
ATOM     89  F   UNL A   1      44.663  25.238  30.503  1.00  0.00    -0.203 F 
ATOM     90  F   UNL A   1      44.076  26.255  35.830  1.00  0.00    -0.200 F 
ATOM     91  C   UNL A   1      44.120  24.717  34.044  1.00  0.00     0.200 A 
ATOM     92  F   UNL A   1      44.102  23.229  32.213  1.00  0.00    -0.200 F 
ATOM     93  F   UNL A   1      43.841  23.712  34.885  1.00  0.00    -0.200 F 
ENDBRANCH  60  83
ENDBRANCH  34  35
ENDBRANCH  26  29
ENDBRANCH  24  25
ENDBRANCH  23  24
ENDBRANCH  22  23
ENDBRANCH  21  22
ENDBRANCH   1  21
TORSDOF 18
ENDMDL
MODEL 2
REMARK VINA RESULT:     -11.2      1.348      2.042
REMARK SMILES Cc1cc([C@H](O)C[C@@H](C)CC(=O)NCCCCCCNC(=O)c2ccc(-c3c4nc(c(-c5c(F)c(F)c(F)c(F)c5F)c5ccc([nH]5)c(-c5c(F)c(F)c(F)c(F)c5F)c5nc(c(-c6c(F)c(F)c(F)c(F)c6F)c6ccc3[nH]6)C=C5)C=C4)cc2)sc1Br
REMARK SMILES IDX 15 1 14 2 13 3 11 4 12 5 10 7 8 8 9 9 7 10 5 11 4 12 1 13
REMARK SMILES IDX 2 14 3 15 87 16 86 17 88 18 6 19 16 21 17 22 18 23 19 24
REMARK SMILES IDX 20 25 21 26 22 28 23 29 24 30 85 31 25 32 84 33 26 34 27 35
REMARK SMILES IDX 28 36 78 37 29 38 83 39 77 40 79 41 30 42 82 43 76 44 75 45
REMARK SMILES IDX 31 47 63 48 43 49 62 50 44 51 47 52 61 53 80 54 45 55 46 56
REMARK SMILES IDX 60 58 81 59 48 60 32 61 33 62 41 63 34 64 35 65 39 66 42 67
REMARK SMILES IDX 36 68 37 69 40 70 38 71 64 72 65 73 73 74 66 75 67 76 71 77
REMARK SMILES IDX 74 78 68 79 69 80 72 81 70 82 49 83 50 84 58 85 51 86 52 87
REMARK SMILES IDX 56 88 59 89 53 90 54 91 57 92 55 93
REMARK H PARENT 13 6 6 20 20 27 79 46 47 57
REMARK Flexibility Score: inf
ROOT
ATOM      1  C   UNL A   1      38.891  22.776  26.384  1.00  0.00     0.021 C 
ENDROOT
BRANCH   1   2
ATOM      2  C   UNL A   1      37.759  22.224  25.501  1.00  0.00     0.116 C 
BRANCH   2   3
ATOM      3  N   UNL A   1      36.604  21.874  26.310  1.00  0.00    -0.356 N 
ATOM      4  C   UNL A   1      35.286  21.748  25.984  1.00  0.00     0.220 C 
ATOM      5  O   UNL A   1      34.473  21.621  26.901  1.00  0.00    -0.275 OA
ATOM      6  H   UNL A   1      36.807  21.697  27.257  1.00  0.00     0.163 HD
BRANCH   4   7
ATOM      7  C   UNL A   1      34.821  21.724  24.534  1.00  0.00     0.103 C 
BRANCH   7   8
ATOM      8  C   UNL A   1      33.301  21.522  24.343  1.00  0.00    -0.002 C 
ATOM      9  C   UNL A   1      32.986  20.023  24.282  1.00  0.00     0.008 C 
BRANCH   8  10
ATOM     10  C   UNL A   1      32.841  22.198  23.045  1.00  0.00     0.041 C 
BRANCH  10  11
ATOM     11  C   UNL A   1      33.647  23.403  22.572  1.00  0.00     0.155 C 
BRANCH  11  12
ATOM     12  C   UNL A   1      33.274  24.659  23.312  1.00  0.00     0.035 A 
ATOM     13  C   UNL A   1      33.653  27.288  25.991  1.00  0.00     0.046 C 
ATOM     14  C   UNL A   1      33.225  26.500  24.796  1.00  0.00    -0.026 A 
ATOM     15  C   UNL A   1      33.800  25.227  24.461  1.00  0.00     0.022 A 
ATOM     16  C   UNL A   1      32.293  26.834  23.836  1.00  0.00     0.073 A 
ATOM     17  S   UNL A   1      32.030  25.640  22.669  1.00  0.00    -0.130 S 
ATOM     18  Br  UNL A   1      31.377  28.452  23.691  1.00  0.00    -0.039 Br
ENDBRANCH  11  12
BRANCH  11  19
ATOM     19  O   UNL A   1      33.348  23.645  21.201  1.00  0.00    -0.388 OA
ATOM     20  H   UNL A   1      33.498  22.834  20.689  1.00  0.00     0.211 HD
ENDBRANCH  11  19
ENDBRANCH  10  11
ENDBRANCH   8  10
ENDBRANCH   7   8
ENDBRANCH   4   7
ENDBRANCH   2   3
ENDBRANCH   1   2
BRANCH   1  21
ATOM     21  C   UNL A   1      40.051  21.824  26.661  1.00  0.00     0.002 C 
BRANCH  21  22
ATOM     22  C   UNL A   1      40.075  20.544  25.818  1.00  0.00     0.002 C 
BRANCH  22  23
ATOM     23  C   UNL A   1      40.970  19.401  26.324  1.00  0.00     0.021 C 
BRANCH  23  24
ATOM     24  C   UNL A   1      42.335  19.856  26.818  1.00  0.00     0.116 C 
BRANCH  24  25
ATOM     25  N   UNL A   1      43.386  19.693  25.816  1.00  0.00    -0.352 N 
ATOM     26  C   UNL A   1      44.022  20.672  25.072  1.00  0.00     0.251 C 
ATOM     27  H   UNL A   1      43.680  18.769  25.648  1.00  0.00     0.163 HD
ATOM     28  O   UNL A   1      44.627  20.396  24.051  1.00  0.00    -0.269 OA
BRANCH  26  29
ATOM     29  C   UNL A   1      43.952  22.068  25.542  1.00  0.00     0.039 A 
ATOM     30  C   UNL A   1      43.038  22.975  24.999  1.00  0.00     0.014 A 
ATOM     31  C   UNL A   1      44.814  22.459  26.559  1.00  0.00     0.014 A 
ATOM     32  C   UNL A   1      42.958  24.257  25.543  1.00  0.00     0.010 A 
ATOM     33  C   UNL A   1      44.607  23.647  27.209  1.00  0.00     0.010 A 
ATOM     34  C   UNL A   1      43.730  24.584  26.671  1.00  0.00    -0.014 A 
BRANCH  34  35
ATOM     35  C   UNL A   1      43.546  25.858  27.372  1.00  0.00     0.031 A 
ATOM     36  C   UNL A   1      44.540  26.928  27.017  1.00  0.00     0.074 A 
ATOM     37  C   UNL A   1      42.434  26.109  28.108  1.00  0.00     0.049 A 
ATOM     38  N   UNL A   1      45.177  27.732  27.804  1.00  0.00    -0.248 NA
ATOM     39  C   UNL A   1      44.925  27.093  25.602  1.00  0.00     0.031 C 
ATOM     40  C   UNL A   1      41.259  25.249  28.326  1.00  0.00     0.029 A 
ATOM     41  N   UNL A   1      42.060  27.251  28.752  1.00  0.00    -0.354 N 
ATOM     42  C   UNL A   1      45.909  28.602  26.991  1.00  0.00     0.074 A 
ATOM     43  C   UNL A   1      45.753  28.139  25.642  1.00  0.00     0.031 C 
ATOM     44  C   UNL A   1      40.231  25.976  28.816  1.00  0.00     0.029 A 
ATOM     45  C   UNL A   1      40.720  27.302  29.135  1.00  0.00     0.049 A 
ATOM     46  H   UNL A   1      42.690  27.986  28.933  1.00  0.00     0.167 HD
ATOM     47  C   UNL A   1      46.460  29.739  27.499  1.00  0.00     0.037 A 
ATOM     48  C   UNL A   1      40.057  28.355  29.676  1.00  0.00     0.037 A 
ATOM     49  C   UNL A   1      46.723  29.576  28.906  1.00  0.00     0.049 A 
ATOM     50  C   UNL A   1      41.086  29.282  30.203  1.00  0.00     0.074 A 
ATOM     51  C   UNL A   1      47.507  28.692  29.624  1.00  0.00     0.029 A 
ATOM     52  N   UNL A   1      45.834  30.098  29.812  1.00  0.00    -0.354 N 
ATOM     53  N   UNL A   1      41.858  29.009  31.216  1.00  0.00    -0.248 NA
ATOM     54  C   UNL A   1      41.565  30.313  29.299  1.00  0.00     0.031 C 
ATOM     55  C   UNL A   1      46.711  28.337  30.751  1.00  0.00     0.029 A 
ATOM     56  C   UNL A   1      45.542  29.098  30.705  1.00  0.00     0.049 A 
ATOM     57  H   UNL A   1      45.476  31.015  29.820  1.00  0.00     0.167 HD
ATOM     58  C   UNL A   1      43.099  29.495  30.843  1.00  0.00     0.074 A 
ATOM     59  C   UNL A   1      42.844  30.347  29.681  1.00  0.00     0.031 C 
ATOM     60  C   UNL A   1      44.248  28.938  31.322  1.00  0.00     0.037 A 
BRANCH  47  61
ATOM     61  C   UNL A   1      46.401  31.094  26.831  1.00  0.00     0.064 A 
ATOM     62  C   UNL A   1      47.564  31.890  26.790  1.00  0.00     0.173 A 
ATOM     63  C   UNL A   1      45.198  31.773  26.547  1.00  0.00     0.173 A 
ATOM     64  F   UNL A   1      48.771  31.347  27.007  1.00  0.00    -0.203 F 
ATOM     65  C   UNL A   1      47.507  33.278  26.624  1.00  0.00     0.198 A 
ATOM     66  C   UNL A   1      45.144  33.156  26.368  1.00  0.00     0.198 A 
ATOM     67  F   UNL A   1      44.025  31.141  26.502  1.00  0.00    -0.203 F 
ATOM     68  F   UNL A   1      48.628  34.005  26.718  1.00  0.00    -0.200 F 
ATOM     69  C   UNL A   1      46.293  33.912  26.444  1.00  0.00     0.200 A 
ATOM     70  F   UNL A   1      43.956  33.753  26.195  1.00  0.00    -0.200 F 
ATOM     71  F   UNL A   1      46.226  35.249  26.373  1.00  0.00    -0.200 F 
ENDBRANCH  47  61
BRANCH  48  72
ATOM     72  C   UNL A   1      38.642  28.780  29.530  1.00  0.00     0.064 A 
ATOM     73  C   UNL A   1      37.854  29.048  30.665  1.00  0.00     0.173 A 
ATOM     74  C   UNL A   1      38.139  29.241  28.299  1.00  0.00     0.173 A 
ATOM     75  F   UNL A   1      38.271  28.668  31.881  1.00  0.00    -0.203 F 
ATOM     76  C   UNL A   1      36.666  29.782  30.581  1.00  0.00     0.198 A 
ATOM     77  C   UNL A   1      36.950  29.971  28.217  1.00  0.00     0.198 A 
ATOM     78  F   UNL A   1      38.841  29.081  27.169  1.00  0.00    -0.203 F 
ATOM     79  F   UNL A   1      35.986  30.084  31.697  1.00  0.00    -0.200 F 
ATOM     80  C   UNL A   1      36.225  30.258  29.359  1.00  0.00     0.200 A 
ATOM     81  F   UNL A   1      36.545  30.455  27.034  1.00  0.00    -0.200 F 
ATOM     82  F   UNL A   1      35.129  31.028  29.288  1.00  0.00    -0.200 F 
ENDBRANCH  48  72
BRANCH  60  83
ATOM     83  C   UNL A   1      44.141  27.925  32.432  1.00  0.00     0.064 A 
ATOM     84  C   UNL A   1      44.094  26.531  32.240  1.00  0.00     0.173 A 
ATOM     85  C   UNL A   1      44.240  28.382  33.752  1.00  0.00     0.173 A 
ATOM     86  F   UNL A   1      44.099  25.998  31.014  1.00  0.00    -0.203 F 
ATOM     87  C   UNL A   1      44.105  25.648  33.320  1.00  0.00     0.198 A 
ATOM     88  C   UNL A   1      44.290  27.498  34.825  1.00  0.00     0.198 A 
ATOM     89  F   UNL A   1      44.342  29.698  34.000  1.00  0.00    -0.203 F 
ATOM     90  F   UNL A   1      44.047  24.324  33.108  1.00  0.00    -0.200 F 
ATOM     91  C   UNL A   1      44.209  26.132  34.611  1.00  0.00     0.200 A 
ATOM     92  F   UNL A   1      44.444  27.972  36.070  1.00  0.00    -0.200 F 
ATOM     93  F   UNL A   1      44.262  25.284  35.647  1.00  0.00    -0.200 F 
ENDBRANCH  60  83
ENDBRANCH  34  35
ENDBRANCH  26  29
ENDBRANCH  24  25
ENDBRANCH  23  24
ENDBRANCH  22  23
ENDBRANCH  21  22
ENDBRANCH   1  21
TORSDOF 18
ENDMDL
MODEL 3
REMARK VINA RESULT:     -11.1      4.442      9.945
REMARK SMILES Cc1cc([C@H](O)C[C@@H](C)CC(=O)NCCCCCCNC(=O)c2ccc(-c3c4nc(c(-c5c(F)c(F)c(F)c(F)c5F)c5ccc([nH]5)c(-c5c(F)c(F)c(F)c(F)c5F)c5nc(c(-c6c(F)c(F)c(F)c(F)c6F)c6ccc3[nH]6)C=C5)C=C4)cc2)sc1Br
REMARK SMILES IDX 15 1 14 2 13 3 11 4 12 5 10 7 8 8 9 9 7 10 5 11 4 12 1 13
REMARK SMILES IDX 2 14 3 15 87 16 86 17 88 18 6 19 16 21 17 22 18 23 19 24
REMARK SMILES IDX 20 25 21 26 22 28 23 29 24 30 85 31 25 32 84 33 26 34 27 35
REMARK SMILES IDX 28 36 78 37 29 38 83 39 77 40 79 41 30 42 82 43 76 44 75 45
REMARK SMILES IDX 31 47 63 48 43 49 62 50 44 51 47 52 61 53 80 54 45 55 46 56
REMARK SMILES IDX 60 58 81 59 48 60 32 61 33 62 41 63 34 64 35 65 39 66 42 67
REMARK SMILES IDX 36 68 37 69 40 70 38 71 64 72 65 73 73 74 66 75 67 76 71 77
REMARK SMILES IDX 74 78 68 79 69 80 72 81 70 82 49 83 50 84 58 85 51 86 52 87
REMARK SMILES IDX 56 88 59 89 53 90 54 91 57 92 55 93
REMARK H PARENT 13 6 6 20 20 27 79 46 47 57
REMARK Flexibility Score: inf
ROOT
ATOM      1  C   UNL A   1      33.765  31.653  27.297  1.00  0.00     0.021 C 
ENDROOT
BRANCH   1   2
ATOM      2  C   UNL A   1      33.983  30.148  27.066  1.00  0.00     0.116 C 
BRANCH   2   3
ATOM      3  N   UNL A   1      32.891  29.379  27.637  1.00  0.00    -0.356 N 
ATOM      4  C   UNL A   1      32.342  28.188  27.263  1.00  0.00     0.220 C 
ATOM      5  O   UNL A   1      31.294  27.837  27.808  1.00  0.00    -0.275 OA
ATOM      6  H   UNL A   1      32.475  29.786  28.430  1.00  0.00     0.163 HD
BRANCH   4   7
ATOM      7  C   UNL A   1      33.011  27.289  26.232  1.00  0.00     0.103 C 
BRANCH   7   8
ATOM      8  C   UNL A   1      32.732  27.668  24.760  1.00  0.00    -0.002 C 
ATOM      9  C   UNL A   1      31.282  27.315  24.406  1.00  0.00     0.008 C 
BRANCH   8  10
ATOM     10  C   UNL A   1      33.688  26.908  23.833  1.00  0.00     0.041 C 
BRANCH  10  11
ATOM     11  C   UNL A   1      33.065  25.889  22.883  1.00  0.00     0.155 C 
BRANCH  11  12
ATOM     12  C   UNL A   1      33.262  24.476  23.361  1.00  0.00     0.035 A 
ATOM     13  C   UNL A   1      32.471  20.793  23.562  1.00  0.00     0.046 C 
ATOM     14  C   UNL A   1      33.103  22.140  23.695  1.00  0.00    -0.026 A 
ATOM     15  C   UNL A   1      32.520  23.329  23.137  1.00  0.00     0.022 A 
ATOM     16  C   UNL A   1      34.298  22.472  24.300  1.00  0.00     0.073 A 
ATOM     17  S   UNL A   1      34.642  24.127  24.309  1.00  0.00    -0.130 S 
ATOM     18  Br  UNL A   1      35.541  21.289  25.028  1.00  0.00    -0.039 Br
ENDBRANCH  11  12
BRANCH  11  19
ATOM     19  O   UNL A   1      33.718  25.979  21.621  1.00  0.00    -0.388 OA
ATOM     20  H   UNL A   1      34.270  26.776  21.599  1.00  0.00     0.211 HD
ENDBRANCH  11  19
ENDBRANCH  10  11
ENDBRANCH   8  10
ENDBRANCH   7   8
ENDBRANCH   4   7
ENDBRANCH   2   3
ENDBRANCH   1   2
BRANCH   1  21
ATOM     21  C   UNL A   1      34.576  32.283  28.426  1.00  0.00     0.002 C 
BRANCH  21  22
ATOM     22  C   UNL A   1      35.191  33.653  28.115  1.00  0.00     0.002 C 
BRANCH  22  23
ATOM     23  C   UNL A   1      34.521  34.873  28.766  1.00  0.00     0.021 C 
BRANCH  23  24
ATOM     24  C   UNL A   1      33.179  34.570  29.415  1.00  0.00     0.116 C 
BRANCH  24  25
ATOM     25  N   UNL A   1      32.960  35.323  30.648  1.00  0.00    -0.352 N 
ATOM     26  C   UNL A   1      33.505  35.098  31.900  1.00  0.00     0.251 C 
ATOM     27  H   UNL A   1      32.346  36.089  30.579  1.00  0.00     0.163 HD
ATOM     28  O   UNL A   1      33.000  35.571  32.904  1.00  0.00    -0.269 OA
BRANCH  26  29
ATOM     29  C   UNL A   1      34.718  34.265  31.999  1.00  0.00     0.039 A 
ATOM     30  C   UNL A   1      34.649  32.869  31.966  1.00  0.00     0.014 A 
ATOM     31  C   UNL A   1      35.944  34.907  32.109  1.00  0.00     0.014 A 
ATOM     32  C   UNL A   1      35.835  32.136  31.976  1.00  0.00     0.010 A 
ATOM     33  C   UNL A   1      37.104  34.199  31.931  1.00  0.00     0.010 A 
ATOM     34  C   UNL A   1      37.069  32.808  31.932  1.00  0.00    -0.014 A 
BRANCH  34  35
ATOM     35  C   UNL A   1      38.327  32.073  31.767  1.00  0.00     0.031 A 
ATOM     36  C   UNL A   1      39.085  31.818  33.039  1.00  0.00     0.074 A 
ATOM     37  C   UNL A   1      38.654  31.483  30.589  1.00  0.00     0.049 A 
ATOM     38  N   UNL A   1      40.352  31.950  33.264  1.00  0.00    -0.248 NA
ATOM     39  C   UNL A   1      38.332  31.418  34.243  1.00  0.00     0.031 C 
ATOM     40  C   UNL A   1      37.880  31.430  29.338  1.00  0.00     0.029 A 
ATOM     41  N   UNL A   1      39.727  30.700  30.282  1.00  0.00    -0.354 N 
ATOM     42  C   UNL A   1      40.582  31.500  34.568  1.00  0.00     0.074 A 
ATOM     43  C   UNL A   1      39.297  31.223  35.143  1.00  0.00     0.031 C 
ATOM     44  C   UNL A   1      38.374  30.470  28.523  1.00  0.00     0.029 A 
ATOM     45  C   UNL A   1      39.609  29.976  29.095  1.00  0.00     0.049 A 
ATOM     46  H   UNL A   1      40.527  30.651  30.854  1.00  0.00     0.167 HD
ATOM     47  C   UNL A   1      41.846  31.245  35.008  1.00  0.00     0.037 A 
ATOM     48  C   UNL A   1      40.464  29.038  28.614  1.00  0.00     0.037 A 
ATOM     49  C   UNL A   1      42.795  32.043  34.275  1.00  0.00     0.049 A 
ATOM     50  C   UNL A   1      41.751  29.231  29.321  1.00  0.00     0.074 A 
ATOM     51  C   UNL A   1      42.961  33.406  34.118  1.00  0.00     0.029 A 
ATOM     52  N   UNL A   1      43.487  31.467  33.239  1.00  0.00    -0.354 N 
ATOM     53  N   UNL A   1      42.516  30.274  29.164  1.00  0.00    -0.248 NA
ATOM     54  C   UNL A   1      41.945  28.480  30.549  1.00  0.00     0.031 C 
ATOM     55  C   UNL A   1      43.264  33.576  32.736  1.00  0.00     0.029 A 
ATOM     56  C   UNL A   1      43.364  32.308  32.162  1.00  0.00     0.049 A 
ATOM     57  H   UNL A   1      43.977  30.613  33.265  1.00  0.00     0.167 HD
ATOM     58  C   UNL A   1      42.959  30.570  30.442  1.00  0.00     0.074 A 
ATOM     59  C   UNL A   1      42.629  29.391  31.245  1.00  0.00     0.031 C 
ATOM     60  C   UNL A   1      43.286  31.845  30.799  1.00  0.00     0.037 A 
BRANCH  47  61
ATOM     61  C   UNL A   1      42.246  30.024  35.804  1.00  0.00     0.064 A 
ATOM     62  C   UNL A   1      43.218  30.154  36.817  1.00  0.00     0.173 A 
ATOM     63  C   UNL A   1      41.979  28.702  35.394  1.00  0.00     0.173 A 
ATOM     64  F   UNL A   1      43.529  31.360  37.314  1.00  0.00    -0.203 F 
ATOM     65  C   UNL A   1      43.965  29.063  37.271  1.00  0.00     0.198 A 
ATOM     66  C   UNL A   1      42.716  27.611  35.858  1.00  0.00     0.198 A 
ATOM     67  F   UNL A   1      41.050  28.421  34.479  1.00  0.00    -0.203 F 
ATOM     68  F   UNL A   1      44.963  29.257  38.143  1.00  0.00    -0.200 F 
ATOM     69  C   UNL A   1      43.733  27.797  36.769  1.00  0.00     0.200 A 
ATOM     70  F   UNL A   1      42.476  26.391  35.357  1.00  0.00    -0.200 F 
ATOM     71  F   UNL A   1      44.505  26.764  37.136  1.00  0.00    -0.200 F 
ENDBRANCH  47  61
BRANCH  48  72
ATOM     72  C   UNL A   1      40.199  27.812  27.819  1.00  0.00     0.064 A 
ATOM     73  C   UNL A   1      40.931  27.548  26.646  1.00  0.00     0.173 A 
ATOM     74  C   UNL A   1      39.470  26.734  28.355  1.00  0.00     0.173 A 
ATOM     75  F   UNL A   1      41.675  28.511  26.084  1.00  0.00    -0.203 F 
ATOM     76  C   UNL A   1      40.977  26.271  26.078  1.00  0.00     0.198 A 
ATOM     77  C   UNL A   1      39.515  25.459  27.784  1.00  0.00     0.198 A 
ATOM     78  F   UNL A   1      38.785  26.872  29.498  1.00  0.00    -0.203 F 
ATOM     79  F   UNL A   1      41.751  26.042  25.007  1.00  0.00    -0.200 F 
ATOM     80  C   UNL A   1      40.284  25.223  26.659  1.00  0.00     0.200 A 
ATOM     81  F   UNL A   1      38.865  24.443  28.370  1.00  0.00    -0.200 F 
ATOM     82  F   UNL A   1      40.390  23.982  26.162  1.00  0.00    -0.200 F 
ENDBRANCH  48  72
BRANCH  60  83
ATOM     83  C   UNL A   1      43.362  32.891  29.716  1.00  0.00     0.064 A 
ATOM     84  C   UNL A   1      42.327  33.791  29.400  1.00  0.00     0.173 A 
ATOM     85  C   UNL A   1      44.592  33.085  29.075  1.00  0.00     0.173 A 
ATOM     86  F   UNL A   1      41.150  33.746  30.034  1.00  0.00    -0.203 F 
ATOM     87  C   UNL A   1      42.507  34.804  28.459  1.00  0.00     0.198 A 
ATOM     88  C   UNL A   1      44.781  34.121  28.165  1.00  0.00     0.198 A 
ATOM     89  F   UNL A   1      45.635  32.293  29.371  1.00  0.00    -0.203 F 
ATOM     90  F   UNL A   1      41.499  35.641  28.169  1.00  0.00    -0.200 F 
ATOM     91  C   UNL A   1      43.736  34.972  27.847  1.00  0.00     0.200 A 
ATOM     92  F   UNL A   1      45.989  34.309  27.616  1.00  0.00    -0.200 F 
ATOM     93  F   UNL A   1      43.925  35.971  26.974  1.00  0.00    -0.200 F 
ENDBRANCH  60  83
ENDBRANCH  34  35
ENDBRANCH  26  29
ENDBRANCH  24  25
ENDBRANCH  23  24
ENDBRANCH  22  23
ENDBRANCH  21  22
ENDBRANCH   1  21
TORSDOF 18
ENDMDL
