MODEL 1
REMARK VINA RESULT:     -12.7      0.000      0.000
REMARK SMILES CC(=O)NS(=O)(=O)c1ccc(-c2ccn(C(F)F)c(=O)c2)cc1C(=O)NCCCCCCNC(=O)c1ccc(-c2c3nc(c(-c4c(F)c(F)c(F)c(F)c4F)c4ccc([nH]4)c(-c4c(F)c(F)c(F)c(F)c4F)c4nc(c(-c5c(F)c(F)c(F)c(F)c5F)c5ccc2[nH]5)C=C4)C=C3)cc1
REMARK SMILES IDX 29 1 28 2 27 3 26 4 24 5 25 6 23 8 8 9 9 10 10 11 22 12
REMARK SMILES IDX 11 13 5 14 6 15 7 16 4 17 1 18 2 19 3 20 12 22 13 23 21 24
REMARK SMILES IDX 14 25 19 26 15 27 20 28 16 29 17 30 18 31 30 32 31 33 32 34
REMARK SMILES IDX 33 35 34 36 35 38 36 39 37 40 98 41 38 42 97 43 39 44 40 45
REMARK SMILES IDX 41 46 91 47 42 48 96 49 90 50 92 51 43 52 95 53 89 54 88 55
REMARK SMILES IDX 44 57 76 58 56 59 75 60 57 61 60 62 74 63 93 64 58 65 59 66
REMARK SMILES IDX 73 68 94 69 61 70 45 71 46 72 54 73 47 74 48 75 52 76 55 77
REMARK SMILES IDX 49 78 50 79 53 80 51 81 77 82 78 83 86 84 79 85 80 86 84 87
REMARK SMILES IDX 87 88 81 89 82 90 85 91 83 92 62 93 63 94 71 95 64 96 65 97
REMARK SMILES IDX 69 98 72 99 66 100 67 101 70 102 68 103
REMARK H PARENT 26 7 4 21 33 37 92 56 60 67
REMARK Flexibility Score: inf
ROOT
ATOM      1  C   UNL A   1      36.980  22.079  24.285  1.00  0.00     0.002 C 
ENDROOT
BRANCH   1   2
ATOM      2  C   UNL A   1      37.178  23.246  25.253  1.00  0.00     0.021 C 
BRANCH   2   3
ATOM      3  C   UNL A   1      35.888  23.989  25.632  1.00  0.00     0.116 C 
BRANCH   3   4
ATOM      4  N   UNL A   1      35.336  24.630  24.447  1.00  0.00    -0.352 N 
ATOM      5  C   UNL A   1      34.153  24.477  23.781  1.00  0.00     0.252 C 
ATOM      6  O   UNL A   1      33.953  25.103  22.741  1.00  0.00    -0.269 OA
ATOM      7  H   UNL A   1      35.930  25.305  24.047  1.00  0.00     0.163 HD
BRANCH   5   8
ATOM      8  C   UNL A   1      33.031  23.683  24.317  1.00  0.00     0.060 A 
ATOM      9  C   UNL A   1      31.984  24.161  25.104  1.00  0.00     0.100 A 
ATOM     10  C   UNL A   1      31.025  23.266  25.611  1.00  0.00     0.024 A 
ATOM     11  C   UNL A   1      31.177  21.889  25.434  1.00  0.00     0.010 A 
ATOM     12  C   UNL A   1      33.168  22.290  24.143  1.00  0.00     0.024 A 
ATOM     13  C   UNL A   1      32.275  21.382  24.729  1.00  0.00    -0.017 A 
BRANCH   9  14
ATOM     14  S   UNL A   1      31.895  25.841  25.646  1.00  0.00     0.264 S 
ATOM     15  O   UNL A   1      33.224  26.194  26.093  1.00  0.00    -0.201 OA
ATOM     16  O   UNL A   1      30.734  26.040  26.476  1.00  0.00    -0.201 OA
BRANCH  14  17
ATOM     17  N   UNL A   1      31.643  26.695  24.248  1.00  0.00    -0.249 N 
ATOM     18  C   UNL A   1      31.496  28.992  25.245  1.00  0.00     0.115 C 
ATOM     19  C   UNL A   1      31.634  28.083  24.058  1.00  0.00     0.230 C 
ATOM     20  O   UNL A   1      31.678  28.510  22.912  1.00  0.00    -0.274 OA
ATOM     21  H   UNL A   1      31.478  26.153  23.442  1.00  0.00     0.183 HD
ENDBRANCH  14  17
ENDBRANCH   9  14
BRANCH  13  22
ATOM     22  C   UNL A   1      32.570  19.929  24.714  1.00  0.00    -0.011 A 
ATOM     23  C   UNL A   1      32.730  19.166  25.943  1.00  0.00     0.027 A 
ATOM     24  C   UNL A   1      32.636  19.271  23.542  1.00  0.00     0.080 A 
ATOM     25  C   UNL A   1      32.920  17.843  25.913  1.00  0.00     0.095 A 
ATOM     26  C   UNL A   1      32.840  17.795  23.492  1.00  0.00     0.255 A 
ATOM     27  N   UNL A   1      32.972  17.158  24.714  1.00  0.00    -0.258 N 
ATOM     28  O   UNL A   1      32.862  17.247  22.394  1.00  0.00    -0.269 OA
BRANCH  27  29
ATOM     29  C   UNL A   1      33.134  15.726  24.697  1.00  0.00     0.451 C 
ATOM     30  F   UNL A   1      34.244  15.359  25.383  1.00  0.00    -0.185 F 
ATOM     31  F   UNL A   1      32.068  15.104  25.255  1.00  0.00    -0.185 F 
ENDBRANCH  27  29
ENDBRANCH  13  22
ENDBRANCH   5   8
ENDBRANCH   3   4
ENDBRANCH   2   3
ENDBRANCH   1   2
BRANCH   1  32
ATOM     32  C   UNL A   1      36.764  20.720  24.956  1.00  0.00     0.002 C 
BRANCH  32  33
ATOM     33  C   UNL A   1      37.971  19.766  24.974  1.00  0.00     0.021 C 
BRANCH  33  34
ATOM     34  C   UNL A   1      39.087  20.083  25.971  1.00  0.00     0.116 C 
BRANCH  34  35
ATOM     35  N   UNL A   1      40.200  19.154  25.899  1.00  0.00    -0.352 N 
ATOM     36  C   UNL A   1      41.535  19.370  26.134  1.00  0.00     0.251 C 
ATOM     37  H   UNL A   1      39.962  18.234  25.643  1.00  0.00     0.163 HD
ATOM     38  O   UNL A   1      42.343  18.466  25.944  1.00  0.00    -0.269 OA
BRANCH  36  39
ATOM     39  C   UNL A   1      42.024  20.695  26.581  1.00  0.00     0.039 A 
ATOM     40  C   UNL A   1      42.422  21.614  25.602  1.00  0.00     0.014 A 
ATOM     41  C   UNL A   1      42.148  21.020  27.935  1.00  0.00     0.014 A 
ATOM     42  C   UNL A   1      42.890  22.876  25.975  1.00  0.00     0.010 A 
ATOM     43  C   UNL A   1      42.605  22.289  28.308  1.00  0.00     0.010 A 
ATOM     44  C   UNL A   1      42.971  23.228  27.330  1.00  0.00    -0.014 A 
BRANCH  44  45
ATOM     45  C   UNL A   1      43.405  24.587  27.730  1.00  0.00     0.031 A 
ATOM     46  C   UNL A   1      42.401  25.632  28.111  1.00  0.00     0.074 A 
ATOM     47  C   UNL A   1      44.717  24.887  27.731  1.00  0.00     0.049 A 
ATOM     48  N   UNL A   1      42.594  26.895  28.395  1.00  0.00    -0.248 NA
ATOM     49  C   UNL A   1      40.996  25.205  28.176  1.00  0.00     0.031 C 
ATOM     50  C   UNL A   1      45.794  23.962  27.383  1.00  0.00     0.029 A 
ATOM     51  N   UNL A   1      45.363  26.060  28.032  1.00  0.00    -0.354 N 
ATOM     52  C   UNL A   1      41.337  27.424  28.645  1.00  0.00     0.074 A 
ATOM     53  C   UNL A   1      40.386  26.339  28.497  1.00  0.00     0.031 C 
ATOM     54  C   UNL A   1      46.971  24.602  27.493  1.00  0.00     0.029 A 
ATOM     55  C   UNL A   1      46.726  25.981  27.904  1.00  0.00     0.049 A 
ATOM     56  H   UNL A   1      44.893  26.877  28.313  1.00  0.00     0.167 HD
ATOM     57  C   UNL A   1      41.004  28.698  28.956  1.00  0.00     0.037 A 
ATOM     58  C   UNL A   1      47.671  26.921  28.087  1.00  0.00     0.037 A 
ATOM     59  C   UNL A   1      41.938  29.780  29.119  1.00  0.00     0.049 A 
ATOM     60  C   UNL A   1      47.281  28.310  28.496  1.00  0.00     0.074 A 
ATOM     61  C   UNL A   1      41.682  31.113  29.393  1.00  0.00     0.029 A 
ATOM     62  N   UNL A   1      43.315  29.646  29.042  1.00  0.00    -0.354 N 
ATOM     63  N   UNL A   1      46.085  28.807  28.682  1.00  0.00    -0.248 NA
ATOM     64  C   UNL A   1      48.373  29.269  28.716  1.00  0.00     0.031 C 
ATOM     65  C   UNL A   1      42.907  31.785  29.488  1.00  0.00     0.029 A 
ATOM     66  C   UNL A   1      43.922  30.868  29.278  1.00  0.00     0.049 A 
ATOM     67  H   UNL A   1      43.791  28.806  28.849  1.00  0.00     0.167 HD
ATOM     68  C   UNL A   1      46.276  30.135  29.029  1.00  0.00     0.074 A 
ATOM     69  C   UNL A   1      47.705  30.366  29.046  1.00  0.00     0.031 C 
ATOM     70  C   UNL A   1      45.345  31.080  29.298  1.00  0.00     0.037 A 
BRANCH  57  71
ATOM     71  C   UNL A   1      39.550  29.001  29.118  1.00  0.00     0.064 A 
ATOM     72  C   UNL A   1      38.765  29.384  28.023  1.00  0.00     0.173 A 
ATOM     73  C   UNL A   1      38.932  28.872  30.369  1.00  0.00     0.173 A 
ATOM     74  F   UNL A   1      39.321  29.527  26.810  1.00  0.00    -0.203 F 
ATOM     75  C   UNL A   1      37.404  29.632  28.177  1.00  0.00     0.198 A 
ATOM     76  C   UNL A   1      37.571  29.116  30.518  1.00  0.00     0.198 A 
ATOM     77  F   UNL A   1      39.650  28.512  31.442  1.00  0.00    -0.203 F 
ATOM     78  F   UNL A   1      36.668  30.007  27.121  1.00  0.00    -0.200 F 
ATOM     79  C   UNL A   1      36.807  29.495  29.423  1.00  0.00     0.200 A 
ATOM     80  F   UNL A   1      36.995  28.987  31.722  1.00  0.00    -0.200 F 
ATOM     81  F   UNL A   1      35.497  29.734  29.569  1.00  0.00    -0.200 F 
ENDBRANCH  57  71
BRANCH  58  82
ATOM     82  C   UNL A   1      49.093  26.569  27.877  1.00  0.00     0.064 A 
ATOM     83  C   UNL A   1      49.912  26.224  28.958  1.00  0.00     0.173 A 
ATOM     84  C   UNL A   1      49.648  26.558  26.592  1.00  0.00     0.173 A 
ATOM     85  F   UNL A   1      49.419  26.241  30.205  1.00  0.00    -0.203 F 
ATOM     86  C   UNL A   1      51.246  25.877  28.760  1.00  0.00     0.198 A 
ATOM     87  C   UNL A   1      50.980  26.205  26.394  1.00  0.00     0.198 A 
ATOM     88  F   UNL A   1      48.895  26.888  25.533  1.00  0.00    -0.203 F 
ATOM     89  F   UNL A   1      52.018  25.560  29.809  1.00  0.00    -0.200 F 
ATOM     90  C   UNL A   1      51.778  25.865  27.478  1.00  0.00     0.200 A 
ATOM     91  F   UNL A   1      51.491  26.194  25.156  1.00  0.00    -0.200 F 
ATOM     92  F   UNL A   1      53.061  25.530  27.287  1.00  0.00    -0.200 F 
ENDBRANCH  58  82
BRANCH  70  93
ATOM     93  C   UNL A   1      45.844  32.449  29.628  1.00  0.00     0.064 A 
ATOM     94  C   UNL A   1      46.044  33.402  28.621  1.00  0.00     0.173 A 
ATOM     95  C   UNL A   1      46.099  32.819  30.955  1.00  0.00     0.173 A 
ATOM     96  F   UNL A   1      45.824  33.083  27.336  1.00  0.00    -0.203 F 
ATOM     97  C   UNL A   1      46.486  34.685  28.931  1.00  0.00     0.198 A 
ATOM     98  C   UNL A   1      46.540  34.103  31.263  1.00  0.00     0.198 A 
ATOM     99  F   UNL A   1      45.929  31.933  31.947  1.00  0.00    -0.203 F 
ATOM    100  F   UNL A   1      46.685  35.580  27.955  1.00  0.00    -0.200 F 
ATOM    101  C   UNL A   1      46.732  35.034  30.251  1.00  0.00     0.200 A 
ATOM    102  F   UNL A   1      46.785  34.439  32.536  1.00  0.00    -0.200 F 
ATOM    103  F   UNL A   1      47.164  36.268  30.549  1.00  0.00    -0.200 F 
ENDBRANCH  70  93
ENDBRANCH  44  45
ENDBRANCH  36  39
ENDBRANCH  34  35
ENDBRANCH  33  34
ENDBRANCH  32  33
ENDBRANCH   1  32
TORSDOF 17
ENDMDL
MODEL 2
REMARK VINA RESULT:     -12.6      5.297     10.880
REMARK SMILES CC(=O)NS(=O)(=O)c1ccc(-c2ccn(C(F)F)c(=O)c2)cc1C(=O)NCCCCCCNC(=O)c1ccc(-c2c3nc(c(-c4c(F)c(F)c(F)c(F)c4F)c4ccc([nH]4)c(-c4c(F)c(F)c(F)c(F)c4F)c4nc(c(-c5c(F)c(F)c(F)c(F)c5F)c5ccc2[nH]5)C=C4)C=C3)cc1
REMARK SMILES IDX 29 1 28 2 27 3 26 4 24 5 25 6 23 8 8 9 9 10 10 11 22 12
REMARK SMILES IDX 11 13 5 14 6 15 7 16 4 17 1 18 2 19 3 20 12 22 13 23 21 24
REMARK SMILES IDX 14 25 19 26 15 27 20 28 16 29 17 30 18 31 30 32 31 33 32 34
REMARK SMILES IDX 33 35 34 36 35 38 36 39 37 40 98 41 38 42 97 43 39 44 40 45
REMARK SMILES IDX 41 46 91 47 42 48 96 49 90 50 92 51 43 52 95 53 89 54 88 55
REMARK SMILES IDX 44 57 76 58 56 59 75 60 57 61 60 62 74 63 93 64 58 65 59 66
REMARK SMILES IDX 73 68 94 69 61 70 45 71 46 72 54 73 47 74 48 75 52 76 55 77
REMARK SMILES IDX 49 78 50 79 53 80 51 81 77 82 78 83 86 84 79 85 80 86 84 87
REMARK SMILES IDX 87 88 81 89 82 90 85 91 83 92 62 93 63 94 71 95 64 96 65 97
REMARK SMILES IDX 69 98 72 99 66 100 67 101 70 102 68 103
REMARK H PARENT 26 7 4 21 33 37 92 56 60 67
REMARK Flexibility Score: inf
ROOT
ATOM      1  C   UNL A   1      32.759  29.682  25.743  1.00  0.00     0.002 C 
ENDROOT
BRANCH   1   2
ATOM      2  C   UNL A   1      32.690  28.449  26.646  1.00  0.00     0.021 C 
BRANCH   2   3
ATOM      3  C   UNL A   1      33.746  27.376  26.344  1.00  0.00     0.116 C 
BRANCH   3   4
ATOM      4  N   UNL A   1      33.184  26.059  26.613  1.00  0.00    -0.352 N 
ATOM      5  C   UNL A   1      32.392  25.225  25.877  1.00  0.00     0.252 C 
ATOM      6  O   UNL A   1      31.988  24.174  26.371  1.00  0.00    -0.269 OA
ATOM      7  H   UNL A   1      33.423  25.700  27.497  1.00  0.00     0.163 HD
BRANCH   5   8
ATOM      8  C   UNL A   1      32.091  25.461  24.451  1.00  0.00     0.060 A 
ATOM      9  C   UNL A   1      32.772  24.917  23.364  1.00  0.00     0.100 A 
ATOM     10  C   UNL A   1      32.420  25.298  22.056  1.00  0.00     0.024 A 
ATOM     11  C   UNL A   1      31.475  26.305  21.842  1.00  0.00     0.010 A 
ATOM     12  C   UNL A   1      31.136  26.473  24.218  1.00  0.00     0.024 A 
ATOM     13  C   UNL A   1      30.850  26.933  22.925  1.00  0.00    -0.017 A 
BRANCH   9  14
ATOM     14  S   UNL A   1      34.192  23.883  23.554  1.00  0.00     0.264 S 
ATOM     15  O   UNL A   1      35.065  24.561  24.488  1.00  0.00    -0.201 OA
ATOM     16  O   UNL A   1      34.658  23.428  22.269  1.00  0.00    -0.201 OA
BRANCH  14  17
ATOM     17  N   UNL A   1      33.611  22.555  24.357  1.00  0.00    -0.249 N 
ATOM     18  C   UNL A   1      35.791  21.372  24.732  1.00  0.00     0.115 C 
ATOM     19  C   UNL A   1      34.326  21.544  25.013  1.00  0.00     0.230 C 
ATOM     20  O   UNL A   1      33.711  20.789  25.754  1.00  0.00    -0.274 OA
ATOM     21  H   UNL A   1      32.630  22.464  24.376  1.00  0.00     0.183 HD
ENDBRANCH  14  17
ENDBRANCH   9  14
BRANCH  13  22
ATOM     22  C   UNL A   1      30.013  28.141  22.729  1.00  0.00    -0.011 A 
ATOM     23  C   UNL A   1      30.513  29.316  22.033  1.00  0.00     0.027 A 
ATOM     24  C   UNL A   1      28.735  28.145  23.151  1.00  0.00     0.080 A 
ATOM     25  C   UNL A   1      29.721  30.368  21.798  1.00  0.00     0.095 A 
ATOM     26  C   UNL A   1      27.837  29.307  22.891  1.00  0.00     0.255 A 
ATOM     27  N   UNL A   1      28.403  30.373  22.212  1.00  0.00    -0.258 N 
ATOM     28  O   UNL A   1      26.673  29.240  23.274  1.00  0.00    -0.269 OA
BRANCH  27  29
ATOM     29  C   UNL A   1      27.548  31.494  21.916  1.00  0.00     0.451 C 
ATOM     30  F   UNL A   1      27.483  32.343  22.971  1.00  0.00    -0.185 F 
ATOM     31  F   UNL A   1      28.002  32.188  20.844  1.00  0.00    -0.185 F 
ENDBRANCH  27  29
ENDBRANCH  13  22
ENDBRANCH   5   8
ENDBRANCH   3   4
ENDBRANCH   2   3
ENDBRANCH   1   2
BRANCH   1  32
ATOM     32  C   UNL A   1      31.456  30.482  25.652  1.00  0.00     0.002 C 
BRANCH  32  33
ATOM     33  C   UNL A   1      31.306  31.659  26.630  1.00  0.00     0.021 C 
BRANCH  33  34
ATOM     34  C   UNL A   1      32.572  32.457  26.949  1.00  0.00     0.116 C 
BRANCH  34  35
ATOM     35  N   UNL A   1      32.298  33.804  27.416  1.00  0.00    -0.352 N 
ATOM     36  C   UNL A   1      32.954  34.551  28.362  1.00  0.00     0.251 C 
ATOM     37  H   UNL A   1      31.527  34.245  26.992  1.00  0.00     0.163 HD
ATOM     38  O   UNL A   1      32.519  35.654  28.679  1.00  0.00    -0.269 OA
BRANCH  36  39
ATOM     39  C   UNL A   1      34.165  34.030  29.038  1.00  0.00     0.039 A 
ATOM     40  C   UNL A   1      33.991  33.141  30.106  1.00  0.00     0.014 A 
ATOM     41  C   UNL A   1      35.451  34.443  28.676  1.00  0.00     0.014 A 
ATOM     42  C   UNL A   1      35.103  32.622  30.774  1.00  0.00     0.010 A 
ATOM     43  C   UNL A   1      36.565  33.913  29.337  1.00  0.00     0.010 A 
ATOM     44  C   UNL A   1      36.398  32.993  30.385  1.00  0.00    -0.014 A 
BRANCH  44  45
ATOM     45  C   UNL A   1      37.582  32.397  31.046  1.00  0.00     0.031 A 
ATOM     46  C   UNL A   1      38.385  31.329  30.366  1.00  0.00     0.074 A 
ATOM     47  C   UNL A   1      37.926  32.810  32.280  1.00  0.00     0.049 A 
ATOM     48  N   UNL A   1      39.390  30.632  30.832  1.00  0.00    -0.248 NA
ATOM     49  C   UNL A   1      38.005  30.996  28.986  1.00  0.00     0.031 C 
ATOM     50  C   UNL A   1      37.231  33.841  33.049  1.00  0.00     0.029 A 
ATOM     51  N   UNL A   1      38.947  32.405  33.102  1.00  0.00    -0.354 N 
ATOM     52  C   UNL A   1      39.747  29.758  29.817  1.00  0.00     0.074 A 
ATOM     53  C   UNL A   1      38.863  30.024  28.699  1.00  0.00     0.031 C 
ATOM     54  C   UNL A   1      37.848  33.991  34.233  1.00  0.00     0.029 A 
ATOM     55  C   UNL A   1      38.969  33.058  34.308  1.00  0.00     0.049 A 
ATOM     56  H   UNL A   1      39.601  31.714  32.851  1.00  0.00     0.167 HD
ATOM     57  C   UNL A   1      40.715  28.812  29.819  1.00  0.00     0.037 A 
ATOM     58  C   UNL A   1      39.795  32.913  35.361  1.00  0.00     0.037 A 
ATOM     59  C   UNL A   1      41.609  28.548  30.916  1.00  0.00     0.049 A 
ATOM     60  C   UNL A   1      40.901  31.902  35.313  1.00  0.00     0.074 A 
ATOM     61  C   UNL A   1      42.591  27.577  31.018  1.00  0.00     0.029 A 
ATOM     62  N   UNL A   1      41.639  29.273  32.096  1.00  0.00    -0.354 N 
ATOM     63  N   UNL A   1      41.197  31.050  34.365  1.00  0.00    -0.248 NA
ATOM     64  C   UNL A   1      41.786  31.831  36.485  1.00  0.00     0.031 C 
ATOM     65  C   UNL A   1      43.223  27.720  32.261  1.00  0.00     0.029 A 
ATOM     66  C   UNL A   1      42.634  28.782  32.926  1.00  0.00     0.049 A 
ATOM     67  H   UNL A   1      41.043  30.025  32.311  1.00  0.00     0.167 HD
ATOM     68  C   UNL A   1      42.291  30.334  34.826  1.00  0.00     0.074 A 
ATOM     69  C   UNL A   1      42.621  30.862  36.133  1.00  0.00     0.031 C 
ATOM     70  C   UNL A   1      42.954  29.321  34.220  1.00  0.00     0.037 A 
BRANCH  57  71
ATOM     71  C   UNL A   1      40.843  27.966  28.595  1.00  0.00     0.064 A 
ATOM     72  C   UNL A   1      40.144  26.759  28.473  1.00  0.00     0.173 A 
ATOM     73  C   UNL A   1      41.642  28.386  27.523  1.00  0.00     0.173 A 
ATOM     74  F   UNL A   1      39.376  26.319  29.481  1.00  0.00    -0.203 F 
ATOM     75  C   UNL A   1      40.244  25.994  27.314  1.00  0.00     0.198 A 
ATOM     76  C   UNL A   1      41.735  27.621  26.364  1.00  0.00     0.198 A 
ATOM     77  F   UNL A   1      42.330  29.533  27.601  1.00  0.00    -0.203 F 
ATOM     78  F   UNL A   1      39.575  24.836  27.217  1.00  0.00    -0.200 F 
ATOM     79  C   UNL A   1      41.036  26.427  26.260  1.00  0.00     0.200 A 
ATOM     80  F   UNL A   1      42.504  28.037  25.347  1.00  0.00    -0.200 F 
ATOM     81  F   UNL A   1      41.131  25.689  25.145  1.00  0.00    -0.200 F 
ENDBRANCH  57  71
BRANCH  58  82
ATOM     82  C   UNL A   1      39.595  33.755  36.560  1.00  0.00     0.064 A 
ATOM     83  C   UNL A   1      38.843  33.290  37.645  1.00  0.00     0.173 A 
ATOM     84  C   UNL A   1      40.167  35.030  36.646  1.00  0.00     0.173 A 
ATOM     85  F   UNL A   1      38.267  32.080  37.591  1.00  0.00    -0.203 F 
ATOM     86  C   UNL A   1      38.668  34.075  38.781  1.00  0.00     0.198 A 
ATOM     87  C   UNL A   1      39.996  35.812  37.785  1.00  0.00     0.198 A 
ATOM     88  F   UNL A   1      40.890  35.512  35.625  1.00  0.00    -0.203 F 
ATOM     89  F   UNL A   1      37.935  33.617  39.805  1.00  0.00    -0.200 F 
ATOM     90  C   UNL A   1      39.247  35.335  38.851  1.00  0.00     0.200 A 
ATOM     91  F   UNL A   1      40.556  37.028  37.851  1.00  0.00    -0.200 F 
ATOM     92  F   UNL A   1      39.080  36.090  39.945  1.00  0.00    -0.200 F 
ENDBRANCH  58  82
BRANCH  70  93
ATOM     93  C   UNL A   1      44.097  28.717  34.968  1.00  0.00     0.064 A 
ATOM     94  C   UNL A   1      45.402  29.197  34.796  1.00  0.00     0.173 A 
ATOM     95  C   UNL A   1      43.887  27.673  35.878  1.00  0.00     0.173 A 
ATOM     96  F   UNL A   1      45.647  30.187  33.924  1.00  0.00    -0.203 F 
ATOM     97  C   UNL A   1      46.463  28.649  35.511  1.00  0.00     0.198 A 
ATOM     98  C   UNL A   1      44.950  27.128  36.593  1.00  0.00     0.198 A 
ATOM     99  F   UNL A   1      42.654  27.177  36.064  1.00  0.00    -0.203 F 
ATOM    100  F   UNL A   1      47.706  29.112  35.324  1.00  0.00    -0.200 F 
ATOM    101  C   UNL A   1      46.235  27.616  36.409  1.00  0.00     0.200 A 
ATOM    102  F   UNL A   1      44.733  26.124  37.454  1.00  0.00    -0.200 F 
ATOM    103  F   UNL A   1      47.259  27.085  37.092  1.00  0.00    -0.200 F 
ENDBRANCH  70  93
ENDBRANCH  44  45
ENDBRANCH  36  39
ENDBRANCH  34  35
ENDBRANCH  33  34
ENDBRANCH  32  33
ENDBRANCH   1  32
TORSDOF 17
ENDMDL
MODEL 3
REMARK VINA RESULT:     -12.6      0.778      6.906
REMARK SMILES CC(=O)NS(=O)(=O)c1ccc(-c2ccn(C(F)F)c(=O)c2)cc1C(=O)NCCCCCCNC(=O)c1ccc(-c2c3nc(c(-c4c(F)c(F)c(F)c(F)c4F)c4ccc([nH]4)c(-c4c(F)c(F)c(F)c(F)c4F)c4nc(c(-c5c(F)c(F)c(F)c(F)c5F)c5ccc2[nH]5)C=C4)C=C3)cc1
REMARK SMILES IDX 29 1 28 2 27 3 26 4 24 5 25 6 23 8 8 9 9 10 10 11 22 12
REMARK SMILES IDX 11 13 5 14 6 15 7 16 4 17 1 18 2 19 3 20 12 22 13 23 21 24
REMARK SMILES IDX 14 25 19 26 15 27 20 28 16 29 17 30 18 31 30 32 31 33 32 34
REMARK SMILES IDX 33 35 34 36 35 38 36 39 37 40 98 41 38 42 97 43 39 44 40 45
REMARK SMILES IDX 41 46 91 47 42 48 96 49 90 50 92 51 43 52 95 53 89 54 88 55
REMARK SMILES IDX 44 57 76 58 56 59 75 60 57 61 60 62 74 63 93 64 58 65 59 66
REMARK SMILES IDX 73 68 94 69 61 70 45 71 46 72 54 73 47 74 48 75 52 76 55 77
REMARK SMILES IDX 49 78 50 79 53 80 51 81 77 82 78 83 86 84 79 85 80 86 84 87
REMARK SMILES IDX 87 88 81 89 82 90 85 91 83 92 62 93 63 94 71 95 64 96 65 97
REMARK SMILES IDX 69 98 72 99 66 100 67 101 70 102 68 103
REMARK H PARENT 26 7 4 21 33 37 92 56 60 67
REMARK Flexibility Score: inf
ROOT
ATOM      1  C   UNL A   1      36.434  21.689  25.669  1.00  0.00     0.002 C 
ENDROOT
BRANCH   1   2
ATOM      2  C   UNL A   1      36.617  22.907  24.761  1.00  0.00     0.021 C 
BRANCH   2   3
ATOM      3  C   UNL A   1      35.844  24.157  25.205  1.00  0.00     0.116 C 
BRANCH   3   4
ATOM      4  N   UNL A   1      35.174  24.744  24.053  1.00  0.00    -0.352 N 
ATOM      5  C   UNL A   1      33.944  24.540  23.496  1.00  0.00     0.252 C 
ATOM      6  O   UNL A   1      33.639  25.126  22.458  1.00  0.00    -0.269 OA
ATOM      7  H   UNL A   1      35.713  25.420  23.584  1.00  0.00     0.163 HD
BRANCH   5   8
ATOM      8  C   UNL A   1      32.895  23.735  24.151  1.00  0.00     0.060 A 
ATOM      9  C   UNL A   1      31.922  24.208  25.030  1.00  0.00     0.100 A 
ATOM     10  C   UNL A   1      31.034  23.304  25.641  1.00  0.00     0.024 A 
ATOM     11  C   UNL A   1      31.192  21.928  25.468  1.00  0.00     0.010 A 
ATOM     12  C   UNL A   1      33.039  22.342  23.981  1.00  0.00     0.024 A 
ATOM     13  C   UNL A   1      32.224  21.428  24.665  1.00  0.00    -0.017 A 
BRANCH   9  14
ATOM     14  S   UNL A   1      31.857  25.893  25.556  1.00  0.00     0.264 S 
ATOM     15  O   UNL A   1      33.198  26.241  25.971  1.00  0.00    -0.201 OA
ATOM     16  O   UNL A   1      30.716  26.109  26.410  1.00  0.00    -0.201 OA
BRANCH  14  17
ATOM     17  N   UNL A   1      31.581  26.735  24.156  1.00  0.00    -0.249 N 
ATOM     18  C   UNL A   1      31.641  29.055  25.106  1.00  0.00     0.115 C 
ATOM     19  C   UNL A   1      31.651  28.117  23.934  1.00  0.00     0.230 C 
ATOM     20  O   UNL A   1      31.657  28.518  22.779  1.00  0.00    -0.274 OA
ATOM     21  H   UNL A   1      31.335  26.190  23.373  1.00  0.00     0.183 HD
ENDBRANCH  14  17
ENDBRANCH   9  14
BRANCH  13  22
ATOM     22  C   UNL A   1      32.541  19.980  24.640  1.00  0.00    -0.011 A 
ATOM     23  C   UNL A   1      32.723  19.214  25.863  1.00  0.00     0.027 A 
ATOM     24  C   UNL A   1      32.609  19.330  23.464  1.00  0.00     0.080 A 
ATOM     25  C   UNL A   1      32.932  17.893  25.824  1.00  0.00     0.095 A 
ATOM     26  C   UNL A   1      32.836  17.857  23.404  1.00  0.00     0.255 A 
ATOM     27  N   UNL A   1      32.987  17.216  24.621  1.00  0.00    -0.258 N 
ATOM     28  O   UNL A   1      32.858  17.316  22.303  1.00  0.00    -0.269 OA
BRANCH  27  29
ATOM     29  C   UNL A   1      33.171  15.787  24.595  1.00  0.00     0.451 C 
ATOM     30  F   UNL A   1      34.372  15.446  25.124  1.00  0.00    -0.185 F 
ATOM     31  F   UNL A   1      32.204  15.154  25.301  1.00  0.00    -0.185 F 
ENDBRANCH  27  29
ENDBRANCH  13  22
ENDBRANCH   5   8
ENDBRANCH   3   4
ENDBRANCH   2   3
ENDBRANCH   1   2
BRANCH   1  32
ATOM     32  C   UNL A   1      36.378  20.347  24.934  1.00  0.00     0.002 C 
BRANCH  32  33
ATOM     33  C   UNL A   1      37.680  19.528  24.904  1.00  0.00     0.021 C 
BRANCH  33  34
ATOM     34  C   UNL A   1      38.881  20.113  25.650  1.00  0.00     0.116 C 
BRANCH  34  35
ATOM     35  N   UNL A   1      39.983  19.178  25.782  1.00  0.00    -0.352 N 
ATOM     36  C   UNL A   1      41.294  19.414  26.113  1.00  0.00     0.251 C 
ATOM     37  H   UNL A   1      39.757  18.236  25.607  1.00  0.00     0.163 HD
ATOM     38  O   UNL A   1      42.104  18.493  26.097  1.00  0.00    -0.269 OA
BRANCH  36  39
ATOM     39  C   UNL A   1      41.758  20.779  26.456  1.00  0.00     0.039 A 
ATOM     40  C   UNL A   1      42.014  21.670  25.406  1.00  0.00     0.014 A 
ATOM     41  C   UNL A   1      41.995  21.171  27.777  1.00  0.00     0.014 A 
ATOM     42  C   UNL A   1      42.453  22.967  25.679  1.00  0.00     0.010 A 
ATOM     43  C   UNL A   1      42.422  22.475  28.051  1.00  0.00     0.010 A 
ATOM     44  C   UNL A   1      42.646  23.384  27.004  1.00  0.00    -0.014 A 
BRANCH  44  45
ATOM     45  C   UNL A   1      43.049  24.777  27.304  1.00  0.00     0.031 A 
ATOM     46  C   UNL A   1      44.446  25.248  27.030  1.00  0.00     0.074 A 
ATOM     47  C   UNL A   1      42.153  25.622  27.845  1.00  0.00     0.049 A 
ATOM     48  N   UNL A   1      44.998  26.401  27.315  1.00  0.00    -0.248 NA
ATOM     49  C   UNL A   1      45.341  24.299  26.354  1.00  0.00     0.031 C 
ATOM     50  C   UNL A   1      40.763  25.290  28.159  1.00  0.00     0.029 A 
ATOM     51  N   UNL A   1      42.282  26.933  28.231  1.00  0.00    -0.354 N 
ATOM     52  C   UNL A   1      46.312  26.308  26.881  1.00  0.00     0.074 A 
ATOM     53  C   UNL A   1      46.472  24.993  26.295  1.00  0.00     0.031 C 
ATOM     54  C   UNL A   1      40.166  26.372  28.687  1.00  0.00     0.029 A 
ATOM     55  C   UNL A   1      41.134  27.463  28.761  1.00  0.00     0.049 A 
ATOM     56  H   UNL A   1      43.118  27.442  28.136  1.00  0.00     0.167 HD
ATOM     57  C   UNL A   1      47.297  27.232  26.974  1.00  0.00     0.037 A 
ATOM     58  C   UNL A   1      40.893  28.689  29.261  1.00  0.00     0.037 A 
ATOM     59  C   UNL A   1      47.147  28.545  27.541  1.00  0.00     0.049 A 
ATOM     60  C   UNL A   1      41.985  29.715  29.293  1.00  0.00     0.074 A 
ATOM     61  C   UNL A   1      48.107  29.529  27.713  1.00  0.00     0.029 A 
ATOM     62  N   UNL A   1      45.953  29.066  28.010  1.00  0.00    -0.354 N 
ATOM     63  N   UNL A   1      43.235  29.599  28.923  1.00  0.00    -0.248 NA
ATOM     64  C   UNL A   1      41.632  31.043  29.816  1.00  0.00     0.031 C 
ATOM     65  C   UNL A   1      47.489  30.651  28.282  1.00  0.00     0.029 A 
ATOM     66  C   UNL A   1      46.147  30.363  28.458  1.00  0.00     0.049 A 
ATOM     67  H   UNL A   1      45.094  28.586  28.023  1.00  0.00     0.167 HD
ATOM     68  C   UNL A   1      43.822  30.828  29.177  1.00  0.00     0.074 A 
ATOM     69  C   UNL A   1      42.788  31.686  29.717  1.00  0.00     0.031 C 
ATOM     70  C   UNL A   1      45.108  31.205  28.987  1.00  0.00     0.037 A 
BRANCH  57  71
ATOM     71  C   UNL A   1      48.647  26.839  26.468  1.00  0.00     0.064 A 
ATOM     72  C   UNL A   1      49.574  26.202  27.302  1.00  0.00     0.173 A 
ATOM     73  C   UNL A   1      48.998  27.068  25.132  1.00  0.00     0.173 A 
ATOM     74  F   UNL A   1      49.279  25.973  28.590  1.00  0.00    -0.203 F 
ATOM     75  C   UNL A   1      50.817  25.810  26.813  1.00  0.00     0.198 A 
ATOM     76  C   UNL A   1      50.240  26.670  24.645  1.00  0.00     0.198 A 
ATOM     77  F   UNL A   1      48.140  27.678  24.302  1.00  0.00    -0.203 F 
ATOM     78  F   UNL A   1      51.698  25.210  27.627  1.00  0.00    -0.200 F 
ATOM     79  C   UNL A   1      51.148  26.041  25.485  1.00  0.00     0.200 A 
ATOM     80  F   UNL A   1      50.561  26.897  23.363  1.00  0.00    -0.200 F 
ATOM     81  F   UNL A   1      52.345  25.663  25.016  1.00  0.00    -0.200 F 
ENDBRANCH  57  71
BRANCH  58  82
ATOM     82  C   UNL A   1      39.544  29.007  29.781  1.00  0.00     0.064 A 
ATOM     83  C   UNL A   1      39.213  28.751  31.116  1.00  0.00     0.173 A 
ATOM     84  C   UNL A   1      38.574  29.586  28.954  1.00  0.00     0.173 A 
ATOM     85  F   UNL A   1      40.112  28.182  31.933  1.00  0.00    -0.203 F 
ATOM     86  C   UNL A   1      37.950  29.065  31.610  1.00  0.00     0.198 A 
ATOM     87  C   UNL A   1      37.313  29.904  29.451  1.00  0.00     0.198 A 
ATOM     88  F   UNL A   1      38.854  29.840  27.668  1.00  0.00    -0.203 F 
ATOM     89  F   UNL A   1      37.648  28.802  32.889  1.00  0.00    -0.200 F 
ATOM     90  C   UNL A   1      37.002  29.644  30.778  1.00  0.00     0.200 A 
ATOM     91  F   UNL A   1      36.400  30.463  28.645  1.00  0.00    -0.200 F 
ATOM     92  F   UNL A   1      35.787  29.948  31.253  1.00  0.00    -0.200 F 
ENDBRANCH  58  82
BRANCH  70  93
ATOM     93  C   UNL A   1      45.468  32.603  29.372  1.00  0.00     0.064 A 
ATOM     94  C   UNL A   1      45.354  33.653  28.452  1.00  0.00     0.173 A 
ATOM     95  C   UNL A   1      45.903  32.900  30.671  1.00  0.00     0.173 A 
ATOM     96  F   UNL A   1      44.953  33.408  27.195  1.00  0.00    -0.203 F 
ATOM     97  C   UNL A   1      45.667  34.959  28.818  1.00  0.00     0.198 A 
ATOM     98  C   UNL A   1      46.213  34.208  31.034  1.00  0.00     0.198 A 
ATOM     99  F   UNL A   1      46.035  31.922  31.579  1.00  0.00    -0.203 F 
ATOM    100  F   UNL A   1      45.564  35.949  27.922  1.00  0.00    -0.200 F 
ATOM    101  C   UNL A   1      46.094  35.235  30.109  1.00  0.00     0.200 A 
ATOM    102  F   UNL A   1      46.634  34.474  32.278  1.00  0.00    -0.200 F 
ATOM    103  F   UNL A   1      46.402  36.492  30.459  1.00  0.00    -0.200 F 
ENDBRANCH  70  93
ENDBRANCH  44  45
ENDBRANCH  36  39
ENDBRANCH  34  35
ENDBRANCH  33  34
ENDBRANCH  32  33
ENDBRANCH   1  32
TORSDOF 17
ENDMDL
