MODEL 1
REMARK VINA RESULT:     -12.0      0.000      0.000
REMARK SMILES Cc1nn(C)c(C)c1[C@H](C)N1C(=O)CC[C@@H](C(=O)NCCCCCCNC(=O)c2ccc(-c3c4nc(c(-c5c(F)c(F)c(F)c(F)c5F)c5ccc([nH]5)c(-c5c(F)c(F)c(F)c(F)c5F)c5nc(c(-c6c(F)c(F)c(F)c(F)c6F)c6ccc3[nH]6)C=C5)C=C4)cc2)[C@@H]1c1ccco1
REMARK SMILES IDX 22 1 21 2 20 3 19 4 17 5 18 6 16 8 11 9 12 10 92 11 13 12
REMARK SMILES IDX 14 13 15 14 9 15 10 16 8 17 1 18 2 19 3 20 4 21 6 22 5 23
REMARK SMILES IDX 7 24 93 25 94 26 97 27 95 28 96 29 23 30 24 31 25 32 26 33
REMARK SMILES IDX 27 34 28 36 29 37 30 38 91 39 31 40 90 41 32 42 33 43 34 44
REMARK SMILES IDX 84 45 35 46 89 47 83 48 85 49 36 50 88 51 82 52 81 53 37 55
REMARK SMILES IDX 69 56 49 57 68 58 50 59 53 60 67 61 86 62 51 63 52 64 66 66
REMARK SMILES IDX 87 67 54 68 38 69 39 70 47 71 40 72 41 73 45 74 48 75 42 76
REMARK SMILES IDX 43 77 46 78 44 79 70 80 71 81 79 82 72 83 73 84 77 85 80 86
REMARK SMILES IDX 74 87 75 88 78 89 76 90 55 91 56 92 64 93 57 94 58 95 62 96
REMARK SMILES IDX 65 97 59 98 60 99 63 100 61 101
REMARK H PARENT 19 7 26 35 85 54 53 65
REMARK Flexibility Score: inf
ROOT
ATOM      1  C   UNL A   1      35.023  32.797  28.762  1.00  0.00     0.002 C 
ENDROOT
BRANCH   1   2
ATOM      2  C   UNL A   1      35.420  31.715  27.745  1.00  0.00     0.021 C 
BRANCH   2   3
ATOM      3  C   UNL A   1      34.443  30.541  27.668  1.00  0.00     0.116 C 
BRANCH   3   4
ATOM      4  N   UNL A   1      34.812  29.658  26.583  1.00  0.00    -0.356 N 
ATOM      5  C   UNL A   1      34.041  29.057  25.643  1.00  0.00     0.225 C 
ATOM      6  O   UNL A   1      34.537  28.089  25.068  1.00  0.00    -0.275 OA
ATOM      7  H   UNL A   1      35.775  29.464  26.516  1.00  0.00     0.163 HD
BRANCH   5   8
ATOM      8  C   UNL A   1      32.676  29.630  25.269  1.00  0.00     0.109 C 
ATOM      9  N   UNL A   1      31.463  27.413  25.166  1.00  0.00    -0.325 N 
ATOM     10  C   UNL A   1      31.311  27.456  26.552  1.00  0.00     0.223 C 
ATOM     11  C   UNL A   1      31.941  28.586  24.412  1.00  0.00     0.164 C 
ATOM     12  O   UNL A   1      31.078  26.449  27.228  1.00  0.00    -0.275 OA
ATOM     13  C   UNL A   1      31.436  28.778  27.286  1.00  0.00     0.101 C 
ATOM     14  C   UNL A   1      31.845  29.991  26.483  1.00  0.00     0.026 C 
BRANCH   9  15
ATOM     15  C   UNL A   1      31.244  26.084  24.510  1.00  0.00     0.117 C 
ATOM     16  C   UNL A   1      30.055  26.146  23.537  1.00  0.00     0.036 C 
BRANCH  15  17
ATOM     17  C   UNL A   1      32.498  25.444  23.901  1.00  0.00     0.018 A 
ATOM     18  C   UNL A   1      32.413  25.914  21.256  1.00  0.00     0.069 C 
ATOM     19  C   UNL A   1      32.972  25.411  22.541  1.00  0.00     0.065 A 
ATOM     20  N   UNL A   1      34.136  24.759  22.437  1.00  0.00    -0.178 NA
ATOM     21  N   UNL A   1      34.407  24.339  23.671  1.00  0.00    -0.272 N 
ATOM     22  C   UNL A   1      33.426  24.638  24.576  1.00  0.00     0.040 A 
ATOM     23  C   UNL A   1      35.662  23.657  23.884  1.00  0.00     0.174 C 
ATOM     24  C   UNL A   1      33.482  24.169  25.987  1.00  0.00     0.067 C 
ENDBRANCH  15  17
ENDBRANCH   9  15
BRANCH  11  25
ATOM     25  C   UNL A   1      30.863  29.212  23.575  1.00  0.00     0.127 A 
ATOM     26  C   UNL A   1      29.683  29.840  23.930  1.00  0.00     0.048 A 
ATOM     27  O   UNL A   1      31.007  29.234  22.219  1.00  0.00    -0.467 OA
ATOM     28  C   UNL A   1      29.090  30.289  22.729  1.00  0.00     0.042 A 
ATOM     29  C   UNL A   1      29.940  29.909  21.720  1.00  0.00     0.195 A 
ENDBRANCH  11  25
ENDBRANCH   5   8
ENDBRANCH   3   4
ENDBRANCH   2   3
ENDBRANCH   1   2
BRANCH   1  30
ATOM     30  C   UNL A   1      34.561  34.125  28.153  1.00  0.00     0.002 C 
BRANCH  30  31
ATOM     31  C   UNL A   1      33.232  34.655  28.694  1.00  0.00     0.021 C 
BRANCH  31  32
ATOM     32  C   UNL A   1      33.307  36.053  29.294  1.00  0.00     0.116 C 
BRANCH  32  33
ATOM     33  N   UNL A   1      32.528  36.169  30.517  1.00  0.00    -0.352 N 
ATOM     34  C   UNL A   1      32.702  35.530  31.718  1.00  0.00     0.251 C 
ATOM     35  H   UNL A   1      31.768  36.793  30.477  1.00  0.00     0.163 HD
ATOM     36  O   UNL A   1      31.838  35.599  32.588  1.00  0.00    -0.269 OA
BRANCH  34  37
ATOM     37  C   UNL A   1      33.923  34.732  31.955  1.00  0.00     0.039 A 
ATOM     38  C   UNL A   1      35.169  35.348  31.820  1.00  0.00     0.014 A 
ATOM     39  C   UNL A   1      33.842  33.384  32.316  1.00  0.00     0.014 A 
ATOM     40  C   UNL A   1      36.331  34.631  32.110  1.00  0.00     0.010 A 
ATOM     41  C   UNL A   1      34.994  32.693  32.679  1.00  0.00     0.010 A 
ATOM     42  C   UNL A   1      36.251  33.310  32.581  1.00  0.00    -0.014 A 
BRANCH  42  43
ATOM     43  C   UNL A   1      37.468  32.563  32.991  1.00  0.00     0.031 A 
ATOM     44  C   UNL A   1      38.158  32.892  34.285  1.00  0.00     0.074 A 
ATOM     45  C   UNL A   1      37.988  31.635  32.165  1.00  0.00     0.049 A 
ATOM     46  N   UNL A   1      39.269  32.404  34.778  1.00  0.00    -0.248 NA
ATOM     47  C   UNL A   1      37.532  33.924  35.126  1.00  0.00     0.031 C 
ATOM     48  C   UNL A   1      37.434  31.258  30.864  1.00  0.00     0.029 A 
ATOM     49  N   UNL A   1      39.106  30.848  32.291  1.00  0.00    -0.354 N 
ATOM     50  C   UNL A   1      39.477  33.074  35.977  1.00  0.00     0.074 A 
ATOM     51  C   UNL A   1      38.411  34.042  36.110  1.00  0.00     0.031 C 
ATOM     52  C   UNL A   1      38.200  30.298  30.321  1.00  0.00     0.029 A 
ATOM     53  C   UNL A   1      39.323  30.024  31.212  1.00  0.00     0.049 A 
ATOM     54  H   UNL A   1      39.696  30.872  33.078  1.00  0.00     0.167 HD
ATOM     55  C   UNL A   1      40.457  32.883  36.892  1.00  0.00     0.037 A 
ATOM     56  C   UNL A   1      40.321  29.155  30.964  1.00  0.00     0.037 A 
ATOM     57  C   UNL A   1      41.508  31.907  36.761  1.00  0.00     0.049 A 
ATOM     58  C   UNL A   1      41.412  28.980  31.988  1.00  0.00     0.074 A 
ATOM     59  C   UNL A   1      42.516  31.599  37.658  1.00  0.00     0.029 A 
ATOM     60  N   UNL A   1      41.691  31.084  35.659  1.00  0.00    -0.354 N 
ATOM     61  N   UNL A   1      41.561  29.571  33.149  1.00  0.00    -0.248 NA
ATOM     62  C   UNL A   1      42.468  28.011  31.669  1.00  0.00     0.031 C 
ATOM     63  C   UNL A   1      43.342  30.632  37.074  1.00  0.00     0.029 A 
ATOM     64  C   UNL A   1      42.811  30.288  35.842  1.00  0.00     0.049 A 
ATOM     65  H   UNL A   1      41.109  31.066  34.865  1.00  0.00     0.167 HD
ATOM     66  C   UNL A   1      42.706  29.024  33.712  1.00  0.00     0.074 A 
ATOM     67  C   UNL A   1      43.204  28.043  32.772  1.00  0.00     0.031 C 
ATOM     68  C   UNL A   1      43.291  29.308  34.901  1.00  0.00     0.037 A 
BRANCH  55  69
ATOM     69  C   UNL A   1      40.444  33.750  38.119  1.00  0.00     0.064 A 
ATOM     70  C   UNL A   1      39.655  33.434  39.237  1.00  0.00     0.173 A 
ATOM     71  C   UNL A   1      41.265  34.884  38.199  1.00  0.00     0.173 A 
ATOM     72  F   UNL A   1      38.844  32.366  39.211  1.00  0.00    -0.203 F 
ATOM     73  C   UNL A   1      39.667  34.238  40.374  1.00  0.00     0.198 A 
ATOM     74  C   UNL A   1      41.300  35.667  39.350  1.00  0.00     0.198 A 
ATOM     75  F   UNL A   1      42.045  35.229  37.163  1.00  0.00    -0.203 F 
ATOM     76  F   UNL A   1      38.866  33.945  41.408  1.00  0.00    -0.200 F 
ATOM     77  C   UNL A   1      40.496  35.348  40.433  1.00  0.00     0.200 A 
ATOM     78  F   UNL A   1      42.114  36.730  39.411  1.00  0.00    -0.200 F 
ATOM     79  F   UNL A   1      40.513  36.115  41.532  1.00  0.00    -0.200 F 
ENDBRANCH  55  69
BRANCH  56  80
ATOM     80  C   UNL A   1      40.332  28.374  29.700  1.00  0.00     0.064 A 
ATOM     81  C   UNL A   1      41.043  28.826  28.578  1.00  0.00     0.173 A 
ATOM     82  C   UNL A   1      39.624  27.169  29.579  1.00  0.00     0.173 A 
ATOM     83  F   UNL A   1      41.719  29.983  28.637  1.00  0.00    -0.203 F 
ATOM     84  C   UNL A   1      41.023  28.117  27.379  1.00  0.00     0.198 A 
ATOM     85  C   UNL A   1      39.633  26.443  28.389  1.00  0.00     0.198 A 
ATOM     86  F   UNL A   1      38.933  26.687  30.623  1.00  0.00    -0.203 F 
ATOM     87  F   UNL A   1      41.667  28.600  26.307  1.00  0.00    -0.200 F 
ATOM     88  C   UNL A   1      40.323  26.923  27.288  1.00  0.00     0.200 A 
ATOM     89  F   UNL A   1      38.971  25.282  28.312  1.00  0.00    -0.200 F 
ATOM     90  F   UNL A   1      40.308  26.239  26.135  1.00  0.00    -0.200 F 
ENDBRANCH  56  80
BRANCH  68  91
ATOM     91  C   UNL A   1      44.512  28.517  35.277  1.00  0.00     0.064 A 
ATOM     92  C   UNL A   1      45.806  28.959  34.963  1.00  0.00     0.173 A 
ATOM     93  C   UNL A   1      44.385  27.318  35.996  1.00  0.00     0.173 A 
ATOM     94  F   UNL A   1      45.982  30.091  34.266  1.00  0.00    -0.203 F 
ATOM     95  C   UNL A   1      46.924  28.215  35.330  1.00  0.00     0.198 A 
ATOM     96  C   UNL A   1      45.506  26.595  36.390  1.00  0.00     0.198 A 
ATOM     97  F   UNL A   1      43.170  26.854  36.326  1.00  0.00    -0.203 F 
ATOM     98  F   UNL A   1      48.149  28.630  34.973  1.00  0.00    -0.200 F 
ATOM     99  C   UNL A   1      46.775  27.039  36.050  1.00  0.00     0.200 A 
ATOM    100  F   UNL A   1      45.359  25.468  37.100  1.00  0.00    -0.200 F 
ATOM    101  F   UNL A   1      47.853  26.329  36.408  1.00  0.00    -0.200 F 
ENDBRANCH  68  91
ENDBRANCH  42  43
ENDBRANCH  34  37
ENDBRANCH  32  33
ENDBRANCH  31  32
ENDBRANCH  30  31
ENDBRANCH   1  30
TORSDOF 16
ENDMDL
MODEL 2
REMARK VINA RESULT:     -11.9      1.129      2.961
REMARK SMILES Cc1nn(C)c(C)c1[C@H](C)N1C(=O)CC[C@@H](C(=O)NCCCCCCNC(=O)c2ccc(-c3c4nc(c(-c5c(F)c(F)c(F)c(F)c5F)c5ccc([nH]5)c(-c5c(F)c(F)c(F)c(F)c5F)c5nc(c(-c6c(F)c(F)c(F)c(F)c6F)c6ccc3[nH]6)C=C5)C=C4)cc2)[C@@H]1c1ccco1
REMARK SMILES IDX 22 1 21 2 20 3 19 4 17 5 18 6 16 8 11 9 12 10 92 11 13 12
REMARK SMILES IDX 14 13 15 14 9 15 10 16 8 17 1 18 2 19 3 20 4 21 6 22 5 23
REMARK SMILES IDX 7 24 93 25 94 26 97 27 95 28 96 29 23 30 24 31 25 32 26 33
REMARK SMILES IDX 27 34 28 36 29 37 30 38 91 39 31 40 90 41 32 42 33 43 34 44
REMARK SMILES IDX 84 45 35 46 89 47 83 48 85 49 36 50 88 51 82 52 81 53 37 55
REMARK SMILES IDX 69 56 49 57 68 58 50 59 53 60 67 61 86 62 51 63 52 64 66 66
REMARK SMILES IDX 87 67 54 68 38 69 39 70 47 71 40 72 41 73 45 74 48 75 42 76
REMARK SMILES IDX 43 77 46 78 44 79 70 80 71 81 79 82 72 83 73 84 77 85 80 86
REMARK SMILES IDX 74 87 75 88 78 89 76 90 55 91 56 92 64 93 57 94 58 95 62 96
REMARK SMILES IDX 65 97 59 98 60 99 63 100 61 101
REMARK H PARENT 19 7 26 35 85 54 53 65
REMARK Flexibility Score: inf
ROOT
ATOM      1  C   UNL A   1      34.573  32.739  28.993  1.00  0.00     0.002 C 
ENDROOT
BRANCH   1   2
ATOM      2  C   UNL A   1      34.417  31.995  27.657  1.00  0.00     0.021 C 
BRANCH   2   3
ATOM      3  C   UNL A   1      33.751  30.624  27.779  1.00  0.00     0.116 C 
BRANCH   3   4
ATOM      4  N   UNL A   1      32.531  30.593  27.002  1.00  0.00    -0.356 N 
ATOM      5  C   UNL A   1      32.015  29.611  26.222  1.00  0.00     0.225 C 
ATOM      6  O   UNL A   1      31.169  29.957  25.398  1.00  0.00    -0.275 OA
ATOM      7  H   UNL A   1      31.990  31.414  27.048  1.00  0.00     0.163 HD
BRANCH   5   8
ATOM      8  C   UNL A   1      32.408  28.152  26.441  1.00  0.00     0.109 C 
ATOM      9  N   UNL A   1      32.027  27.400  24.057  1.00  0.00    -0.325 N 
ATOM     10  C   UNL A   1      33.291  27.886  23.725  1.00  0.00     0.223 C 
ATOM     11  C   UNL A   1      31.595  27.289  25.462  1.00  0.00     0.164 C 
ATOM     12  O   UNL A   1      33.620  28.149  22.564  1.00  0.00    -0.275 OA
ATOM     13  C   UNL A   1      34.325  28.113  24.812  1.00  0.00     0.101 C 
ATOM     14  C   UNL A   1      33.891  27.912  26.246  1.00  0.00     0.026 C 
BRANCH   9  15
ATOM     15  C   UNL A   1      31.095  27.126  22.916  1.00  0.00     0.117 C 
ATOM     16  C   UNL A   1      30.915  25.613  22.711  1.00  0.00     0.036 C 
BRANCH  15  17
ATOM     17  C   UNL A   1      29.770  27.898  22.960  1.00  0.00     0.018 A 
ATOM     18  C   UNL A   1      27.940  26.256  24.046  1.00  0.00     0.069 C 
ATOM     19  C   UNL A   1      28.474  27.516  23.460  1.00  0.00     0.065 A 
ATOM     20  N   UNL A   1      27.580  28.503  23.327  1.00  0.00    -0.178 NA
ATOM     21  N   UNL A   1      28.242  29.489  22.725  1.00  0.00    -0.272 N 
ATOM     22  C   UNL A   1      29.529  29.160  22.397  1.00  0.00     0.040 A 
ATOM     23  C   UNL A   1      27.542  30.733  22.514  1.00  0.00     0.174 C 
ATOM     24  C   UNL A   1      30.409  30.080  21.627  1.00  0.00     0.067 C 
ENDBRANCH  15  17
ENDBRANCH   9  15
BRANCH  11  25
ATOM     25  C   UNL A   1      31.498  25.864  25.924  1.00  0.00     0.127 A 
ATOM     26  C   UNL A   1      32.464  24.883  26.063  1.00  0.00     0.048 A 
ATOM     27  O   UNL A   1      30.287  25.378  26.322  1.00  0.00    -0.467 OA
ATOM     28  C   UNL A   1      31.811  23.749  26.597  1.00  0.00     0.042 A 
ATOM     29  C   UNL A   1      30.493  24.106  26.750  1.00  0.00     0.195 A 
ENDBRANCH  11  25
ENDBRANCH   5   8
ENDBRANCH   3   4
ENDBRANCH   2   3
ENDBRANCH   1   2
BRANCH   1  30
ATOM     30  C   UNL A   1      34.544  34.268  28.894  1.00  0.00     0.002 C 
BRANCH  30  31
ATOM     31  C   UNL A   1      33.168  34.902  29.104  1.00  0.00     0.021 C 
BRANCH  31  32
ATOM     32  C   UNL A   1      33.203  36.309  29.686  1.00  0.00     0.116 C 
BRANCH  32  33
ATOM     33  N   UNL A   1      32.447  36.410  30.925  1.00  0.00    -0.352 N 
ATOM     34  C   UNL A   1      32.645  35.757  32.115  1.00  0.00     0.251 C 
ATOM     35  H   UNL A   1      31.687  37.035  30.906  1.00  0.00     0.163 HD
ATOM     36  O   UNL A   1      31.797  35.816  33.002  1.00  0.00    -0.269 OA
BRANCH  34  37
ATOM     37  C   UNL A   1      33.870  34.957  32.319  1.00  0.00     0.039 A 
ATOM     38  C   UNL A   1      35.111  35.594  32.254  1.00  0.00     0.014 A 
ATOM     39  C   UNL A   1      33.797  33.585  32.580  1.00  0.00     0.014 A 
ATOM     40  C   UNL A   1      36.275  34.869  32.517  1.00  0.00     0.010 A 
ATOM     41  C   UNL A   1      34.950  32.882  32.916  1.00  0.00     0.010 A 
ATOM     42  C   UNL A   1      36.201  33.517  32.889  1.00  0.00    -0.014 A 
BRANCH  42  43
ATOM     43  C   UNL A   1      37.418  32.755  33.269  1.00  0.00     0.031 A 
ATOM     44  C   UNL A   1      38.130  33.059  34.558  1.00  0.00     0.074 A 
ATOM     45  C   UNL A   1      37.919  31.836  32.421  1.00  0.00     0.049 A 
ATOM     46  N   UNL A   1      39.244  32.555  35.027  1.00  0.00    -0.248 NA
ATOM     47  C   UNL A   1      37.525  34.083  35.423  1.00  0.00     0.031 C 
ATOM     48  C   UNL A   1      37.342  31.482  31.123  1.00  0.00     0.029 A 
ATOM     49  N   UNL A   1      39.032  31.038  32.519  1.00  0.00    -0.354 N 
ATOM     50  C   UNL A   1      39.476  33.206  36.232  1.00  0.00     0.074 A 
ATOM     51  C   UNL A   1      38.420  34.179  36.396  1.00  0.00     0.031 C 
ATOM     52  C   UNL A   1      38.092  30.525  30.555  1.00  0.00     0.029 A 
ATOM     53  C   UNL A   1      39.227  30.229  31.425  1.00  0.00     0.049 A 
ATOM     54  H   UNL A   1      39.634  31.046  33.297  1.00  0.00     0.167 HD
ATOM     55  C   UNL A   1      40.468  32.993  37.129  1.00  0.00     0.037 A 
ATOM     56  C   UNL A   1      40.214  29.356  31.149  1.00  0.00     0.037 A 
ATOM     57  C   UNL A   1      41.509  32.011  36.968  1.00  0.00     0.049 A 
ATOM     58  C   UNL A   1      41.318  29.157  32.153  1.00  0.00     0.074 A 
ATOM     59  C   UNL A   1      42.528  31.682  37.845  1.00  0.00     0.029 A 
ATOM     60  N   UNL A   1      41.669  31.204  35.851  1.00  0.00    -0.354 N 
ATOM     61  N   UNL A   1      41.490  29.730  33.321  1.00  0.00    -0.248 NA
ATOM     62  C   UNL A   1      42.363  28.186  31.804  1.00  0.00     0.031 C 
ATOM     63  C   UNL A   1      43.337  30.718  37.234  1.00  0.00     0.029 A 
ATOM     64  C   UNL A   1      42.786  30.397  36.005  1.00  0.00     0.049 A 
ATOM     65  H   UNL A   1      41.075  31.203  35.065  1.00  0.00     0.167 HD
ATOM     66  C   UNL A   1      42.638  29.166  33.858  1.00  0.00     0.074 A 
ATOM     67  C   UNL A   1      43.115  28.195  32.896  1.00  0.00     0.031 C 
ATOM     68  C   UNL A   1      43.244  29.427  35.043  1.00  0.00     0.037 A 
BRANCH  55  69
ATOM     69  C   UNL A   1      40.480  33.841  38.369  1.00  0.00     0.064 A 
ATOM     70  C   UNL A   1      39.749  33.485  39.514  1.00  0.00     0.173 A 
ATOM     71  C   UNL A   1      41.269  35.000  38.433  1.00  0.00     0.173 A 
ATOM     72  F   UNL A   1      38.970  32.393  39.505  1.00  0.00    -0.203 F 
ATOM     73  C   UNL A   1      39.784  34.272  40.661  1.00  0.00     0.198 A 
ATOM     74  C   UNL A   1      41.328  35.766  39.594  1.00  0.00     0.198 A 
ATOM     75  F   UNL A   1      41.994  35.384  37.371  1.00  0.00    -0.203 F 
ATOM     76  F   UNL A   1      39.037  33.940  41.723  1.00  0.00    -0.200 F 
ATOM     77  C   UNL A   1      40.580  35.407  40.704  1.00  0.00     0.200 A 
ATOM     78  F   UNL A   1      42.111  36.854  39.637  1.00  0.00    -0.200 F 
ATOM     79  F   UNL A   1      40.620  36.158  41.813  1.00  0.00    -0.200 F 
ENDBRANCH  55  69
BRANCH  56  80
ATOM     80  C   UNL A   1      40.200  28.594  29.873  1.00  0.00     0.064 A 
ATOM     81  C   UNL A   1      39.531  27.366  29.774  1.00  0.00     0.173 A 
ATOM     82  C   UNL A   1      40.863  29.068  28.731  1.00  0.00     0.173 A 
ATOM     83  F   UNL A   1      38.899  26.860  30.843  1.00  0.00    -0.203 F 
ATOM     84  C   UNL A   1      39.549  26.629  28.591  1.00  0.00     0.198 A 
ATOM     85  C   UNL A   1      40.851  28.346  27.539  1.00  0.00     0.198 A 
ATOM     86  F   UNL A   1      41.513  30.241  28.769  1.00  0.00    -0.203 F 
ATOM     87  F   UNL A   1      38.946  25.433  28.540  1.00  0.00    -0.200 F 
ATOM     88  C   UNL A   1      40.204  27.123  27.473  1.00  0.00     0.200 A 
ATOM     89  F   UNL A   1      41.470  28.837  26.457  1.00  0.00    -0.200 F 
ATOM     90  F   UNL A   1      40.217  26.416  26.334  1.00  0.00    -0.200 F 
ENDBRANCH  56  80
BRANCH  68  91
ATOM     91  C   UNL A   1      44.464  28.622  35.387  1.00  0.00     0.064 A 
ATOM     92  C   UNL A   1      45.757  29.057  35.059  1.00  0.00     0.173 A 
ATOM     93  C   UNL A   1      44.339  27.414  36.092  1.00  0.00     0.173 A 
ATOM     94  F   UNL A   1      45.931  30.197  34.374  1.00  0.00    -0.203 F 
ATOM     95  C   UNL A   1      46.874  28.299  35.398  1.00  0.00     0.198 A 
ATOM     96  C   UNL A   1      45.460  26.677  36.459  1.00  0.00     0.198 A 
ATOM     97  F   UNL A   1      43.126  26.956  36.437  1.00  0.00    -0.203 F 
ATOM     98  F   UNL A   1      48.096  28.709  35.026  1.00  0.00    -0.200 F 
ATOM     99  C   UNL A   1      46.727  27.116  36.104  1.00  0.00     0.200 A 
ATOM    100  F   UNL A   1      45.315  25.541  37.156  1.00  0.00    -0.200 F 
ATOM    101  F   UNL A   1      47.805  26.392  36.435  1.00  0.00    -0.200 F 
ENDBRANCH  68  91
ENDBRANCH  42  43
ENDBRANCH  34  37
ENDBRANCH  32  33
ENDBRANCH  31  32
ENDBRANCH  30  31
ENDBRANCH   1  30
TORSDOF 16
ENDMDL
MODEL 3
REMARK VINA RESULT:     -11.7      1.812      7.703
REMARK SMILES Cc1nn(C)c(C)c1[C@H](C)N1C(=O)CC[C@@H](C(=O)NCCCCCCNC(=O)c2ccc(-c3c4nc(c(-c5c(F)c(F)c(F)c(F)c5F)c5ccc([nH]5)c(-c5c(F)c(F)c(F)c(F)c5F)c5nc(c(-c6c(F)c(F)c(F)c(F)c6F)c6ccc3[nH]6)C=C5)C=C4)cc2)[C@@H]1c1ccco1
REMARK SMILES IDX 22 1 21 2 20 3 19 4 17 5 18 6 16 8 11 9 12 10 92 11 13 12
REMARK SMILES IDX 14 13 15 14 9 15 10 16 8 17 1 18 2 19 3 20 4 21 6 22 5 23
REMARK SMILES IDX 7 24 93 25 94 26 97 27 95 28 96 29 23 30 24 31 25 32 26 33
REMARK SMILES IDX 27 34 28 36 29 37 30 38 91 39 31 40 90 41 32 42 33 43 34 44
REMARK SMILES IDX 84 45 35 46 89 47 83 48 85 49 36 50 88 51 82 52 81 53 37 55
REMARK SMILES IDX 69 56 49 57 68 58 50 59 53 60 67 61 86 62 51 63 52 64 66 66
REMARK SMILES IDX 87 67 54 68 38 69 39 70 47 71 40 72 41 73 45 74 48 75 42 76
REMARK SMILES IDX 43 77 46 78 44 79 70 80 71 81 79 82 72 83 73 84 77 85 80 86
REMARK SMILES IDX 74 87 75 88 78 89 76 90 55 91 56 92 64 93 57 94 58 95 62 96
REMARK SMILES IDX 65 97 59 98 60 99 63 100 61 101
REMARK H PARENT 19 7 26 35 85 54 53 65
REMARK Flexibility Score: inf
ROOT
ATOM      1  C   UNL A   1      33.268  30.166  26.600  1.00  0.00     0.002 C 
ENDROOT
BRANCH   1   2
ATOM      2  C   UNL A   1      33.665  28.839  27.265  1.00  0.00     0.021 C 
BRANCH   2   3
ATOM      3  C   UNL A   1      33.679  27.642  26.313  1.00  0.00     0.116 C 
BRANCH   3   4
ATOM      4  N   UNL A   1      32.661  27.803  25.298  1.00  0.00    -0.356 N 
ATOM      5  C   UNL A   1      32.691  27.510  23.974  1.00  0.00     0.225 C 
ATOM      6  O   UNL A   1      31.846  28.065  23.273  1.00  0.00    -0.275 OA
ATOM      7  H   UNL A   1      31.812  28.185  25.620  1.00  0.00     0.163 HD
BRANCH   5   8
ATOM      8  C   UNL A   1      33.668  26.471  23.426  1.00  0.00     0.109 C 
ATOM      9  N   UNL A   1      32.406  24.441  24.252  1.00  0.00    -0.325 N 
ATOM     10  C   UNL A   1      31.578  24.528  23.133  1.00  0.00     0.223 C 
ATOM     11  C   UNL A   1      33.634  25.249  24.359  1.00  0.00     0.164 C 
ATOM     12  O   UNL A   1      30.463  23.997  23.087  1.00  0.00    -0.275 OA
ATOM     13  C   UNL A   1      32.035  25.302  21.911  1.00  0.00     0.101 C 
ATOM     14  C   UNL A   1      33.340  26.057  22.006  1.00  0.00     0.026 C 
BRANCH   9  15
ATOM     15  C   UNL A   1      31.915  23.591  25.384  1.00  0.00     0.117 C 
ATOM     16  C   UNL A   1      30.382  23.470  25.350  1.00  0.00     0.036 C 
BRANCH  15  17
ATOM     17  C   UNL A   1      32.631  22.244  25.545  1.00  0.00     0.018 A 
ATOM     18  C   UNL A   1      33.844  22.281  27.942  1.00  0.00     0.069 C 
ATOM     19  C   UNL A   1      33.409  21.716  26.636  1.00  0.00     0.065 A 
ATOM     20  N   UNL A   1      33.845  20.477  26.380  1.00  0.00    -0.178 NA
ATOM     21  N   UNL A   1      33.409  20.205  25.152  1.00  0.00    -0.272 N 
ATOM     22  C   UNL A   1      32.754  21.251  24.562  1.00  0.00     0.040 A 
ATOM     23  C   UNL A   1      33.669  18.885  24.628  1.00  0.00     0.174 C 
ATOM     24  C   UNL A   1      32.278  21.193  23.154  1.00  0.00     0.067 C 
ENDBRANCH  15  17
ENDBRANCH   9  15
BRANCH  11  25
ATOM     25  C   UNL A   1      34.881  24.422  24.238  1.00  0.00     0.127 A 
ATOM     26  C   UNL A   1      35.898  24.168  25.140  1.00  0.00     0.048 A 
ATOM     27  O   UNL A   1      35.116  23.748  23.076  1.00  0.00    -0.467 OA
ATOM     28  C   UNL A   1      36.785  23.272  24.503  1.00  0.00     0.042 A 
ATOM     29  C   UNL A   1      36.259  23.036  23.257  1.00  0.00     0.195 A 
ENDBRANCH  11  25
ENDBRANCH   5   8
ENDBRANCH   3   4
ENDBRANCH   2   3
ENDBRANCH   1   2
BRANCH   1  30
ATOM     30  C   UNL A   1      31.811  30.592  26.816  1.00  0.00     0.002 C 
BRANCH  30  31
ATOM     31  C   UNL A   1      31.586  32.103  26.891  1.00  0.00     0.021 C 
BRANCH  31  32
ATOM     32  C   UNL A   1      32.831  32.910  27.241  1.00  0.00     0.116 C 
BRANCH  32  33
ATOM     33  N   UNL A   1      32.507  34.268  27.651  1.00  0.00    -0.352 N 
ATOM     34  C   UNL A   1      33.023  35.005  28.687  1.00  0.00     0.251 C 
ATOM     35  H   UNL A   1      31.822  34.721  27.109  1.00  0.00     0.163 HD
ATOM     36  O   UNL A   1      32.500  36.068  29.011  1.00  0.00    -0.269 OA
BRANCH  34  37
ATOM     37  C   UNL A   1      34.195  34.503  29.433  1.00  0.00     0.039 A 
ATOM     38  C   UNL A   1      33.995  33.891  30.672  1.00  0.00     0.014 A 
ATOM     39  C   UNL A   1      35.486  34.628  28.912  1.00  0.00     0.014 A 
ATOM     40  C   UNL A   1      35.083  33.345  31.358  1.00  0.00     0.010 A 
ATOM     41  C   UNL A   1      36.557  34.018  29.558  1.00  0.00     0.010 A 
ATOM     42  C   UNL A   1      36.366  33.369  30.788  1.00  0.00    -0.014 A 
BRANCH  42  43
ATOM     43  C   UNL A   1      37.517  32.707  31.454  1.00  0.00     0.031 A 
ATOM     44  C   UNL A   1      38.188  31.526  30.810  1.00  0.00     0.074 A 
ATOM     45  C   UNL A   1      37.913  33.129  32.670  1.00  0.00     0.049 A 
ATOM     46  N   UNL A   1      39.155  30.772  31.268  1.00  0.00    -0.248 NA
ATOM     47  C   UNL A   1      37.690  31.122  29.486  1.00  0.00     0.031 C 
ATOM     48  C   UNL A   1      37.313  34.236  33.416  1.00  0.00     0.029 A 
ATOM     49  N   UNL A   1      38.906  32.670  33.499  1.00  0.00    -0.354 N 
ATOM     50  C   UNL A   1      39.373  29.804  30.297  1.00  0.00     0.074 A 
ATOM     51  C   UNL A   1      38.401  30.030  29.251  1.00  0.00     0.031 C 
ATOM     52  C   UNL A   1      37.964  34.385  34.582  1.00  0.00     0.029 A 
ATOM     53  C   UNL A   1      38.995  33.357  34.686  1.00  0.00     0.049 A 
ATOM     54  H   UNL A   1      39.499  31.919  33.266  1.00  0.00     0.167 HD
ATOM     55  C   UNL A   1      40.314  28.830  30.273  1.00  0.00     0.037 A 
ATOM     56  C   UNL A   1      39.806  33.171  35.744  1.00  0.00     0.037 A 
ATOM     57  C   UNL A   1      41.290  28.619  31.311  1.00  0.00     0.049 A 
ATOM     58  C   UNL A   1      40.827  32.064  35.700  1.00  0.00     0.074 A 
ATOM     59  C   UNL A   1      42.318  27.694  31.353  1.00  0.00     0.029 A 
ATOM     60  N   UNL A   1      41.354  29.340  32.494  1.00  0.00    -0.354 N 
ATOM     61  N   UNL A   1      41.068  31.197  34.747  1.00  0.00    -0.248 NA
ATOM     62  C   UNL A   1      41.691  31.916  36.878  1.00  0.00     0.031 C 
ATOM     63  C   UNL A   1      42.967  27.816  32.586  1.00  0.00     0.029 A 
ATOM     64  C   UNL A   1      42.387  28.862  33.285  1.00  0.00     0.049 A 
ATOM     65  H   UNL A   1      40.755  30.084  32.735  1.00  0.00     0.167 HD
ATOM     66  C   UNL A   1      42.130  30.424  35.193  1.00  0.00     0.074 A 
ATOM     67  C   UNL A   1      42.497  30.934  36.497  1.00  0.00     0.031 C 
ATOM     68  C   UNL A   1      42.747  29.385  34.578  1.00  0.00     0.037 A 
BRANCH  55  69
ATOM     69  C   UNL A   1      40.334  27.910  29.084  1.00  0.00     0.064 A 
ATOM     70  C   UNL A   1      39.575  26.730  29.051  1.00  0.00     0.173 A 
ATOM     71  C   UNL A   1      41.085  28.236  27.944  1.00  0.00     0.173 A 
ATOM     72  F   UNL A   1      38.847  26.365  30.117  1.00  0.00    -0.203 F 
ATOM     73  C   UNL A   1      39.591  25.897  27.935  1.00  0.00     0.198 A 
ATOM     74  C   UNL A   1      41.072  27.418  26.817  1.00  0.00     0.198 A 
ATOM     75  F   UNL A   1      41.823  29.356  27.918  1.00  0.00    -0.203 F 
ATOM     76  F   UNL A   1      38.899  24.749  27.947  1.00  0.00    -0.200 F 
ATOM     77  C   UNL A   1      40.332  26.245  26.816  1.00  0.00     0.200 A 
ATOM     78  F   UNL A   1      41.776  27.766  25.731  1.00  0.00    -0.200 F 
ATOM     79  F   UNL A   1      40.338  25.448  25.740  1.00  0.00    -0.200 F 
ENDBRANCH  55  69
BRANCH  56  80
ATOM     80  C   UNL A   1      39.698  34.060  36.931  1.00  0.00     0.064 A 
ATOM     81  C   UNL A   1      40.401  35.272  36.991  1.00  0.00     0.173 A 
ATOM     82  C   UNL A   1      38.904  33.713  38.034  1.00  0.00     0.173 A 
ATOM     83  F   UNL A   1      41.190  35.639  35.970  1.00  0.00    -0.203 F 
ATOM     84  C   UNL A   1      40.334  36.089  38.118  1.00  0.00     0.198 A 
ATOM     85  C   UNL A   1      38.811  34.548  39.146  1.00  0.00     0.198 A 
ATOM     86  F   UNL A   1      38.205  32.568  38.026  1.00  0.00    -0.203 F 
ATOM     87  F   UNL A   1      41.057  37.216  38.170  1.00  0.00    -0.200 F 
ATOM     88  C   UNL A   1      39.534  35.729  39.192  1.00  0.00     0.200 A 
ATOM     89  F   UNL A   1      38.022  34.204  40.173  1.00  0.00    -0.200 F 
ATOM     90  F   UNL A   1      39.466  36.517  40.274  1.00  0.00    -0.200 F 
ENDBRANCH  56  80
BRANCH  68  91
ATOM     91  C   UNL A   1      43.914  28.757  35.286  1.00  0.00     0.064 A 
ATOM     92  C   UNL A   1      43.751  27.678  36.169  1.00  0.00     0.173 A 
ATOM     93  C   UNL A   1      45.219  29.218  35.048  1.00  0.00     0.173 A 
ATOM     94  F   UNL A   1      42.525  27.209  36.442  1.00  0.00    -0.203 F 
ATOM     95  C   UNL A   1      44.848  27.105  36.807  1.00  0.00     0.198 A 
ATOM     96  C   UNL A   1      46.314  28.619  35.661  1.00  0.00     0.198 A 
ATOM     97  F   UNL A   1      45.430  30.242  34.208  1.00  0.00    -0.203 F 
ATOM     98  F   UNL A   1      44.663  26.110  37.687  1.00  0.00    -0.200 F 
ATOM     99  C   UNL A   1      46.128  27.569  36.547  1.00  0.00     0.200 A 
ATOM    100  F   UNL A   1      47.552  29.059  35.394  1.00  0.00    -0.200 F 
ATOM    101  F   UNL A   1      47.182  27.010  37.156  1.00  0.00    -0.200 F 
ENDBRANCH  68  91
ENDBRANCH  42  43
ENDBRANCH  34  37
ENDBRANCH  32  33
ENDBRANCH  31  32
ENDBRANCH  30  31
ENDBRANCH   1  30
TORSDOF 16
ENDMDL
