MODEL 1
REMARK VINA RESULT:     -12.4      0.000      0.000
REMARK SMILES COc1ccc(OC)c([C@H](C(=O)NCCCCCCNC(=O)c2ccc(-c3c4nc(c(-c5c(F)c(F)c(F)c(F)c5F)c5ccc([nH]5)c(-c5c(F)c(F)c(F)c(F)c5F)c5nc(c(-c6c(F)c(F)c(F)c(F)c6F)c6ccc3[nH]6)C=C5)C=C4)cc2)[NH+]2CC[NH+](Cc3nccn3C)CC2)c1
REMARK SMILES IDX 16 1 15 2 14 3 13 4 11 5 12 6 10 8 9 9 3 10 4 11 99 12 5 13
REMARK SMILES IDX 6 14 2 15 1 16 7 17 8 18 86 19 87 20 98 21 88 23 97 24 89 25
REMARK SMILES IDX 90 27 91 28 92 29 95 30 93 31 94 32 96 33 17 34 18 35 19 36
REMARK SMILES IDX 20 37 21 38 22 40 23 41 24 42 85 43 25 44 84 45 26 46 27 47
REMARK SMILES IDX 28 48 78 49 29 50 83 51 77 52 79 53 30 54 82 55 76 56 75 57
REMARK SMILES IDX 31 59 63 60 43 61 62 62 44 63 47 64 61 65 80 66 45 67 46 68
REMARK SMILES IDX 60 70 81 71 48 72 32 73 33 74 41 75 34 76 35 77 39 78 42 79
REMARK SMILES IDX 36 80 37 81 40 82 38 83 64 84 65 85 73 86 66 87 67 88 71 89
REMARK SMILES IDX 74 90 68 91 69 92 72 93 70 94 49 95 50 96 58 97 51 98 52 99
REMARK SMILES IDX 56 100 59 101 53 102 54 103 57 104 55 105
REMARK H PARENT 13 7 86 22 89 26 20 39 79 58 47 69
REMARK Flexibility Score: inf
ROOT
ATOM      1  C   UNL A   1      32.420  29.894  27.087  1.00  0.00     0.002 C 
ENDROOT
BRANCH   1   2
ATOM      2  C   UNL A   1      31.779  28.534  27.377  1.00  0.00     0.021 C 
BRANCH   2   3
ATOM      3  C   UNL A   1      32.578  27.324  26.875  1.00  0.00     0.116 C 
BRANCH   3   4
ATOM      4  N   UNL A   1      31.963  26.065  27.256  1.00  0.00    -0.351 N 
ATOM      5  C   UNL A   1      31.914  24.843  26.640  1.00  0.00     0.283 C 
ATOM      6  O   UNL A   1      31.176  24.010  27.175  1.00  0.00    -0.268 OA
ATOM      7  H   UNL A   1      31.494  26.095  28.121  1.00  0.00     0.163 HD
BRANCH   5   8
ATOM      8  C   UNL A   1      32.696  24.586  25.321  1.00  0.00     0.309 C 
BRANCH   8   9
ATOM      9  C   UNL A   1      33.212  23.159  25.077  1.00  0.00     0.065 A 
ATOM     10  C   UNL A   1      32.863  20.926  24.093  1.00  0.00     0.119 A 
ATOM     11  C   UNL A   1      34.147  20.557  24.475  1.00  0.00     0.050 A 
ATOM     12  C   UNL A   1      32.414  22.216  24.385  1.00  0.00     0.060 A 
ATOM     13  C   UNL A   1      34.956  21.456  25.168  1.00  0.00     0.051 A 
ATOM     14  C   UNL A   1      34.500  22.744  25.482  1.00  0.00     0.128 A 
BRANCH  10  15
ATOM     15  O   UNL A   1      32.136  19.948  23.470  1.00  0.00    -0.497 OA
ATOM     16  C   UNL A   1      32.547  18.602  23.689  1.00  0.00     0.278 C 
ENDBRANCH  10  15
BRANCH  14  17
ATOM     17  O   UNL A   1      35.332  23.424  26.336  1.00  0.00    -0.496 OA
ATOM     18  C   UNL A   1      36.458  24.070  25.756  1.00  0.00     0.278 C 
ENDBRANCH  14  17
ENDBRANCH   8   9
BRANCH   8  19
ATOM     19  N   UNL A   1      31.945  25.093  24.155  1.00  0.00    -0.311 N 
ATOM     20  C   UNL A   1      30.488  25.230  24.258  1.00  0.00     0.325 C 
ATOM     21  C   UNL A   1      32.570  26.179  23.417  1.00  0.00     0.325 C 
ATOM     22  H   UNL A   1      32.037  24.265  23.567  1.00  0.00     0.349 HD
ATOM     23  C   UNL A   1      29.922  26.660  24.424  1.00  0.00     0.324 C 
ATOM     24  C   UNL A   1      32.023  27.593  23.718  1.00  0.00     0.324 C 
ATOM     25  N   UNL A   1      30.571  27.735  23.654  1.00  0.00    -0.319 N 
ATOM     26  H   UNL A   1      30.345  28.622  24.105  1.00  0.00     0.348 HD
BRANCH  25  27
ATOM     27  C   UNL A   1      30.005  27.960  22.313  1.00  0.00     0.339 C 
BRANCH  27  28
ATOM     28  C   UNL A   1      29.241  29.234  22.099  1.00  0.00     0.164 A 
ATOM     29  N   UNL A   1      29.718  30.310  21.496  1.00  0.00    -0.236 NA
ATOM     30  N   UNL A   1      27.953  29.473  22.534  1.00  0.00    -0.333 N 
ATOM     31  C   UNL A   1      28.776  31.289  21.655  1.00  0.00     0.131 A 
ATOM     32  C   UNL A   1      27.673  30.796  22.303  1.00  0.00     0.107 A 
ATOM     33  C   UNL A   1      27.047  28.579  23.213  1.00  0.00     0.151 C 
ENDBRANCH  27  28
ENDBRANCH  25  27
ENDBRANCH   8  19
ENDBRANCH   5   8
ENDBRANCH   3   4
ENDBRANCH   2   3
ENDBRANCH   1   2
BRANCH   1  34
ATOM     34  C   UNL A   1      31.626  30.761  26.111  1.00  0.00     0.002 C 
BRANCH  34  35
ATOM     35  C   UNL A   1      31.402  32.197  26.588  1.00  0.00     0.021 C 
BRANCH  35  36
ATOM     36  C   UNL A   1      32.583  32.796  27.343  1.00  0.00     0.116 C 
BRANCH  36  37
ATOM     37  N   UNL A   1      32.383  34.207  27.626  1.00  0.00    -0.352 N 
ATOM     38  C   UNL A   1      32.962  34.970  28.605  1.00  0.00     0.251 C 
ATOM     39  H   UNL A   1      31.747  34.676  27.038  1.00  0.00     0.163 HD
ATOM     40  O   UNL A   1      32.528  36.091  28.867  1.00  0.00    -0.269 OA
BRANCH  38  41
ATOM     41  C   UNL A   1      34.110  34.429  29.358  1.00  0.00     0.039 A 
ATOM     42  C   UNL A   1      33.881  33.781  30.573  1.00  0.00     0.014 A 
ATOM     43  C   UNL A   1      35.408  34.547  28.850  1.00  0.00     0.014 A 
ATOM     44  C   UNL A   1      34.952  33.205  31.257  1.00  0.00     0.010 A 
ATOM     45  C   UNL A   1      36.461  33.906  29.493  1.00  0.00     0.010 A 
ATOM     46  C   UNL A   1      36.246  33.236  30.708  1.00  0.00    -0.014 A 
BRANCH  46  47
ATOM     47  C   UNL A   1      37.386  32.579  31.394  1.00  0.00     0.031 A 
ATOM     48  C   UNL A   1      38.096  31.427  30.740  1.00  0.00     0.074 A 
ATOM     49  C   UNL A   1      37.744  32.983  32.627  1.00  0.00     0.049 A 
ATOM     50  N   UNL A   1      39.075  30.688  31.199  1.00  0.00    -0.248 NA
ATOM     51  C   UNL A   1      37.628  31.035  29.402  1.00  0.00     0.031 C 
ATOM     52  C   UNL A   1      37.103  34.060  33.383  1.00  0.00     0.029 A 
ATOM     53  N   UNL A   1      38.732  32.531  33.467  1.00  0.00    -0.354 N 
ATOM     54  C   UNL A   1      39.329  29.744  30.213  1.00  0.00     0.074 A 
ATOM     55  C   UNL A   1      38.363  29.961  29.160  1.00  0.00     0.031 C 
ATOM     56  C   UNL A   1      37.730  34.205  34.561  1.00  0.00     0.029 A 
ATOM     57  C   UNL A   1      38.788  33.204  34.662  1.00  0.00     0.049 A 
ATOM     58  H   UNL A   1      39.341  31.795  33.233  1.00  0.00     0.167 HD
ATOM     59  C   UNL A   1      40.299  28.799  30.179  1.00  0.00     0.037 A 
ATOM     60  C   UNL A   1      39.600  33.028  35.723  1.00  0.00     0.037 A 
ATOM     61  C   UNL A   1      41.269  28.598  31.224  1.00  0.00     0.049 A 
ATOM     62  C   UNL A   1      40.653  31.955  35.669  1.00  0.00     0.074 A 
ATOM     63  C   UNL A   1      42.323  27.704  31.263  1.00  0.00     0.029 A 
ATOM     64  N   UNL A   1      41.298  29.302  32.421  1.00  0.00    -0.354 N 
ATOM     65  N   UNL A   1      40.929  31.112  34.704  1.00  0.00    -0.248 NA
ATOM     66  C   UNL A   1      41.512  31.811  36.853  1.00  0.00     0.031 C 
ATOM     67  C   UNL A   1      42.955  27.825  32.505  1.00  0.00     0.029 A 
ATOM     68  C   UNL A   1      42.336  28.841  33.215  1.00  0.00     0.049 A 
ATOM     69  H   UNL A   1      40.674  30.022  32.667  1.00  0.00     0.167 HD
ATOM     70  C   UNL A   1      42.011  30.362  35.148  1.00  0.00     0.074 A 
ATOM     71  C   UNL A   1      42.350  30.860  36.465  1.00  0.00     0.031 C 
ATOM     72  C   UNL A   1      42.665  29.353  34.522  1.00  0.00     0.037 A 
BRANCH  59  73
ATOM     73  C   UNL A   1      40.358  27.908  28.970  1.00  0.00     0.064 A 
ATOM     74  C   UNL A   1      39.639  26.703  28.905  1.00  0.00     0.173 A 
ATOM     75  C   UNL A   1      41.118  28.277  27.851  1.00  0.00     0.173 A 
ATOM     76  F   UNL A   1      38.905  26.298  29.953  1.00  0.00    -0.203 F 
ATOM     77  C   UNL A   1      39.709  25.885  27.781  1.00  0.00     0.198 A 
ATOM     78  C   UNL A   1      41.156  27.473  26.713  1.00  0.00     0.198 A 
ATOM     79  F   UNL A   1      41.820  29.419  27.854  1.00  0.00    -0.203 F 
ATOM     80  F   UNL A   1      39.061  24.713  27.766  1.00  0.00    -0.200 F 
ATOM     81  C   UNL A   1      40.461  26.275  26.683  1.00  0.00     0.200 A 
ATOM     82  F   UNL A   1      41.874  27.858  25.648  1.00  0.00    -0.200 F 
ATOM     83  F   UNL A   1      40.522  25.490  25.599  1.00  0.00    -0.200 F 
ENDBRANCH  59  73
BRANCH  60  84
ATOM     84  C   UNL A   1      39.463  33.904  36.917  1.00  0.00     0.064 A 
ATOM     85  C   UNL A   1      40.087  35.159  36.963  1.00  0.00     0.173 A 
ATOM     86  C   UNL A   1      38.715  33.507  38.034  1.00  0.00     0.173 A 
ATOM     87  F   UNL A   1      40.830  35.576  35.927  1.00  0.00    -0.203 F 
ATOM     88  C   UNL A   1      39.988  35.971  38.091  1.00  0.00     0.198 A 
ATOM     89  C   UNL A   1      38.590  34.334  39.148  1.00  0.00     0.198 A 
ATOM     90  F   UNL A   1      38.092  32.319  38.038  1.00  0.00    -0.203 F 
ATOM     91  F   UNL A   1      40.637  37.143  38.128  1.00  0.00    -0.200 F 
ATOM     92  C   UNL A   1      39.235  35.561  39.180  1.00  0.00     0.200 A 
ATOM     93  F   UNL A   1      37.847  33.940  40.192  1.00  0.00    -0.200 F 
ATOM     94  F   UNL A   1      39.136  36.344  40.263  1.00  0.00    -0.200 F 
ENDBRANCH  60  84
BRANCH  72  95
ATOM     95  C   UNL A   1      43.840  28.746  35.234  1.00  0.00     0.064 A 
ATOM     96  C   UNL A   1      45.150  29.205  35.026  1.00  0.00     0.173 A 
ATOM     97  C   UNL A   1      43.647  27.716  36.168  1.00  0.00     0.173 A 
ATOM     98  F   UNL A   1      45.389  30.178  34.133  1.00  0.00    -0.203 F 
ATOM     99  C   UNL A   1      46.224  28.636  35.704  1.00  0.00     0.198 A 
ATOM    100  C   UNL A   1      44.720  27.173  36.870  1.00  0.00     0.198 A 
ATOM    101  F   UNL A   1      42.415  27.245  36.410  1.00  0.00    -0.203 F 
ATOM    102  F   UNL A   1      47.471  29.055  35.450  1.00  0.00    -0.200 F 
ATOM    103  C   UNL A   1      46.007  27.628  36.631  1.00  0.00     0.200 A 
ATOM    104  F   UNL A   1      44.506  26.210  37.777  1.00  0.00    -0.200 F 
ATOM    105  F   UNL A   1      47.042  27.088  37.290  1.00  0.00    -0.200 F 
ENDBRANCH  72  95
ENDBRANCH  46  47
ENDBRANCH  38  41
ENDBRANCH  36  37
ENDBRANCH  35  36
ENDBRANCH  34  35
ENDBRANCH   1  34
TORSDOF 19
ENDMDL
MODEL 2
REMARK VINA RESULT:     -12.3      0.632      7.124
REMARK SMILES COc1ccc(OC)c([C@H](C(=O)NCCCCCCNC(=O)c2ccc(-c3c4nc(c(-c5c(F)c(F)c(F)c(F)c5F)c5ccc([nH]5)c(-c5c(F)c(F)c(F)c(F)c5F)c5nc(c(-c6c(F)c(F)c(F)c(F)c6F)c6ccc3[nH]6)C=C5)C=C4)cc2)[NH+]2CC[NH+](Cc3nccn3C)CC2)c1
REMARK SMILES IDX 16 1 15 2 14 3 13 4 11 5 12 6 10 8 9 9 3 10 4 11 99 12 5 13
REMARK SMILES IDX 6 14 2 15 1 16 7 17 8 18 86 19 87 20 98 21 88 23 97 24 89 25
REMARK SMILES IDX 90 27 91 28 92 29 95 30 93 31 94 32 96 33 17 34 18 35 19 36
REMARK SMILES IDX 20 37 21 38 22 40 23 41 24 42 85 43 25 44 84 45 26 46 27 47
REMARK SMILES IDX 28 48 78 49 29 50 83 51 77 52 79 53 30 54 82 55 76 56 75 57
REMARK SMILES IDX 31 59 63 60 43 61 62 62 44 63 47 64 61 65 80 66 45 67 46 68
REMARK SMILES IDX 60 70 81 71 48 72 32 73 33 74 41 75 34 76 35 77 39 78 42 79
REMARK SMILES IDX 36 80 37 81 40 82 38 83 64 84 65 85 73 86 66 87 67 88 71 89
REMARK SMILES IDX 74 90 68 91 69 92 72 93 70 94 49 95 50 96 58 97 51 98 52 99
REMARK SMILES IDX 56 100 59 101 53 102 54 103 57 104 55 105
REMARK H PARENT 13 7 86 22 89 26 20 39 79 58 47 69
REMARK Flexibility Score: inf
ROOT
ATOM      1  C   UNL A   1      32.418  30.023  26.832  1.00  0.00     0.002 C 
ENDROOT
BRANCH   1   2
ATOM      2  C   UNL A   1      31.826  28.677  27.255  1.00  0.00     0.021 C 
BRANCH   2   3
ATOM      3  C   UNL A   1      32.705  27.458  26.944  1.00  0.00     0.116 C 
BRANCH   3   4
ATOM      4  N   UNL A   1      32.068  26.211  27.325  1.00  0.00    -0.351 N 
ATOM      5  C   UNL A   1      31.989  24.992  26.705  1.00  0.00     0.283 C 
ATOM      6  O   UNL A   1      31.238  24.172  27.242  1.00  0.00    -0.268 OA
ATOM      7  H   UNL A   1      31.606  26.246  28.194  1.00  0.00     0.163 HD
BRANCH   5   8
ATOM      8  C   UNL A   1      32.756  24.725  25.379  1.00  0.00     0.309 C 
BRANCH   8   9
ATOM      9  C   UNL A   1      33.301  23.306  25.157  1.00  0.00     0.065 A 
ATOM     10  C   UNL A   1      32.866  20.900  24.837  1.00  0.00     0.119 A 
ATOM     11  C   UNL A   1      34.221  20.683  24.620  1.00  0.00     0.050 A 
ATOM     12  C   UNL A   1      32.420  22.199  25.090  1.00  0.00     0.060 A 
ATOM     13  C   UNL A   1      35.120  21.747  24.690  1.00  0.00     0.051 A 
ATOM     14  C   UNL A   1      34.677  23.049  24.966  1.00  0.00     0.128 A 
BRANCH  10  15
ATOM     15  O   UNL A   1      32.082  19.779  24.801  1.00  0.00    -0.497 OA
ATOM     16  C   UNL A   1      32.460  18.759  23.881  1.00  0.00     0.278 C 
ENDBRANCH  10  15
BRANCH  14  17
ATOM     17  O   UNL A   1      35.700  23.934  25.200  1.00  0.00    -0.496 OA
ATOM     18  C   UNL A   1      37.008  23.387  25.317  1.00  0.00     0.278 C 
ENDBRANCH  14  17
ENDBRANCH   8   9
BRANCH   8  19
ATOM     19  N   UNL A   1      31.974  25.188  24.214  1.00  0.00    -0.311 N 
ATOM     20  C   UNL A   1      30.521  25.330  24.351  1.00  0.00     0.325 C 
ATOM     21  C   UNL A   1      32.579  26.244  23.419  1.00  0.00     0.325 C 
ATOM     22  H   UNL A   1      32.051  24.338  23.656  1.00  0.00     0.349 HD
ATOM     23  C   UNL A   1      29.959  26.767  24.477  1.00  0.00     0.324 C 
ATOM     24  C   UNL A   1      32.041  27.670  23.681  1.00  0.00     0.324 C 
ATOM     25  N   UNL A   1      30.587  27.810  23.650  1.00  0.00    -0.319 N 
ATOM     26  H   UNL A   1      30.373  28.714  24.073  1.00  0.00     0.348 HD
BRANCH  25  27
ATOM     27  C   UNL A   1      29.986  27.985  22.317  1.00  0.00     0.339 C 
BRANCH  27  28
ATOM     28  C   UNL A   1      29.243  29.264  22.065  1.00  0.00     0.164 A 
ATOM     29  N   UNL A   1      29.733  30.311  21.423  1.00  0.00    -0.236 NA
ATOM     30  N   UNL A   1      27.962  29.540  22.500  1.00  0.00    -0.333 N 
ATOM     31  C   UNL A   1      28.809  31.311  21.555  1.00  0.00     0.131 A 
ATOM     32  C   UNL A   1      27.703  30.859  22.226  1.00  0.00     0.107 A 
ATOM     33  C   UNL A   1      27.046  28.685  23.215  1.00  0.00     0.151 C 
ENDBRANCH  27  28
ENDBRANCH  25  27
ENDBRANCH   8  19
ENDBRANCH   5   8
ENDBRANCH   3   4
ENDBRANCH   2   3
ENDBRANCH   1   2
BRANCH   1  34
ATOM     34  C   UNL A   1      31.449  30.915  26.058  1.00  0.00     0.002 C 
BRANCH  34  35
ATOM     35  C   UNL A   1      31.285  32.319  26.643  1.00  0.00     0.021 C 
BRANCH  35  36
ATOM     36  C   UNL A   1      32.562  32.901  27.237  1.00  0.00     0.116 C 
BRANCH  36  37
ATOM     37  N   UNL A   1      32.387  34.287  27.638  1.00  0.00    -0.352 N 
ATOM     38  C   UNL A   1      33.009  34.964  28.654  1.00  0.00     0.251 C 
ATOM     39  H   UNL A   1      31.737  34.806  27.113  1.00  0.00     0.163 HD
ATOM     40  O   UNL A   1      32.596  36.064  29.020  1.00  0.00    -0.269 OA
BRANCH  38  41
ATOM     41  C   UNL A   1      34.175  34.355  29.320  1.00  0.00     0.039 A 
ATOM     42  C   UNL A   1      33.980  33.604  30.481  1.00  0.00     0.014 A 
ATOM     43  C   UNL A   1      35.458  34.512  28.785  1.00  0.00     0.014 A 
ATOM     44  C   UNL A   1      35.067  32.966  31.078  1.00  0.00     0.010 A 
ATOM     45  C   UNL A   1      36.526  33.814  29.337  1.00  0.00     0.010 A 
ATOM     46  C   UNL A   1      36.344  33.040  30.494  1.00  0.00    -0.014 A 
BRANCH  46  47
ATOM     47  C   UNL A   1      37.500  32.322  31.084  1.00  0.00     0.031 A 
ATOM     48  C   UNL A   1      38.007  32.703  32.447  1.00  0.00     0.074 A 
ATOM     49  C   UNL A   1      38.126  31.365  30.372  1.00  0.00     0.049 A 
ATOM     50  N   UNL A   1      39.035  32.235  33.110  1.00  0.00    -0.248 NA
ATOM     51  C   UNL A   1      37.280  33.773  33.148  1.00  0.00     0.031 C 
ATOM     52  C   UNL A   1      37.754  30.937  29.023  1.00  0.00     0.029 A 
ATOM     53  N   UNL A   1      39.211  30.584  30.681  1.00  0.00    -0.354 N 
ATOM     54  C   UNL A   1      39.080  32.957  34.295  1.00  0.00     0.074 A 
ATOM     55  C   UNL A   1      38.018  33.936  34.235  1.00  0.00     0.031 C 
ATOM     56  C   UNL A   1      38.578  29.953  28.631  1.00  0.00     0.029 A 
ATOM     57  C   UNL A   1      39.562  29.710  29.682  1.00  0.00     0.049 A 
ATOM     58  H   UNL A   1      39.692  30.645  31.538  1.00  0.00     0.167 HD
ATOM     59  C   UNL A   1      39.915  32.798  35.350  1.00  0.00     0.037 A 
ATOM     60  C   UNL A   1      40.569  28.818  29.620  1.00  0.00     0.037 A 
ATOM     61  C   UNL A   1      40.960  31.809  35.411  1.00  0.00     0.049 A 
ATOM     62  C   UNL A   1      41.498  28.678  30.796  1.00  0.00     0.074 A 
ATOM     63  C   UNL A   1      41.826  31.533  36.454  1.00  0.00     0.029 A 
ATOM     64  N   UNL A   1      41.284  30.938  34.380  1.00  0.00    -0.354 N 
ATOM     65  N   UNL A   1      41.489  29.319  31.938  1.00  0.00    -0.248 NA
ATOM     66  C   UNL A   1      42.575  27.686  30.673  1.00  0.00     0.031 C 
ATOM     67  C   UNL A   1      42.710  30.534  36.034  1.00  0.00     0.029 A 
ATOM     68  C   UNL A   1      42.355  30.142  34.754  1.00  0.00     0.049 A 
ATOM     69  H   UNL A   1      40.820  30.892  33.513  1.00  0.00     0.167 HD
ATOM     70  C   UNL A   1      42.535  28.787  32.683  1.00  0.00     0.074 A 
ATOM     71  C   UNL A   1      43.147  27.760  31.866  1.00  0.00     0.031 C 
ATOM     72  C   UNL A   1      42.949  29.118  33.931  1.00  0.00     0.037 A 
BRANCH  59  73
ATOM     73  C   UNL A   1      39.732  33.717  36.525  1.00  0.00     0.064 A 
ATOM     74  C   UNL A   1      40.375  34.963  36.595  1.00  0.00     0.173 A 
ATOM     75  C   UNL A   1      38.879  33.361  37.580  1.00  0.00     0.173 A 
ATOM     76  F   UNL A   1      41.211  35.347  35.618  1.00  0.00    -0.203 F 
ATOM     77  C   UNL A   1      40.201  35.800  37.694  1.00  0.00     0.198 A 
ATOM     78  C   UNL A   1      38.679  34.218  38.660  1.00  0.00     0.198 A 
ATOM     79  F   UNL A   1      38.234  32.186  37.564  1.00  0.00    -0.203 F 
ATOM     80  F   UNL A   1      40.871  36.958  37.765  1.00  0.00    -0.200 F 
ATOM     81  C   UNL A   1      39.346  35.431  38.721  1.00  0.00     0.200 A 
ATOM     82  F   UNL A   1      37.842  33.864  39.647  1.00  0.00    -0.200 F 
ATOM     83  F   UNL A   1      39.174  36.241  39.775  1.00  0.00    -0.200 F 
ENDBRANCH  59  73
BRANCH  60  84
ATOM     84  C   UNL A   1      40.737  27.970  28.409  1.00  0.00     0.064 A 
ATOM     85  C   UNL A   1      40.125  26.711  28.322  1.00  0.00     0.173 A 
ATOM     86  C   UNL A   1      41.513  28.393  27.322  1.00  0.00     0.173 A 
ATOM     87  F   UNL A   1      39.388  26.253  29.345  1.00  0.00    -0.203 F 
ATOM     88  C   UNL A   1      40.304  25.900  27.204  1.00  0.00     0.198 A 
ATOM     89  C   UNL A   1      41.665  27.594  26.190  1.00  0.00     0.198 A 
ATOM     90  F   UNL A   1      42.115  29.592  27.351  1.00  0.00    -0.203 F 
ATOM     91  F   UNL A   1      39.748  24.680  27.169  1.00  0.00    -0.200 F 
ATOM     92  C   UNL A   1      41.068  26.344  26.136  1.00  0.00     0.200 A 
ATOM     93  F   UNL A   1      42.391  28.036  25.154  1.00  0.00    -0.200 F 
ATOM     94  F   UNL A   1      41.236  25.565  25.059  1.00  0.00    -0.200 F 
ENDBRANCH  60  84
BRANCH  72  95
ATOM     95  C   UNL A   1      44.095  28.336  34.508  1.00  0.00     0.064 A 
ATOM     96  C   UNL A   1      43.895  27.126  35.190  1.00  0.00     0.173 A 
ATOM     97  C   UNL A   1      45.414  28.784  34.340  1.00  0.00     0.173 A 
ATOM     98  F   UNL A   1      42.652  26.661  35.390  1.00  0.00    -0.203 F 
ATOM     99  C   UNL A   1      44.972  26.411  35.708  1.00  0.00     0.198 A 
ATOM    100  C   UNL A   1      46.490  28.049  34.828  1.00  0.00     0.198 A 
ATOM    101  F   UNL A   1      45.661  29.931  33.688  1.00  0.00    -0.203 F 
ATOM    102  F   UNL A   1      44.753  25.286  36.402  1.00  0.00    -0.200 F 
ATOM    103  C   UNL A   1      46.268  26.868  35.519  1.00  0.00     0.200 A 
ATOM    104  F   UNL A   1      47.742  28.483  34.630  1.00  0.00    -0.200 F 
ATOM    105  F   UNL A   1      47.303  26.172  36.009  1.00  0.00    -0.200 F 
ENDBRANCH  72  95
ENDBRANCH  46  47
ENDBRANCH  38  41
ENDBRANCH  36  37
ENDBRANCH  35  36
ENDBRANCH  34  35
ENDBRANCH   1  34
TORSDOF 19
ENDMDL
MODEL 3
REMARK VINA RESULT:     -12.0      5.161      9.309
REMARK SMILES COc1ccc(OC)c([C@H](C(=O)NCCCCCCNC(=O)c2ccc(-c3c4nc(c(-c5c(F)c(F)c(F)c(F)c5F)c5ccc([nH]5)c(-c5c(F)c(F)c(F)c(F)c5F)c5nc(c(-c6c(F)c(F)c(F)c(F)c6F)c6ccc3[nH]6)C=C5)C=C4)cc2)[NH+]2CC[NH+](Cc3nccn3C)CC2)c1
REMARK SMILES IDX 16 1 15 2 14 3 13 4 11 5 12 6 10 8 9 9 3 10 4 11 99 12 5 13
REMARK SMILES IDX 6 14 2 15 1 16 7 17 8 18 86 19 87 20 98 21 88 23 97 24 89 25
REMARK SMILES IDX 90 27 91 28 92 29 95 30 93 31 94 32 96 33 17 34 18 35 19 36
REMARK SMILES IDX 20 37 21 38 22 40 23 41 24 42 85 43 25 44 84 45 26 46 27 47
REMARK SMILES IDX 28 48 78 49 29 50 83 51 77 52 79 53 30 54 82 55 76 56 75 57
REMARK SMILES IDX 31 59 63 60 43 61 62 62 44 63 47 64 61 65 80 66 45 67 46 68
REMARK SMILES IDX 60 70 81 71 48 72 32 73 33 74 41 75 34 76 35 77 39 78 42 79
REMARK SMILES IDX 36 80 37 81 40 82 38 83 64 84 65 85 73 86 66 87 67 88 71 89
REMARK SMILES IDX 74 90 68 91 69 92 72 93 70 94 49 95 50 96 58 97 51 98 52 99
REMARK SMILES IDX 56 100 59 101 53 102 54 103 57 104 55 105
REMARK H PARENT 13 7 86 22 89 26 20 39 79 58 47 69
REMARK Flexibility Score: inf
ROOT
ATOM      1  C   UNL A   1      38.001  21.679  25.376  1.00  0.00     0.002 C 
ENDROOT
BRANCH   1   2
ATOM      2  C   UNL A   1      37.174  22.810  24.762  1.00  0.00     0.021 C 
BRANCH   2   3
ATOM      3  C   UNL A   1      36.320  23.602  25.761  1.00  0.00     0.116 C 
BRANCH   3   4
ATOM      4  N   UNL A   1      35.551  22.734  26.634  1.00  0.00    -0.351 N 
ATOM      5  C   UNL A   1      34.428  21.979  26.423  1.00  0.00     0.283 C 
ATOM      6  O   UNL A   1      33.941  21.461  27.433  1.00  0.00    -0.268 OA
ATOM      7  H   UNL A   1      35.904  22.676  27.551  1.00  0.00     0.163 HD
BRANCH   5   8
ATOM      8  C   UNL A   1      33.803  21.864  25.004  1.00  0.00     0.309 C 
BRANCH   8   9
ATOM      9  C   UNL A   1      33.430  20.457  24.513  1.00  0.00     0.065 A 
ATOM     10  C   UNL A   1      33.602  18.012  24.777  1.00  0.00     0.119 A 
ATOM     11  C   UNL A   1      32.684  17.836  23.749  1.00  0.00     0.050 A 
ATOM     12  C   UNL A   1      33.955  19.309  25.154  1.00  0.00     0.060 A 
ATOM     13  C   UNL A   1      32.154  18.943  23.088  1.00  0.00     0.051 A 
ATOM     14  C   UNL A   1      32.524  20.246  23.450  1.00  0.00     0.128 A 
BRANCH  10  15
ATOM     15  O   UNL A   1      34.101  16.858  25.318  1.00  0.00    -0.497 OA
ATOM     16  C   UNL A   1      33.370  15.662  25.067  1.00  0.00     0.278 C 
ENDBRANCH  10  15
BRANCH  14  17
ATOM     17  O   UNL A   1      32.075  21.203  22.575  1.00  0.00    -0.496 OA
ATOM     18  C   UNL A   1      31.778  20.774  21.251  1.00  0.00     0.278 C 
ENDBRANCH  14  17
ENDBRANCH   8   9
BRANCH   8  19
ATOM     19  N   UNL A   1      32.676  22.806  24.846  1.00  0.00    -0.311 N 
ATOM     20  C   UNL A   1      31.562  22.740  25.798  1.00  0.00     0.325 C 
ATOM     21  C   UNL A   1      33.029  24.166  24.472  1.00  0.00     0.325 C 
ATOM     22  H   UNL A   1      32.266  22.383  24.014  1.00  0.00     0.349 HD
ATOM     23  C   UNL A   1      31.488  23.849  26.876  1.00  0.00     0.324 C 
ATOM     24  C   UNL A   1      33.038  25.195  25.625  1.00  0.00     0.324 C 
ATOM     25  N   UNL A   1      31.840  25.217  26.461  1.00  0.00    -0.319 N 
ATOM     26  H   UNL A   1      32.081  25.745  27.300  1.00  0.00     0.348 HD
BRANCH  25  27
ATOM     27  C   UNL A   1      30.713  26.016  25.951  1.00  0.00     0.339 C 
BRANCH  27  28
ATOM     28  C   UNL A   1      31.043  27.334  25.314  1.00  0.00     0.164 A 
ATOM     29  N   UNL A   1      31.405  28.423  25.972  1.00  0.00    -0.236 NA
ATOM     30  N   UNL A   1      30.978  27.604  23.962  1.00  0.00    -0.333 N 
ATOM     31  C   UNL A   1      31.451  29.432  25.050  1.00  0.00     0.131 A 
ATOM     32  C   UNL A   1      31.183  28.950  23.795  1.00  0.00     0.107 A 
ATOM     33  C   UNL A   1      30.653  26.712  22.876  1.00  0.00     0.151 C 
ENDBRANCH  27  28
ENDBRANCH  25  27
ENDBRANCH   8  19
ENDBRANCH   5   8
ENDBRANCH   3   4
ENDBRANCH   2   3
ENDBRANCH   1   2
BRANCH   1  34
ATOM     34  C   UNL A   1      37.624  20.287  24.872  1.00  0.00     0.002 C 
BRANCH  34  35
ATOM     35  C   UNL A   1      38.655  19.203  25.192  1.00  0.00     0.021 C 
BRANCH  35  36
ATOM     36  C   UNL A   1      39.650  19.589  26.281  1.00  0.00     0.116 C 
BRANCH  36  37
ATOM     37  N   UNL A   1      40.916  18.894  26.126  1.00  0.00    -0.352 N 
ATOM     38  C   UNL A   1      42.174  19.427  26.024  1.00  0.00     0.251 C 
ATOM     39  H   UNL A   1      40.864  17.912  26.089  1.00  0.00     0.163 HD
ATOM     40  O   UNL A   1      43.124  18.731  25.670  1.00  0.00    -0.269 OA
BRANCH  38  41
ATOM     41  C   UNL A   1      42.378  20.856  26.330  1.00  0.00     0.039 A 
ATOM     42  C   UNL A   1      42.652  21.238  27.644  1.00  0.00     0.014 A 
ATOM     43  C   UNL A   1      42.318  21.813  25.311  1.00  0.00     0.014 A 
ATOM     44  C   UNL A   1      42.916  22.578  27.930  1.00  0.00     0.010 A 
ATOM     45  C   UNL A   1      42.657  23.133  25.584  1.00  0.00     0.010 A 
ATOM     46  C   UNL A   1      42.951  23.532  26.898  1.00  0.00    -0.014 A 
BRANCH  46  47
ATOM     47  C   UNL A   1      43.285  24.950  27.176  1.00  0.00     0.031 A 
ATOM     48  C   UNL A   1      44.659  25.475  26.864  1.00  0.00     0.074 A 
ATOM     49  C   UNL A   1      42.371  25.749  27.759  1.00  0.00     0.049 A 
ATOM     50  N   UNL A   1      45.162  26.664  27.084  1.00  0.00    -0.248 NA
ATOM     51  C   UNL A   1      45.604  24.530  26.249  1.00  0.00     0.031 C 
ATOM     52  C   UNL A   1      41.020  25.343  28.148  1.00  0.00     0.029 A 
ATOM     53  N   UNL A   1      42.442  27.068  28.132  1.00  0.00    -0.354 N 
ATOM     54  C   UNL A   1      46.476  26.605  26.642  1.00  0.00     0.074 A 
ATOM     55  C   UNL A   1      46.715  25.248  26.202  1.00  0.00     0.031 C 
ATOM     56  C   UNL A   1      40.381  26.397  28.680  1.00  0.00     0.029 A 
ATOM     57  C   UNL A   1      41.288  27.540  28.708  1.00  0.00     0.049 A 
ATOM     58  H   UNL A   1      43.245  27.622  27.999  1.00  0.00     0.167 HD
ATOM     59  C   UNL A   1      47.394  27.600  26.585  1.00  0.00     0.037 A 
ATOM     60  C   UNL A   1      41.000  28.757  29.208  1.00  0.00     0.037 A 
ATOM     61  C   UNL A   1      47.145  28.954  27.009  1.00  0.00     0.049 A 
ATOM     62  C   UNL A   1      42.044  29.838  29.154  1.00  0.00     0.074 A 
ATOM     63  C   UNL A   1      47.990  30.047  26.944  1.00  0.00     0.029 A 
ATOM     64  N   UNL A   1      45.962  29.396  27.584  1.00  0.00    -0.354 N 
ATOM     65  N   UNL A   1      43.263  29.790  28.673  1.00  0.00    -0.248 NA
ATOM     66  C   UNL A   1      41.671  31.146  29.710  1.00  0.00     0.031 C 
ATOM     67  C   UNL A   1      47.340  31.137  27.532  1.00  0.00     0.029 A 
ATOM     68  C   UNL A   1      46.066  30.740  27.905  1.00  0.00     0.049 A 
ATOM     69  H   UNL A   1      45.167  28.837  27.741  1.00  0.00     0.167 HD
ATOM     70  C   UNL A   1      43.789  31.064  28.836  1.00  0.00     0.074 A 
ATOM     71  C   UNL A   1      42.752  31.868  29.450  1.00  0.00     0.031 C 
ATOM     72  C   UNL A   1      45.021  31.529  28.508  1.00  0.00     0.037 A 
BRANCH  59  73
ATOM     73  C   UNL A   1      48.754  27.260  26.043  1.00  0.00     0.064 A 
ATOM     74  C   UNL A   1      49.795  26.827  26.880  1.00  0.00     0.173 A 
ATOM     75  C   UNL A   1      49.012  27.340  24.666  1.00  0.00     0.173 A 
ATOM     76  F   UNL A   1      49.605  26.745  28.205  1.00  0.00    -0.203 F 
ATOM     77  C   UNL A   1      51.051  26.523  26.363  1.00  0.00     0.198 A 
ATOM     78  C   UNL A   1      50.259  26.999  24.149  1.00  0.00     0.198 A 
ATOM     79  F   UNL A   1      48.053  27.742  23.819  1.00  0.00    -0.203 F 
ATOM     80  F   UNL A   1      52.045  26.168  27.189  1.00  0.00    -0.200 F 
ATOM     81  C   UNL A   1      51.280  26.600  24.998  1.00  0.00     0.200 A 
ATOM     82  F   UNL A   1      50.475  27.063  22.827  1.00  0.00    -0.200 F 
ATOM     83  F   UNL A   1      52.488  26.301  24.502  1.00  0.00    -0.200 F 
ENDBRANCH  59  73
BRANCH  60  84
ATOM     84  C   UNL A   1      39.654  29.024  29.782  1.00  0.00     0.064 A 
ATOM     85  C   UNL A   1      38.614  29.515  28.979  1.00  0.00     0.173 A 
ATOM     86  C   UNL A   1      39.380  28.801  31.139  1.00  0.00     0.173 A 
ATOM     87  F   UNL A   1      38.831  29.762  27.679  1.00  0.00    -0.203 F 
ATOM     88  C   UNL A   1      37.360  29.796  29.518  1.00  0.00     0.198 A 
ATOM     89  C   UNL A   1      38.116  29.052  31.669  1.00  0.00     0.198 A 
ATOM     90  F   UNL A   1      40.337  28.326  31.948  1.00  0.00    -0.203 F 
ATOM     91  F   UNL A   1      36.400  30.312  28.738  1.00  0.00    -0.200 F 
ATOM     92  C   UNL A   1      37.110  29.559  30.861  1.00  0.00     0.200 A 
ATOM     93  F   UNL A   1      37.875  28.805  32.964  1.00  0.00    -0.200 F 
ATOM     94  F   UNL A   1      35.903  29.825  31.378  1.00  0.00    -0.200 F 
ENDBRANCH  60  84
BRANCH  72  95
ATOM     95  C   UNL A   1      45.302  32.981  28.767  1.00  0.00     0.064 A 
ATOM     96  C   UNL A   1      44.972  33.976  27.834  1.00  0.00     0.173 A 
ATOM     97  C   UNL A   1      45.874  33.386  29.983  1.00  0.00     0.173 A 
ATOM     98  F   UNL A   1      44.437  33.640  26.650  1.00  0.00    -0.203 F 
ATOM     99  C   UNL A   1      45.232  35.319  28.098  1.00  0.00     0.198 A 
ATOM    100  C   UNL A   1      46.100  34.732  30.257  1.00  0.00     0.198 A 
ATOM    101  F   UNL A   1      46.201  32.476  30.913  1.00  0.00    -0.203 F 
ATOM    102  F   UNL A   1      44.957  36.245  27.170  1.00  0.00    -0.200 F 
ATOM    103  C   UNL A   1      45.786  35.696  29.311  1.00  0.00     0.200 A 
ATOM    104  F   UNL A   1      46.620  35.096  31.437  1.00  0.00    -0.200 F 
ATOM    105  F   UNL A   1      46.026  36.989  29.567  1.00  0.00    -0.200 F 
ENDBRANCH  72  95
ENDBRANCH  46  47
ENDBRANCH  38  41
ENDBRANCH  36  37
ENDBRANCH  35  36
ENDBRANCH  34  35
ENDBRANCH   1  34
TORSDOF 19
ENDMDL
