MODEL 1
REMARK VINA RESULT:     -11.7      0.000      0.000
REMARK SMILES CC(=O)N/C(=C\c1ccccc1)C(=O)N[C@H](C(=O)NCCCCCCNC(=O)c1ccc(-c2c3nc(c(-c4c(F)c(F)c(F)c(F)c4F)c4ccc([nH]4)c(-c4c(F)c(F)c(F)c(F)c4F)c4nc(c(-c5c(F)c(F)c(F)c(F)c5F)c5ccc2[nH]5)C=C4)C=C3)cc1)C(C)C
REMARK SMILES IDX 22 1 21 2 20 3 19 4 17 5 18 6 16 8 15 9 13 10 14 11 5 13
REMARK SMILES IDX 6 14 4 15 1 16 2 17 3 18 7 20 8 21 12 22 9 23 11 24 10 25
REMARK SMILES IDX 92 26 93 27 94 28 23 29 24 30 25 31 26 32 27 33 28 35 29 36
REMARK SMILES IDX 30 37 91 38 31 39 90 40 32 41 33 42 34 43 84 44 35 45 89 46
REMARK SMILES IDX 83 47 85 48 36 49 88 50 82 51 81 52 37 54 69 55 49 56 68 57
REMARK SMILES IDX 50 58 53 59 67 60 86 61 51 62 52 63 66 65 87 66 54 67 38 68
REMARK SMILES IDX 39 69 47 70 40 71 41 72 45 73 48 74 42 75 43 76 46 77 44 78
REMARK SMILES IDX 70 79 71 80 79 81 72 82 73 83 77 84 80 85 74 86 75 87 78 88
REMARK SMILES IDX 76 89 55 90 56 91 64 92 57 93 58 94 62 95 65 96 59 97 60 98
REMARK SMILES IDX 63 99 61 100
REMARK H PARENT 19 7 15 12 4 19 26 34 85 53 53 64
REMARK Flexibility Score: inf
ROOT
ATOM      1  C   UNL A   1      36.715  21.982  24.634  1.00  0.00     0.002 C 
ENDROOT
BRANCH   1   2
ATOM      2  C   UNL A   1      36.523  22.973  25.785  1.00  0.00     0.021 C 
BRANCH   2   3
ATOM      3  C   UNL A   1      35.838  24.290  25.426  1.00  0.00     0.116 C 
BRANCH   3   4
ATOM      4  N   UNL A   1      34.530  24.436  26.033  1.00  0.00    -0.354 N 
ATOM      5  C   UNL A   1      33.292  24.545  25.466  1.00  0.00     0.242 C 
ATOM      6  O   UNL A   1      32.323  24.616  26.227  1.00  0.00    -0.273 OA
ATOM      7  H   UNL A   1      34.535  24.460  27.017  1.00  0.00     0.163 HD
BRANCH   5   8
ATOM      8  C   UNL A   1      33.095  24.680  23.936  1.00  0.00     0.174 C 
BRANCH   8   9
ATOM      9  N   UNL A   1      33.664  25.990  23.572  1.00  0.00    -0.339 N 
ATOM     10  C   UNL A   1      33.368  27.286  23.904  1.00  0.00     0.268 C 
ATOM     11  O   UNL A   1      34.305  28.076  23.780  1.00  0.00    -0.268 OA
ATOM     12  H   UNL A   1      34.428  25.918  22.956  1.00  0.00     0.164 HD
BRANCH  10  13
ATOM     13  C   UNL A   1      31.981  27.766  24.299  1.00  0.00     0.107 C 
ATOM     14  C   UNL A   1      31.142  28.167  23.322  1.00  0.00     0.040 C 
BRANCH  13  15
ATOM     15  N   UNL A   1      31.486  27.691  25.592  1.00  0.00    -0.322 N 
ATOM     16  C   UNL A   1      33.144  28.728  27.188  1.00  0.00     0.114 C 
ATOM     17  C   UNL A   1      31.867  28.031  26.849  1.00  0.00     0.221 C 
ATOM     18  O   UNL A   1      31.090  27.715  27.761  1.00  0.00    -0.275 OA
ATOM     19  H   UNL A   1      30.598  27.267  25.600  1.00  0.00     0.170 HD
ENDBRANCH  13  15
BRANCH  14  20
ATOM     20  C   UNL A   1      29.848  28.882  23.386  1.00  0.00    -0.023 A 
ATOM     21  C   UNL A   1      28.682  28.150  23.116  1.00  0.00     0.008 A 
ATOM     22  C   UNL A   1      29.736  30.273  23.539  1.00  0.00     0.008 A 
ATOM     23  C   UNL A   1      27.436  28.779  23.053  1.00  0.00     0.001 A 
ATOM     24  C   UNL A   1      28.485  30.899  23.502  1.00  0.00     0.001 A 
ATOM     25  C   UNL A   1      27.336  30.151  23.259  1.00  0.00     0.000 A 
ENDBRANCH  14  20
ENDBRANCH  10  13
ENDBRANCH   8   9
BRANCH   8  26
ATOM     26  C   UNL A   1      33.577  23.481  23.094  1.00  0.00     0.015 C 
ATOM     27  C   UNL A   1      33.005  22.173  23.666  1.00  0.00     0.010 C 
ATOM     28  C   UNL A   1      33.132  23.636  21.638  1.00  0.00     0.010 C 
ENDBRANCH   8  26
ENDBRANCH   5   8
ENDBRANCH   3   4
ENDBRANCH   2   3
ENDBRANCH   1   2
BRANCH   1  29
ATOM     29  C   UNL A   1      36.617  20.500  25.002  1.00  0.00     0.002 C 
BRANCH  29  30
ATOM     30  C   UNL A   1      37.909  19.693  24.869  1.00  0.00     0.021 C 
BRANCH  30  31
ATOM     31  C   UNL A   1      39.074  20.179  25.724  1.00  0.00     0.116 C 
BRANCH  31  32
ATOM     32  N   UNL A   1      40.141  19.199  25.831  1.00  0.00    -0.352 N 
ATOM     33  C   UNL A   1      41.472  19.392  26.099  1.00  0.00     0.251 C 
ATOM     34  H   UNL A   1      39.869  18.263  25.693  1.00  0.00     0.163 HD
ATOM     35  O   UNL A   1      42.264  18.456  26.004  1.00  0.00    -0.269 OA
BRANCH  33  36
ATOM     36  C   UNL A   1      41.963  20.734  26.476  1.00  0.00     0.039 A 
ATOM     37  C   UNL A   1      42.327  21.626  25.463  1.00  0.00     0.014 A 
ATOM     38  C   UNL A   1      42.064  21.115  27.817  1.00  0.00     0.014 A 
ATOM     39  C   UNL A   1      42.736  22.919  25.795  1.00  0.00     0.010 A 
ATOM     40  C   UNL A   1      42.398  22.427  28.142  1.00  0.00     0.010 A 
ATOM     41  C   UNL A   1      42.742  23.341  27.135  1.00  0.00    -0.014 A 
BRANCH  41  42
ATOM     42  C   UNL A   1      43.108  24.733  27.496  1.00  0.00     0.031 A 
ATOM     43  C   UNL A   1      44.553  25.149  27.544  1.00  0.00     0.074 A 
ATOM     44  C   UNL A   1      42.142  25.609  27.838  1.00  0.00     0.049 A 
ATOM     45  N   UNL A   1      45.073  26.298  27.892  1.00  0.00    -0.248 NA
ATOM     46  C   UNL A   1      45.547  24.128  27.176  1.00  0.00     0.031 C 
ATOM     47  C   UNL A   1      40.709  25.313  27.876  1.00  0.00     0.029 A 
ATOM     48  N   UNL A   1      42.220  26.924  28.226  1.00  0.00    -0.354 N 
ATOM     49  C   UNL A   1      46.449  26.135  27.795  1.00  0.00     0.074 A 
ATOM     50  C   UNL A   1      46.686  24.760  27.413  1.00  0.00     0.031 C 
ATOM     51  C   UNL A   1      40.042  26.419  28.244  1.00  0.00     0.029 A 
ATOM     52  C   UNL A   1      41.000  27.489  28.506  1.00  0.00     0.049 A 
ATOM     53  H   UNL A   1      43.071  27.416  28.297  1.00  0.00     0.167 HD
ATOM     54  C   UNL A   1      47.424  27.056  27.984  1.00  0.00     0.037 A 
ATOM     55  C   UNL A   1      40.689  28.727  28.934  1.00  0.00     0.037 A 
ATOM     56  C   UNL A   1      47.182  28.428  28.345  1.00  0.00     0.049 A 
ATOM     57  C   UNL A   1      41.793  29.728  29.147  1.00  0.00     0.074 A 
ATOM     58  C   UNL A   1      48.099  29.452  28.506  1.00  0.00     0.029 A 
ATOM     59  N   UNL A   1      45.931  28.968  28.606  1.00  0.00    -0.354 N 
ATOM     60  N   UNL A   1      43.086  29.581  28.986  1.00  0.00    -0.248 NA
ATOM     61  C   UNL A   1      41.394  31.069  29.593  1.00  0.00     0.031 C 
ATOM     62  C   UNL A   1      47.408  30.597  28.917  1.00  0.00     0.029 A 
ATOM     63  C   UNL A   1      46.056  30.304  28.952  1.00  0.00     0.049 A 
ATOM     64  H   UNL A   1      45.081  28.475  28.554  1.00  0.00     0.167 HD
ATOM     65  C   UNL A   1      43.650  30.815  29.281  1.00  0.00     0.074 A 
ATOM     66  C   UNL A   1      42.558  31.704  29.615  1.00  0.00     0.031 C 
ATOM     67  C   UNL A   1      44.956  31.179  29.275  1.00  0.00     0.037 A 
BRANCH  54  68
ATOM     68  C   UNL A   1      48.847  26.610  27.801  1.00  0.00     0.064 A 
ATOM     69  C   UNL A   1      49.661  26.273  28.895  1.00  0.00     0.173 A 
ATOM     70  C   UNL A   1      49.392  26.476  26.515  1.00  0.00     0.173 A 
ATOM     71  F   UNL A   1      49.192  26.393  30.147  1.00  0.00    -0.203 F 
ATOM     72  C   UNL A   1      50.973  25.847  28.708  1.00  0.00     0.198 A 
ATOM     73  C   UNL A   1      50.694  26.018  26.332  1.00  0.00     0.198 A 
ATOM     74  F   UNL A   1      48.657  26.779  25.434  1.00  0.00    -0.203 F 
ATOM     75  F   UNL A   1      51.746  25.580  29.772  1.00  0.00    -0.200 F 
ATOM     76  C   UNL A   1      51.486  25.712  27.428  1.00  0.00     0.200 A 
ATOM     77  F   UNL A   1      51.183  25.873  25.093  1.00  0.00    -0.200 F 
ATOM     78  F   UNL A   1      52.746  25.292  27.250  1.00  0.00    -0.200 F 
ENDBRANCH  54  68
BRANCH  55  79
ATOM     79  C   UNL A   1      39.269  29.096  29.174  1.00  0.00     0.064 A 
ATOM     80  C   UNL A   1      38.450  29.537  28.125  1.00  0.00     0.173 A 
ATOM     81  C   UNL A   1      38.702  29.022  30.455  1.00  0.00     0.173 A 
ATOM     82  F   UNL A   1      38.951  29.644  26.884  1.00  0.00    -0.203 F 
ATOM     83  C   UNL A   1      37.128  29.912  28.351  1.00  0.00     0.198 A 
ATOM     84  C   UNL A   1      37.370  29.367  30.674  1.00  0.00     0.198 A 
ATOM     85  F   UNL A   1      39.439  28.600  31.493  1.00  0.00    -0.203 F 
ATOM     86  F   UNL A   1      36.384  30.377  27.339  1.00  0.00    -0.200 F 
ATOM     87  C   UNL A   1      36.587  29.820  29.624  1.00  0.00     0.200 A 
ATOM     88  F   UNL A   1      36.846  29.261  31.904  1.00  0.00    -0.200 F 
ATOM     89  F   UNL A   1      35.313  30.177  29.841  1.00  0.00    -0.200 F 
ENDBRANCH  55  79
BRANCH  67  90
ATOM     90  C   UNL A   1      45.275  32.609  29.605  1.00  0.00     0.064 A 
ATOM     91  C   UNL A   1      45.261  33.614  28.627  1.00  0.00     0.173 A 
ATOM     92  C   UNL A   1      45.560  32.984  30.927  1.00  0.00     0.173 A 
ATOM     93  F   UNL A   1      45.009  33.306  27.345  1.00  0.00    -0.203 F 
ATOM     94  C   UNL A   1      45.548  34.937  28.954  1.00  0.00     0.198 A 
ATOM     95  C   UNL A   1      45.813  34.313  31.257  1.00  0.00     0.198 A 
ATOM     96  F   UNL A   1      45.578  32.065  31.903  1.00  0.00    -0.203 F 
ATOM     97  F   UNL A   1      45.582  35.871  27.994  1.00  0.00    -0.200 F 
ATOM     98  C   UNL A   1      45.816  35.286  30.270  1.00  0.00     0.200 A 
ATOM     99  F   UNL A   1      46.055  34.651  32.531  1.00  0.00    -0.200 F 
ATOM    100  F   UNL A   1      46.084  36.561  30.584  1.00  0.00    -0.200 F 
ENDBRANCH  67  90
ENDBRANCH  41  42
ENDBRANCH  33  36
ENDBRANCH  31  32
ENDBRANCH  30  31
ENDBRANCH  29  30
ENDBRANCH   1  29
TORSDOF 18
ENDMDL
MODEL 2
REMARK VINA RESULT:     -11.7      0.734      1.376
REMARK SMILES CC(=O)N/C(=C\c1ccccc1)C(=O)N[C@H](C(=O)NCCCCCCNC(=O)c1ccc(-c2c3nc(c(-c4c(F)c(F)c(F)c(F)c4F)c4ccc([nH]4)c(-c4c(F)c(F)c(F)c(F)c4F)c4nc(c(-c5c(F)c(F)c(F)c(F)c5F)c5ccc2[nH]5)C=C4)C=C3)cc1)C(C)C
REMARK SMILES IDX 22 1 21 2 20 3 19 4 17 5 18 6 16 8 15 9 13 10 14 11 5 13
REMARK SMILES IDX 6 14 4 15 1 16 2 17 3 18 7 20 8 21 12 22 9 23 11 24 10 25
REMARK SMILES IDX 92 26 93 27 94 28 23 29 24 30 25 31 26 32 27 33 28 35 29 36
REMARK SMILES IDX 30 37 91 38 31 39 90 40 32 41 33 42 34 43 84 44 35 45 89 46
REMARK SMILES IDX 83 47 85 48 36 49 88 50 82 51 81 52 37 54 69 55 49 56 68 57
REMARK SMILES IDX 50 58 53 59 67 60 86 61 51 62 52 63 66 65 87 66 54 67 38 68
REMARK SMILES IDX 39 69 47 70 40 71 41 72 45 73 48 74 42 75 43 76 46 77 44 78
REMARK SMILES IDX 70 79 71 80 79 81 72 82 73 83 77 84 80 85 74 86 75 87 78 88
REMARK SMILES IDX 76 89 55 90 56 91 64 92 57 93 58 94 62 95 65 96 59 97 60 98
REMARK SMILES IDX 63 99 61 100
REMARK H PARENT 19 7 15 12 4 19 26 34 85 53 53 64
REMARK Flexibility Score: inf
ROOT
ATOM      1  C   UNL A   1      36.660  21.949  24.753  1.00  0.00     0.002 C 
ENDROOT
BRANCH   1   2
ATOM      2  C   UNL A   1      36.212  22.844  25.911  1.00  0.00     0.021 C 
BRANCH   2   3
ATOM      3  C   UNL A   1      35.667  24.217  25.523  1.00  0.00     0.116 C 
BRANCH   3   4
ATOM      4  N   UNL A   1      34.398  24.525  26.151  1.00  0.00    -0.354 N 
ATOM      5  C   UNL A   1      33.156  24.697  25.611  1.00  0.00     0.242 C 
ATOM      6  O   UNL A   1      32.222  24.913  26.389  1.00  0.00    -0.273 OA
ATOM      7  H   UNL A   1      34.439  24.626  27.129  1.00  0.00     0.163 HD
BRANCH   5   8
ATOM      8  C   UNL A   1      32.919  24.728  24.081  1.00  0.00     0.174 C 
BRANCH   8   9
ATOM      9  N   UNL A   1      33.521  25.987  23.606  1.00  0.00    -0.339 N 
ATOM     10  C   UNL A   1      33.290  27.312  23.865  1.00  0.00     0.268 C 
ATOM     11  O   UNL A   1      34.250  28.053  23.647  1.00  0.00    -0.268 OA
ATOM     12  H   UNL A   1      34.251  25.843  22.962  1.00  0.00     0.164 HD
BRANCH  10  13
ATOM     13  C   UNL A   1      31.943  27.874  24.287  1.00  0.00     0.107 C 
ATOM     14  C   UNL A   1      31.119  28.347  23.330  1.00  0.00     0.040 C 
BRANCH  13  15
ATOM     15  N   UNL A   1      31.462  27.807  25.586  1.00  0.00    -0.322 N 
ATOM     16  C   UNL A   1      32.698  29.471  27.027  1.00  0.00     0.114 C 
ATOM     17  C   UNL A   1      31.694  28.390  26.789  1.00  0.00     0.221 C 
ATOM     18  O   UNL A   1      31.024  27.967  27.741  1.00  0.00    -0.275 OA
ATOM     19  H   UNL A   1      30.739  27.142  25.655  1.00  0.00     0.170 HD
ENDBRANCH  13  15
BRANCH  14  20
ATOM     20  C   UNL A   1      29.876  29.143  23.426  1.00  0.00    -0.023 A 
ATOM     21  C   UNL A   1      28.684  28.551  22.981  1.00  0.00     0.008 A 
ATOM     22  C   UNL A   1      29.847  30.501  23.779  1.00  0.00     0.008 A 
ATOM     23  C   UNL A   1      27.491  29.277  22.940  1.00  0.00     0.001 A 
ATOM     24  C   UNL A   1      28.648  31.221  23.764  1.00  0.00     0.001 A 
ATOM     25  C   UNL A   1      27.470  30.608  23.345  1.00  0.00     0.000 A 
ENDBRANCH  14  20
ENDBRANCH  10  13
ENDBRANCH   8   9
BRANCH   8  26
ATOM     26  C   UNL A   1      33.337  23.454  23.317  1.00  0.00     0.015 C 
ATOM     27  C   UNL A   1      32.497  22.256  23.793  1.00  0.00     0.010 C 
ATOM     28  C   UNL A   1      33.140  23.644  21.811  1.00  0.00     0.010 C 
ENDBRANCH   8  26
ENDBRANCH   5   8
ENDBRANCH   3   4
ENDBRANCH   2   3
ENDBRANCH   1   2
BRANCH   1  29
ATOM     29  C   UNL A   1      36.616  20.442  25.013  1.00  0.00     0.002 C 
BRANCH  29  30
ATOM     30  C   UNL A   1      37.942  19.698  24.850  1.00  0.00     0.021 C 
BRANCH  30  31
ATOM     31  C   UNL A   1      39.073  20.171  25.755  1.00  0.00     0.116 C 
BRANCH  31  32
ATOM     32  N   UNL A   1      40.137  19.190  25.887  1.00  0.00    -0.352 N 
ATOM     33  C   UNL A   1      41.474  19.386  26.121  1.00  0.00     0.251 C 
ATOM     34  H   UNL A   1      39.857  18.250  25.796  1.00  0.00     0.163 HD
ATOM     35  O   UNL A   1      42.259  18.442  26.053  1.00  0.00    -0.269 OA
BRANCH  33  36
ATOM     36  C   UNL A   1      41.979  20.740  26.428  1.00  0.00     0.039 A 
ATOM     37  C   UNL A   1      42.230  21.620  25.371  1.00  0.00     0.014 A 
ATOM     38  C   UNL A   1      42.205  21.144  27.747  1.00  0.00     0.014 A 
ATOM     39  C   UNL A   1      42.650  22.924  25.641  1.00  0.00     0.010 A 
ATOM     40  C   UNL A   1      42.550  22.466  28.017  1.00  0.00     0.010 A 
ATOM     41  C   UNL A   1      42.780  23.368  26.968  1.00  0.00    -0.014 A 
BRANCH  41  42
ATOM     42  C   UNL A   1      43.159  24.771  27.271  1.00  0.00     0.031 A 
ATOM     43  C   UNL A   1      44.567  25.244  27.033  1.00  0.00     0.074 A 
ATOM     44  C   UNL A   1      42.250  25.605  27.814  1.00  0.00     0.049 A 
ATOM     45  N   UNL A   1      45.103  26.410  27.287  1.00  0.00    -0.248 NA
ATOM     46  C   UNL A   1      45.503  24.267  26.455  1.00  0.00     0.031 C 
ATOM     47  C   UNL A   1      40.867  25.251  28.137  1.00  0.00     0.029 A 
ATOM     48  N   UNL A   1      42.355  26.918  28.200  1.00  0.00    -0.354 N 
ATOM     49  C   UNL A   1      46.436  26.303  26.912  1.00  0.00     0.074 A 
ATOM     50  C   UNL A   1      46.643  24.942  26.467  1.00  0.00     0.031 C 
ATOM     51  C   UNL A   1      40.247  26.326  28.650  1.00  0.00     0.029 A 
ATOM     52  C   UNL A   1      41.197  27.431  28.731  1.00  0.00     0.049 A 
ATOM     53  H   UNL A   1      43.184  27.443  28.106  1.00  0.00     0.167 HD
ATOM     54  C   UNL A   1      47.394  27.261  26.915  1.00  0.00     0.037 A 
ATOM     55  C   UNL A   1      40.933  28.652  29.233  1.00  0.00     0.037 A 
ATOM     56  C   UNL A   1      47.179  28.619  27.339  1.00  0.00     0.049 A 
ATOM     57  C   UNL A   1      42.019  29.694  29.235  1.00  0.00     0.074 A 
ATOM     58  C   UNL A   1      48.070  29.678  27.329  1.00  0.00     0.029 A 
ATOM     59  N   UNL A   1      45.986  29.106  27.857  1.00  0.00    -0.354 N 
ATOM     60  N   UNL A   1      43.257  29.601  28.813  1.00  0.00    -0.248 NA
ATOM     61  C   UNL A   1      41.668  31.015  29.773  1.00  0.00     0.031 C 
ATOM     62  C   UNL A   1      47.434  30.791  27.889  1.00  0.00     0.029 A 
ATOM     63  C   UNL A   1      46.128  30.444  28.192  1.00  0.00     0.049 A 
ATOM     64  H   UNL A   1      45.163  28.580  27.970  1.00  0.00     0.167 HD
ATOM     65  C   UNL A   1      43.822  30.855  29.008  1.00  0.00     0.074 A 
ATOM     66  C   UNL A   1      42.787  31.695  29.570  1.00  0.00     0.031 C 
ATOM     67  C   UNL A   1      45.085  31.270  28.745  1.00  0.00     0.037 A 
BRANCH  54  68
ATOM     68  C   UNL A   1      48.766  26.874  26.441  1.00  0.00     0.064 A 
ATOM     69  C   UNL A   1      49.724  26.336  27.315  1.00  0.00     0.173 A 
ATOM     70  C   UNL A   1      49.115  27.003  25.088  1.00  0.00     0.173 A 
ATOM     71  F   UNL A   1      49.445  26.201  28.621  1.00  0.00    -0.203 F 
ATOM     72  C   UNL A   1      50.987  25.968  26.858  1.00  0.00     0.198 A 
ATOM     73  C   UNL A   1      50.367  26.604  24.629  1.00  0.00     0.198 A 
ATOM     74  F   UNL A   1      48.237  27.506  24.208  1.00  0.00    -0.203 F 
ATOM     75  F   UNL A   1      51.900  25.503  27.722  1.00  0.00    -0.200 F 
ATOM     76  C   UNL A   1      51.305  26.095  25.515  1.00  0.00     0.200 A 
ATOM     77  F   UNL A   1      50.668  26.712  23.327  1.00  0.00    -0.200 F 
ATOM     78  F   UNL A   1      52.517  25.730  25.075  1.00  0.00    -0.200 F 
ENDBRANCH  54  68
BRANCH  55  79
ATOM     79  C   UNL A   1      39.578  28.962  29.761  1.00  0.00     0.064 A 
ATOM     80  C   UNL A   1      39.244  28.693  31.096  1.00  0.00     0.173 A 
ATOM     81  C   UNL A   1      38.588  29.526  28.943  1.00  0.00     0.173 A 
ATOM     82  F   UNL A   1      40.151  28.136  31.913  1.00  0.00    -0.203 F 
ATOM     83  C   UNL A   1      37.966  28.954  31.586  1.00  0.00     0.198 A 
ATOM     84  C   UNL A   1      37.320  29.816  29.442  1.00  0.00     0.198 A 
ATOM     85  F   UNL A   1      38.856  29.809  27.659  1.00  0.00    -0.203 F 
ATOM     86  F   UNL A   1      37.661  28.641  32.851  1.00  0.00    -0.200 F 
ATOM     87  C   UNL A   1      37.007  29.521  30.761  1.00  0.00     0.200 A 
ATOM     88  F   UNL A   1      36.401  30.379  28.646  1.00  0.00    -0.200 F 
ATOM     89  F   UNL A   1      35.779  29.776  31.233  1.00  0.00    -0.200 F 
ENDBRANCH  55  79
BRANCH  67  90
ATOM     90  C   UNL A   1      45.410  32.710  29.027  1.00  0.00     0.064 A 
ATOM     91  C   UNL A   1      45.189  33.717  28.077  1.00  0.00     0.173 A 
ATOM     92  C   UNL A   1      45.913  33.089  30.281  1.00  0.00     0.173 A 
ATOM     93  F   UNL A   1      44.723  33.405  26.857  1.00  0.00    -0.203 F 
ATOM     94  C   UNL A   1      45.486  35.048  28.361  1.00  0.00     0.198 A 
ATOM     95  C   UNL A   1      46.177  34.424  30.574  1.00  0.00     0.198 A 
ATOM     96  F   UNL A   1      46.135  32.167  31.229  1.00  0.00    -0.203 F 
ATOM     97  F   UNL A   1      45.317  35.986  27.419  1.00  0.00    -0.200 F 
ATOM     98  C   UNL A   1      45.971  35.401  29.612  1.00  0.00     0.200 A 
ATOM     99  F   UNL A   1      46.630  34.765  31.788  1.00  0.00    -0.200 F 
ATOM    100  F   UNL A   1      46.249  36.683  29.886  1.00  0.00    -0.200 F 
ENDBRANCH  67  90
ENDBRANCH  41  42
ENDBRANCH  33  36
ENDBRANCH  31  32
ENDBRANCH  30  31
ENDBRANCH  29  30
ENDBRANCH   1  29
TORSDOF 18
ENDMDL
MODEL 3
REMARK VINA RESULT:     -11.7      0.961      7.070
REMARK SMILES CC(=O)N/C(=C\c1ccccc1)C(=O)N[C@H](C(=O)NCCCCCCNC(=O)c1ccc(-c2c3nc(c(-c4c(F)c(F)c(F)c(F)c4F)c4ccc([nH]4)c(-c4c(F)c(F)c(F)c(F)c4F)c4nc(c(-c5c(F)c(F)c(F)c(F)c5F)c5ccc2[nH]5)C=C4)C=C3)cc1)C(C)C
REMARK SMILES IDX 22 1 21 2 20 3 19 4 17 5 18 6 16 8 15 9 13 10 14 11 5 13
REMARK SMILES IDX 6 14 4 15 1 16 2 17 3 18 7 20 8 21 12 22 9 23 11 24 10 25
REMARK SMILES IDX 92 26 93 27 94 28 23 29 24 30 25 31 26 32 27 33 28 35 29 36
REMARK SMILES IDX 30 37 91 38 31 39 90 40 32 41 33 42 34 43 84 44 35 45 89 46
REMARK SMILES IDX 83 47 85 48 36 49 88 50 82 51 81 52 37 54 69 55 49 56 68 57
REMARK SMILES IDX 50 58 53 59 67 60 86 61 51 62 52 63 66 65 87 66 54 67 38 68
REMARK SMILES IDX 39 69 47 70 40 71 41 72 45 73 48 74 42 75 43 76 46 77 44 78
REMARK SMILES IDX 70 79 71 80 79 81 72 82 73 83 77 84 80 85 74 86 75 87 78 88
REMARK SMILES IDX 76 89 55 90 56 91 64 92 57 93 58 94 62 95 65 96 59 97 60 98
REMARK SMILES IDX 63 99 61 100
REMARK H PARENT 19 7 15 12 4 19 26 34 85 53 53 64
REMARK Flexibility Score: inf
ROOT
ATOM      1  C   UNL A   1      36.244  21.663  24.792  1.00  0.00     0.002 C 
ENDROOT
BRANCH   1   2
ATOM      2  C   UNL A   1      35.547  22.400  25.939  1.00  0.00     0.021 C 
BRANCH   2   3
ATOM      3  C   UNL A   1      34.862  23.714  25.571  1.00  0.00     0.116 C 
BRANCH   3   4
ATOM      4  N   UNL A   1      33.739  24.031  26.430  1.00  0.00    -0.354 N 
ATOM      5  C   UNL A   1      32.399  24.049  26.173  1.00  0.00     0.242 C 
ATOM      6  O   UNL A   1      31.643  24.317  27.112  1.00  0.00    -0.273 OA
ATOM      7  H   UNL A   1      33.984  24.274  27.352  1.00  0.00     0.163 HD
BRANCH   5   8
ATOM      8  C   UNL A   1      31.829  23.846  24.747  1.00  0.00     0.174 C 
BRANCH   8   9
ATOM      9  N   UNL A   1      32.548  24.804  23.887  1.00  0.00    -0.339 N 
ATOM     10  C   UNL A   1      32.617  26.171  23.831  1.00  0.00     0.268 C 
ATOM     11  O   UNL A   1      33.636  26.612  23.298  1.00  0.00    -0.268 OA
ATOM     12  H   UNL A   1      33.103  24.363  23.204  1.00  0.00     0.164 HD
BRANCH  10  13
ATOM     13  C   UNL A   1      31.503  27.097  24.286  1.00  0.00     0.107 C 
ATOM     14  C   UNL A   1      30.708  27.650  23.346  1.00  0.00     0.040 C 
BRANCH  13  15
ATOM     15  N   UNL A   1      31.176  27.303  25.618  1.00  0.00    -0.322 N 
ATOM     16  C   UNL A   1      32.909  28.791  26.688  1.00  0.00     0.114 C 
ATOM     17  C   UNL A   1      31.671  27.956  26.699  1.00  0.00     0.221 C 
ATOM     18  O   UNL A   1      31.042  27.819  27.757  1.00  0.00    -0.275 OA
ATOM     19  H   UNL A   1      30.337  26.838  25.845  1.00  0.00     0.170 HD
ENDBRANCH  13  15
BRANCH  14  20
ATOM     20  C   UNL A   1      29.710  28.738  23.436  1.00  0.00    -0.023 A 
ATOM     21  C   UNL A   1      28.392  28.452  23.048  1.00  0.00     0.008 A 
ATOM     22  C   UNL A   1      30.038  30.071  23.728  1.00  0.00     0.008 A 
ATOM     23  C   UNL A   1      27.421  29.455  23.004  1.00  0.00     0.001 A 
ATOM     24  C   UNL A   1      29.060  31.071  23.710  1.00  0.00     0.001 A 
ATOM     25  C   UNL A   1      27.752  30.762  23.349  1.00  0.00     0.000 A 
ENDBRANCH  14  20
ENDBRANCH  10  13
ENDBRANCH   8   9
BRANCH   8  26
ATOM     26  C   UNL A   1      31.796  22.387  24.245  1.00  0.00     0.015 C 
ATOM     27  C   UNL A   1      32.917  22.158  23.218  1.00  0.00     0.010 C 
ATOM     28  C   UNL A   1      31.975  21.415  25.415  1.00  0.00     0.010 C 
ENDBRANCH   8  26
ENDBRANCH   5   8
ENDBRANCH   3   4
ENDBRANCH   2   3
ENDBRANCH   1   2
BRANCH   1  29
ATOM     29  C   UNL A   1      36.696  20.232  25.090  1.00  0.00     0.002 C 
BRANCH  29  30
ATOM     30  C   UNL A   1      38.154  19.910  24.757  1.00  0.00     0.021 C 
BRANCH  30  31
ATOM     31  C   UNL A   1      39.144  20.111  25.899  1.00  0.00     0.116 C 
BRANCH  31  32
ATOM     32  N   UNL A   1      40.180  19.093  25.931  1.00  0.00    -0.352 N 
ATOM     33  C   UNL A   1      41.535  19.238  26.088  1.00  0.00     0.251 C 
ATOM     34  H   UNL A   1      39.864  18.166  25.826  1.00  0.00     0.163 HD
ATOM     35  O   UNL A   1      42.282  18.273  25.939  1.00  0.00    -0.269 OA
BRANCH  33  36
ATOM     36  C   UNL A   1      42.103  20.564  26.408  1.00  0.00     0.039 A 
ATOM     37  C   UNL A   1      42.479  21.407  25.358  1.00  0.00     0.014 A 
ATOM     38  C   UNL A   1      42.265  20.978  27.733  1.00  0.00     0.014 A 
ATOM     39  C   UNL A   1      42.961  22.687  25.637  1.00  0.00     0.010 A 
ATOM     40  C   UNL A   1      42.674  22.281  28.007  1.00  0.00     0.010 A 
ATOM     41  C   UNL A   1      43.030  23.146  26.963  1.00  0.00    -0.014 A 
BRANCH  41  42
ATOM     42  C   UNL A   1      43.476  24.529  27.270  1.00  0.00     0.031 A 
ATOM     43  C   UNL A   1      42.498  25.539  27.803  1.00  0.00     0.074 A 
ATOM     44  C   UNL A   1      44.749  24.891  27.016  1.00  0.00     0.049 A 
ATOM     45  N   UNL A   1      42.682  26.806  28.077  1.00  0.00    -0.248 NA
ATOM     46  C   UNL A   1      41.124  25.070  28.035  1.00  0.00     0.031 C 
ATOM     47  C   UNL A   1      45.780  24.016  26.455  1.00  0.00     0.029 A 
ATOM     48  N   UNL A   1      45.392  26.092  27.187  1.00  0.00    -0.354 N 
ATOM     49  C   UNL A   1      41.449  27.284  28.501  1.00  0.00     0.074 A 
ATOM     50  C   UNL A   1      40.511  26.188  28.393  1.00  0.00     0.031 C 
ATOM     51  C   UNL A   1      46.929  24.702  26.349  1.00  0.00     0.029 A 
ATOM     52  C   UNL A   1      46.708  26.074  26.796  1.00  0.00     0.049 A 
ATOM     53  H   UNL A   1      44.950  26.892  27.555  1.00  0.00     0.167 HD
ATOM     54  C   UNL A   1      41.135  28.519  28.961  1.00  0.00     0.037 A 
ATOM     55  C   UNL A   1      47.631  27.055  26.790  1.00  0.00     0.037 A 
ATOM     56  C   UNL A   1      42.076  29.600  29.085  1.00  0.00     0.049 A 
ATOM     57  C   UNL A   1      47.252  28.420  27.297  1.00  0.00     0.074 A 
ATOM     58  C   UNL A   1      41.869  30.871  29.592  1.00  0.00     0.029 A 
ATOM     59  N   UNL A   1      43.406  29.539  28.693  1.00  0.00    -0.354 N 
ATOM     60  N   UNL A   1      46.099  28.841  27.760  1.00  0.00    -0.248 NA
ATOM     61  C   UNL A   1      48.304  29.445  27.289  1.00  0.00     0.031 C 
ATOM     62  C   UNL A   1      43.058  31.596  29.457  1.00  0.00     0.029 A 
ATOM     63  C   UNL A   1      44.023  30.759  28.923  1.00  0.00     0.049 A 
ATOM     64  H   UNL A   1      43.846  28.747  28.307  1.00  0.00     0.167 HD
ATOM     65  C   UNL A   1      46.296  30.167  28.125  1.00  0.00     0.074 A 
ATOM     66  C   UNL A   1      47.682  30.475  27.845  1.00  0.00     0.031 C 
ATOM     67  C   UNL A   1      45.407  31.048  28.645  1.00  0.00     0.037 A 
BRANCH  54  68
ATOM     68  C   UNL A   1      39.710  28.767  29.370  1.00  0.00     0.064 A 
ATOM     69  C   UNL A   1      39.259  28.499  30.673  1.00  0.00     0.173 A 
ATOM     70  C   UNL A   1      38.795  29.320  28.462  1.00  0.00     0.173 A 
ATOM     71  F   UNL A   1      40.091  27.960  31.577  1.00  0.00    -0.203 F 
ATOM     72  C   UNL A   1      37.940  28.749  31.040  1.00  0.00     0.198 A 
ATOM     73  C   UNL A   1      37.485  29.599  28.843  1.00  0.00     0.198 A 
ATOM     74  F   UNL A   1      39.174  29.602  27.206  1.00  0.00    -0.203 F 
ATOM     75  F   UNL A   1      37.521  28.437  32.275  1.00  0.00    -0.200 F 
ATOM     76  C   UNL A   1      37.056  29.305  30.129  1.00  0.00     0.200 A 
ATOM     77  F   UNL A   1      36.637  30.152  27.966  1.00  0.00    -0.200 F 
ATOM     78  F   UNL A   1      35.789  29.554  30.488  1.00  0.00    -0.200 F 
ENDBRANCH  54  68
BRANCH  55  79
ATOM     79  C   UNL A   1      49.008  26.777  26.304  1.00  0.00     0.064 A 
ATOM     80  C   UNL A   1      49.360  27.000  24.965  1.00  0.00     0.173 A 
ATOM     81  C   UNL A   1      49.998  26.279  27.163  1.00  0.00     0.173 A 
ATOM     82  F   UNL A   1      48.443  27.458  24.100  1.00  0.00    -0.203 F 
ATOM     83  C   UNL A   1      50.641  26.713  24.499  1.00  0.00     0.198 A 
ATOM     84  C   UNL A   1      51.288  26.022  26.703  1.00  0.00     0.198 A 
ATOM     85  F   UNL A   1      49.717  26.053  28.455  1.00  0.00    -0.203 F 
ATOM     86  F   UNL A   1      50.935  26.889  23.204  1.00  0.00    -0.200 F 
ATOM     87  C   UNL A   1      51.606  26.230  25.370  1.00  0.00     0.200 A 
ATOM     88  F   UNL A   1      52.223  25.571  27.552  1.00  0.00    -0.200 F 
ATOM     89  F   UNL A   1      52.840  25.958  24.922  1.00  0.00    -0.200 F 
ENDBRANCH  55  79
BRANCH  67  90
ATOM     90  C   UNL A   1      45.915  32.422  28.981  1.00  0.00     0.064 A 
ATOM     91  C   UNL A   1      45.842  33.482  28.067  1.00  0.00     0.173 A 
ATOM     92  C   UNL A   1      46.446  32.688  30.253  1.00  0.00     0.173 A 
ATOM     93  F   UNL A   1      45.356  33.276  26.832  1.00  0.00    -0.203 F 
ATOM     94  C   UNL A   1      46.308  34.750  28.401  1.00  0.00     0.198 A 
ATOM     95  C   UNL A   1      46.880  33.965  30.596  1.00  0.00     0.198 A 
ATOM     96  F   UNL A   1      46.532  31.712  31.169  1.00  0.00    -0.203 F 
ATOM     97  F   UNL A   1      46.277  35.735  27.492  1.00  0.00    -0.200 F 
ATOM     98  C   UNL A   1      46.818  34.993  29.668  1.00  0.00     0.200 A 
ATOM     99  F   UNL A   1      47.358  34.201  31.826  1.00  0.00    -0.200 F 
ATOM    100  F   UNL A   1      47.259  36.217  29.991  1.00  0.00    -0.200 F 
ENDBRANCH  67  90
ENDBRANCH  41  42
ENDBRANCH  33  36
ENDBRANCH  31  32
ENDBRANCH  30  31
ENDBRANCH  29  30
ENDBRANCH   1  29
TORSDOF 18
ENDMDL
