MODEL 1
REMARK VINA RESULT:     -10.9      0.000      0.000
REMARK SMILES CCCOc1cccc([C@@H](O)[C@@H](F)C(=O)NCCCCCCNC(=O)c2ccc(-c3c4nc(c(-c5c(F)c(F)c(F)c(F)c5F)c5ccc([nH]5)c(-c5c(F)c(F)c(F)c(F)c5F)c5nc(c(-c6c(F)c(F)c(F)c(F)c6F)c6ccc3[nH]6)C=C5)C=C4)cc2)c1
REMARK SMILES IDX 18 1 17 2 16 3 14 4 15 5 12 7 13 8 10 9 9 10 5 11 6 12 89 13
REMARK SMILES IDX 7 14 8 15 4 16 3 17 2 18 1 19 11 20 19 22 20 23 21 24 22 25
REMARK SMILES IDX 23 26 24 27 25 29 26 30 27 31 88 32 28 33 87 34 29 35 30 36
REMARK SMILES IDX 31 37 81 38 32 39 86 40 80 41 82 42 33 43 85 44 79 45 78 46
REMARK SMILES IDX 34 48 66 49 46 50 65 51 47 52 50 53 64 54 83 55 48 56 49 57
REMARK SMILES IDX 63 59 84 60 51 61 35 62 36 63 44 64 37 65 38 66 42 67 45 68
REMARK SMILES IDX 39 69 40 70 43 71 41 72 67 73 68 74 76 75 69 76 70 77 74 78
REMARK SMILES IDX 77 79 71 80 72 81 75 82 73 83 52 84 53 85 61 86 54 87 55 88
REMARK SMILES IDX 59 89 62 90 56 91 57 92 60 93 58 94
REMARK H PARENT 16 6 11 21 23 28 82 47 50 58
REMARK Flexibility Score: inf
ROOT
ATOM      1  C   UNL A   1      33.714  26.884  25.423  1.00  0.00     0.021 C 
ENDROOT
BRANCH   1   2
ATOM      2  C   UNL A   1      33.703  25.364  25.589  1.00  0.00     0.116 C 
BRANCH   2   3
ATOM      3  N   UNL A   1      34.642  24.733  24.683  1.00  0.00    -0.353 N 
ATOM      4  C   UNL A   1      34.408  24.058  23.517  1.00  0.00     0.257 C 
ATOM      5  O   UNL A   1      35.383  23.584  22.927  1.00  0.00    -0.272 OA
ATOM      6  H   UNL A   1      35.588  24.800  24.946  1.00  0.00     0.163 HD
BRANCH   4   7
ATOM      7  C   UNL A   1      32.993  23.923  22.964  1.00  0.00     0.288 C 
ATOM      8  F   UNL A   1      32.840  22.720  22.321  1.00  0.00    -0.234 F 
BRANCH   7   9
ATOM      9  C   UNL A   1      32.627  25.073  22.007  1.00  0.00     0.188 C 
BRANCH   9  10
ATOM     10  C   UNL A   1      31.514  25.935  22.572  1.00  0.00    -0.012 A 
ATOM     11  C   UNL A   1      30.207  27.970  22.454  1.00  0.00     0.119 A 
ATOM     12  C   UNL A   1      29.306  27.473  23.390  1.00  0.00     0.046 A 
ATOM     13  C   UNL A   1      31.336  27.238  22.094  1.00  0.00     0.053 A 
ATOM     14  C   UNL A   1      29.513  26.204  23.932  1.00  0.00     0.004 A 
ATOM     15  C   UNL A   1      30.604  25.435  23.518  1.00  0.00     0.007 A 
BRANCH  11  16
ATOM     16  O   UNL A   1      30.001  29.201  21.897  1.00  0.00    -0.494 OA
BRANCH  16  17
ATOM     17  C   UNL A   1      28.665  29.674  22.150  1.00  0.00     0.229 C 
BRANCH  17  18
ATOM     18  C   UNL A   1      28.677  31.082  22.757  1.00  0.00     0.038 C 
ATOM     19  C   UNL A   1      27.507  31.324  23.703  1.00  0.00     0.007 C 
ENDBRANCH  17  18
ENDBRANCH  16  17
ENDBRANCH  11  16
ENDBRANCH   9  10
BRANCH   9  20
ATOM     20  O   UNL A   1      33.747  25.913  21.725  1.00  0.00    -0.385 OA
ATOM     21  H   UNL A   1      33.518  26.524  21.007  1.00  0.00     0.211 HD
ENDBRANCH   9  20
ENDBRANCH   7   9
ENDBRANCH   4   7
ENDBRANCH   2   3
ENDBRANCH   1   2
BRANCH   1  22
ATOM     22  C   UNL A   1      32.819  27.635  26.416  1.00  0.00     0.002 C 
BRANCH  22  23
ATOM     23  C   UNL A   1      31.767  28.550  25.781  1.00  0.00     0.002 C 
BRANCH  23  24
ATOM     24  C   UNL A   1      32.134  30.035  25.738  1.00  0.00     0.021 C 
BRANCH  24  25
ATOM     25  C   UNL A   1      32.515  30.646  27.084  1.00  0.00     0.116 C 
BRANCH  25  26
ATOM     26  N   UNL A   1      32.685  32.087  27.008  1.00  0.00    -0.352 N 
ATOM     27  C   UNL A   1      33.618  32.894  27.601  1.00  0.00     0.251 C 
ATOM     28  H   UNL A   1      32.030  32.554  26.441  1.00  0.00     0.163 HD
ATOM     29  O   UNL A   1      33.481  34.118  27.557  1.00  0.00    -0.269 OA
BRANCH  27  30
ATOM     30  C   UNL A   1      34.785  32.319  28.305  1.00  0.00     0.039 A 
ATOM     31  C   UNL A   1      35.950  33.085  28.402  1.00  0.00     0.014 A 
ATOM     32  C   UNL A   1      34.762  31.020  28.820  1.00  0.00     0.014 A 
ATOM     33  C   UNL A   1      37.077  32.563  29.042  1.00  0.00     0.010 A 
ATOM     34  C   UNL A   1      35.862  30.526  29.521  1.00  0.00     0.010 A 
ATOM     35  C   UNL A   1      37.037  31.286  29.623  1.00  0.00    -0.014 A 
BRANCH  35  36
ATOM     36  C   UNL A   1      38.231  30.730  30.311  1.00  0.00     0.031 A 
ATOM     37  C   UNL A   1      38.530  31.104  31.737  1.00  0.00     0.074 A 
ATOM     38  C   UNL A   1      39.060  29.905  29.643  1.00  0.00     0.049 A 
ATOM     39  N   UNL A   1      39.515  30.714  32.507  1.00  0.00    -0.248 NA
ATOM     40  C   UNL A   1      37.617  32.065  32.376  1.00  0.00     0.031 C 
ATOM     41  C   UNL A   1      38.910  29.509  28.243  1.00  0.00     0.029 A 
ATOM     42  N   UNL A   1      40.192  29.248  30.056  1.00  0.00    -0.354 N 
ATOM     43  C   UNL A   1      39.344  31.384  33.711  1.00  0.00     0.074 A 
ATOM     44  C   UNL A   1      38.197  32.251  33.552  1.00  0.00     0.031 C 
ATOM     45  C   UNL A   1      39.894  28.654  27.920  1.00  0.00     0.029 A 
ATOM     46  C   UNL A   1      40.757  28.462  29.082  1.00  0.00     0.049 A 
ATOM     47  H   UNL A   1      40.565  29.333  30.963  1.00  0.00     0.167 HD
ATOM     48  C   UNL A   1      40.061  31.269  34.856  1.00  0.00     0.037 A 
ATOM     49  C   UNL A   1      41.844  27.668  29.125  1.00  0.00     0.037 A 
ATOM     50  C   UNL A   1      41.187  30.387  35.021  1.00  0.00     0.049 A 
ATOM     51  C   UNL A   1      42.609  27.540  30.415  1.00  0.00     0.074 A 
ATOM     52  C   UNL A   1      41.948  30.159  36.154  1.00  0.00     0.029 A 
ATOM     53  N   UNL A   1      41.714  29.585  34.019  1.00  0.00    -0.354 N 
ATOM     54  N   UNL A   1      42.393  28.124  31.568  1.00  0.00    -0.248 NA
ATOM     55  C   UNL A   1      43.759  26.625  30.411  1.00  0.00     0.031 C 
ATOM     56  C   UNL A   1      42.961  29.250  35.826  1.00  0.00     0.029 A 
ATOM     57  C   UNL A   1      42.800  28.872  34.504  1.00  0.00     0.049 A 
ATOM     58  H   UNL A   1      41.368  29.530  33.098  1.00  0.00     0.167 HD
ATOM     59  C   UNL A   1      43.358  27.626  32.434  1.00  0.00     0.074 A 
ATOM     60  C   UNL A   1      44.148  26.678  31.676  1.00  0.00     0.031 C 
ATOM     61  C   UNL A   1      43.572  27.927  33.739  1.00  0.00     0.037 A 
BRANCH  48  62
ATOM     62  C   UNL A   1      39.641  32.114  36.024  1.00  0.00     0.064 A 
ATOM     63  C   UNL A   1      40.279  33.329  36.320  1.00  0.00     0.173 A 
ATOM     64  C   UNL A   1      38.571  31.721  36.842  1.00  0.00     0.173 A 
ATOM     65  F   UNL A   1      41.315  33.745  35.578  1.00  0.00    -0.203 F 
ATOM     66  C   UNL A   1      39.882  34.101  37.409  1.00  0.00     0.198 A 
ATOM     67  C   UNL A   1      38.156  32.511  37.910  1.00  0.00     0.198 A 
ATOM     68  F   UNL A   1      37.922  30.570  36.601  1.00  0.00    -0.203 F 
ATOM     69  F   UNL A   1      40.540  35.231  37.702  1.00  0.00    -0.200 F 
ATOM     70  C   UNL A   1      38.817  33.696  38.198  1.00  0.00     0.200 A 
ATOM     71  F   UNL A   1      37.118  32.124  38.665  1.00  0.00    -0.200 F 
ATOM     72  F   UNL A   1      38.432  34.443  39.243  1.00  0.00    -0.200 F 
ENDBRANCH  48  62
BRANCH  49  73
ATOM     73  C   UNL A   1      42.248  26.896  27.921  1.00  0.00     0.064 A 
ATOM     74  C   UNL A   1      43.132  27.443  26.980  1.00  0.00     0.173 A 
ATOM     75  C   UNL A   1      41.754  25.606  27.682  1.00  0.00     0.173 A 
ATOM     76  F   UNL A   1      43.616  28.681  27.156  1.00  0.00    -0.203 F 
ATOM     77  C   UNL A   1      43.487  26.737  25.832  1.00  0.00     0.198 A 
ATOM     78  C   UNL A   1      42.134  24.890  26.548  1.00  0.00     0.198 A 
ATOM     79  F   UNL A   1      40.912  25.036  28.556  1.00  0.00    -0.203 F 
ATOM     80  F   UNL A   1      44.294  27.303  24.925  1.00  0.00    -0.200 F 
ATOM     81  C   UNL A   1      42.991  25.461  25.620  1.00  0.00     0.200 A 
ATOM     82  F   UNL A   1      41.663  23.651  26.354  1.00  0.00    -0.200 F 
ATOM     83  F   UNL A   1      43.334  24.782  24.517  1.00  0.00    -0.200 F 
ENDBRANCH  49  73
BRANCH  61  84
ATOM     84  C   UNL A   1      44.680  27.192  34.438  1.00  0.00     0.064 A 
ATOM     85  C   UNL A   1      44.463  25.959  35.072  1.00  0.00     0.173 A 
ATOM     86  C   UNL A   1      45.978  27.725  34.463  1.00  0.00     0.173 A 
ATOM     87  F   UNL A   1      43.237  25.414  35.088  1.00  0.00    -0.203 F 
ATOM     88  C   UNL A   1      45.497  25.305  35.738  1.00  0.00     0.198 A 
ATOM     89  C   UNL A   1      47.015  27.052  35.102  1.00  0.00     0.198 A 
ATOM     90  F   UNL A   1      46.240  28.896  33.866  1.00  0.00    -0.203 F 
ATOM     91  F   UNL A   1      45.252  24.159  36.388  1.00  0.00    -0.200 F 
ATOM     92  C   UNL A   1      46.772  25.850  35.749  1.00  0.00     0.200 A 
ATOM     93  F   UNL A   1      48.251  27.573  35.101  1.00  0.00    -0.200 F 
ATOM     94  F   UNL A   1      47.765  25.220  36.392  1.00  0.00    -0.200 F 
ENDBRANCH  61  84
ENDBRANCH  35  36
ENDBRANCH  27  30
ENDBRANCH  25  26
ENDBRANCH  24  25
ENDBRANCH  23  24
ENDBRANCH  22  23
ENDBRANCH   1  22
TORSDOF 19
ENDMDL
MODEL 2
REMARK VINA RESULT:     -10.8      1.404      2.309
REMARK SMILES CCCOc1cccc([C@@H](O)[C@@H](F)C(=O)NCCCCCCNC(=O)c2ccc(-c3c4nc(c(-c5c(F)c(F)c(F)c(F)c5F)c5ccc([nH]5)c(-c5c(F)c(F)c(F)c(F)c5F)c5nc(c(-c6c(F)c(F)c(F)c(F)c6F)c6ccc3[nH]6)C=C5)C=C4)cc2)c1
REMARK SMILES IDX 18 1 17 2 16 3 14 4 15 5 12 7 13 8 10 9 9 10 5 11 6 12 89 13
REMARK SMILES IDX 7 14 8 15 4 16 3 17 2 18 1 19 11 20 19 22 20 23 21 24 22 25
REMARK SMILES IDX 23 26 24 27 25 29 26 30 27 31 88 32 28 33 87 34 29 35 30 36
REMARK SMILES IDX 31 37 81 38 32 39 86 40 80 41 82 42 33 43 85 44 79 45 78 46
REMARK SMILES IDX 34 48 66 49 46 50 65 51 47 52 50 53 64 54 83 55 48 56 49 57
REMARK SMILES IDX 63 59 84 60 51 61 35 62 36 63 44 64 37 65 38 66 42 67 45 68
REMARK SMILES IDX 39 69 40 70 43 71 41 72 67 73 68 74 76 75 69 76 70 77 74 78
REMARK SMILES IDX 77 79 71 80 72 81 75 82 73 83 52 84 53 85 61 86 54 87 55 88
REMARK SMILES IDX 59 89 62 90 56 91 57 92 60 93 58 94
REMARK H PARENT 16 6 11 21 23 28 82 47 50 58
REMARK Flexibility Score: inf
ROOT
ATOM      1  C   UNL A   1      32.071  28.860  27.213  1.00  0.00     0.021 C 
ENDROOT
BRANCH   1   2
ATOM      2  C   UNL A   1      31.858  27.392  26.838  1.00  0.00     0.116 C 
BRANCH   2   3
ATOM      3  N   UNL A   1      33.090  26.790  26.369  1.00  0.00    -0.353 N 
ATOM      4  C   UNL A   1      33.297  25.928  25.327  1.00  0.00     0.257 C 
ATOM      5  O   UNL A   1      34.450  25.530  25.136  1.00  0.00    -0.272 OA
ATOM      6  H   UNL A   1      33.898  27.037  26.875  1.00  0.00     0.163 HD
BRANCH   4   7
ATOM      7  C   UNL A   1      32.143  25.503  24.425  1.00  0.00     0.288 C 
ATOM      8  F   UNL A   1      32.369  24.250  23.913  1.00  0.00    -0.234 F 
BRANCH   7   9
ATOM      9  C   UNL A   1      31.900  26.498  23.275  1.00  0.00     0.188 C 
BRANCH   9  10
ATOM     10  C   UNL A   1      30.499  27.077  23.324  1.00  0.00    -0.012 A 
ATOM     11  C   UNL A   1      28.894  28.690  22.497  1.00  0.00     0.119 A 
ATOM     12  C   UNL A   1      27.862  28.039  23.164  1.00  0.00     0.046 A 
ATOM     13  C   UNL A   1      30.211  28.254  22.626  1.00  0.00     0.053 A 
ATOM     14  C   UNL A   1      28.147  26.906  23.925  1.00  0.00     0.004 A 
ATOM     15  C   UNL A   1      29.456  26.421  23.998  1.00  0.00     0.007 A 
BRANCH  11  16
ATOM     16  O   UNL A   1      28.624  29.786  21.727  1.00  0.00    -0.494 OA
BRANCH  16  17
ATOM     17  C   UNL A   1      29.352  30.941  22.184  1.00  0.00     0.229 C 
BRANCH  17  18
ATOM     18  C   UNL A   1      28.492  31.819  23.099  1.00  0.00     0.038 C 
ATOM     19  C   UNL A   1      28.937  33.276  23.104  1.00  0.00     0.007 C 
ENDBRANCH  17  18
ENDBRANCH  16  17
ENDBRANCH  11  16
ENDBRANCH   9  10
BRANCH   9  20
ATOM     20  O   UNL A   1      32.834  27.579  23.295  1.00  0.00    -0.385 OA
ATOM     21  H   UNL A   1      33.599  27.355  22.742  1.00  0.00     0.211 HD
ENDBRANCH   9  20
ENDBRANCH   7   9
ENDBRANCH   4   7
ENDBRANCH   2   3
ENDBRANCH   1   2
BRANCH   1  22
ATOM     22  C   UNL A   1      32.385  29.775  26.024  1.00  0.00     0.002 C 
BRANCH  22  23
ATOM     23  C   UNL A   1      31.232  30.680  25.575  1.00  0.00     0.002 C 
BRANCH  23  24
ATOM     24  C   UNL A   1      31.139  32.026  26.298  1.00  0.00     0.021 C 
BRANCH  24  25
ATOM     25  C   UNL A   1      32.426  32.483  26.980  1.00  0.00     0.116 C 
BRANCH  25  26
ATOM     26  N   UNL A   1      32.349  33.860  27.436  1.00  0.00    -0.352 N 
ATOM     27  C   UNL A   1      33.058  34.503  28.414  1.00  0.00     0.251 C 
ATOM     28  H   UNL A   1      31.684  34.417  26.969  1.00  0.00     0.163 HD
ATOM     29  O   UNL A   1      32.714  35.630  28.777  1.00  0.00    -0.269 OA
BRANCH  27  30
ATOM     30  C   UNL A   1      34.228  33.861  29.053  1.00  0.00     0.039 A 
ATOM     31  C   UNL A   1      35.508  34.264  28.660  1.00  0.00     0.014 A 
ATOM     32  C   UNL A   1      34.079  32.835  29.989  1.00  0.00     0.014 A 
ATOM     33  C   UNL A   1      36.633  33.663  29.228  1.00  0.00     0.010 A 
ATOM     34  C   UNL A   1      35.201  32.285  30.608  1.00  0.00     0.010 A 
ATOM     35  C   UNL A   1      36.490  32.680  30.221  1.00  0.00    -0.014 A 
BRANCH  35  36
ATOM     36  C   UNL A   1      37.685  32.044  30.833  1.00  0.00     0.031 A 
ATOM     37  C   UNL A   1      38.134  32.438  32.214  1.00  0.00     0.074 A 
ATOM     38  C   UNL A   1      38.380  31.125  30.135  1.00  0.00     0.049 A 
ATOM     39  N   UNL A   1      39.143  31.987  32.917  1.00  0.00    -0.248 NA
ATOM     40  C   UNL A   1      37.364  33.497  32.883  1.00  0.00     0.031 C 
ATOM     41  C   UNL A   1      38.080  30.697  28.769  1.00  0.00     0.029 A 
ATOM     42  N   UNL A   1      39.483  30.384  30.482  1.00  0.00    -0.354 N 
ATOM     43  C   UNL A   1      39.132  32.711  34.102  1.00  0.00     0.074 A 
ATOM     44  C   UNL A   1      38.055  33.671  34.001  1.00  0.00     0.031 C 
ATOM     45  C   UNL A   1      38.956  29.746  28.404  1.00  0.00     0.029 A 
ATOM     46  C   UNL A   1      39.894  29.518  29.500  1.00  0.00     0.049 A 
ATOM     47  H   UNL A   1      39.936  30.467  31.352  1.00  0.00     0.167 HD
ATOM     48  C   UNL A   1      39.929  32.571  35.189  1.00  0.00     0.037 A 
ATOM     49  C   UNL A   1      40.908  28.631  29.488  1.00  0.00     0.037 A 
ATOM     50  C   UNL A   1      40.985  31.598  35.300  1.00  0.00     0.049 A 
ATOM     51  C   UNL A   1      41.764  28.480  30.716  1.00  0.00     0.074 A 
ATOM     52  C   UNL A   1      41.816  31.342  36.376  1.00  0.00     0.029 A 
ATOM     53  N   UNL A   1      41.355  30.718  34.293  1.00  0.00    -0.354 N 
ATOM     54  N   UNL A   1      41.697  29.119  31.858  1.00  0.00    -0.248 NA
ATOM     55  C   UNL A   1      42.827  27.466  30.657  1.00  0.00     0.031 C 
ATOM     56  C   UNL A   1      42.715  30.335  36.006  1.00  0.00     0.029 A 
ATOM     57  C   UNL A   1      42.412  29.928  34.718  1.00  0.00     0.049 A 
ATOM     58  H   UNL A   1      40.930  30.664  33.406  1.00  0.00     0.167 HD
ATOM     59  C   UNL A   1      42.685  28.567  32.663  1.00  0.00     0.074 A 
ATOM     60  C   UNL A   1      43.324  27.527  31.884  1.00  0.00     0.031 C 
ATOM     61  C   UNL A   1      43.032  28.892  33.933  1.00  0.00     0.037 A 
BRANCH  48  62
ATOM     62  C   UNL A   1      39.683  33.489  36.351  1.00  0.00     0.064 A 
ATOM     63  C   UNL A   1      40.249  34.773  36.407  1.00  0.00     0.173 A 
ATOM     64  C   UNL A   1      38.850  33.095  37.410  1.00  0.00     0.173 A 
ATOM     65  F   UNL A   1      41.062  35.195  35.428  1.00  0.00    -0.203 F 
ATOM     66  C   UNL A   1      40.016  35.614  37.493  1.00  0.00     0.198 A 
ATOM     67  C   UNL A   1      38.593  33.951  38.478  1.00  0.00     0.198 A 
ATOM     68  F   UNL A   1      38.280  31.880  37.405  1.00  0.00    -0.203 F 
ATOM     69  F   UNL A   1      40.609  36.814  37.548  1.00  0.00    -0.200 F 
ATOM     70  C   UNL A   1      39.183  35.205  38.523  1.00  0.00     0.200 A 
ATOM     71  F   UNL A   1      37.779  33.559  39.467  1.00  0.00    -0.200 F 
ATOM     72  F   UNL A   1      38.954  36.017  39.565  1.00  0.00    -0.200 F 
ENDBRANCH  48  62
BRANCH  49  73
ATOM     73  C   UNL A   1      41.141  27.786  28.288  1.00  0.00     0.064 A 
ATOM     74  C   UNL A   1      40.569  26.510  28.186  1.00  0.00     0.173 A 
ATOM     75  C   UNL A   1      41.944  28.229  27.228  1.00  0.00     0.173 A 
ATOM     76  F   UNL A   1      39.809  26.035  29.184  1.00  0.00    -0.203 F 
ATOM     77  C   UNL A   1      40.813  25.699  27.080  1.00  0.00     0.198 A 
ATOM     78  C   UNL A   1      42.162  27.429  26.108  1.00  0.00     0.198 A 
ATOM     79  F   UNL A   1      42.507  29.445  27.274  1.00  0.00    -0.203 F 
ATOM     80  F   UNL A   1      40.294  24.464  27.031  1.00  0.00    -0.200 F 
ATOM     81  C   UNL A   1      41.604  26.161  26.040  1.00  0.00     0.200 A 
ATOM     82  F   UNL A   1      42.916  27.884  25.099  1.00  0.00    -0.200 F 
ATOM     83  F   UNL A   1      41.836  25.381  24.975  1.00  0.00    -0.200 F 
ENDBRANCH  49  73
BRANCH  61  84
ATOM     84  C   UNL A   1      44.127  28.085  34.570  1.00  0.00     0.064 A 
ATOM     85  C   UNL A   1      45.468  28.494  34.525  1.00  0.00     0.173 A 
ATOM     86  C   UNL A   1      43.826  26.892  35.245  1.00  0.00     0.173 A 
ATOM     87  F   UNL A   1      45.809  29.621  33.881  1.00  0.00    -0.203 F 
ATOM     88  C   UNL A   1      46.473  27.719  35.099  1.00  0.00     0.198 A 
ATOM     89  C   UNL A   1      44.830  26.136  35.845  1.00  0.00     0.198 A 
ATOM     90  F   UNL A   1      42.560  26.460  35.324  1.00  0.00    -0.203 F 
ATOM     91  F   UNL A   1      47.753  28.099  34.990  1.00  0.00    -0.200 F 
ATOM     92  C   UNL A   1      46.152  26.543  35.761  1.00  0.00     0.200 A 
ATOM     93  F   UNL A   1      44.517  25.007  36.496  1.00  0.00    -0.200 F 
ATOM     94  F   UNL A   1      47.121  25.797  36.310  1.00  0.00    -0.200 F 
ENDBRANCH  61  84
ENDBRANCH  35  36
ENDBRANCH  27  30
ENDBRANCH  25  26
ENDBRANCH  24  25
ENDBRANCH  23  24
ENDBRANCH  22  23
ENDBRANCH   1  22
TORSDOF 19
ENDMDL
MODEL 3
REMARK VINA RESULT:     -10.8      0.540      2.011
REMARK SMILES CCCOc1cccc([C@@H](O)[C@@H](F)C(=O)NCCCCCCNC(=O)c2ccc(-c3c4nc(c(-c5c(F)c(F)c(F)c(F)c5F)c5ccc([nH]5)c(-c5c(F)c(F)c(F)c(F)c5F)c5nc(c(-c6c(F)c(F)c(F)c(F)c6F)c6ccc3[nH]6)C=C5)C=C4)cc2)c1
REMARK SMILES IDX 18 1 17 2 16 3 14 4 15 5 12 7 13 8 10 9 9 10 5 11 6 12 89 13
REMARK SMILES IDX 7 14 8 15 4 16 3 17 2 18 1 19 11 20 19 22 20 23 21 24 22 25
REMARK SMILES IDX 23 26 24 27 25 29 26 30 27 31 88 32 28 33 87 34 29 35 30 36
REMARK SMILES IDX 31 37 81 38 32 39 86 40 80 41 82 42 33 43 85 44 79 45 78 46
REMARK SMILES IDX 34 48 66 49 46 50 65 51 47 52 50 53 64 54 83 55 48 56 49 57
REMARK SMILES IDX 63 59 84 60 51 61 35 62 36 63 44 64 37 65 38 66 42 67 45 68
REMARK SMILES IDX 39 69 40 70 43 71 41 72 67 73 68 74 76 75 69 76 70 77 74 78
REMARK SMILES IDX 77 79 71 80 72 81 75 82 73 83 52 84 53 85 61 86 54 87 55 88
REMARK SMILES IDX 59 89 62 90 56 91 57 92 60 93 58 94
REMARK H PARENT 16 6 11 21 23 28 82 47 50 58
REMARK Flexibility Score: inf
ROOT
ATOM      1  C   UNL A   1      34.007  26.661  25.152  1.00  0.00     0.021 C 
ENDROOT
BRANCH   1   2
ATOM      2  C   UNL A   1      34.026  25.158  25.437  1.00  0.00     0.116 C 
BRANCH   2   3
ATOM      3  N   UNL A   1      34.865  24.457  24.486  1.00  0.00    -0.353 N 
ATOM      4  C   UNL A   1      34.519  23.790  23.343  1.00  0.00     0.257 C 
ATOM      5  O   UNL A   1      35.424  23.246  22.704  1.00  0.00    -0.272 OA
ATOM      6  H   UNL A   1      35.828  24.462  24.693  1.00  0.00     0.163 HD
BRANCH   4   7
ATOM      7  C   UNL A   1      33.069  23.749  22.873  1.00  0.00     0.288 C 
ATOM      8  F   UNL A   1      32.817  22.584  22.193  1.00  0.00    -0.234 F 
BRANCH   7   9
ATOM      9  C   UNL A   1      32.705  24.955  21.989  1.00  0.00     0.188 C 
BRANCH   9  10
ATOM     10  C   UNL A   1      31.571  25.766  22.590  1.00  0.00    -0.012 A 
ATOM     11  C   UNL A   1      30.180  27.745  22.526  1.00  0.00     0.119 A 
ATOM     12  C   UNL A   1      29.324  27.203  23.478  1.00  0.00     0.046 A 
ATOM     13  C   UNL A   1      31.329  27.064  22.131  1.00  0.00     0.053 A 
ATOM     14  C   UNL A   1      29.595  25.939  24.001  1.00  0.00     0.004 A 
ATOM     15  C   UNL A   1      30.707  25.219  23.553  1.00  0.00     0.007 A 
BRANCH  11  16
ATOM     16  O   UNL A   1      29.910  28.972  21.987  1.00  0.00    -0.494 OA
BRANCH  16  17
ATOM     17  C   UNL A   1      28.873  29.650  22.719  1.00  0.00     0.229 C 
BRANCH  17  18
ATOM     18  C   UNL A   1      28.632  31.062  22.171  1.00  0.00     0.038 C 
ATOM     19  C   UNL A   1      28.577  32.117  23.268  1.00  0.00     0.007 C 
ENDBRANCH  17  18
ENDBRANCH  16  17
ENDBRANCH  11  16
ENDBRANCH   9  10
BRANCH   9  20
ATOM     20  O   UNL A   1      33.819  25.825  21.783  1.00  0.00    -0.385 OA
ATOM     21  H   UNL A   1      33.540  26.586  21.250  1.00  0.00     0.211 HD
ENDBRANCH   9  20
ENDBRANCH   7   9
ENDBRANCH   4   7
ENDBRANCH   2   3
ENDBRANCH   1   2
BRANCH   1  22
ATOM     22  C   UNL A   1      33.285  27.495  26.216  1.00  0.00     0.002 C 
BRANCH  22  23
ATOM     23  C   UNL A   1      31.931  28.070  25.784  1.00  0.00     0.002 C 
BRANCH  23  24
ATOM     24  C   UNL A   1      31.859  29.597  25.721  1.00  0.00     0.021 C 
BRANCH  24  25
ATOM     25  C   UNL A   1      31.929  30.303  27.074  1.00  0.00     0.116 C 
BRANCH  25  26
ATOM     26  N   UNL A   1      32.078  31.742  26.937  1.00  0.00    -0.352 N 
ATOM     27  C   UNL A   1      33.019  32.582  27.468  1.00  0.00     0.251 C 
ATOM     28  H   UNL A   1      31.398  32.179  26.375  1.00  0.00     0.163 HD
ATOM     29  O   UNL A   1      32.865  33.802  27.384  1.00  0.00    -0.269 OA
BRANCH  27  30
ATOM     30  C   UNL A   1      34.216  32.048  28.154  1.00  0.00     0.039 A 
ATOM     31  C   UNL A   1      35.050  32.941  28.834  1.00  0.00     0.014 A 
ATOM     32  C   UNL A   1      34.553  30.693  28.090  1.00  0.00     0.014 A 
ATOM     33  C   UNL A   1      36.200  32.473  29.474  1.00  0.00     0.010 A 
ATOM     34  C   UNL A   1      35.662  30.215  28.789  1.00  0.00     0.010 A 
ATOM     35  C   UNL A   1      36.506  31.102  29.472  1.00  0.00    -0.014 A 
BRANCH  35  36
ATOM     36  C   UNL A   1      37.724  30.599  30.159  1.00  0.00     0.031 A 
ATOM     37  C   UNL A   1      38.005  30.978  31.587  1.00  0.00     0.074 A 
ATOM     38  C   UNL A   1      38.591  29.817  29.487  1.00  0.00     0.049 A 
ATOM     39  N   UNL A   1      39.006  30.629  32.355  1.00  0.00    -0.248 NA
ATOM     40  C   UNL A   1      37.047  31.891  32.230  1.00  0.00     0.031 C 
ATOM     41  C   UNL A   1      38.461  29.422  28.083  1.00  0.00     0.029 A 
ATOM     42  N   UNL A   1      39.753  29.211  29.896  1.00  0.00    -0.354 N 
ATOM     43  C   UNL A   1      38.803  31.283  33.563  1.00  0.00     0.074 A 
ATOM     44  C   UNL A   1      37.618  32.098  33.408  1.00  0.00     0.031 C 
ATOM     45  C   UNL A   1      39.484  28.616  27.757  1.00  0.00     0.029 A 
ATOM     46  C   UNL A   1      40.354  28.458  28.918  1.00  0.00     0.049 A 
ATOM     47  H   UNL A   1      40.120  29.308  30.804  1.00  0.00     0.167 HD
ATOM     48  C   UNL A   1      39.524  31.195  34.708  1.00  0.00     0.037 A 
ATOM     49  C   UNL A   1      41.477  27.715  28.958  1.00  0.00     0.037 A 
ATOM     50  C   UNL A   1      40.690  30.366  34.869  1.00  0.00     0.049 A 
ATOM     51  C   UNL A   1      42.246  27.615  30.248  1.00  0.00     0.074 A 
ATOM     52  C   UNL A   1      41.460  30.167  36.001  1.00  0.00     0.029 A 
ATOM     53  N   UNL A   1      41.255  29.595  33.863  1.00  0.00    -0.354 N 
ATOM     54  N   UNL A   1      42.002  28.182  31.404  1.00  0.00    -0.248 NA
ATOM     55  C   UNL A   1      43.437  26.755  30.240  1.00  0.00     0.031 C 
ATOM     56  C   UNL A   1      42.514  29.308  35.669  1.00  0.00     0.029 A 
ATOM     57  C   UNL A   1      42.372  28.931  34.345  1.00  0.00     0.049 A 
ATOM     58  H   UNL A   1      40.912  29.530  32.941  1.00  0.00     0.167 HD
ATOM     59  C   UNL A   1      42.989  27.724  32.268  1.00  0.00     0.074 A 
ATOM     60  C   UNL A   1      43.823  26.819  31.505  1.00  0.00     0.031 C 
ATOM     61  C   UNL A   1      43.187  28.027  33.575  1.00  0.00     0.037 A 
BRANCH  48  62
ATOM     62  C   UNL A   1      39.064  32.012  35.880  1.00  0.00     0.064 A 
ATOM     63  C   UNL A   1      38.243  31.468  36.880  1.00  0.00     0.173 A 
ATOM     64  C   UNL A   1      39.472  33.348  36.024  1.00  0.00     0.173 A 
ATOM     65  F   UNL A   1      37.814  30.201  36.785  1.00  0.00    -0.203 F 
ATOM     66  C   UNL A   1      37.820  32.238  37.961  1.00  0.00     0.198 A 
ATOM     67  C   UNL A   1      39.074  34.105  37.123  1.00  0.00     0.198 A 
ATOM     68  F   UNL A   1      40.262  33.917  35.101  1.00  0.00    -0.203 F 
ATOM     69  F   UNL A   1      36.994  31.711  38.875  1.00  0.00    -0.200 F 
ATOM     70  C   UNL A   1      38.242  33.553  38.085  1.00  0.00     0.200 A 
ATOM     71  F   UNL A   1      39.493  35.372  37.249  1.00  0.00    -0.200 F 
ATOM     72  F   UNL A   1      37.840  34.292  39.130  1.00  0.00    -0.200 F 
ENDBRANCH  48  62
BRANCH  49  73
ATOM     73  C   UNL A   1      41.917  26.970  27.750  1.00  0.00     0.064 A 
ATOM     74  C   UNL A   1      41.501  25.649  27.529  1.00  0.00     0.173 A 
ATOM     75  C   UNL A   1      42.765  27.556  26.800  1.00  0.00     0.173 A 
ATOM     76  F   UNL A   1      40.704  25.040  28.419  1.00  0.00    -0.203 F 
ATOM     77  C   UNL A   1      41.938  24.934  26.416  1.00  0.00     0.198 A 
ATOM     78  C   UNL A   1      43.178  26.849  25.672  1.00  0.00     0.198 A 
ATOM     79  F   UNL A   1      43.185  28.819  26.962  1.00  0.00    -0.203 F 
ATOM     80  F   UNL A   1      41.565  23.657  26.255  1.00  0.00    -0.200 F 
ATOM     81  C   UNL A   1      42.772  25.536  25.486  1.00  0.00     0.200 A 
ATOM     82  F   UNL A   1      43.973  27.439  24.769  1.00  0.00    -0.200 F 
ATOM     83  F   UNL A   1      43.191  24.849  24.415  1.00  0.00    -0.200 F 
ENDBRANCH  49  73
BRANCH  61  84
ATOM     84  C   UNL A   1      44.328  27.340  34.271  1.00  0.00     0.064 A 
ATOM     85  C   UNL A   1      45.594  27.935  34.376  1.00  0.00     0.173 A 
ATOM     86  C   UNL A   1      44.146  26.074  34.848  1.00  0.00     0.173 A 
ATOM     87  F   UNL A   1      45.823  29.138  33.829  1.00  0.00    -0.203 F 
ATOM     88  C   UNL A   1      46.647  27.271  35.002  1.00  0.00     0.198 A 
ATOM     89  C   UNL A   1      45.192  25.428  35.501  1.00  0.00     0.198 A 
ATOM     90  F   UNL A   1      42.953  25.466  34.782  1.00  0.00    -0.203 F 
ATOM     91  F   UNL A   1      47.863  27.832  35.037  1.00  0.00    -0.200 F 
ATOM     92  C   UNL A   1      46.444  26.021  35.567  1.00  0.00     0.200 A 
ATOM     93  F   UNL A   1      44.991  24.226  36.058  1.00  0.00    -0.200 F 
ATOM     94  F   UNL A   1      47.458  25.383  36.166  1.00  0.00    -0.200 F 
ENDBRANCH  61  84
ENDBRANCH  35  36
ENDBRANCH  27  30
ENDBRANCH  25  26
ENDBRANCH  24  25
ENDBRANCH  23  24
ENDBRANCH  22  23
ENDBRANCH   1  22
TORSDOF 19
ENDMDL
