MODEL 1
REMARK VINA RESULT:     -12.1      0.000      0.000
REMARK SMILES CC(C)n1cncc1C[NH2+][C@@H]1CCC[C@H](C(=O)NCCCCCCNC(=O)c2ccc(-c3c4nc(c(-c5c(F)c(F)c(F)c(F)c5F)c5ccc([nH]5)c(-c5c(F)c(F)c(F)c(F)c5F)c5nc(c(-c6c(F)c(F)c(F)c(F)c6F)c6ccc3[nH]6)C=C5)C=C4)cc2)C1
REMARK SMILES IDX 20 1 19 2 18 3 16 4 17 5 15 7 11 8 12 9 91 10 13 11 14 12
REMARK SMILES IDX 10 13 9 16 8 17 4 18 5 19 6 20 7 21 2 22 1 23 3 24 21 25
REMARK SMILES IDX 22 26 23 27 24 28 25 29 26 30 27 32 28 33 29 34 90 35 30 36
REMARK SMILES IDX 89 37 31 38 32 39 33 40 83 41 34 42 88 43 82 44 84 45 35 46
REMARK SMILES IDX 87 47 81 48 80 49 36 51 68 52 48 53 67 54 49 55 52 56 66 57
REMARK SMILES IDX 85 58 50 59 51 60 65 62 86 63 53 64 37 65 38 66 46 67 39 68
REMARK SMILES IDX 40 69 44 70 47 71 41 72 42 73 45 74 43 75 69 76 70 77 78 78
REMARK SMILES IDX 71 79 72 80 76 81 79 82 73 83 74 84 77 85 75 86 54 87 55 88
REMARK SMILES IDX 63 89 56 90 57 91 61 92 64 93 58 94 59 95 62 96 60 97
REMARK H PARENT 18 6 10 14 10 15 25 31 84 50 52 61
REMARK Flexibility Score: inf
ROOT
ATOM      1  C   UNL A   1      39.178  21.371  25.971  1.00  0.00     0.021 C 
ENDROOT
BRANCH   1   2
ATOM      2  C   UNL A   1      38.386  22.672  25.945  1.00  0.00     0.116 C 
BRANCH   2   3
ATOM      3  N   UNL A   1      37.810  22.898  24.632  1.00  0.00    -0.356 N 
ATOM      4  C   UNL A   1      36.509  23.021  24.257  1.00  0.00     0.223 C 
ATOM      5  O   UNL A   1      36.249  23.135  23.059  1.00  0.00    -0.275 OA
ATOM      6  H   UNL A   1      38.462  22.976  23.898  1.00  0.00     0.163 HD
BRANCH   4   7
ATOM      7  C   UNL A   1      35.405  22.995  25.301  1.00  0.00     0.084 C 
ATOM      8  C   UNL A   1      33.166  21.860  25.887  1.00  0.00     0.183 C 
ATOM      9  C   UNL A   1      32.539  23.261  25.771  1.00  0.00     0.065 C 
ATOM     10  C   UNL A   1      34.481  21.777  25.100  1.00  0.00     0.078 C 
ATOM     11  C   UNL A   1      33.483  24.357  26.228  1.00  0.00     0.007 C 
ATOM     12  C   UNL A   1      34.729  24.372  25.375  1.00  0.00     0.014 C 
BRANCH   8  13
ATOM     13  N   UNL A   1      32.300  20.752  25.435  1.00  0.00    -0.339 N 
ATOM     14  H   UNL A   1      31.410  20.821  25.929  1.00  0.00     0.346 HD
ATOM     15  H   UNL A   1      32.205  20.853  24.424  1.00  0.00     0.346 HD
BRANCH  13  16
ATOM     16  C   UNL A   1      32.848  19.424  25.668  1.00  0.00     0.317 C 
BRANCH  16  17
ATOM     17  C   UNL A   1      32.922  18.615  24.435  1.00  0.00     0.093 A 
ATOM     18  N   UNL A   1      33.282  17.286  24.369  1.00  0.00    -0.327 N 
ATOM     19  C   UNL A   1      33.061  16.881  23.075  1.00  0.00     0.200 A 
ATOM     20  N   UNL A   1      32.629  17.861  22.318  1.00  0.00    -0.245 NA
ATOM     21  C   UNL A   1      32.544  18.942  23.148  1.00  0.00     0.140 A 
BRANCH  18  22
ATOM     22  C   UNL A   1      33.725  16.381  25.428  1.00  0.00     0.082 C 
ATOM     23  C   UNL A   1      32.791  15.195  25.686  1.00  0.00     0.031 C 
ATOM     24  C   UNL A   1      35.175  15.935  25.225  1.00  0.00     0.031 C 
ENDBRANCH  18  22
ENDBRANCH  16  17
ENDBRANCH  13  16
ENDBRANCH   8  13
ENDBRANCH   4   7
ENDBRANCH   2   3
ENDBRANCH   1   2
BRANCH   1  25
ATOM     25  C   UNL A   1      40.647  21.591  26.333  1.00  0.00     0.002 C 
BRANCH  25  26
ATOM     26  C   UNL A   1      41.118  20.781  27.552  1.00  0.00     0.002 C 
BRANCH  26  27
ATOM     27  C   UNL A   1      42.136  19.675  27.240  1.00  0.00     0.021 C 
BRANCH  27  28
ATOM     28  C   UNL A   1      42.317  19.467  25.751  1.00  0.00     0.116 C 
BRANCH  28  29
ATOM     29  N   UNL A   1      43.716  19.255  25.374  1.00  0.00    -0.352 N 
ATOM     30  C   UNL A   1      44.580  20.191  24.836  1.00  0.00     0.251 C 
ATOM     31  H   UNL A   1      44.080  18.352  25.518  1.00  0.00     0.163 HD
ATOM     32  O   UNL A   1      45.582  19.855  24.199  1.00  0.00    -0.269 OA
BRANCH  30  33
ATOM     33  C   UNL A   1      44.334  21.606  25.167  1.00  0.00     0.039 A 
ATOM     34  C   UNL A   1      43.829  22.597  24.328  1.00  0.00     0.014 A 
ATOM     35  C   UNL A   1      44.796  22.002  26.407  1.00  0.00     0.014 A 
ATOM     36  C   UNL A   1      43.886  23.935  24.799  1.00  0.00     0.010 A 
ATOM     37  C   UNL A   1      44.242  23.106  26.963  1.00  0.00     0.010 A 
ATOM     38  C   UNL A   1      44.290  24.199  26.139  1.00  0.00    -0.014 A 
BRANCH  38  39
ATOM     39  C   UNL A   1      44.105  25.453  26.914  1.00  0.00     0.031 A 
ATOM     40  C   UNL A   1      45.268  26.342  26.506  1.00  0.00     0.074 A 
ATOM     41  C   UNL A   1      43.002  25.782  27.691  1.00  0.00     0.049 A 
ATOM     42  N   UNL A   1      46.401  26.377  27.134  1.00  0.00    -0.248 NA
ATOM     43  C   UNL A   1      45.420  26.909  25.132  1.00  0.00     0.031 C 
ATOM     44  C   UNL A   1      41.753  25.032  28.002  1.00  0.00     0.029 A 
ATOM     45  N   UNL A   1      42.758  26.929  28.460  1.00  0.00    -0.354 N 
ATOM     46  C   UNL A   1      47.181  27.316  26.466  1.00  0.00     0.074 A 
ATOM     47  C   UNL A   1      46.691  27.334  25.128  1.00  0.00     0.031 C 
ATOM     48  C   UNL A   1      40.819  25.830  28.606  1.00  0.00     0.029 A 
ATOM     49  C   UNL A   1      41.395  27.133  28.886  1.00  0.00     0.049 A 
ATOM     50  H   UNL A   1      43.476  27.559  28.696  1.00  0.00     0.167 HD
ATOM     51  C   UNL A   1      47.776  28.292  27.209  1.00  0.00     0.037 A 
ATOM     52  C   UNL A   1      40.860  28.215  29.579  1.00  0.00     0.037 A 
ATOM     53  C   UNL A   1      47.762  27.869  28.596  1.00  0.00     0.049 A 
ATOM     54  C   UNL A   1      42.017  28.935  30.177  1.00  0.00     0.074 A 
ATOM     55  C   UNL A   1      48.283  26.814  29.316  1.00  0.00     0.029 A 
ATOM     56  N   UNL A   1      46.628  28.267  29.247  1.00  0.00    -0.354 N 
ATOM     57  N   UNL A   1      42.755  28.393  31.105  1.00  0.00    -0.248 NA
ATOM     58  C   UNL A   1      42.666  29.872  29.272  1.00  0.00     0.031 C 
ATOM     59  C   UNL A   1      47.260  26.434  30.243  1.00  0.00     0.029 A 
ATOM     60  C   UNL A   1      46.236  27.376  30.197  1.00  0.00     0.049 A 
ATOM     61  H   UNL A   1      46.149  29.104  29.050  1.00  0.00     0.167 HD
ATOM     62  C   UNL A   1      44.033  28.474  30.578  1.00  0.00     0.074 A 
ATOM     63  C   UNL A   1      43.905  29.397  29.431  1.00  0.00     0.031 C 
ATOM     64  C   UNL A   1      44.971  27.519  30.871  1.00  0.00     0.037 A 
BRANCH  51  65
ATOM     65  C   UNL A   1      47.766  29.782  26.861  1.00  0.00     0.064 A 
ATOM     66  C   UNL A   1      48.951  30.515  27.086  1.00  0.00     0.173 A 
ATOM     67  C   UNL A   1      46.615  30.573  26.630  1.00  0.00     0.173 A 
ATOM     68  F   UNL A   1      50.104  29.878  27.341  1.00  0.00    -0.203 F 
ATOM     69  C   UNL A   1      48.970  31.913  27.148  1.00  0.00     0.198 A 
ATOM     70  C   UNL A   1      46.647  31.972  26.643  1.00  0.00     0.198 A 
ATOM     71  F   UNL A   1      45.395  30.050  26.481  1.00  0.00    -0.203 F 
ATOM     72  F   UNL A   1      50.100  32.550  27.483  1.00  0.00    -0.200 F 
ATOM     73  C   UNL A   1      47.817  32.641  26.926  1.00  0.00     0.200 A 
ATOM     74  F   UNL A   1      45.511  32.659  26.452  1.00  0.00    -0.200 F 
ATOM     75  F   UNL A   1      47.823  33.977  27.021  1.00  0.00    -0.200 F 
ENDBRANCH  51  65
BRANCH  52  76
ATOM     76  C   UNL A   1      39.548  28.974  29.431  1.00  0.00     0.064 A 
ATOM     77  C   UNL A   1      38.947  29.361  28.194  1.00  0.00     0.173 A 
ATOM     78  C   UNL A   1      38.684  29.019  30.534  1.00  0.00     0.173 A 
ATOM     79  F   UNL A   1      39.644  29.312  27.048  1.00  0.00    -0.203 F 
ATOM     80  C   UNL A   1      37.586  29.743  28.096  1.00  0.00     0.198 A 
ATOM     81  C   UNL A   1      37.332  29.374  30.431  1.00  0.00     0.198 A 
ATOM     82  F   UNL A   1      39.118  28.614  31.733  1.00  0.00    -0.203 F 
ATOM     83  F   UNL A   1      37.045  30.067  26.909  1.00  0.00    -0.200 F 
ATOM     84  C   UNL A   1      36.777  29.728  29.216  1.00  0.00     0.200 A 
ATOM     85  F   UNL A   1      36.553  29.303  31.519  1.00  0.00    -0.200 F 
ATOM     86  F   UNL A   1      35.467  30.008  29.127  1.00  0.00    -0.200 F 
ENDBRANCH  52  76
BRANCH  64  87
ATOM     87  C   UNL A   1      44.668  26.538  31.973  1.00  0.00     0.064 A 
ATOM     88  C   UNL A   1      44.562  26.838  33.344  1.00  0.00     0.173 A 
ATOM     89  C   UNL A   1      44.363  25.232  31.581  1.00  0.00     0.173 A 
ATOM     90  F   UNL A   1      44.696  28.094  33.788  1.00  0.00    -0.203 F 
ATOM     91  C   UNL A   1      44.253  25.845  34.279  1.00  0.00     0.198 A 
ATOM     92  C   UNL A   1      44.019  24.255  32.506  1.00  0.00     0.198 A 
ATOM     93  F   UNL A   1      44.354  24.913  30.277  1.00  0.00    -0.203 F 
ATOM     94  F   UNL A   1      44.178  26.143  35.586  1.00  0.00    -0.200 F 
ATOM     95  C   UNL A   1      43.993  24.551  33.857  1.00  0.00     0.200 A 
ATOM     96  F   UNL A   1      43.690  23.029  32.077  1.00  0.00    -0.200 F 
ATOM     97  F   UNL A   1      43.696  23.593  34.747  1.00  0.00    -0.200 F 
ENDBRANCH  64  87
ENDBRANCH  38  39
ENDBRANCH  30  33
ENDBRANCH  28  29
ENDBRANCH  27  28
ENDBRANCH  26  27
ENDBRANCH  25  26
ENDBRANCH   1  25
TORSDOF 17
ENDMDL
MODEL 2
REMARK VINA RESULT:     -12.1      1.617      2.905
REMARK SMILES CC(C)n1cncc1C[NH2+][C@@H]1CCC[C@H](C(=O)NCCCCCCNC(=O)c2ccc(-c3c4nc(c(-c5c(F)c(F)c(F)c(F)c5F)c5ccc([nH]5)c(-c5c(F)c(F)c(F)c(F)c5F)c5nc(c(-c6c(F)c(F)c(F)c(F)c6F)c6ccc3[nH]6)C=C5)C=C4)cc2)C1
REMARK SMILES IDX 20 1 19 2 18 3 16 4 17 5 15 7 11 8 12 9 91 10 13 11 14 12
REMARK SMILES IDX 10 13 9 16 8 17 4 18 5 19 6 20 7 21 2 22 1 23 3 24 21 25
REMARK SMILES IDX 22 26 23 27 24 28 25 29 26 30 27 32 28 33 29 34 90 35 30 36
REMARK SMILES IDX 89 37 31 38 32 39 33 40 83 41 34 42 88 43 82 44 84 45 35 46
REMARK SMILES IDX 87 47 81 48 80 49 36 51 68 52 48 53 67 54 49 55 52 56 66 57
REMARK SMILES IDX 85 58 50 59 51 60 65 62 86 63 53 64 37 65 38 66 46 67 39 68
REMARK SMILES IDX 40 69 44 70 47 71 41 72 42 73 45 74 43 75 69 76 70 77 78 78
REMARK SMILES IDX 71 79 72 80 76 81 79 82 73 83 74 84 77 85 75 86 54 87 55 88
REMARK SMILES IDX 63 89 56 90 57 91 61 92 64 93 58 94 59 95 62 96 60 97
REMARK H PARENT 18 6 10 14 10 15 25 31 84 50 52 61
REMARK Flexibility Score: inf
ROOT
ATOM      1  C   UNL A   1      39.639  21.877  26.194  1.00  0.00     0.021 C 
ENDROOT
BRANCH   1   2
ATOM      2  C   UNL A   1      38.229  21.681  25.654  1.00  0.00     0.116 C 
BRANCH   2   3
ATOM      3  N   UNL A   1      37.348  22.737  26.120  1.00  0.00    -0.356 N 
ATOM      4  C   UNL A   1      36.076  23.044  25.748  1.00  0.00     0.223 C 
ATOM      5  O   UNL A   1      35.546  24.044  26.232  1.00  0.00    -0.275 OA
ATOM      6  H   UNL A   1      37.730  23.322  26.813  1.00  0.00     0.163 HD
BRANCH   4   7
ATOM      7  C   UNL A   1      35.342  22.175  24.741  1.00  0.00     0.084 C 
ATOM      8  C   UNL A   1      33.354  22.176  23.099  1.00  0.00     0.183 C 
ATOM      9  C   UNL A   1      32.764  21.051  23.969  1.00  0.00     0.065 C 
ATOM     10  C   UNL A   1      34.364  23.015  23.894  1.00  0.00     0.078 C 
ATOM     11  C   UNL A   1      33.835  20.150  24.553  1.00  0.00     0.007 C 
ATOM     12  C   UNL A   1      34.763  20.940  25.445  1.00  0.00     0.014 C 
BRANCH   8  13
ATOM     13  N   UNL A   1      32.359  23.102  22.520  1.00  0.00    -0.339 N 
ATOM     14  H   UNL A   1      32.726  24.051  22.595  1.00  0.00     0.346 HD
ATOM     15  H   UNL A   1      32.213  22.804  21.555  1.00  0.00     0.346 HD
BRANCH  13  16
ATOM     16  C   UNL A   1      31.055  23.067  23.165  1.00  0.00     0.317 C 
BRANCH  16  17
ATOM     17  C   UNL A   1      30.836  24.217  24.066  1.00  0.00     0.093 A 
ATOM     18  N   UNL A   1      30.787  24.160  25.442  1.00  0.00    -0.327 N 
ATOM     19  C   UNL A   1      30.733  25.458  25.889  1.00  0.00     0.200 A 
ATOM     20  N   UNL A   1      30.704  26.320  24.901  1.00  0.00    -0.245 NA
ATOM     21  C   UNL A   1      30.761  25.563  23.766  1.00  0.00     0.140 A 
BRANCH  18  22
ATOM     22  C   UNL A   1      30.871  23.007  26.335  1.00  0.00     0.082 C 
ATOM     23  C   UNL A   1      32.140  22.955  27.193  1.00  0.00     0.031 C 
ATOM     24  C   UNL A   1      29.604  22.847  27.179  1.00  0.00     0.031 C 
ENDBRANCH  18  22
ENDBRANCH  16  17
ENDBRANCH  13  16
ENDBRANCH   8  13
ENDBRANCH   4   7
ENDBRANCH   2   3
ENDBRANCH   1   2
BRANCH   1  25
ATOM     25  C   UNL A   1      40.459  20.587  26.157  1.00  0.00     0.002 C 
BRANCH  25  26
ATOM     26  C   UNL A   1      41.518  20.488  27.268  1.00  0.00     0.002 C 
BRANCH  26  27
ATOM     27  C   UNL A   1      42.540  19.356  27.089  1.00  0.00     0.021 C 
BRANCH  27  28
ATOM     28  C   UNL A   1      42.917  19.149  25.637  1.00  0.00     0.116 C 
BRANCH  28  29
ATOM     29  N   UNL A   1      44.363  19.208  25.412  1.00  0.00    -0.352 N 
ATOM     30  C   UNL A   1      45.093  20.306  25.001  1.00  0.00     0.251 C 
ATOM     31  H   UNL A   1      44.868  18.377  25.571  1.00  0.00     0.163 HD
ATOM     32  O   UNL A   1      46.201  20.184  24.471  1.00  0.00    -0.269 OA
BRANCH  30  33
ATOM     33  C   UNL A   1      44.561  21.638  25.342  1.00  0.00     0.039 A 
ATOM     34  C   UNL A   1      43.635  22.391  24.624  1.00  0.00     0.014 A 
ATOM     35  C   UNL A   1      45.168  22.247  26.424  1.00  0.00     0.014 A 
ATOM     36  C   UNL A   1      43.439  23.737  25.030  1.00  0.00     0.010 A 
ATOM     37  C   UNL A   1      44.480  23.222  27.066  1.00  0.00     0.010 A 
ATOM     38  C   UNL A   1      44.049  24.212  26.225  1.00  0.00    -0.014 A 
BRANCH  38  39
ATOM     39  C   UNL A   1      43.716  25.444  26.987  1.00  0.00     0.031 A 
ATOM     40  C   UNL A   1      44.728  26.479  26.524  1.00  0.00     0.074 A 
ATOM     41  C   UNL A   1      42.605  25.631  27.799  1.00  0.00     0.049 A 
ATOM     42  N   UNL A   1      45.866  26.684  27.108  1.00  0.00    -0.248 NA
ATOM     43  C   UNL A   1      44.752  27.033  25.136  1.00  0.00     0.031 C 
ATOM     44  C   UNL A   1      41.486  24.720  28.168  1.00  0.00     0.029 A 
ATOM     45  N   UNL A   1      42.229  26.748  28.559  1.00  0.00    -0.354 N 
ATOM     46  C   UNL A   1      46.483  27.710  26.398  1.00  0.00     0.074 A 
ATOM     47  C   UNL A   1      45.950  27.632  25.079  1.00  0.00     0.031 C 
ATOM     48  C   UNL A   1      40.470  25.392  28.793  1.00  0.00     0.029 A 
ATOM     49  C   UNL A   1      40.866  26.768  29.032  1.00  0.00     0.049 A 
ATOM     50  H   UNL A   1      42.860  27.477  28.759  1.00  0.00     0.167 HD
ATOM     51  C   UNL A   1      46.960  28.774  27.104  1.00  0.00     0.037 A 
ATOM     52  C   UNL A   1      40.209  27.778  29.728  1.00  0.00     0.037 A 
ATOM     53  C   UNL A   1      47.054  28.382  28.497  1.00  0.00     0.049 A 
ATOM     54  C   UNL A   1      41.273  28.665  30.271  1.00  0.00     0.074 A 
ATOM     55  C   UNL A   1      47.742  27.424  29.213  1.00  0.00     0.029 A 
ATOM     56  N   UNL A   1      45.898  28.630  29.182  1.00  0.00    -0.354 N 
ATOM     57  N   UNL A   1      42.112  28.251  31.180  1.00  0.00    -0.248 NA
ATOM     58  C   UNL A   1      41.753  29.665  29.329  1.00  0.00     0.031 C 
ATOM     59  C   UNL A   1      46.815  26.923  30.182  1.00  0.00     0.029 A 
ATOM     60  C   UNL A   1      45.667  27.712  30.160  1.00  0.00     0.049 A 
ATOM     61  H   UNL A   1      45.300  29.388  28.991  1.00  0.00     0.167 HD
ATOM     62  C   UNL A   1      43.346  28.499  30.605  1.00  0.00     0.074 A 
ATOM     63  C   UNL A   1      43.051  29.371  29.449  1.00  0.00     0.031 C 
ATOM     64  C   UNL A   1      44.419  27.691  30.877  1.00  0.00     0.037 A 
BRANCH  51  65
ATOM     65  C   UNL A   1      46.729  30.241  26.733  1.00  0.00     0.064 A 
ATOM     66  C   UNL A   1      47.821  31.127  26.857  1.00  0.00     0.173 A 
ATOM     67  C   UNL A   1      45.470  30.869  26.577  1.00  0.00     0.173 A 
ATOM     68  F   UNL A   1      49.063  30.652  27.034  1.00  0.00    -0.203 F 
ATOM     69  C   UNL A   1      47.659  32.517  26.895  1.00  0.00     0.198 A 
ATOM     70  C   UNL A   1      45.319  32.260  26.566  1.00  0.00     0.198 A 
ATOM     71  F   UNL A   1      44.322  30.188  26.529  1.00  0.00    -0.203 F 
ATOM     72  F   UNL A   1      48.717  33.303  27.134  1.00  0.00    -0.200 F 
ATOM     73  C   UNL A   1      46.408  33.083  26.749  1.00  0.00     0.200 A 
ATOM     74  F   UNL A   1      44.092  32.789  26.450  1.00  0.00    -0.200 F 
ATOM     75  F   UNL A   1      46.245  34.410  26.822  1.00  0.00    -0.200 F 
ENDBRANCH  51  65
BRANCH  52  76
ATOM     76  C   UNL A   1      38.799  28.343  29.616  1.00  0.00     0.064 A 
ATOM     77  C   UNL A   1      37.961  28.707  30.714  1.00  0.00     0.173 A 
ATOM     78  C   UNL A   1      38.394  28.865  28.380  1.00  0.00     0.173 A 
ATOM     79  F   UNL A   1      38.263  28.323  31.964  1.00  0.00    -0.203 F 
ATOM     80  C   UNL A   1      36.824  29.539  30.560  1.00  0.00     0.198 A 
ATOM     81  C   UNL A   1      37.282  29.707  28.233  1.00  0.00     0.198 A 
ATOM     82  F   UNL A   1      39.141  28.646  27.291  1.00  0.00    -0.203 F 
ATOM     83  F   UNL A   1      36.078  29.890  31.621  1.00  0.00    -0.200 F 
ATOM     84  C   UNL A   1      36.501  30.054  29.318  1.00  0.00     0.200 A 
ATOM     85  F   UNL A   1      37.018  30.236  27.031  1.00  0.00    -0.200 F 
ATOM     86  F   UNL A   1      35.476  30.908  29.169  1.00  0.00    -0.200 F 
ENDBRANCH  52  76
BRANCH  64  87
ATOM     87  C   UNL A   1      44.295  26.700  32.005  1.00  0.00     0.064 A 
ATOM     88  C   UNL A   1      44.164  27.010  33.372  1.00  0.00     0.173 A 
ATOM     89  C   UNL A   1      44.197  25.352  31.645  1.00  0.00     0.173 A 
ATOM     90  F   UNL A   1      44.102  28.281  33.788  1.00  0.00    -0.203 F 
ATOM     91  C   UNL A   1      44.033  26.002  34.333  1.00  0.00     0.198 A 
ATOM     92  C   UNL A   1      44.029  24.354  32.596  1.00  0.00     0.198 A 
ATOM     93  F   UNL A   1      44.218  25.007  30.349  1.00  0.00    -0.203 F 
ATOM     94  F   UNL A   1      43.933  26.314  35.634  1.00  0.00    -0.200 F 
ATOM     95  C   UNL A   1      43.977  24.674  33.941  1.00  0.00     0.200 A 
ATOM     96  F   UNL A   1      43.893  23.083  32.198  1.00  0.00    -0.200 F 
ATOM     97  F   UNL A   1      43.851  23.701  34.856  1.00  0.00    -0.200 F 
ENDBRANCH  64  87
ENDBRANCH  38  39
ENDBRANCH  30  33
ENDBRANCH  28  29
ENDBRANCH  27  28
ENDBRANCH  26  27
ENDBRANCH  25  26
ENDBRANCH   1  25
TORSDOF 17
ENDMDL
MODEL 3
REMARK VINA RESULT:     -11.8      1.621      6.738
REMARK SMILES CC(C)n1cncc1C[NH2+][C@@H]1CCC[C@H](C(=O)NCCCCCCNC(=O)c2ccc(-c3c4nc(c(-c5c(F)c(F)c(F)c(F)c5F)c5ccc([nH]5)c(-c5c(F)c(F)c(F)c(F)c5F)c5nc(c(-c6c(F)c(F)c(F)c(F)c6F)c6ccc3[nH]6)C=C5)C=C4)cc2)C1
REMARK SMILES IDX 20 1 19 2 18 3 16 4 17 5 15 7 11 8 12 9 91 10 13 11 14 12
REMARK SMILES IDX 10 13 9 16 8 17 4 18 5 19 6 20 7 21 2 22 1 23 3 24 21 25
REMARK SMILES IDX 22 26 23 27 24 28 25 29 26 30 27 32 28 33 29 34 90 35 30 36
REMARK SMILES IDX 89 37 31 38 32 39 33 40 83 41 34 42 88 43 82 44 84 45 35 46
REMARK SMILES IDX 87 47 81 48 80 49 36 51 68 52 48 53 67 54 49 55 52 56 66 57
REMARK SMILES IDX 85 58 50 59 51 60 65 62 86 63 53 64 37 65 38 66 46 67 39 68
REMARK SMILES IDX 40 69 44 70 47 71 41 72 42 73 45 74 43 75 69 76 70 77 78 78
REMARK SMILES IDX 71 79 72 80 76 81 79 82 73 83 74 84 77 85 75 86 54 87 55 88
REMARK SMILES IDX 63 89 56 90 57 91 61 92 64 93 58 94 59 95 62 96 60 97
REMARK H PARENT 18 6 10 14 10 15 25 31 84 50 52 61
REMARK Flexibility Score: inf
ROOT
ATOM      1  C   UNL A   1      39.081  21.410  26.052  1.00  0.00     0.021 C 
ENDROOT
BRANCH   1   2
ATOM      2  C   UNL A   1      38.239  22.679  26.009  1.00  0.00     0.116 C 
BRANCH   2   3
ATOM      3  N   UNL A   1      37.706  22.898  24.676  1.00  0.00    -0.356 N 
ATOM      4  C   UNL A   1      36.419  23.036  24.261  1.00  0.00     0.223 C 
ATOM      5  O   UNL A   1      36.197  23.141  23.054  1.00  0.00    -0.275 OA
ATOM      6  H   UNL A   1      38.381  22.957  23.962  1.00  0.00     0.163 HD
BRANCH   4   7
ATOM      7  C   UNL A   1      35.284  23.040  25.271  1.00  0.00     0.084 C 
ATOM      8  C   UNL A   1      33.047  21.892  25.843  1.00  0.00     0.183 C 
ATOM      9  C   UNL A   1      32.401  23.275  25.641  1.00  0.00     0.065 C 
ATOM     10  C   UNL A   1      34.387  21.797  25.100  1.00  0.00     0.078 C 
ATOM     11  C   UNL A   1      33.311  24.408  26.073  1.00  0.00     0.007 C 
ATOM     12  C   UNL A   1      34.583  24.406  25.259  1.00  0.00     0.014 C 
BRANCH   8  13
ATOM     13  N   UNL A   1      32.215  20.748  25.418  1.00  0.00    -0.339 N 
ATOM     14  H   UNL A   1      31.331  20.792  25.926  1.00  0.00     0.346 HD
ATOM     15  H   UNL A   1      32.100  20.834  24.408  1.00  0.00     0.346 HD
BRANCH  13  16
ATOM     16  C   UNL A   1      32.814  19.445  25.658  1.00  0.00     0.317 C 
BRANCH  16  17
ATOM     17  C   UNL A   1      32.916  18.631  24.430  1.00  0.00     0.093 A 
ATOM     18  N   UNL A   1      33.278  17.302  24.376  1.00  0.00    -0.327 N 
ATOM     19  C   UNL A   1      33.086  16.892  23.079  1.00  0.00     0.200 A 
ATOM     20  N   UNL A   1      32.671  17.870  22.309  1.00  0.00    -0.245 NA
ATOM     21  C   UNL A   1      32.568  18.954  23.133  1.00  0.00     0.140 A 
BRANCH  18  22
ATOM     22  C   UNL A   1      33.696  16.401  25.448  1.00  0.00     0.082 C 
ATOM     23  C   UNL A   1      32.717  15.259  25.742  1.00  0.00     0.031 C 
ATOM     24  C   UNL A   1      35.124  15.890  25.237  1.00  0.00     0.031 C 
ENDBRANCH  18  22
ENDBRANCH  16  17
ENDBRANCH  13  16
ENDBRANCH   8  13
ENDBRANCH   4   7
ENDBRANCH   2   3
ENDBRANCH   1   2
BRANCH   1  25
ATOM     25  C   UNL A   1      40.494  21.667  26.575  1.00  0.00     0.002 C 
BRANCH  25  26
ATOM     26  C   UNL A   1      40.957  20.663  27.644  1.00  0.00     0.002 C 
BRANCH  26  27
ATOM     27  C   UNL A   1      41.934  19.590  27.142  1.00  0.00     0.021 C 
BRANCH  27  28
ATOM     28  C   UNL A   1      42.139  19.656  25.643  1.00  0.00     0.116 C 
BRANCH  28  29
ATOM     29  N   UNL A   1      43.553  19.649  25.262  1.00  0.00    -0.352 N 
ATOM     30  C   UNL A   1      44.343  20.749  24.991  1.00  0.00     0.251 C 
ATOM     31  H   UNL A   1      43.986  18.768  25.192  1.00  0.00     0.163 HD
ATOM     32  O   UNL A   1      45.373  20.655  24.318  1.00  0.00    -0.269 OA
BRANCH  30  33
ATOM     33  C   UNL A   1      43.984  22.019  25.649  1.00  0.00     0.039 A 
ATOM     34  C   UNL A   1      43.375  23.130  25.071  1.00  0.00     0.014 A 
ATOM     35  C   UNL A   1      44.438  22.150  26.947  1.00  0.00     0.014 A 
ATOM     36  C   UNL A   1      43.327  24.319  25.846  1.00  0.00     0.010 A 
ATOM     37  C   UNL A   1      43.803  23.037  27.750  1.00  0.00     0.010 A 
ATOM     38  C   UNL A   1      43.738  24.293  27.209  1.00  0.00    -0.014 A 
BRANCH  38  39
ATOM     39  C   UNL A   1      43.462  25.307  28.260  1.00  0.00     0.031 A 
ATOM     40  C   UNL A   1      42.041  25.774  27.993  1.00  0.00     0.074 A 
ATOM     41  C   UNL A   1      44.277  25.607  29.344  1.00  0.00     0.049 A 
ATOM     42  N   UNL A   1      41.746  26.788  27.241  1.00  0.00    -0.248 NA
ATOM     43  C   UNL A   1      40.846  24.893  28.166  1.00  0.00     0.031 C 
ATOM     44  C   UNL A   1      45.604  25.074  29.760  1.00  0.00     0.029 A 
ATOM     45  N   UNL A   1      44.099  26.554  30.363  1.00  0.00    -0.354 N 
ATOM     46  C   UNL A   1      40.358  26.893  27.268  1.00  0.00     0.074 A 
ATOM     47  C   UNL A   1      39.882  25.577  27.535  1.00  0.00     0.031 C 
ATOM     48  C   UNL A   1      45.933  25.468  31.030  1.00  0.00     0.029 A 
ATOM     49  C   UNL A   1      44.943  26.407  31.524  1.00  0.00     0.049 A 
ATOM     50  H   UNL A   1      43.436  27.278  30.290  1.00  0.00     0.167 HD
ATOM     51  C   UNL A   1      39.819  28.111  27.560  1.00  0.00     0.037 A 
ATOM     52  C   UNL A   1      44.923  27.144  32.704  1.00  0.00     0.037 A 
ATOM     53  C   UNL A   1      40.854  29.112  27.385  1.00  0.00     0.049 A 
ATOM     54  C   UNL A   1      44.162  28.387  32.402  1.00  0.00     0.074 A 
ATOM     55  C   UNL A   1      41.637  29.557  26.339  1.00  0.00     0.029 A 
ATOM     56  N   UNL A   1      41.572  29.318  28.529  1.00  0.00    -0.354 N 
ATOM     57  N   UNL A   1      44.613  29.280  31.566  1.00  0.00    -0.248 NA
ATOM     58  C   UNL A   1      42.718  28.239  32.503  1.00  0.00     0.031 C 
ATOM     59  C   UNL A   1      42.941  29.763  26.891  1.00  0.00     0.029 A 
ATOM     60  C   UNL A   1      42.873  29.628  28.276  1.00  0.00     0.049 A 
ATOM     61  H   UNL A   1      41.192  29.249  29.434  1.00  0.00     0.167 HD
ATOM     62  C   UNL A   1      43.579  29.408  30.654  1.00  0.00     0.074 A 
ATOM     63  C   UNL A   1      42.433  28.725  31.291  1.00  0.00     0.031 C 
ATOM     64  C   UNL A   1      43.837  29.708  29.342  1.00  0.00     0.037 A 
BRANCH  51  65
ATOM     65  C   UNL A   1      38.685  28.346  28.560  1.00  0.00     0.064 A 
ATOM     66  C   UNL A   1      37.683  29.275  28.205  1.00  0.00     0.173 A 
ATOM     67  C   UNL A   1      38.690  27.971  29.924  1.00  0.00     0.173 A 
ATOM     68  F   UNL A   1      37.590  29.725  26.946  1.00  0.00    -0.203 F 
ATOM     69  C   UNL A   1      36.811  29.834  29.147  1.00  0.00     0.198 A 
ATOM     70  C   UNL A   1      37.785  28.496  30.853  1.00  0.00     0.198 A 
ATOM     71  F   UNL A   1      39.620  27.168  30.451  1.00  0.00    -0.203 F 
ATOM     72  F   UNL A   1      35.959  30.799  28.775  1.00  0.00    -0.200 F 
ATOM     73  C   UNL A   1      36.862  29.444  30.471  1.00  0.00     0.200 A 
ATOM     74  F   UNL A   1      37.870  28.123  32.139  1.00  0.00    -0.200 F 
ATOM     75  F   UNL A   1      36.055  30.004  31.381  1.00  0.00    -0.200 F 
ENDBRANCH  51  65
BRANCH  52  76
ATOM     76  C   UNL A   1      45.072  26.737  34.164  1.00  0.00     0.064 A 
ATOM     77  C   UNL A   1      44.199  25.858  34.874  1.00  0.00     0.173 A 
ATOM     78  C   UNL A   1      46.310  26.951  34.786  1.00  0.00     0.173 A 
ATOM     79  F   UNL A   1      43.003  25.521  34.367  1.00  0.00    -0.203 F 
ATOM     80  C   UNL A   1      44.567  25.244  36.097  1.00  0.00     0.198 A 
ATOM     81  C   UNL A   1      46.682  26.324  35.983  1.00  0.00     0.198 A 
ATOM     82  F   UNL A   1      47.235  27.704  34.178  1.00  0.00    -0.203 F 
ATOM     83  F   UNL A   1      43.734  24.394  36.721  1.00  0.00    -0.200 F 
ATOM     84  C   UNL A   1      45.820  25.465  36.637  1.00  0.00     0.200 A 
ATOM     85  F   UNL A   1      47.919  26.513  36.462  1.00  0.00    -0.200 F 
ATOM     86  F   UNL A   1      46.215  24.830  37.752  1.00  0.00    -0.200 F 
ENDBRANCH  52  76
BRANCH  64  87
ATOM     87  C   UNL A   1      45.229  30.151  28.974  1.00  0.00     0.064 A 
ATOM     88  C   UNL A   1      46.253  29.330  28.463  1.00  0.00     0.173 A 
ATOM     89  C   UNL A   1      45.490  31.522  29.050  1.00  0.00     0.173 A 
ATOM     90  F   UNL A   1      46.040  28.031  28.222  1.00  0.00    -0.203 F 
ATOM     91  C   UNL A   1      47.506  29.858  28.134  1.00  0.00     0.198 A 
ATOM     92  C   UNL A   1      46.721  32.051  28.686  1.00  0.00     0.198 A 
ATOM     93  F   UNL A   1      44.519  32.363  29.437  1.00  0.00    -0.203 F 
ATOM     94  F   UNL A   1      48.478  29.058  27.670  1.00  0.00    -0.200 F 
ATOM     95  C   UNL A   1      47.739  31.218  28.258  1.00  0.00     0.200 A 
ATOM     96  F   UNL A   1      46.907  33.376  28.733  1.00  0.00    -0.200 F 
ATOM     97  F   UNL A   1      48.937  31.732  27.944  1.00  0.00    -0.200 F 
ENDBRANCH  64  87
ENDBRANCH  38  39
ENDBRANCH  30  33
ENDBRANCH  28  29
ENDBRANCH  27  28
ENDBRANCH  26  27
ENDBRANCH  25  26
ENDBRANCH   1  25
TORSDOF 17
ENDMDL
