MODEL 1
REMARK VINA RESULT:     -12.4      0.000      0.000
REMARK SMILES C[C@@H](C(=O)NCCCCCCNC(=O)c1ccc(-c2c3nc(c(-c4c(F)c(F)c(F)c(F)c4F)c4ccc([nH]4)c(-c4c(F)c(F)c(F)c(F)c4F)c4nc(c(-c5c(F)c(F)c(F)c(F)c5F)c5ccc2[nH]5)C=C4)C=C3)cc1)c1ccc(OC2CCCC2)cc1F
REMARK SMILES IDX 8 1 7 2 6 3 5 4 3 5 4 6 2 8 1 9 78 10 79 11 89 12 80 13
REMARK SMILES IDX 88 14 90 15 81 16 82 17 83 18 84 19 87 20 85 21 86 22 9 23
REMARK SMILES IDX 10 24 11 25 12 26 13 27 14 29 15 30 16 31 77 32 17 33 76 34
REMARK SMILES IDX 18 35 19 36 20 37 70 38 21 39 75 40 69 41 71 42 22 43 74 44
REMARK SMILES IDX 68 45 67 46 23 48 55 49 35 50 54 51 36 52 39 53 53 54 72 55
REMARK SMILES IDX 37 56 38 57 52 59 73 60 40 61 24 62 25 63 33 64 26 65 27 66
REMARK SMILES IDX 31 67 34 68 28 69 29 70 32 71 30 72 56 73 57 74 65 75 58 76
REMARK SMILES IDX 59 77 63 78 66 79 60 80 61 81 64 82 62 83 41 84 42 85 50 86
REMARK SMILES IDX 43 87 44 88 48 89 51 90 45 91 46 92 49 93 47 94
REMARK H PARENT 5 7 12 28 71 47 39 58
REMARK Flexibility Score: inf
ROOT
ATOM      1  C   UNL A   1      32.237  29.762  27.142  1.00  0.00     0.002 C 
ENDROOT
BRANCH   1   2
ATOM      2  C   UNL A   1      32.588  28.376  26.581  1.00  0.00     0.021 C 
BRANCH   2   3
ATOM      3  C   UNL A   1      31.373  27.591  26.066  1.00  0.00     0.116 C 
BRANCH   3   4
ATOM      4  N   UNL A   1      31.311  26.306  26.730  1.00  0.00    -0.356 N 
ATOM      5  C   UNL A   1      30.958  25.144  26.096  1.00  0.00     0.227 C 
ATOM      6  O   UNL A   1      30.080  24.451  26.610  1.00  0.00    -0.274 OA
ATOM      7  H   UNL A   1      31.533  26.266  27.689  1.00  0.00     0.163 HD
BRANCH   5   8
ATOM      8  C   UNL A   1      31.646  24.820  24.762  1.00  0.00     0.108 C 
ATOM      9  C   UNL A   1      30.544  24.776  23.691  1.00  0.00     0.023 C 
BRANCH   8  10
ATOM     10  C   UNL A   1      32.470  23.535  24.761  1.00  0.00     0.000 A 
ATOM     11  C   UNL A   1      32.084  22.444  23.962  1.00  0.00     0.011 A 
ATOM     12  C   UNL A   1      33.628  23.372  25.526  1.00  0.00     0.130 A 
ATOM     13  C   UNL A   1      32.757  21.220  24.038  1.00  0.00     0.047 A 
ATOM     14  C   UNL A   1      34.267  22.141  25.643  1.00  0.00     0.086 A 
ATOM     15  F   UNL A   1      34.196  24.406  26.160  1.00  0.00    -0.207 F 
ATOM     16  C   UNL A   1      33.837  21.049  24.904  1.00  0.00     0.122 A 
BRANCH  16  17
ATOM     17  O   UNL A   1      34.369  19.794  24.905  1.00  0.00    -0.490 OA
BRANCH  17  18
ATOM     18  C   UNL A   1      33.607  18.643  24.562  1.00  0.00     0.173 C 
ATOM     19  C   UNL A   1      34.376  17.503  23.904  1.00  0.00     0.045 C 
ATOM     20  C   UNL A   1      32.778  18.041  25.694  1.00  0.00     0.045 C 
ATOM     21  C   UNL A   1      33.521  16.270  24.148  1.00  0.00     0.004 C 
ATOM     22  C   UNL A   1      32.646  16.559  25.366  1.00  0.00     0.004 C 
ENDBRANCH  17  18
ENDBRANCH  16  17
ENDBRANCH   8  10
ENDBRANCH   5   8
ENDBRANCH   3   4
ENDBRANCH   2   3
ENDBRANCH   1   2
BRANCH   1  23
ATOM     23  C   UNL A   1      31.631  30.725  26.118  1.00  0.00     0.002 C 
BRANCH  23  24
ATOM     24  C   UNL A   1      31.394  32.139  26.649  1.00  0.00     0.021 C 
BRANCH  24  25
ATOM     25  C   UNL A   1      32.624  32.778  27.280  1.00  0.00     0.116 C 
BRANCH  25  26
ATOM     26  N   UNL A   1      32.395  34.175  27.613  1.00  0.00    -0.352 N 
ATOM     27  C   UNL A   1      32.969  34.928  28.605  1.00  0.00     0.251 C 
ATOM     28  H   UNL A   1      31.739  34.645  27.050  1.00  0.00     0.163 HD
ATOM     29  O   UNL A   1      32.507  36.030  28.897  1.00  0.00    -0.269 OA
BRANCH  27  30
ATOM     30  C   UNL A   1      34.136  34.401  29.338  1.00  0.00     0.039 A 
ATOM     31  C   UNL A   1      33.932  33.733  30.548  1.00  0.00     0.014 A 
ATOM     32  C   UNL A   1      35.429  34.561  28.830  1.00  0.00     0.014 A 
ATOM     33  C   UNL A   1      35.021  33.179  31.221  1.00  0.00     0.010 A 
ATOM     34  C   UNL A   1      36.502  33.939  29.460  1.00  0.00     0.010 A 
ATOM     35  C   UNL A   1      36.310  33.248  30.665  1.00  0.00    -0.014 A 
BRANCH  35  36
ATOM     36  C   UNL A   1      37.471  32.610  31.336  1.00  0.00     0.031 A 
ATOM     37  C   UNL A   1      38.196  31.474  30.670  1.00  0.00     0.074 A 
ATOM     38  C   UNL A   1      37.833  33.014  32.569  1.00  0.00     0.049 A 
ATOM     39  N   UNL A   1      39.188  30.747  31.119  1.00  0.00    -0.248 NA
ATOM     40  C   UNL A   1      37.726  31.084  29.331  1.00  0.00     0.031 C 
ATOM     41  C   UNL A   1      37.180  34.075  33.336  1.00  0.00     0.029 A 
ATOM     42  N   UNL A   1      38.835  32.573  33.397  1.00  0.00    -0.354 N 
ATOM     43  C   UNL A   1      39.451  29.812  30.126  1.00  0.00     0.074 A 
ATOM     44  C   UNL A   1      38.477  30.023  29.078  1.00  0.00     0.031 C 
ATOM     45  C   UNL A   1      37.813  34.220  34.512  1.00  0.00     0.029 A 
ATOM     46  C   UNL A   1      38.886  33.235  34.600  1.00  0.00     0.049 A 
ATOM     47  H   UNL A   1      39.458  31.851  33.153  1.00  0.00     0.167 HD
ATOM     48  C   UNL A   1      40.433  28.881  30.082  1.00  0.00     0.037 A 
ATOM     49  C   UNL A   1      39.700  33.060  35.658  1.00  0.00     0.037 A 
ATOM     50  C   UNL A   1      41.411  28.688  31.121  1.00  0.00     0.049 A 
ATOM     51  C   UNL A   1      40.769  32.001  35.592  1.00  0.00     0.074 A 
ATOM     52  C   UNL A   1      42.479  27.809  31.148  1.00  0.00     0.029 A 
ATOM     53  N   UNL A   1      41.436  29.383  32.322  1.00  0.00    -0.354 N 
ATOM     54  N   UNL A   1      41.054  31.171  34.619  1.00  0.00    -0.248 NA
ATOM     55  C   UNL A   1      41.635  31.862  36.771  1.00  0.00     0.031 C 
ATOM     56  C   UNL A   1      43.115  27.930  32.387  1.00  0.00     0.029 A 
ATOM     57  C   UNL A   1      42.483  28.931  33.109  1.00  0.00     0.049 A 
ATOM     58  H   UNL A   1      40.802  30.092  32.577  1.00  0.00     0.167 HD
ATOM     59  C   UNL A   1      42.147  30.433  35.054  1.00  0.00     0.074 A 
ATOM     60  C   UNL A   1      42.485  30.927  36.373  1.00  0.00     0.031 C 
ATOM     61  C   UNL A   1      42.811  29.437  34.418  1.00  0.00     0.037 A 
BRANCH  48  62
ATOM     62  C   UNL A   1      40.497  27.993  28.871  1.00  0.00     0.064 A 
ATOM     63  C   UNL A   1      39.797  26.778  28.809  1.00  0.00     0.173 A 
ATOM     64  C   UNL A   1      41.238  28.380  27.744  1.00  0.00     0.173 A 
ATOM     65  F   UNL A   1      39.082  26.355  29.863  1.00  0.00    -0.203 F 
ATOM     66  C   UNL A   1      39.864  25.968  27.678  1.00  0.00     0.198 A 
ATOM     67  C   UNL A   1      41.273  27.585  26.600  1.00  0.00     0.198 A 
ATOM     68  F   UNL A   1      41.920  29.534  27.745  1.00  0.00    -0.203 F 
ATOM     69  F   UNL A   1      39.231  24.787  27.663  1.00  0.00    -0.200 F 
ATOM     70  C   UNL A   1      40.594  26.376  26.572  1.00  0.00     0.200 A 
ATOM     71  F   UNL A   1      41.967  27.988  25.528  1.00  0.00    -0.200 F 
ATOM     72  F   UNL A   1      40.649  25.601  25.481  1.00  0.00    -0.200 F 
ENDBRANCH  48  62
BRANCH  49  73
ATOM     73  C   UNL A   1      39.550  33.917  36.864  1.00  0.00     0.064 A 
ATOM     74  C   UNL A   1      40.172  35.171  36.940  1.00  0.00     0.173 A 
ATOM     75  C   UNL A   1      38.793  33.498  37.968  1.00  0.00     0.173 A 
ATOM     76  F   UNL A   1      40.923  35.609  35.919  1.00  0.00    -0.203 F 
ATOM     77  C   UNL A   1      40.064  35.961  38.082  1.00  0.00     0.198 A 
ATOM     78  C   UNL A   1      38.659  34.303  39.097  1.00  0.00     0.198 A 
ATOM     79  F   UNL A   1      38.172  32.310  37.945  1.00  0.00    -0.203 F 
ATOM     80  F   UNL A   1      40.713  37.131  38.149  1.00  0.00    -0.200 F 
ATOM     81  C   UNL A   1      39.303  35.529  39.158  1.00  0.00     0.200 A 
ATOM     82  F   UNL A   1      37.908  33.888  40.127  1.00  0.00    -0.200 F 
ATOM     83  F   UNL A   1      39.197  36.290  40.255  1.00  0.00    -0.200 F 
ENDBRANCH  49  73
BRANCH  61  84
ATOM     84  C   UNL A   1      43.998  28.840  35.121  1.00  0.00     0.064 A 
ATOM     85  C   UNL A   1      45.291  29.359  34.962  1.00  0.00     0.173 A 
ATOM     86  C   UNL A   1      43.829  27.757  35.999  1.00  0.00     0.173 A 
ATOM     87  F   UNL A   1      45.508  30.386  34.125  1.00  0.00    -0.203 F 
ATOM     88  C   UNL A   1      46.375  28.799  35.632  1.00  0.00     0.198 A 
ATOM     89  C   UNL A   1      44.910  27.221  36.693  1.00  0.00     0.198 A 
ATOM     90  F   UNL A   1      42.613  27.226  36.193  1.00  0.00    -0.203 F 
ATOM     91  F   UNL A   1      47.609  29.277  35.424  1.00  0.00    -0.200 F 
ATOM     92  C   UNL A   1      46.183  27.736  36.504  1.00  0.00     0.200 A 
ATOM     93  F   UNL A   1      44.718  26.206  37.547  1.00  0.00    -0.200 F 
ATOM     94  F   UNL A   1      47.226  27.204  37.154  1.00  0.00    -0.200 F 
ENDBRANCH  61  84
ENDBRANCH  35  36
ENDBRANCH  27  30
ENDBRANCH  25  26
ENDBRANCH  24  25
ENDBRANCH  23  24
ENDBRANCH   1  23
TORSDOF 16
ENDMDL
MODEL 2
REMARK VINA RESULT:     -12.3      1.874      4.372
REMARK SMILES C[C@@H](C(=O)NCCCCCCNC(=O)c1ccc(-c2c3nc(c(-c4c(F)c(F)c(F)c(F)c4F)c4ccc([nH]4)c(-c4c(F)c(F)c(F)c(F)c4F)c4nc(c(-c5c(F)c(F)c(F)c(F)c5F)c5ccc2[nH]5)C=C4)C=C3)cc1)c1ccc(OC2CCCC2)cc1F
REMARK SMILES IDX 8 1 7 2 6 3 5 4 3 5 4 6 2 8 1 9 78 10 79 11 89 12 80 13
REMARK SMILES IDX 88 14 90 15 81 16 82 17 83 18 84 19 87 20 85 21 86 22 9 23
REMARK SMILES IDX 10 24 11 25 12 26 13 27 14 29 15 30 16 31 77 32 17 33 76 34
REMARK SMILES IDX 18 35 19 36 20 37 70 38 21 39 75 40 69 41 71 42 22 43 74 44
REMARK SMILES IDX 68 45 67 46 23 48 55 49 35 50 54 51 36 52 39 53 53 54 72 55
REMARK SMILES IDX 37 56 38 57 52 59 73 60 40 61 24 62 25 63 33 64 26 65 27 66
REMARK SMILES IDX 31 67 34 68 28 69 29 70 32 71 30 72 56 73 57 74 65 75 58 76
REMARK SMILES IDX 59 77 63 78 66 79 60 80 61 81 64 82 62 83 41 84 42 85 50 86
REMARK SMILES IDX 43 87 44 88 48 89 51 90 45 91 46 92 49 93 47 94
REMARK H PARENT 5 7 12 28 71 47 39 58
REMARK Flexibility Score: inf
ROOT
ATOM      1  C   UNL A   1      32.010  29.658  26.787  1.00  0.00     0.002 C 
ENDROOT
BRANCH   1   2
ATOM      2  C   UNL A   1      33.099  28.824  26.095  1.00  0.00     0.021 C 
BRANCH   2   3
ATOM      3  C   UNL A   1      33.245  27.405  26.662  1.00  0.00     0.116 C 
BRANCH   3   4
ATOM      4  N   UNL A   1      33.929  26.569  25.698  1.00  0.00    -0.356 N 
ATOM      5  C   UNL A   1      33.599  25.258  25.467  1.00  0.00     0.227 C 
ATOM      6  O   UNL A   1      34.503  24.424  25.499  1.00  0.00    -0.274 OA
ATOM      7  H   UNL A   1      34.670  26.962  25.183  1.00  0.00     0.163 HD
BRANCH   5   8
ATOM      8  C   UNL A   1      32.118  24.923  25.240  1.00  0.00     0.108 C 
ATOM      9  C   UNL A   1      32.064  23.484  24.704  1.00  0.00     0.023 C 
BRANCH   8  10
ATOM     10  C   UNL A   1      31.378  25.886  24.315  1.00  0.00     0.000 A 
ATOM     11  C   UNL A   1      31.957  26.290  23.099  1.00  0.00     0.011 A 
ATOM     12  C   UNL A   1      30.114  26.404  24.609  1.00  0.00     0.130 A 
ATOM     13  C   UNL A   1      31.348  27.261  22.297  1.00  0.00     0.047 A 
ATOM     14  C   UNL A   1      29.531  27.407  23.840  1.00  0.00     0.086 A 
ATOM     15  F   UNL A   1      29.388  25.933  25.631  1.00  0.00    -0.207 F 
ATOM     16  C   UNL A   1      30.143  27.851  22.677  1.00  0.00     0.122 A 
BRANCH  16  17
ATOM     17  O   UNL A   1      29.687  28.810  21.823  1.00  0.00    -0.490 OA
BRANCH  17  18
ATOM     18  C   UNL A   1      28.760  29.811  22.225  1.00  0.00     0.173 C 
ATOM     19  C   UNL A   1      29.175  30.668  23.417  1.00  0.00     0.045 C 
ATOM     20  C   UNL A   1      28.292  30.758  21.123  1.00  0.00     0.045 C 
ATOM     21  C   UNL A   1      28.343  31.933  23.289  1.00  0.00     0.004 C 
ATOM     22  C   UNL A   1      27.936  32.064  21.824  1.00  0.00     0.004 C 
ENDBRANCH  17  18
ENDBRANCH  16  17
ENDBRANCH   8  10
ENDBRANCH   5   8
ENDBRANCH   3   4
ENDBRANCH   2   3
ENDBRANCH   1   2
BRANCH   1  23
ATOM     23  C   UNL A   1      31.576  30.904  26.011  1.00  0.00     0.002 C 
BRANCH  23  24
ATOM     24  C   UNL A   1      31.375  32.147  26.878  1.00  0.00     0.021 C 
BRANCH  24  25
ATOM     25  C   UNL A   1      32.668  32.864  27.243  1.00  0.00     0.116 C 
BRANCH  25  26
ATOM     26  N   UNL A   1      32.432  34.254  27.600  1.00  0.00    -0.352 N 
ATOM     27  C   UNL A   1      32.996  34.992  28.608  1.00  0.00     0.251 C 
ATOM     28  H   UNL A   1      31.778  34.731  27.040  1.00  0.00     0.163 HD
ATOM     29  O   UNL A   1      32.529  36.086  28.916  1.00  0.00    -0.269 OA
BRANCH  27  30
ATOM     30  C   UNL A   1      34.160  34.455  29.340  1.00  0.00     0.039 A 
ATOM     31  C   UNL A   1      33.954  33.807  30.560  1.00  0.00     0.014 A 
ATOM     32  C   UNL A   1      35.451  34.588  28.820  1.00  0.00     0.014 A 
ATOM     33  C   UNL A   1      35.040  33.244  31.232  1.00  0.00     0.010 A 
ATOM     34  C   UNL A   1      36.519  33.957  29.451  1.00  0.00     0.010 A 
ATOM     35  C   UNL A   1      36.326  33.286  30.667  1.00  0.00    -0.014 A 
BRANCH  35  36
ATOM     36  C   UNL A   1      37.480  32.637  31.338  1.00  0.00     0.031 A 
ATOM     37  C   UNL A   1      38.201  31.501  30.668  1.00  0.00     0.074 A 
ATOM     38  C   UNL A   1      37.841  33.034  32.574  1.00  0.00     0.049 A 
ATOM     39  N   UNL A   1      39.189  30.768  31.116  1.00  0.00    -0.248 NA
ATOM     40  C   UNL A   1      37.734  31.121  29.325  1.00  0.00     0.031 C 
ATOM     41  C   UNL A   1      37.192  34.094  33.345  1.00  0.00     0.029 A 
ATOM     42  N   UNL A   1      38.838  32.583  33.403  1.00  0.00    -0.354 N 
ATOM     43  C   UNL A   1      39.450  29.837  30.119  1.00  0.00     0.074 A 
ATOM     44  C   UNL A   1      38.481  30.058  29.069  1.00  0.00     0.031 C 
ATOM     45  C   UNL A   1      37.821  34.230  34.523  1.00  0.00     0.029 A 
ATOM     46  C   UNL A   1      38.888  33.239  34.609  1.00  0.00     0.049 A 
ATOM     47  H   UNL A   1      39.458  31.859  33.157  1.00  0.00     0.167 HD
ATOM     48  C   UNL A   1      40.427  28.900  30.073  1.00  0.00     0.037 A 
ATOM     49  C   UNL A   1      39.699  33.054  35.669  1.00  0.00     0.037 A 
ATOM     50  C   UNL A   1      41.401  28.697  31.114  1.00  0.00     0.049 A 
ATOM     51  C   UNL A   1      40.762  31.990  35.601  1.00  0.00     0.074 A 
ATOM     52  C   UNL A   1      42.465  27.812  31.140  1.00  0.00     0.029 A 
ATOM     53  N   UNL A   1      41.425  29.385  32.319  1.00  0.00    -0.354 N 
ATOM     54  N   UNL A   1      41.046  31.163  34.624  1.00  0.00    -0.248 NA
ATOM     55  C   UNL A   1      41.624  31.839  36.781  1.00  0.00     0.031 C 
ATOM     56  C   UNL A   1      43.097  27.923  32.381  1.00  0.00     0.029 A 
ATOM     57  C   UNL A   1      42.468  28.923  33.107  1.00  0.00     0.049 A 
ATOM     58  H   UNL A   1      40.795  30.096  32.576  1.00  0.00     0.167 HD
ATOM     59  C   UNL A   1      42.134  30.417  35.058  1.00  0.00     0.074 A 
ATOM     60  C   UNL A   1      42.470  30.902  36.381  1.00  0.00     0.031 C 
ATOM     61  C   UNL A   1      42.795  29.421  34.419  1.00  0.00     0.037 A 
BRANCH  48  62
ATOM     62  C   UNL A   1      40.491  28.019  28.858  1.00  0.00     0.064 A 
ATOM     63  C   UNL A   1      39.783  26.808  28.786  1.00  0.00     0.173 A 
ATOM     64  C   UNL A   1      41.238  28.406  27.736  1.00  0.00     0.173 A 
ATOM     65  F   UNL A   1      39.061  26.384  29.835  1.00  0.00    -0.203 F 
ATOM     66  C   UNL A   1      39.849  26.004  27.651  1.00  0.00     0.198 A 
ATOM     67  C   UNL A   1      41.273  27.617  26.588  1.00  0.00     0.198 A 
ATOM     68  F   UNL A   1      41.928  29.556  27.746  1.00  0.00    -0.203 F 
ATOM     69  F   UNL A   1      39.209  24.827  27.628  1.00  0.00    -0.200 F 
ATOM     70  C   UNL A   1      40.587  26.413  26.550  1.00  0.00     0.200 A 
ATOM     71  F   UNL A   1      41.973  28.021  25.520  1.00  0.00    -0.200 F 
ATOM     72  F   UNL A   1      40.641  25.644  25.455  1.00  0.00    -0.200 F 
ENDBRANCH  48  62
BRANCH  49  73
ATOM     73  C   UNL A   1      39.550  33.905  36.879  1.00  0.00     0.064 A 
ATOM     74  C   UNL A   1      38.789  33.474  37.975  1.00  0.00     0.173 A 
ATOM     75  C   UNL A   1      40.154  35.169  36.962  1.00  0.00     0.173 A 
ATOM     76  F   UNL A   1      38.175  32.283  37.936  1.00  0.00    -0.203 F 
ATOM     77  C   UNL A   1      38.616  34.284  39.095  1.00  0.00     0.198 A 
ATOM     78  C   UNL A   1      40.008  35.964  38.097  1.00  0.00     0.198 A 
ATOM     79  F   UNL A   1      40.898  35.626  35.945  1.00  0.00    -0.203 F 
ATOM     80  F   UNL A   1      37.840  33.869  40.105  1.00  0.00    -0.200 F 
ATOM     81  C   UNL A   1      39.231  35.526  39.158  1.00  0.00     0.200 A 
ATOM     82  F   UNL A   1      40.617  37.155  38.159  1.00  0.00    -0.200 F 
ATOM     83  F   UNL A   1      39.067  36.303  40.237  1.00  0.00    -0.200 F 
ENDBRANCH  49  73
BRANCH  61  84
ATOM     84  C   UNL A   1      43.976  28.814  35.123  1.00  0.00     0.064 A 
ATOM     85  C   UNL A   1      43.840  27.712  35.980  1.00  0.00     0.173 A 
ATOM     86  C   UNL A   1      45.268  29.319  34.904  1.00  0.00     0.173 A 
ATOM     87  F   UNL A   1      42.625  27.200  36.234  1.00  0.00    -0.203 F 
ATOM     88  C   UNL A   1      44.948  27.157  36.615  1.00  0.00     0.198 A 
ATOM     89  C   UNL A   1      46.377  28.739  35.513  1.00  0.00     0.198 A 
ATOM     90  F   UNL A   1      45.455  30.366  34.087  1.00  0.00    -0.203 F 
ATOM     91  F   UNL A   1      44.788  26.139  37.472  1.00  0.00    -0.200 F 
ATOM     92  C   UNL A   1      46.217  27.665  36.374  1.00  0.00     0.200 A 
ATOM     93  F   UNL A   1      47.603  29.222  35.264  1.00  0.00    -0.200 F 
ATOM     94  F   UNL A   1      47.283  27.124  36.978  1.00  0.00    -0.200 F 
ENDBRANCH  61  84
ENDBRANCH  35  36
ENDBRANCH  27  30
ENDBRANCH  25  26
ENDBRANCH  24  25
ENDBRANCH  23  24
ENDBRANCH   1  23
TORSDOF 16
ENDMDL
MODEL 3
REMARK VINA RESULT:     -12.2      2.190      8.606
REMARK SMILES C[C@@H](C(=O)NCCCCCCNC(=O)c1ccc(-c2c3nc(c(-c4c(F)c(F)c(F)c(F)c4F)c4ccc([nH]4)c(-c4c(F)c(F)c(F)c(F)c4F)c4nc(c(-c5c(F)c(F)c(F)c(F)c5F)c5ccc2[nH]5)C=C4)C=C3)cc1)c1ccc(OC2CCCC2)cc1F
REMARK SMILES IDX 8 1 7 2 6 3 5 4 3 5 4 6 2 8 1 9 78 10 79 11 89 12 80 13
REMARK SMILES IDX 88 14 90 15 81 16 82 17 83 18 84 19 87 20 85 21 86 22 9 23
REMARK SMILES IDX 10 24 11 25 12 26 13 27 14 29 15 30 16 31 77 32 17 33 76 34
REMARK SMILES IDX 18 35 19 36 20 37 70 38 21 39 75 40 69 41 71 42 22 43 74 44
REMARK SMILES IDX 68 45 67 46 23 48 55 49 35 50 54 51 36 52 39 53 53 54 72 55
REMARK SMILES IDX 37 56 38 57 52 59 73 60 40 61 24 62 25 63 33 64 26 65 27 66
REMARK SMILES IDX 31 67 34 68 28 69 29 70 32 71 30 72 56 73 57 74 65 75 58 76
REMARK SMILES IDX 59 77 63 78 66 79 60 80 61 81 64 82 62 83 41 84 42 85 50 86
REMARK SMILES IDX 43 87 44 88 48 89 51 90 45 91 46 92 49 93 47 94
REMARK H PARENT 5 7 12 28 71 47 39 58
REMARK Flexibility Score: inf
ROOT
ATOM      1  C   UNL A   1      32.171  29.401  26.835  1.00  0.00     0.002 C 
ENDROOT
BRANCH   1   2
ATOM      2  C   UNL A   1      31.436  28.056  26.938  1.00  0.00     0.021 C 
BRANCH   2   3
ATOM      3  C   UNL A   1      32.238  26.869  26.385  1.00  0.00     0.116 C 
BRANCH   3   4
ATOM      4  N   UNL A   1      31.658  25.631  26.861  1.00  0.00    -0.356 N 
ATOM      5  C   UNL A   1      30.627  24.987  26.228  1.00  0.00     0.227 C 
ATOM      6  O   UNL A   1      29.649  24.666  26.903  1.00  0.00    -0.274 OA
ATOM      7  H   UNL A   1      32.024  25.231  27.684  1.00  0.00     0.163 HD
BRANCH   5   8
ATOM      8  C   UNL A   1      30.745  24.764  24.714  1.00  0.00     0.108 C 
ATOM      9  C   UNL A   1      32.183  24.293  24.444  1.00  0.00     0.023 C 
BRANCH   8  10
ATOM     10  C   UNL A   1      30.391  25.979  23.859  1.00  0.00     0.000 A 
ATOM     11  C   UNL A   1      31.323  26.501  22.945  1.00  0.00     0.011 A 
ATOM     12  C   UNL A   1      29.152  26.621  23.925  1.00  0.00     0.130 A 
ATOM     13  C   UNL A   1      31.061  27.681  22.241  1.00  0.00     0.047 A 
ATOM     14  C   UNL A   1      28.908  27.822  23.266  1.00  0.00     0.086 A 
ATOM     15  F   UNL A   1      28.127  26.091  24.603  1.00  0.00    -0.207 F 
ATOM     16  C   UNL A   1      29.861  28.369  22.419  1.00  0.00     0.122 A 
BRANCH  16  17
ATOM     17  O   UNL A   1      29.759  29.524  21.702  1.00  0.00    -0.490 OA
BRANCH  17  18
ATOM     18  C   UNL A   1      28.823  30.544  22.030  1.00  0.00     0.173 C 
ATOM     19  C   UNL A   1      29.201  31.451  23.196  1.00  0.00     0.045 C 
ATOM     20  C   UNL A   1      28.395  31.443  20.873  1.00  0.00     0.045 C 
ATOM     21  C   UNL A   1      28.378  32.711  22.987  1.00  0.00     0.004 C 
ATOM     22  C   UNL A   1      28.021  32.779  21.504  1.00  0.00     0.004 C 
ENDBRANCH  17  18
ENDBRANCH  16  17
ENDBRANCH   8  10
ENDBRANCH   5   8
ENDBRANCH   3   4
ENDBRANCH   2   3
ENDBRANCH   1   2
BRANCH   1  23
ATOM     23  C   UNL A   1      31.522  30.405  25.880  1.00  0.00     0.002 C 
BRANCH  23  24
ATOM     24  C   UNL A   1      31.338  31.804  26.470  1.00  0.00     0.021 C 
BRANCH  24  25
ATOM     25  C   UNL A   1      32.595  32.378  27.110  1.00  0.00     0.116 C 
BRANCH  25  26
ATOM     26  N   UNL A   1      32.437  33.783  27.447  1.00  0.00    -0.352 N 
ATOM     27  C   UNL A   1      33.075  34.513  28.416  1.00  0.00     0.251 C 
ATOM     28  H   UNL A   1      31.781  34.279  26.906  1.00  0.00     0.163 HD
ATOM     29  O   UNL A   1      32.670  35.634  28.721  1.00  0.00    -0.269 OA
BRANCH  27  30
ATOM     30  C   UNL A   1      34.244  33.939  29.110  1.00  0.00     0.039 A 
ATOM     31  C   UNL A   1      34.037  33.022  30.143  1.00  0.00     0.014 A 
ATOM     32  C   UNL A   1      35.542  34.302  28.738  1.00  0.00     0.014 A 
ATOM     33  C   UNL A   1      35.134  32.427  30.766  1.00  0.00     0.010 A 
ATOM     34  C   UNL A   1      36.632  33.649  29.306  1.00  0.00     0.010 A 
ATOM     35  C   UNL A   1      36.439  32.711  30.330  1.00  0.00    -0.014 A 
BRANCH  35  36
ATOM     36  C   UNL A   1      37.615  32.040  30.941  1.00  0.00     0.031 A 
ATOM     37  C   UNL A   1      38.094  32.452  32.304  1.00  0.00     0.074 A 
ATOM     38  C   UNL A   1      38.284  31.103  30.242  1.00  0.00     0.049 A 
ATOM     39  N   UNL A   1      39.135  32.032  32.979  1.00  0.00    -0.248 NA
ATOM     40  C   UNL A   1      37.316  33.494  32.993  1.00  0.00     0.031 C 
ATOM     41  C   UNL A   1      37.943  30.649  28.894  1.00  0.00     0.029 A 
ATOM     42  N   UNL A   1      39.397  30.369  30.568  1.00  0.00    -0.354 N 
ATOM     43  C   UNL A   1      39.141  32.764  34.159  1.00  0.00     0.074 A 
ATOM     44  C   UNL A   1      38.038  33.696  34.084  1.00  0.00     0.031 C 
ATOM     45  C   UNL A   1      38.813  29.698  28.516  1.00  0.00     0.029 A 
ATOM     46  C   UNL A   1      39.797  29.506  29.576  1.00  0.00     0.049 A 
ATOM     47  H   UNL A   1      39.865  30.452  31.430  1.00  0.00     0.167 HD
ATOM     48  C   UNL A   1      39.976  32.651  35.219  1.00  0.00     0.037 A 
ATOM     49  C   UNL A   1      40.845  28.662  29.524  1.00  0.00     0.037 A 
ATOM     50  C   UNL A   1      41.062  31.708  35.295  1.00  0.00     0.049 A 
ATOM     51  C   UNL A   1      41.771  28.572  30.708  1.00  0.00     0.074 A 
ATOM     52  C   UNL A   1      41.931  31.476  36.346  1.00  0.00     0.029 A 
ATOM     53  N   UNL A   1      41.432  30.844  34.273  1.00  0.00    -0.354 N 
ATOM     54  N   UNL A   1      41.726  29.218  31.847  1.00  0.00    -0.248 NA
ATOM     55  C   UNL A   1      42.892  27.627  30.600  1.00  0.00     0.031 C 
ATOM     56  C   UNL A   1      42.862  30.515  35.942  1.00  0.00     0.029 A 
ATOM     57  C   UNL A   1      42.535  30.100  34.660  1.00  0.00     0.049 A 
ATOM     58  H   UNL A   1      40.978  30.772  33.403  1.00  0.00     0.167 HD
ATOM     59  C   UNL A   1      42.788  28.738  32.602  1.00  0.00     0.074 A 
ATOM     60  C   UNL A   1      43.451  27.733  31.797  1.00  0.00     0.031 C 
ATOM     61  C   UNL A   1      43.179  29.097  33.850  1.00  0.00     0.037 A 
BRANCH  48  62
ATOM     62  C   UNL A   1      39.751  33.572  36.385  1.00  0.00     0.064 A 
ATOM     63  C   UNL A   1      40.374  34.828  36.464  1.00  0.00     0.173 A 
ATOM     64  C   UNL A   1      38.873  33.211  37.418  1.00  0.00     0.173 A 
ATOM     65  F   UNL A   1      41.232  35.218  35.508  1.00  0.00    -0.203 F 
ATOM     66  C   UNL A   1      40.152  35.672  37.549  1.00  0.00     0.198 A 
ATOM     67  C   UNL A   1      38.625  34.074  38.484  1.00  0.00     0.198 A 
ATOM     68  F   UNL A   1      38.244  32.027  37.390  1.00  0.00    -0.203 F 
ATOM     69  F   UNL A   1      40.801  36.842  37.629  1.00  0.00    -0.200 F 
ATOM     70  C   UNL A   1      39.272  35.298  38.553  1.00  0.00     0.200 A 
ATOM     71  F   UNL A   1      37.762  33.718  39.445  1.00  0.00    -0.200 F 
ATOM     72  F   UNL A   1      39.052  36.116  39.591  1.00  0.00    -0.200 F 
ENDBRANCH  48  62
BRANCH  49  73
ATOM     73  C   UNL A   1      41.067  27.822  28.318  1.00  0.00     0.064 A 
ATOM     74  C   UNL A   1      40.479  26.555  28.202  1.00  0.00     0.173 A 
ATOM     75  C   UNL A   1      41.879  28.261  27.261  1.00  0.00     0.173 A 
ATOM     76  F   UNL A   1      39.710  26.081  29.194  1.00  0.00    -0.203 F 
ATOM     77  C   UNL A   1      40.713  25.750  27.090  1.00  0.00     0.198 A 
ATOM     78  C   UNL A   1      42.086  27.469  26.134  1.00  0.00     0.198 A 
ATOM     79  F   UNL A   1      42.460  29.468  27.318  1.00  0.00    -0.203 F 
ATOM     80  F   UNL A   1      40.181  24.521  27.031  1.00  0.00    -0.200 F 
ATOM     81  C   UNL A   1      41.513  26.210  26.054  1.00  0.00     0.200 A 
ATOM     82  F   UNL A   1      42.846  27.925  25.129  1.00  0.00    -0.200 F 
ATOM     83  F   UNL A   1      41.736  25.436  24.983  1.00  0.00    -0.200 F 
ENDBRANCH  49  73
BRANCH  61  84
ATOM     84  C   UNL A   1      44.356  28.371  34.439  1.00  0.00     0.064 A 
ATOM     85  C   UNL A   1      44.205  27.167  35.142  1.00  0.00     0.173 A 
ATOM     86  C   UNL A   1      45.657  28.870  34.263  1.00  0.00     0.173 A 
ATOM     87  F   UNL A   1      42.982  26.655  35.350  1.00  0.00    -0.203 F 
ATOM     88  C   UNL A   1      45.309  26.504  35.671  1.00  0.00     0.198 A 
ATOM     89  C   UNL A   1      46.761  28.186  34.763  1.00  0.00     0.198 A 
ATOM     90  F   UNL A   1      45.858  30.014  33.592  1.00  0.00    -0.203 F 
ATOM     91  F   UNL A   1      45.137  25.382  36.385  1.00  0.00    -0.200 F 
ATOM     92  C   UNL A   1      46.587  27.008  35.474  1.00  0.00     0.200 A 
ATOM     93  F   UNL A   1      47.994  28.667  34.557  1.00  0.00    -0.200 F 
ATOM     94  F   UNL A   1      47.649  26.364  35.976  1.00  0.00    -0.200 F 
ENDBRANCH  61  84
ENDBRANCH  35  36
ENDBRANCH  27  30
ENDBRANCH  25  26
ENDBRANCH  24  25
ENDBRANCH  23  24
ENDBRANCH   1  23
TORSDOF 16
ENDMDL
