MODEL 1
REMARK VINA RESULT:     -11.9      0.000      0.000
REMARK SMILES Cc1ccc(C)c(-c2csc(C(=O)NCCCCCCNC(=O)c3ccc(-c4c5nc(c(-c6c(F)c(F)c(F)c(F)c6F)c6ccc([nH]6)c(-c6c(F)c(F)c(F)c(F)c6F)c6nc(c(-c7c(F)c(F)c(F)c(F)c7F)c7ccc4[nH]7)C=C6)C=C5)cc3)n2)c1
REMARK SMILES IDX 18 1 17 2 16 3 15 4 14 5 12 6 13 7 11 9 8 10 9 11 87 12
REMARK SMILES IDX 10 13 7 14 1 15 2 16 3 17 88 18 4 19 5 20 6 21 19 22 20 23
REMARK SMILES IDX 21 24 22 25 23 27 24 28 25 29 86 30 26 31 85 32 27 33 28 34
REMARK SMILES IDX 29 35 79 36 30 37 84 38 78 39 80 40 31 41 83 42 77 43 76 44
REMARK SMILES IDX 32 46 64 47 44 48 63 49 45 50 48 51 62 52 81 53 46 54 47 55
REMARK SMILES IDX 61 57 82 58 49 59 33 60 34 61 42 62 35 63 36 64 40 65 43 66
REMARK SMILES IDX 37 67 38 68 41 69 39 70 65 71 66 72 74 73 67 74 68 75 72 76
REMARK SMILES IDX 75 77 69 78 70 79 73 80 71 81 50 82 51 83 59 84 52 85 53 86
REMARK SMILES IDX 57 87 60 88 54 89 55 90 58 91 56 92
REMARK H PARENT 14 8 21 26 80 45 48 56
REMARK Flexibility Score: inf
ROOT
ATOM      1  C   UNL A   1      40.889  21.097  27.610  1.00  0.00     0.002 C 
ENDROOT
BRANCH   1   2
ATOM      2  C   UNL A   1      40.004  21.654  26.485  1.00  0.00     0.002 C 
BRANCH   2   3
ATOM      3  C   UNL A   1      39.595  23.124  26.573  1.00  0.00     0.021 C 
BRANCH   3   4
ATOM      4  C   UNL A   1      38.163  23.424  26.135  1.00  0.00     0.116 C 
BRANCH   4   5
ATOM      5  N   UNL A   1      37.332  22.231  26.100  1.00  0.00    -0.350 N 
ATOM      6  C   UNL A   1      36.043  22.032  25.636  1.00  0.00     0.280 C 
ATOM      7  O   UNL A   1      35.627  20.872  25.714  1.00  0.00    -0.267 OA
ATOM      8  H   UNL A   1      37.760  21.426  26.470  1.00  0.00     0.163 HD
BRANCH   6   9
ATOM      9  C   UNL A   1      35.250  23.142  25.102  1.00  0.00     0.182 A 
ATOM     10  C   UNL A   1      33.909  24.907  25.039  1.00  0.00     0.082 A 
ATOM     11  C   UNL A   1      34.044  24.704  23.682  1.00  0.00     0.096 A 
ATOM     12  N   UNL A   1      34.641  24.050  25.833  1.00  0.00    -0.231 NA
ATOM     13  S   UNL A   1      35.054  23.342  23.403  1.00  0.00    -0.117 S 
BRANCH  10  14
ATOM     14  C   UNL A   1      33.099  25.944  25.658  1.00  0.00     0.004 A 
ATOM     15  C   UNL A   1      33.791  29.382  27.179  1.00  0.00     0.044 C 
ATOM     16  C   UNL A   1      33.077  28.141  26.732  1.00  0.00    -0.050 A 
ATOM     17  C   UNL A   1      31.710  27.993  26.974  1.00  0.00     0.004 A 
ATOM     18  C   UNL A   1      33.761  27.116  26.070  1.00  0.00     0.014 A 
ATOM     19  C   UNL A   1      31.046  26.831  26.581  1.00  0.00     0.004 A 
ATOM     20  C   UNL A   1      31.731  25.784  25.940  1.00  0.00    -0.042 A 
ATOM     21  C   UNL A   1      30.948  24.548  25.595  1.00  0.00     0.045 C 
ENDBRANCH  10  14
ENDBRANCH   6   9
ENDBRANCH   4   5
ENDBRANCH   3   4
ENDBRANCH   2   3
ENDBRANCH   1   2
BRANCH   1  22
ATOM     22  C   UNL A   1      41.809  19.894  27.350  1.00  0.00     0.021 C 
BRANCH  22  23
ATOM     23  C   UNL A   1      42.175  19.543  25.908  1.00  0.00     0.116 C 
BRANCH  23  24
ATOM     24  N   UNL A   1      43.592  19.761  25.571  1.00  0.00    -0.352 N 
ATOM     25  C   UNL A   1      44.363  20.902  25.341  1.00  0.00     0.251 C 
ATOM     26  H   UNL A   1      44.104  18.924  25.492  1.00  0.00     0.163 HD
ATOM     27  O   UNL A   1      45.429  20.805  24.768  1.00  0.00    -0.269 OA
BRANCH  25  28
ATOM     28  C   UNL A   1      43.906  22.236  25.802  1.00  0.00     0.039 A 
ATOM     29  C   UNL A   1      43.188  23.156  25.032  1.00  0.00     0.014 A 
ATOM     30  C   UNL A   1      44.279  22.629  27.057  1.00  0.00     0.014 A 
ATOM     31  C   UNL A   1      42.981  24.445  25.555  1.00  0.00     0.010 A 
ATOM     32  C   UNL A   1      43.586  23.603  27.682  1.00  0.00     0.010 A 
ATOM     33  C   UNL A   1      43.273  24.675  26.900  1.00  0.00    -0.014 A 
BRANCH  33  34
ATOM     34  C   UNL A   1      43.174  25.936  27.612  1.00  0.00     0.031 A 
ATOM     35  C   UNL A   1      44.165  26.928  27.173  1.00  0.00     0.074 A 
ATOM     36  C   UNL A   1      42.075  26.314  28.309  1.00  0.00     0.049 A 
ATOM     37  N   UNL A   1      45.224  27.308  27.800  1.00  0.00    -0.248 NA
ATOM     38  C   UNL A   1      44.066  27.422  25.790  1.00  0.00     0.031 C 
ATOM     39  C   UNL A   1      40.798  25.597  28.463  1.00  0.00     0.029 A 
ATOM     40  N   UNL A   1      41.833  27.493  28.956  1.00  0.00    -0.354 N 
ATOM     41  C   UNL A   1      45.803  28.263  26.974  1.00  0.00     0.074 A 
ATOM     42  C   UNL A   1      45.222  28.076  25.674  1.00  0.00     0.031 C 
ATOM     43  C   UNL A   1      39.874  26.421  29.010  1.00  0.00     0.029 A 
ATOM     44  C   UNL A   1      40.517  27.673  29.369  1.00  0.00     0.049 A 
ATOM     45  H   UNL A   1      42.537  28.163  29.118  1.00  0.00     0.167 HD
ATOM     46  C   UNL A   1      46.441  29.339  27.507  1.00  0.00     0.037 A 
ATOM     47  C   UNL A   1      39.994  28.785  29.944  1.00  0.00     0.037 A 
ATOM     48  C   UNL A   1      46.666  29.144  28.921  1.00  0.00     0.049 A 
ATOM     49  C   UNL A   1      41.129  29.576  30.481  1.00  0.00     0.074 A 
ATOM     50  C   UNL A   1      47.369  28.245  29.696  1.00  0.00     0.029 A 
ATOM     51  N   UNL A   1      45.764  29.758  29.756  1.00  0.00    -0.354 N 
ATOM     52  N   UNL A   1      41.875  29.197  31.481  1.00  0.00    -0.248 NA
ATOM     53  C   UNL A   1      41.681  30.651  29.669  1.00  0.00     0.031 C 
ATOM     54  C   UNL A   1      46.620  28.109  30.905  1.00  0.00     0.029 A 
ATOM     55  C   UNL A   1      45.511  28.953  30.835  1.00  0.00     0.049 A 
ATOM     56  H   UNL A   1      45.361  30.643  29.602  1.00  0.00     0.167 HD
ATOM     57  C   UNL A   1      43.140  29.662  31.168  1.00  0.00     0.074 A 
ATOM     58  C   UNL A   1      42.926  30.684  30.152  1.00  0.00     0.031 C 
ATOM     59  C   UNL A   1      44.247  28.955  31.541  1.00  0.00     0.037 A 
BRANCH  46  60
ATOM     60  C   UNL A   1      46.454  30.724  26.892  1.00  0.00     0.064 A 
ATOM     61  C   UNL A   1      47.683  31.414  26.845  1.00  0.00     0.173 A 
ATOM     62  C   UNL A   1      45.312  31.514  26.633  1.00  0.00     0.173 A 
ATOM     63  F   UNL A   1      48.837  30.770  27.079  1.00  0.00    -0.203 F 
ATOM     64  C   UNL A   1      47.750  32.797  26.659  1.00  0.00     0.198 A 
ATOM     65  C   UNL A   1      45.388  32.884  26.388  1.00  0.00     0.198 A 
ATOM     66  F   UNL A   1      44.065  31.039  26.713  1.00  0.00    -0.203 F 
ATOM     67  F   UNL A   1      48.929  33.424  26.766  1.00  0.00    -0.200 F 
ATOM     68  C   UNL A   1      46.602  33.533  26.439  1.00  0.00     0.200 A 
ATOM     69  F   UNL A   1      44.260  33.580  26.191  1.00  0.00    -0.200 F 
ATOM     70  F   UNL A   1      46.655  34.865  26.328  1.00  0.00    -0.200 F 
ENDBRANCH  46  60
BRANCH  47  71
ATOM     71  C   UNL A   1      38.611  29.315  29.915  1.00  0.00     0.064 A 
ATOM     72  C   UNL A   1      37.875  29.510  31.098  1.00  0.00     0.173 A 
ATOM     73  C   UNL A   1      38.079  29.896  28.749  1.00  0.00     0.173 A 
ATOM     74  F   UNL A   1      38.328  29.023  32.262  1.00  0.00    -0.203 F 
ATOM     75  C   UNL A   1      36.701  30.272  31.119  1.00  0.00     0.198 A 
ATOM     76  C   UNL A   1      36.900  30.642  28.770  1.00  0.00     0.198 A 
ATOM     77  F   UNL A   1      38.742  29.834  27.586  1.00  0.00    -0.203 F 
ATOM     78  F   UNL A   1      36.068  30.497  32.280  1.00  0.00    -0.200 F 
ATOM     79  C   UNL A   1      36.221  30.847  29.956  1.00  0.00     0.200 A 
ATOM     80  F   UNL A   1      36.459  31.215  27.644  1.00  0.00    -0.200 F 
ATOM     81  F   UNL A   1      35.135  31.632  29.982  1.00  0.00    -0.200 F 
ENDBRANCH  47  71
BRANCH  59  82
ATOM     82  C   UNL A   1      44.071  27.947  32.640  1.00  0.00     0.064 A 
ATOM     83  C   UNL A   1      43.925  26.564  32.433  1.00  0.00     0.173 A 
ATOM     84  C   UNL A   1      44.146  28.395  33.966  1.00  0.00     0.173 A 
ATOM     85  F   UNL A   1      43.933  26.048  31.198  1.00  0.00    -0.203 F 
ATOM     86  C   UNL A   1      43.811  25.680  33.504  1.00  0.00     0.198 A 
ATOM     87  C   UNL A   1      44.072  27.506  35.034  1.00  0.00     0.198 A 
ATOM     88  F   UNL A   1      44.333  29.698  34.224  1.00  0.00    -0.203 F 
ATOM     89  F   UNL A   1      43.650  24.368  33.278  1.00  0.00    -0.200 F 
ATOM     90  C   UNL A   1      43.892  26.151  34.803  1.00  0.00     0.200 A 
ATOM     91  F   UNL A   1      44.197  27.961  36.288  1.00  0.00    -0.200 F 
ATOM     92  F   UNL A   1      43.820  25.297  35.834  1.00  0.00    -0.200 F 
ENDBRANCH  59  82
ENDBRANCH  33  34
ENDBRANCH  25  28
ENDBRANCH  23  24
ENDBRANCH  22  23
ENDBRANCH   1  22
TORSDOF 14
ENDMDL
MODEL 2
REMARK VINA RESULT:     -11.6      2.241      2.965
REMARK SMILES Cc1ccc(C)c(-c2csc(C(=O)NCCCCCCNC(=O)c3ccc(-c4c5nc(c(-c6c(F)c(F)c(F)c(F)c6F)c6ccc([nH]6)c(-c6c(F)c(F)c(F)c(F)c6F)c6nc(c(-c7c(F)c(F)c(F)c(F)c7F)c7ccc4[nH]7)C=C6)C=C5)cc3)n2)c1
REMARK SMILES IDX 18 1 17 2 16 3 15 4 14 5 12 6 13 7 11 9 8 10 9 11 87 12
REMARK SMILES IDX 10 13 7 14 1 15 2 16 3 17 88 18 4 19 5 20 6 21 19 22 20 23
REMARK SMILES IDX 21 24 22 25 23 27 24 28 25 29 86 30 26 31 85 32 27 33 28 34
REMARK SMILES IDX 29 35 79 36 30 37 84 38 78 39 80 40 31 41 83 42 77 43 76 44
REMARK SMILES IDX 32 46 64 47 44 48 63 49 45 50 48 51 62 52 81 53 46 54 47 55
REMARK SMILES IDX 61 57 82 58 49 59 33 60 34 61 42 62 35 63 36 64 40 65 43 66
REMARK SMILES IDX 37 67 38 68 41 69 39 70 65 71 66 72 74 73 67 74 68 75 72 76
REMARK SMILES IDX 75 77 69 78 70 79 73 80 71 81 50 82 51 83 59 84 52 85 53 86
REMARK SMILES IDX 57 87 60 88 54 89 55 90 58 91 56 92
REMARK H PARENT 14 8 21 26 80 45 48 56
REMARK Flexibility Score: inf
ROOT
ATOM      1  C   UNL A   1      38.323  23.243  26.257  1.00  0.00     0.002 C 
ENDROOT
BRANCH   1   2
ATOM      2  C   UNL A   1      36.949  23.276  25.573  1.00  0.00     0.002 C 
BRANCH   2   3
ATOM      3  C   UNL A   1      35.913  22.248  26.023  1.00  0.00     0.021 C 
BRANCH   3   4
ATOM      4  C   UNL A   1      35.573  21.176  24.989  1.00  0.00     0.116 C 
BRANCH   4   5
ATOM      5  N   UNL A   1      34.166  20.809  25.012  1.00  0.00    -0.350 N 
ATOM      6  C   UNL A   1      33.024  21.564  24.803  1.00  0.00     0.280 C 
ATOM      7  O   UNL A   1      31.961  20.938  24.855  1.00  0.00    -0.267 OA
ATOM      8  H   UNL A   1      33.995  19.860  25.211  1.00  0.00     0.163 HD
BRANCH   6   9
ATOM      9  C   UNL A   1      33.104  23.004  24.546  1.00  0.00     0.182 A 
ATOM     10  C   UNL A   1      32.970  25.193  24.876  1.00  0.00     0.082 A 
ATOM     11  C   UNL A   1      33.310  25.208  23.541  1.00  0.00     0.096 A 
ATOM     12  N   UNL A   1      32.909  23.940  25.449  1.00  0.00    -0.231 NA
ATOM     13  S   UNL A   1      33.476  23.595  22.971  1.00  0.00    -0.117 S 
BRANCH  10  14
ATOM     14  C   UNL A   1      32.709  26.368  25.691  1.00  0.00     0.004 A 
ATOM     15  C   UNL A   1      34.857  29.106  27.271  1.00  0.00     0.044 C 
ATOM     16  C   UNL A   1      33.672  28.274  26.884  1.00  0.00    -0.050 A 
ATOM     17  C   UNL A   1      32.400  28.603  27.356  1.00  0.00     0.004 A 
ATOM     18  C   UNL A   1      33.816  27.160  26.050  1.00  0.00     0.014 A 
ATOM     19  C   UNL A   1      31.297  27.818  27.017  1.00  0.00     0.004 A 
ATOM     20  C   UNL A   1      31.437  26.682  26.202  1.00  0.00    -0.042 A 
ATOM     21  C   UNL A   1      30.204  25.866  25.927  1.00  0.00     0.045 C 
ENDBRANCH  10  14
ENDBRANCH   6   9
ENDBRANCH   4   5
ENDBRANCH   3   4
ENDBRANCH   2   3
ENDBRANCH   1   2
BRANCH   1  22
ATOM     22  C   UNL A   1      39.229  22.008  26.120  1.00  0.00     0.021 C 
BRANCH  22  23
ATOM     23  C   UNL A   1      40.396  21.839  27.092  1.00  0.00     0.116 C 
BRANCH  23  24
ATOM     24  N   UNL A   1      41.718  22.121  26.508  1.00  0.00    -0.352 N 
ATOM     25  C   UNL A   1      42.373  23.295  26.130  1.00  0.00     0.251 C 
ATOM     26  H   UNL A   1      42.253  21.311  26.351  1.00  0.00     0.163 HD
ATOM     27  O   UNL A   1      43.327  23.239  25.380  1.00  0.00    -0.269 OA
BRANCH  25  28
ATOM     28  C   UNL A   1      41.932  24.614  26.646  1.00  0.00     0.039 A 
ATOM     29  C   UNL A   1      41.035  25.474  26.006  1.00  0.00     0.014 A 
ATOM     30  C   UNL A   1      42.503  25.058  27.806  1.00  0.00     0.014 A 
ATOM     31  C   UNL A   1      40.853  26.763  26.539  1.00  0.00     0.010 A 
ATOM     32  C   UNL A   1      41.881  26.009  28.533  1.00  0.00     0.010 A 
ATOM     33  C   UNL A   1      41.370  27.043  27.804  1.00  0.00    -0.014 A 
BRANCH  33  34
ATOM     34  C   UNL A   1      41.330  28.315  28.503  1.00  0.00     0.031 A 
ATOM     35  C   UNL A   1      42.421  29.220  28.118  1.00  0.00     0.074 A 
ATOM     36  C   UNL A   1      40.226  28.785  29.133  1.00  0.00     0.049 A 
ATOM     37  N   UNL A   1      43.468  29.522  28.805  1.00  0.00    -0.248 NA
ATOM     38  C   UNL A   1      42.442  29.708  26.730  1.00  0.00     0.031 C 
ATOM     39  C   UNL A   1      38.890  28.172  29.215  1.00  0.00     0.029 A 
ATOM     40  N   UNL A   1      40.041  29.985  29.759  1.00  0.00    -0.354 N 
ATOM     41  C   UNL A   1      44.168  30.421  28.010  1.00  0.00     0.074 A 
ATOM     42  C   UNL A   1      43.650  30.268  26.679  1.00  0.00     0.031 C 
ATOM     43  C   UNL A   1      38.004  29.071  29.702  1.00  0.00     0.029 A 
ATOM     44  C   UNL A   1      38.721  30.272  30.093  1.00  0.00     0.049 A 
ATOM     45  H   UNL A   1      40.785  30.599  29.958  1.00  0.00     0.167 HD
ATOM     46  C   UNL A   1      44.857  31.447  28.574  1.00  0.00     0.037 A 
ATOM     47  C   UNL A   1      38.256  31.427  30.631  1.00  0.00     0.037 A 
ATOM     48  C   UNL A   1      44.983  31.249  30.000  1.00  0.00     0.049 A 
ATOM     49  C   UNL A   1      39.417  32.131  31.229  1.00  0.00     0.074 A 
ATOM     50  C   UNL A   1      45.566  30.305  30.819  1.00  0.00     0.029 A 
ATOM     51  N   UNL A   1      44.086  31.940  30.777  1.00  0.00    -0.354 N 
ATOM     52  N   UNL A   1      40.071  31.704  32.273  1.00  0.00    -0.248 NA
ATOM     53  C   UNL A   1      40.099  33.152  30.446  1.00  0.00     0.031 C 
ATOM     54  C   UNL A   1      44.740  30.240  31.982  1.00  0.00     0.029 A 
ATOM     55  C   UNL A   1      43.708  31.168  31.843  1.00  0.00     0.049 A 
ATOM     56  H   UNL A   1      43.764  32.853  30.595  1.00  0.00     0.167 HD
ATOM     57  C   UNL A   1      41.385  32.065  32.033  1.00  0.00     0.074 A 
ATOM     58  C   UNL A   1      41.312  33.091  31.001  1.00  0.00     0.031 C 
ATOM     59  C   UNL A   1      42.409  31.277  32.474  1.00  0.00     0.037 A 
BRANCH  46  60
ATOM     60  C   UNL A   1      45.016  32.822  27.954  1.00  0.00     0.064 A 
ATOM     61  C   UNL A   1      46.318  33.251  27.625  1.00  0.00     0.173 A 
ATOM     62  C   UNL A   1      44.030  33.834  27.946  1.00  0.00     0.173 A 
ATOM     63  F   UNL A   1      47.339  32.381  27.603  1.00  0.00    -0.203 F 
ATOM     64  C   UNL A   1      46.623  34.598  27.412  1.00  0.00     0.198 A 
ATOM     65  C   UNL A   1      44.328  35.168  27.674  1.00  0.00     0.198 A 
ATOM     66  F   UNL A   1      42.762  33.617  28.309  1.00  0.00    -0.203 F 
ATOM     67  F   UNL A   1      47.898  34.971  27.244  1.00  0.00    -0.200 F 
ATOM     68  C   UNL A   1      45.628  35.557  27.444  1.00  0.00     0.200 A 
ATOM     69  F   UNL A   1      43.349  36.083  27.725  1.00  0.00    -0.200 F 
ATOM     70  F   UNL A   1      45.926  36.854  27.307  1.00  0.00    -0.200 F 
ENDBRANCH  46  60
BRANCH  47  71
ATOM     71  C   UNL A   1      36.923  32.064  30.517  1.00  0.00     0.064 A 
ATOM     72  C   UNL A   1      36.005  32.038  31.584  1.00  0.00     0.173 A 
ATOM     73  C   UNL A   1      36.625  32.945  29.462  1.00  0.00     0.173 A 
ATOM     74  F   UNL A   1      36.230  31.256  32.649  1.00  0.00    -0.203 F 
ATOM     75  C   UNL A   1      34.880  32.870  31.607  1.00  0.00     0.198 A 
ATOM     76  C   UNL A   1      35.494  33.761  29.481  1.00  0.00     0.198 A 
ATOM     77  F   UNL A   1      37.473  33.101  28.436  1.00  0.00    -0.203 F 
ATOM     78  F   UNL A   1      34.069  32.870  32.675  1.00  0.00    -0.200 F 
ATOM     79  C   UNL A   1      34.631  33.740  30.561  1.00  0.00     0.200 A 
ATOM     80  F   UNL A   1      35.278  34.617  28.475  1.00  0.00    -0.200 F 
ATOM     81  F   UNL A   1      33.593  34.586  30.609  1.00  0.00    -0.200 F 
ENDBRANCH  47  71
BRANCH  59  82
ATOM     82  C   UNL A   1      42.089  30.296  33.566  1.00  0.00     0.064 A 
ATOM     83  C   UNL A   1      41.693  28.965  33.346  1.00  0.00     0.173 A 
ATOM     84  C   UNL A   1      42.285  30.698  34.893  1.00  0.00     0.173 A 
ATOM     85  F   UNL A   1      41.570  28.479  32.105  1.00  0.00    -0.203 F 
ATOM     86  C   UNL A   1      41.455  28.096  34.409  1.00  0.00     0.198 A 
ATOM     87  C   UNL A   1      42.087  29.817  35.953  1.00  0.00     0.198 A 
ATOM     88  F   UNL A   1      42.710  31.943  35.162  1.00  0.00    -0.203 F 
ATOM     89  F   UNL A   1      41.055  26.838  34.172  1.00  0.00    -0.200 F 
ATOM     90  C   UNL A   1      41.660  28.521  35.711  1.00  0.00     0.200 A 
ATOM     91  F   UNL A   1      42.330  30.220  37.207  1.00  0.00    -0.200 F 
ATOM     92  F   UNL A   1      41.469  27.675  36.732  1.00  0.00    -0.200 F 
ENDBRANCH  59  82
ENDBRANCH  33  34
ENDBRANCH  25  28
ENDBRANCH  23  24
ENDBRANCH  22  23
ENDBRANCH   1  22
TORSDOF 14
ENDMDL
MODEL 3
REMARK VINA RESULT:     -11.5      2.839      3.923
REMARK SMILES Cc1ccc(C)c(-c2csc(C(=O)NCCCCCCNC(=O)c3ccc(-c4c5nc(c(-c6c(F)c(F)c(F)c(F)c6F)c6ccc([nH]6)c(-c6c(F)c(F)c(F)c(F)c6F)c6nc(c(-c7c(F)c(F)c(F)c(F)c7F)c7ccc4[nH]7)C=C6)C=C5)cc3)n2)c1
REMARK SMILES IDX 18 1 17 2 16 3 15 4 14 5 12 6 13 7 11 9 8 10 9 11 87 12
REMARK SMILES IDX 10 13 7 14 1 15 2 16 3 17 88 18 4 19 5 20 6 21 19 22 20 23
REMARK SMILES IDX 21 24 22 25 23 27 24 28 25 29 86 30 26 31 85 32 27 33 28 34
REMARK SMILES IDX 29 35 79 36 30 37 84 38 78 39 80 40 31 41 83 42 77 43 76 44
REMARK SMILES IDX 32 46 64 47 44 48 63 49 45 50 48 51 62 52 81 53 46 54 47 55
REMARK SMILES IDX 61 57 82 58 49 59 33 60 34 61 42 62 35 63 36 64 40 65 43 66
REMARK SMILES IDX 37 67 38 68 41 69 39 70 65 71 66 72 74 73 67 74 68 75 72 76
REMARK SMILES IDX 75 77 69 78 70 79 73 80 71 81 50 82 51 83 59 84 52 85 53 86
REMARK SMILES IDX 57 87 60 88 54 89 55 90 58 91 56 92
REMARK H PARENT 14 8 21 26 80 45 48 56
REMARK Flexibility Score: inf
ROOT
ATOM      1  C   UNL A   1      36.256  23.622  24.191  1.00  0.00     0.002 C 
ENDROOT
BRANCH   1   2
ATOM      2  C   UNL A   1      35.025  23.218  23.367  1.00  0.00     0.002 C 
BRANCH   2   3
ATOM      3  C   UNL A   1      33.657  23.352  24.033  1.00  0.00     0.021 C 
BRANCH   3   4
ATOM      4  C   UNL A   1      32.471  23.403  23.071  1.00  0.00     0.116 C 
BRANCH   4   5
ATOM      5  N   UNL A   1      32.847  23.889  21.753  1.00  0.00    -0.350 N 
ATOM      6  C   UNL A   1      32.815  25.162  21.209  1.00  0.00     0.280 C 
ATOM      7  O   UNL A   1      33.247  25.253  20.055  1.00  0.00    -0.267 OA
ATOM      8  H   UNL A   1      33.183  23.194  21.143  1.00  0.00     0.163 HD
BRANCH   6   9
ATOM      9  C   UNL A   1      32.294  26.299  21.971  1.00  0.00     0.182 A 
ATOM     10  C   UNL A   1      30.920  27.901  22.651  1.00  0.00     0.082 A 
ATOM     11  C   UNL A   1      32.009  28.220  23.433  1.00  0.00     0.096 A 
ATOM     12  N   UNL A   1      31.073  26.778  21.866  1.00  0.00    -0.231 NA
ATOM     13  S   UNL A   1      33.291  27.123  23.108  1.00  0.00    -0.117 S 
BRANCH  10  14
ATOM     14  C   UNL A   1      29.661  28.629  22.623  1.00  0.00     0.004 A 
ATOM     15  C   UNL A   1      28.570  32.122  21.519  1.00  0.00     0.044 C 
ATOM     16  C   UNL A   1      28.537  30.731  22.079  1.00  0.00    -0.050 A 
ATOM     17  C   UNL A   1      27.349  30.215  22.601  1.00  0.00     0.004 A 
ATOM     18  C   UNL A   1      29.684  29.931  22.090  1.00  0.00     0.014 A 
ATOM     19  C   UNL A   1      27.318  28.929  23.144  1.00  0.00     0.004 A 
ATOM     20  C   UNL A   1      28.472  28.129  23.183  1.00  0.00    -0.042 A 
ATOM     21  C   UNL A   1      28.360  26.776  23.830  1.00  0.00     0.045 C 
ENDBRANCH  10  14
ENDBRANCH   6   9
ENDBRANCH   4   5
ENDBRANCH   3   4
ENDBRANCH   2   3
ENDBRANCH   1   2
BRANCH   1  22
ATOM     22  C   UNL A   1      36.952  22.598  25.101  1.00  0.00     0.021 C 
BRANCH  22  23
ATOM     23  C   UNL A   1      38.080  23.072  26.018  1.00  0.00     0.116 C 
BRANCH  23  24
ATOM     24  N   UNL A   1      39.324  22.292  25.904  1.00  0.00    -0.352 N 
ATOM     25  C   UNL A   1      40.673  22.598  26.088  1.00  0.00     0.251 C 
ATOM     26  H   UNL A   1      39.171  21.355  25.643  1.00  0.00     0.163 HD
ATOM     27  O   UNL A   1      41.527  21.870  25.624  1.00  0.00    -0.269 OA
BRANCH  25  28
ATOM     28  C   UNL A   1      41.084  23.797  26.860  1.00  0.00     0.039 A 
ATOM     29  C   UNL A   1      41.981  23.799  27.932  1.00  0.00     0.014 A 
ATOM     30  C   UNL A   1      40.485  24.984  26.546  1.00  0.00     0.014 A 
ATOM     31  C   UNL A   1      42.134  24.987  28.671  1.00  0.00     0.010 A 
ATOM     32  C   UNL A   1      41.078  26.143  26.896  1.00  0.00     0.010 A 
ATOM     33  C   UNL A   1      41.588  26.165  28.161  1.00  0.00    -0.014 A 
BRANCH  33  34
ATOM     34  C   UNL A   1      41.596  27.475  28.788  1.00  0.00     0.031 A 
ATOM     35  C   UNL A   1      42.719  28.317  28.350  1.00  0.00     0.074 A 
ATOM     36  C   UNL A   1      40.512  28.020  29.391  1.00  0.00     0.049 A 
ATOM     37  N   UNL A   1      43.778  28.619  29.017  1.00  0.00    -0.248 NA
ATOM     38  C   UNL A   1      42.753  28.725  26.937  1.00  0.00     0.031 C 
ATOM     39  C   UNL A   1      39.155  27.462  29.509  1.00  0.00     0.029 A 
ATOM     40  N   UNL A   1      40.374  29.259  29.948  1.00  0.00    -0.354 N 
ATOM     41  C   UNL A   1      44.507  29.445  28.172  1.00  0.00     0.074 A 
ATOM     42  C   UNL A   1      43.980  29.236  26.852  1.00  0.00     0.031 C 
ATOM     43  C   UNL A   1      38.304  28.419  29.946  1.00  0.00     0.029 A 
ATOM     44  C   UNL A   1      39.066  29.613  30.267  1.00  0.00     0.049 A 
ATOM     45  H   UNL A   1      41.140  29.856  30.111  1.00  0.00     0.167 HD
ATOM     46  C   UNL A   1      45.236  30.476  28.676  1.00  0.00     0.037 A 
ATOM     47  C   UNL A   1      38.645  30.812  30.739  1.00  0.00     0.037 A 
ATOM     48  C   UNL A   1      45.359  30.355  30.111  1.00  0.00     0.049 A 
ATOM     49  C   UNL A   1      39.832  31.506  31.295  1.00  0.00     0.074 A 
ATOM     50  C   UNL A   1      45.910  29.437  30.982  1.00  0.00     0.029 A 
ATOM     51  N   UNL A   1      44.490  31.120  30.849  1.00  0.00    -0.354 N 
ATOM     52  N   UNL A   1      40.474  31.115  32.361  1.00  0.00    -0.248 NA
ATOM     53  C   UNL A   1      40.548  32.456  30.455  1.00  0.00     0.031 C 
ATOM     54  C   UNL A   1      45.086  29.468  32.147  1.00  0.00     0.029 A 
ATOM     55  C   UNL A   1      44.087  30.424  31.957  1.00  0.00     0.049 A 
ATOM     56  H   UNL A   1      44.201  32.032  30.616  1.00  0.00     0.167 HD
ATOM     57  C   UNL A   1      41.800  31.414  32.099  1.00  0.00     0.074 A 
ATOM     58  C   UNL A   1      41.760  32.382  31.011  1.00  0.00     0.031 C 
ATOM     59  C   UNL A   1      42.796  30.615  32.582  1.00  0.00     0.037 A 
BRANCH  46  60
ATOM     60  C   UNL A   1      45.442  31.806  27.980  1.00  0.00     0.064 A 
ATOM     61  C   UNL A   1      44.298  32.549  27.623  1.00  0.00     0.173 A 
ATOM     62  C   UNL A   1      46.648  32.240  27.386  1.00  0.00     0.173 A 
ATOM     63  F   UNL A   1      43.093  32.229  28.120  1.00  0.00    -0.203 F 
ATOM     64  C   UNL A   1      44.344  33.570  26.671  1.00  0.00     0.198 A 
ATOM     65  C   UNL A   1      46.700  33.299  26.481  1.00  0.00     0.198 A 
ATOM     66  F   UNL A   1      47.812  31.603  27.554  1.00  0.00    -0.203 F 
ATOM     67  F   UNL A   1      43.207  34.148  26.261  1.00  0.00    -0.200 F 
ATOM     68  C   UNL A   1      45.545  33.939  26.094  1.00  0.00     0.200 A 
ATOM     69  F   UNL A   1      47.874  33.630  25.924  1.00  0.00    -0.200 F 
ATOM     70  F   UNL A   1      45.583  34.870  25.133  1.00  0.00    -0.200 F 
ENDBRANCH  46  60
BRANCH  47  71
ATOM     71  C   UNL A   1      37.335  31.491  30.592  1.00  0.00     0.064 A 
ATOM     72  C   UNL A   1      36.416  31.549  31.656  1.00  0.00     0.173 A 
ATOM     73  C   UNL A   1      37.070  32.329  29.494  1.00  0.00     0.173 A 
ATOM     74  F   UNL A   1      36.612  30.812  32.758  1.00  0.00    -0.203 F 
ATOM     75  C   UNL A   1      35.321  32.421  31.636  1.00  0.00     0.198 A 
ATOM     76  C   UNL A   1      35.969  33.186  29.471  1.00  0.00     0.198 A 
ATOM     77  F   UNL A   1      37.924  32.406  28.464  1.00  0.00    -0.203 F 
ATOM     78  F   UNL A   1      34.509  32.501  32.700  1.00  0.00    -0.200 F 
ATOM     79  C   UNL A   1      35.105  33.247  30.548  1.00  0.00     0.200 A 
ATOM     80  F   UNL A   1      35.784  33.999  28.424  1.00  0.00    -0.200 F 
ATOM     81  F   UNL A   1      34.098  34.131  30.553  1.00  0.00    -0.200 F 
ENDBRANCH  47  71
BRANCH  59  82
ATOM     82  C   UNL A   1      42.444  29.710  33.729  1.00  0.00     0.064 A 
ATOM     83  C   UNL A   1      42.005  28.382  33.585  1.00  0.00     0.173 A 
ATOM     84  C   UNL A   1      42.652  30.182  35.031  1.00  0.00     0.173 A 
ATOM     85  F   UNL A   1      41.868  27.829  32.375  1.00  0.00    -0.203 F 
ATOM     86  C   UNL A   1      41.740  27.584  34.696  1.00  0.00     0.198 A 
ATOM     87  C   UNL A   1      42.425  29.371  36.139  1.00  0.00     0.198 A 
ATOM     88  F   UNL A   1      43.116  31.426  35.228  1.00  0.00    -0.203 F 
ATOM     89  F   UNL A   1      41.300  26.328  34.531  1.00  0.00    -0.200 F 
ATOM     90  C   UNL A   1      41.957  28.077  35.972  1.00  0.00     0.200 A 
ATOM     91  F   UNL A   1      42.679  29.838  37.369  1.00  0.00    -0.200 F 
ATOM     92  F   UNL A   1      41.738  27.298  37.040  1.00  0.00    -0.200 F 
ENDBRANCH  59  82
ENDBRANCH  33  34
ENDBRANCH  25  28
ENDBRANCH  23  24
ENDBRANCH  22  23
ENDBRANCH   1  22
TORSDOF 14
ENDMDL
