MODEL 1
REMARK VINA RESULT:     -10.9      0.000      0.000
REMARK SMILES CCC(CC)(C(=O)NCCCCCCNC(=O)c1ccc(-c2c3nc(c(-c4c(F)c(F)c(F)c(F)c4F)c4ccc([nH]4)c(-c4c(F)c(F)c(F)c(F)c4F)c4nc(c(-c5c(F)c(F)c(F)c(F)c5F)c5ccc2[nH]5)C=C4)C=C3)cc1)n1nnnc1C[C@@H](C)C(C)(C)C
REMARK SMILES IDX 10 1 9 2 8 3 6 4 7 5 3 7 2 8 1 9 4 10 5 11 81 12 82 13 85 14
REMARK SMILES IDX 83 15 84 16 86 17 87 18 88 19 89 20 90 21 91 22 92 23 11 24
REMARK SMILES IDX 12 25 13 26 14 27 15 28 16 29 17 31 18 32 19 33 80 34 20 35
REMARK SMILES IDX 79 36 21 37 22 38 23 39 73 40 24 41 78 42 72 43 74 44 25 45
REMARK SMILES IDX 77 46 71 47 70 48 26 50 58 51 38 52 57 53 39 54 42 55 56 56
REMARK SMILES IDX 75 57 40 58 41 59 55 61 76 62 43 63 27 64 28 65 36 66 29 67
REMARK SMILES IDX 30 68 34 69 37 70 31 71 32 72 35 73 33 74 59 75 60 76 68 77
REMARK SMILES IDX 61 78 62 79 66 80 69 81 63 82 64 83 67 84 65 85 44 86 45 87
REMARK SMILES IDX 53 88 46 89 47 90 51 91 54 92 48 93 49 94 52 95 50 96
REMARK H PARENT 8 6 15 30 74 49 42 60
REMARK Flexibility Score: inf
ROOT
ATOM      1  C   UNL A   1      36.938  23.077  25.683  1.00  0.00     0.021 C 
ENDROOT
BRANCH   1   2
ATOM      2  C   UNL A   1      35.922  24.027  25.069  1.00  0.00     0.116 C 
BRANCH   2   3
ATOM      3  N   UNL A   1      34.721  24.199  25.862  1.00  0.00    -0.354 N 
ATOM      4  C   UNL A   1      33.409  23.921  25.595  1.00  0.00     0.248 C 
ATOM      5  O   UNL A   1      32.734  23.654  26.598  1.00  0.00    -0.272 OA
ATOM      6  H   UNL A   1      34.878  24.586  26.753  1.00  0.00     0.163 HD
BRANCH   4   7
ATOM      7  C   UNL A   1      32.794  23.833  24.158  1.00  0.00     0.144 C 
BRANCH   7   8
ATOM      8  C   UNL A   1      33.486  22.745  23.276  1.00  0.00     0.037 C 
ATOM      9  C   UNL A   1      33.451  21.319  23.821  1.00  0.00     0.007 C 
ENDBRANCH   7   8
BRANCH   7  10
ATOM     10  C   UNL A   1      31.265  23.644  24.310  1.00  0.00     0.037 C 
ATOM     11  C   UNL A   1      30.279  24.208  23.304  1.00  0.00     0.007 C 
ENDBRANCH   7  10
BRANCH   7  12
ATOM     12  N   UNL A   1      33.097  25.141  23.486  1.00  0.00    -0.214 N 
ATOM     13  N   UNL A   1      33.691  25.081  22.264  1.00  0.00    -0.044 NA
ATOM     14  C   UNL A   1      32.753  26.465  23.727  1.00  0.00     0.152 A 
ATOM     15  N   UNL A   1      33.747  26.319  21.815  1.00  0.00    -0.024 NA
ATOM     16  N   UNL A   1      33.161  27.178  22.690  1.00  0.00    -0.114 NA
BRANCH  14  17
ATOM     17  C   UNL A   1      31.995  27.084  24.865  1.00  0.00     0.083 C 
BRANCH  17  18
ATOM     18  C   UNL A   1      32.280  28.599  25.055  1.00  0.00    -0.001 C 
ATOM     19  C   UNL A   1      31.099  29.399  24.465  1.00  0.00     0.008 C 
BRANCH  18  20
ATOM     20  C   UNL A   1      32.595  29.008  26.553  1.00  0.00    -0.035 C 
ATOM     21  C   UNL A   1      31.709  28.213  27.535  1.00  0.00     0.011 C 
ATOM     22  C   UNL A   1      34.058  28.678  26.924  1.00  0.00     0.011 C 
ATOM     23  C   UNL A   1      32.358  30.508  26.813  1.00  0.00     0.011 C 
ENDBRANCH  18  20
ENDBRANCH  17  18
ENDBRANCH  14  17
ENDBRANCH   7  12
ENDBRANCH   4   7
ENDBRANCH   2   3
ENDBRANCH   1   2
BRANCH   1  24
ATOM     24  C   UNL A   1      36.577  21.596  25.554  1.00  0.00     0.002 C 
BRANCH  24  25
ATOM     25  C   UNL A   1      37.327  20.811  24.471  1.00  0.00     0.002 C 
BRANCH  25  26
ATOM     26  C   UNL A   1      38.184  19.637  24.955  1.00  0.00     0.021 C 
BRANCH  26  27
ATOM     27  C   UNL A   1      39.214  19.976  26.023  1.00  0.00     0.116 C 
BRANCH  27  28
ATOM     28  N   UNL A   1      40.385  19.124  25.957  1.00  0.00    -0.352 N 
ATOM     29  C   UNL A   1      41.709  19.457  26.035  1.00  0.00     0.251 C 
ATOM     30  H   UNL A   1      40.200  18.164  25.839  1.00  0.00     0.163 HD
ATOM     31  O   UNL A   1      42.569  18.603  25.802  1.00  0.00    -0.269 OA
BRANCH  29  32
ATOM     32  C   UNL A   1      42.124  20.833  26.378  1.00  0.00     0.039 A 
ATOM     33  C   UNL A   1      42.324  21.154  27.723  1.00  0.00     0.014 A 
ATOM     34  C   UNL A   1      42.270  21.818  25.395  1.00  0.00     0.014 A 
ATOM     35  C   UNL A   1      42.693  22.451  28.082  1.00  0.00     0.010 A 
ATOM     36  C   UNL A   1      42.713  23.090  25.747  1.00  0.00     0.010 A 
ATOM     37  C   UNL A   1      42.904  23.427  27.095  1.00  0.00    -0.014 A 
BRANCH  37  38
ATOM     38  C   UNL A   1      43.276  24.815  27.467  1.00  0.00     0.031 A 
ATOM     39  C   UNL A   1      44.694  25.286  27.289  1.00  0.00     0.074 A 
ATOM     40  C   UNL A   1      42.350  25.638  27.992  1.00  0.00     0.049 A 
ATOM     41  N   UNL A   1      45.223  26.450  27.571  1.00  0.00    -0.248 NA
ATOM     42  C   UNL A   1      45.653  24.308  26.749  1.00  0.00     0.031 C 
ATOM     43  C   UNL A   1      40.955  25.283  28.253  1.00  0.00     0.029 A 
ATOM     44  N   UNL A   1      42.444  26.943  28.402  1.00  0.00    -0.354 N 
ATOM     45  C   UNL A   1      46.572  26.337  27.263  1.00  0.00     0.074 A 
ATOM     46  C   UNL A   1      46.794  24.976  26.825  1.00  0.00     0.031 C 
ATOM     47  C   UNL A   1      40.314  26.355  28.747  1.00  0.00     0.029 A 
ATOM     48  C   UNL A   1      41.260  27.461  28.867  1.00  0.00     0.049 A 
ATOM     49  H   UNL A   1      43.280  27.461  28.366  1.00  0.00     0.167 HD
ATOM     50  C   UNL A   1      47.535  27.288  27.317  1.00  0.00     0.037 A 
ATOM     51  C   UNL A   1      40.971  28.691  29.333  1.00  0.00     0.037 A 
ATOM     52  C   UNL A   1      47.301  28.651  27.716  1.00  0.00     0.049 A 
ATOM     53  C   UNL A   1      42.056  29.733  29.369  1.00  0.00     0.074 A 
ATOM     54  C   UNL A   1      48.190  29.711  27.737  1.00  0.00     0.029 A 
ATOM     55  N   UNL A   1      46.083  29.142  28.165  1.00  0.00    -0.354 N 
ATOM     56  N   UNL A   1      43.311  29.637  29.003  1.00  0.00    -0.248 NA
ATOM     57  C   UNL A   1      41.677  31.062  29.871  1.00  0.00     0.031 C 
ATOM     58  C   UNL A   1      47.523  30.831  28.244  1.00  0.00     0.029 A 
ATOM     59  C   UNL A   1      46.204  30.485  28.485  1.00  0.00     0.049 A 
ATOM     60  H   UNL A   1      45.255  28.615  28.243  1.00  0.00     0.167 HD
ATOM     61  C   UNL A   1      43.863  30.897  29.196  1.00  0.00     0.074 A 
ATOM     62  C   UNL A   1      42.801  31.743  29.700  1.00  0.00     0.031 C 
ATOM     63  C   UNL A   1      45.133  31.316  28.973  1.00  0.00     0.037 A 
BRANCH  50  64
ATOM     64  C   UNL A   1      48.931  26.886  26.936  1.00  0.00     0.064 A 
ATOM     65  C   UNL A   1      49.391  26.971  25.613  1.00  0.00     0.173 A 
ATOM     66  C   UNL A   1      49.832  26.435  27.913  1.00  0.00     0.173 A 
ATOM     67  F   UNL A   1      48.567  27.385  24.637  1.00  0.00    -0.203 F 
ATOM     68  C   UNL A   1      50.686  26.586  25.276  1.00  0.00     0.198 A 
ATOM     69  C   UNL A   1      51.136  26.082  27.578  1.00  0.00     0.198 A 
ATOM     70  F   UNL A   1      49.448  26.340  29.195  1.00  0.00    -0.203 F 
ATOM     71  F   UNL A   1      51.083  26.622  23.996  1.00  0.00    -0.200 F 
ATOM     72  C   UNL A   1      51.560  26.149  26.259  1.00  0.00     0.200 A 
ATOM     73  F   UNL A   1      51.984  25.671  28.532  1.00  0.00    -0.200 F 
ATOM     74  F   UNL A   1      52.808  25.783  25.935  1.00  0.00    -0.200 F 
ENDBRANCH  50  64
BRANCH  51  75
ATOM     75  C   UNL A   1      39.586  29.019  29.758  1.00  0.00     0.064 A 
ATOM     76  C   UNL A   1      39.169  28.793  31.078  1.00  0.00     0.173 A 
ATOM     77  C   UNL A   1      38.651  29.555  28.861  1.00  0.00     0.173 A 
ATOM     78  F   UNL A   1      40.021  28.264  31.968  1.00  0.00    -0.203 F 
ATOM     79  C   UNL A   1      37.863  29.068  31.478  1.00  0.00     0.198 A 
ATOM     80  C   UNL A   1      37.354  29.858  29.270  1.00  0.00     0.198 A 
ATOM     81  F   UNL A   1      39.002  29.797  27.590  1.00  0.00    -0.203 F 
ATOM     82  F   UNL A   1      37.478  28.799  32.733  1.00  0.00    -0.200 F 
ATOM     83  C   UNL A   1      36.958  29.606  30.575  1.00  0.00     0.200 A 
ATOM     84  F   UNL A   1      36.486  30.391  28.399  1.00  0.00    -0.200 F 
ATOM     85  F   UNL A   1      35.703  29.873  30.961  1.00  0.00    -0.200 F 
ENDBRANCH  51  75
BRANCH  63  86
ATOM     86  C   UNL A   1      45.432  32.765  29.225  1.00  0.00     0.064 A 
ATOM     87  C   UNL A   1      45.940  33.213  30.453  1.00  0.00     0.173 A 
ATOM     88  C   UNL A   1      45.233  33.714  28.210  1.00  0.00     0.173 A 
ATOM     89  F   UNL A   1      46.135  32.347  31.458  1.00  0.00    -0.203 F 
ATOM     90  C   UNL A   1      46.210  34.562  30.665  1.00  0.00     0.198 A 
ATOM     91  C   UNL A   1      45.533  35.057  28.416  1.00  0.00     0.198 A 
ATOM     92  F   UNL A   1      44.755  33.337  27.014  1.00  0.00    -0.203 F 
ATOM     93  F   UNL A   1      46.643  34.976  31.864  1.00  0.00    -0.200 F 
ATOM     94  C   UNL A   1      46.012  35.482  29.646  1.00  0.00     0.200 A 
ATOM     95  F   UNL A   1      45.356  35.942  27.425  1.00  0.00    -0.200 F 
ATOM     96  F   UNL A   1      46.276  36.779  29.852  1.00  0.00    -0.200 F 
ENDBRANCH  63  86
ENDBRANCH  37  38
ENDBRANCH  29  32
ENDBRANCH  27  28
ENDBRANCH  26  27
ENDBRANCH  25  26
ENDBRANCH  24  25
ENDBRANCH   1  24
TORSDOF 19
ENDMDL
MODEL 2
REMARK VINA RESULT:     -10.8      5.017     10.551
REMARK SMILES CCC(CC)(C(=O)NCCCCCCNC(=O)c1ccc(-c2c3nc(c(-c4c(F)c(F)c(F)c(F)c4F)c4ccc([nH]4)c(-c4c(F)c(F)c(F)c(F)c4F)c4nc(c(-c5c(F)c(F)c(F)c(F)c5F)c5ccc2[nH]5)C=C4)C=C3)cc1)n1nnnc1C[C@@H](C)C(C)(C)C
REMARK SMILES IDX 10 1 9 2 8 3 6 4 7 5 3 7 2 8 1 9 4 10 5 11 81 12 82 13 85 14
REMARK SMILES IDX 83 15 84 16 86 17 87 18 88 19 89 20 90 21 91 22 92 23 11 24
REMARK SMILES IDX 12 25 13 26 14 27 15 28 16 29 17 31 18 32 19 33 80 34 20 35
REMARK SMILES IDX 79 36 21 37 22 38 23 39 73 40 24 41 78 42 72 43 74 44 25 45
REMARK SMILES IDX 77 46 71 47 70 48 26 50 58 51 38 52 57 53 39 54 42 55 56 56
REMARK SMILES IDX 75 57 40 58 41 59 55 61 76 62 43 63 27 64 28 65 36 66 29 67
REMARK SMILES IDX 30 68 34 69 37 70 31 71 32 72 35 73 33 74 59 75 60 76 68 77
REMARK SMILES IDX 61 78 62 79 66 80 69 81 63 82 64 83 67 84 65 85 44 86 45 87
REMARK SMILES IDX 53 88 46 89 47 90 51 91 54 92 48 93 49 94 52 95 50 96
REMARK H PARENT 8 6 15 30 74 49 42 60
REMARK Flexibility Score: inf
ROOT
ATOM      1  C   UNL A   1      33.552  28.898  27.298  1.00  0.00     0.021 C 
ENDROOT
BRANCH   1   2
ATOM      2  C   UNL A   1      33.479  27.702  26.362  1.00  0.00     0.116 C 
BRANCH   2   3
ATOM      3  N   UNL A   1      34.014  27.953  25.040  1.00  0.00    -0.354 N 
ATOM      4  C   UNL A   1      33.427  27.939  23.804  1.00  0.00     0.248 C 
ATOM      5  O   UNL A   1      33.955  28.702  22.984  1.00  0.00    -0.272 OA
ATOM      6  H   UNL A   1      34.973  28.174  25.028  1.00  0.00     0.163 HD
BRANCH   4   7
ATOM      7  C   UNL A   1      32.137  27.128  23.443  1.00  0.00     0.144 C 
BRANCH   7   8
ATOM      8  C   UNL A   1      31.541  26.371  24.672  1.00  0.00     0.037 C 
ATOM      9  C   UNL A   1      30.259  25.583  24.416  1.00  0.00     0.007 C 
ENDBRANCH   7   8
BRANCH   7  10
ATOM     10  C   UNL A   1      31.145  28.101  22.760  1.00  0.00     0.037 C 
ATOM     11  C   UNL A   1      30.481  29.238  23.515  1.00  0.00     0.007 C 
ENDBRANCH   7  10
BRANCH   7  12
ATOM     12  N   UNL A   1      32.565  26.055  22.484  1.00  0.00    -0.214 N 
ATOM     13  N   UNL A   1      32.186  26.204  21.186  1.00  0.00    -0.044 NA
ATOM     14  C   UNL A   1      33.442  24.979  22.550  1.00  0.00     0.152 A 
ATOM     15  N   UNL A   1      32.768  25.231  20.513  1.00  0.00    -0.024 NA
ATOM     16  N   UNL A   1      33.555  24.482  21.330  1.00  0.00    -0.114 NA
BRANCH  14  17
ATOM     17  C   UNL A   1      34.234  24.437  23.704  1.00  0.00     0.083 C 
BRANCH  17  18
ATOM     18  C   UNL A   1      34.656  22.952  23.528  1.00  0.00    -0.001 C 
ATOM     19  C   UNL A   1      36.191  22.891  23.385  1.00  0.00     0.008 C 
BRANCH  18  20
ATOM     20  C   UNL A   1      34.119  21.995  24.671  1.00  0.00    -0.035 C 
ATOM     21  C   UNL A   1      35.290  21.287  25.386  1.00  0.00     0.011 C 
ATOM     22  C   UNL A   1      33.368  22.794  25.760  1.00  0.00     0.011 C 
ATOM     23  C   UNL A   1      33.172  20.908  24.129  1.00  0.00     0.011 C 
ENDBRANCH  18  20
ENDBRANCH  17  18
ENDBRANCH  14  17
ENDBRANCH   7  12
ENDBRANCH   4   7
ENDBRANCH   2   3
ENDBRANCH   1   2
BRANCH   1  24
ATOM     24  C   UNL A   1      33.181  30.232  26.648  1.00  0.00     0.002 C 
BRANCH  24  25
ATOM     25  C   UNL A   1      31.705  30.641  26.743  1.00  0.00     0.002 C 
BRANCH  25  26
ATOM     26  C   UNL A   1      31.425  32.140  26.888  1.00  0.00     0.021 C 
BRANCH  26  27
ATOM     27  C   UNL A   1      32.655  33.038  26.889  1.00  0.00     0.116 C 
BRANCH  27  28
ATOM     28  N   UNL A   1      32.437  34.279  27.606  1.00  0.00    -0.352 N 
ATOM     29  C   UNL A   1      33.069  34.764  28.718  1.00  0.00     0.251 C 
ATOM     30  H   UNL A   1      31.729  34.858  27.240  1.00  0.00     0.163 HD
ATOM     31  O   UNL A   1      32.635  35.776  29.275  1.00  0.00    -0.269 OA
BRANCH  29  32
ATOM     32  C   UNL A   1      34.256  34.080  29.271  1.00  0.00     0.039 A 
ATOM     33  C   UNL A   1      34.062  32.995  30.130  1.00  0.00     0.014 A 
ATOM     34  C   UNL A   1      35.552  34.526  28.990  1.00  0.00     0.014 A 
ATOM     35  C   UNL A   1      35.162  32.343  30.688  1.00  0.00     0.010 A 
ATOM     36  C   UNL A   1      36.650  33.827  29.486  1.00  0.00     0.010 A 
ATOM     37  C   UNL A   1      36.467  32.746  30.359  1.00  0.00    -0.014 A 
BRANCH  37  38
ATOM     38  C   UNL A   1      37.644  32.073  30.962  1.00  0.00     0.031 A 
ATOM     39  C   UNL A   1      38.092  32.445  32.350  1.00  0.00     0.074 A 
ATOM     40  C   UNL A   1      38.328  31.156  30.253  1.00  0.00     0.049 A 
ATOM     41  N   UNL A   1      39.104  31.989  33.045  1.00  0.00    -0.248 NA
ATOM     42  C   UNL A   1      37.316  33.488  33.039  1.00  0.00     0.031 C 
ATOM     43  C   UNL A   1      38.017  30.744  28.884  1.00  0.00     0.029 A 
ATOM     44  N   UNL A   1      39.426  30.405  30.586  1.00  0.00    -0.354 N 
ATOM     45  C   UNL A   1      39.096  32.702  34.236  1.00  0.00     0.074 A 
ATOM     46  C   UNL A   1      38.015  33.659  34.151  1.00  0.00     0.031 C 
ATOM     47  C   UNL A   1      38.883  29.790  28.506  1.00  0.00     0.029 A 
ATOM     48  C   UNL A   1      39.827  29.546  29.593  1.00  0.00     0.049 A 
ATOM     49  H   UNL A   1      39.882  30.473  31.455  1.00  0.00     0.167 HD
ATOM     50  C   UNL A   1      39.904  32.557  35.315  1.00  0.00     0.037 A 
ATOM     51  C   UNL A   1      40.840  28.660  29.566  1.00  0.00     0.037 A 
ATOM     52  C   UNL A   1      40.953  31.577  35.410  1.00  0.00     0.049 A 
ATOM     53  C   UNL A   1      41.712  28.508  30.782  1.00  0.00     0.074 A 
ATOM     54  C   UNL A   1      41.780  31.298  36.483  1.00  0.00     0.029 A 
ATOM     55  N   UNL A   1      41.319  30.713  34.388  1.00  0.00    -0.354 N 
ATOM     56  N   UNL A   1      41.649  29.134  31.932  1.00  0.00    -0.248 NA
ATOM     57  C   UNL A   1      42.791  27.513  30.700  1.00  0.00     0.031 C 
ATOM     58  C   UNL A   1      42.678  30.298  36.095  1.00  0.00     0.029 A 
ATOM     59  C   UNL A   1      42.375  29.915  34.799  1.00  0.00     0.049 A 
ATOM     60  H   UNL A   1      40.892  30.672  33.502  1.00  0.00     0.167 HD
ATOM     61  C   UNL A   1      42.651  28.586  32.722  1.00  0.00     0.074 A 
ATOM     62  C   UNL A   1      43.301  27.569  31.922  1.00  0.00     0.031 C 
ATOM     63  C   UNL A   1      43.001  28.896  33.995  1.00  0.00     0.037 A 
BRANCH  50  64
ATOM     64  C   UNL A   1      39.681  33.480  36.478  1.00  0.00     0.064 A 
ATOM     65  C   UNL A   1      38.836  33.138  37.545  1.00  0.00     0.173 A 
ATOM     66  C   UNL A   1      40.345  34.715  36.541  1.00  0.00     0.173 A 
ATOM     67  F   UNL A   1      38.168  31.973  37.530  1.00  0.00    -0.203 F 
ATOM     68  C   UNL A   1      38.636  34.010  38.612  1.00  0.00     0.198 A 
ATOM     69  C   UNL A   1      40.168  35.571  37.625  1.00  0.00     0.198 A 
ATOM     70  F   UNL A   1      41.169  35.092  35.552  1.00  0.00    -0.203 F 
ATOM     71  F   UNL A   1      37.779  33.684  39.590  1.00  0.00    -0.200 F 
ATOM     72  C   UNL A   1      39.306  35.222  38.654  1.00  0.00     0.200 A 
ATOM     73  F   UNL A   1      40.826  36.738  37.671  1.00  0.00    -0.200 F 
ATOM     74  F   UNL A   1      39.117  36.059  39.684  1.00  0.00    -0.200 F 
ENDBRANCH  50  64
BRANCH  51  75
ATOM     75  C   UNL A   1      41.057  27.813  28.364  1.00  0.00     0.064 A 
ATOM     76  C   UNL A   1      41.916  28.232  27.337  1.00  0.00     0.173 A 
ATOM     77  C   UNL A   1      40.410  26.579  28.210  1.00  0.00     0.173 A 
ATOM     78  F   UNL A   1      42.542  29.414  27.430  1.00  0.00    -0.203 F 
ATOM     79  C   UNL A   1      42.101  27.460  26.192  1.00  0.00     0.198 A 
ATOM     80  C   UNL A   1      40.618  25.794  27.078  1.00  0.00     0.198 A 
ATOM     81  F   UNL A   1      39.584  26.129  29.166  1.00  0.00    -0.203 F 
ATOM     82  F   UNL A   1      42.891  27.907  25.206  1.00  0.00    -0.200 F 
ATOM     83  C   UNL A   1      41.456  26.239  26.066  1.00  0.00     0.200 A 
ATOM     84  F   UNL A   1      40.005  24.608  26.965  1.00  0.00    -0.200 F 
ATOM     85  F   UNL A   1      41.636  25.496  24.966  1.00  0.00    -0.200 F 
ENDBRANCH  51  75
BRANCH  63  86
ATOM     86  C   UNL A   1      44.104  28.092  34.619  1.00  0.00     0.064 A 
ATOM     87  C   UNL A   1      45.441  28.510  34.574  1.00  0.00     0.173 A 
ATOM     88  C   UNL A   1      43.811  26.899  35.298  1.00  0.00     0.173 A 
ATOM     89  F   UNL A   1      45.774  29.636  33.925  1.00  0.00    -0.203 F 
ATOM     90  C   UNL A   1      46.449  27.748  35.159  1.00  0.00     0.198 A 
ATOM     91  C   UNL A   1      44.816  26.156  35.909  1.00  0.00     0.198 A 
ATOM     92  F   UNL A   1      42.546  26.458  35.378  1.00  0.00    -0.203 F 
ATOM     93  F   UNL A   1      47.726  28.138  35.056  1.00  0.00    -0.200 F 
ATOM     94  C   UNL A   1      46.135  26.576  35.831  1.00  0.00     0.200 A 
ATOM     95  F   UNL A   1      44.509  25.032  36.571  1.00  0.00    -0.200 F 
ATOM     96  F   UNL A   1      47.106  25.846  36.396  1.00  0.00    -0.200 F 
ENDBRANCH  63  86
ENDBRANCH  37  38
ENDBRANCH  29  32
ENDBRANCH  27  28
ENDBRANCH  26  27
ENDBRANCH  25  26
ENDBRANCH  24  25
ENDBRANCH   1  24
TORSDOF 19
ENDMDL
MODEL 3
REMARK VINA RESULT:     -10.7      1.152      2.649
REMARK SMILES CCC(CC)(C(=O)NCCCCCCNC(=O)c1ccc(-c2c3nc(c(-c4c(F)c(F)c(F)c(F)c4F)c4ccc([nH]4)c(-c4c(F)c(F)c(F)c(F)c4F)c4nc(c(-c5c(F)c(F)c(F)c(F)c5F)c5ccc2[nH]5)C=C4)C=C3)cc1)n1nnnc1C[C@@H](C)C(C)(C)C
REMARK SMILES IDX 10 1 9 2 8 3 6 4 7 5 3 7 2 8 1 9 4 10 5 11 81 12 82 13 85 14
REMARK SMILES IDX 83 15 84 16 86 17 87 18 88 19 89 20 90 21 91 22 92 23 11 24
REMARK SMILES IDX 12 25 13 26 14 27 15 28 16 29 17 31 18 32 19 33 80 34 20 35
REMARK SMILES IDX 79 36 21 37 22 38 23 39 73 40 24 41 78 42 72 43 74 44 25 45
REMARK SMILES IDX 77 46 71 47 70 48 26 50 58 51 38 52 57 53 39 54 42 55 56 56
REMARK SMILES IDX 75 57 40 58 41 59 55 61 76 62 43 63 27 64 28 65 36 66 29 67
REMARK SMILES IDX 30 68 34 69 37 70 31 71 32 72 35 73 33 74 59 75 60 76 68 77
REMARK SMILES IDX 61 78 62 79 66 80 69 81 63 82 64 83 67 84 65 85 44 86 45 87
REMARK SMILES IDX 53 88 46 89 47 90 51 91 54 92 48 93 49 94 52 95 50 96
REMARK H PARENT 8 6 15 30 74 49 42 60
REMARK Flexibility Score: inf
ROOT
ATOM      1  C   UNL A   1      36.398  22.378  23.681  1.00  0.00     0.021 C 
ENDROOT
BRANCH   1   2
ATOM      2  C   UNL A   1      35.851  23.720  24.138  1.00  0.00     0.116 C 
BRANCH   2   3
ATOM      3  N   UNL A   1      35.312  23.711  25.483  1.00  0.00    -0.354 N 
ATOM      4  C   UNL A   1      34.200  23.117  26.013  1.00  0.00     0.248 C 
ATOM      5  O   UNL A   1      34.304  22.826  27.211  1.00  0.00    -0.272 OA
ATOM      6  H   UNL A   1      35.843  24.226  26.133  1.00  0.00     0.163 HD
BRANCH   4   7
ATOM      7  C   UNL A   1      32.927  22.724  25.191  1.00  0.00     0.144 C 
BRANCH   7   8
ATOM      8  C   UNL A   1      32.896  23.390  23.778  1.00  0.00     0.037 C 
ATOM      9  C   UNL A   1      31.511  23.634  23.182  1.00  0.00     0.007 C 
ENDBRANCH   7   8
BRANCH   7  10
ATOM     10  C   UNL A   1      32.843  21.179  25.162  1.00  0.00     0.037 C 
ATOM     11  C   UNL A   1      32.778  20.398  23.862  1.00  0.00     0.007 C 
ENDBRANCH   7  10
BRANCH   7  12
ATOM     12  N   UNL A   1      31.752  23.301  25.927  1.00  0.00    -0.214 N 
ATOM     13  N   UNL A   1      30.815  22.421  26.373  1.00  0.00    -0.044 NA
ATOM     14  C   UNL A   1      31.444  24.551  26.449  1.00  0.00     0.152 A 
ATOM     15  N   UNL A   1      29.956  23.121  27.087  1.00  0.00    -0.024 NA
ATOM     16  N   UNL A   1      30.336  24.424  27.159  1.00  0.00    -0.114 NA
BRANCH  14  17
ATOM     17  C   UNL A   1      32.187  25.852  26.364  1.00  0.00     0.083 C 
BRANCH  17  18
ATOM     18  C   UNL A   1      31.263  27.088  26.180  1.00  0.00    -0.001 C 
ATOM     19  C   UNL A   1      31.628  28.137  27.251  1.00  0.00     0.008 C 
BRANCH  18  20
ATOM     20  C   UNL A   1      31.284  27.690  24.715  1.00  0.00    -0.035 C 
ATOM     21  C   UNL A   1      30.017  27.279  23.936  1.00  0.00     0.011 C 
ATOM     22  C   UNL A   1      31.291  29.234  24.747  1.00  0.00     0.011 C 
ATOM     23  C   UNL A   1      32.508  27.218  23.905  1.00  0.00     0.011 C 
ENDBRANCH  18  20
ENDBRANCH  17  18
ENDBRANCH  14  17
ENDBRANCH   7  12
ENDBRANCH   4   7
ENDBRANCH   2   3
ENDBRANCH   1   2
BRANCH   1  24
ATOM     24  C   UNL A   1      37.316  21.691  24.694  1.00  0.00     0.002 C 
BRANCH  24  25
ATOM     25  C   UNL A   1      37.064  20.196  24.927  1.00  0.00     0.002 C 
BRANCH  25  26
ATOM     26  C   UNL A   1      38.307  19.314  25.076  1.00  0.00     0.021 C 
BRANCH  26  27
ATOM     27  C   UNL A   1      39.372  19.840  26.030  1.00  0.00     0.116 C 
BRANCH  27  28
ATOM     28  N   UNL A   1      40.589  19.053  25.992  1.00  0.00    -0.352 N 
ATOM     29  C   UNL A   1      41.890  19.457  26.101  1.00  0.00     0.251 C 
ATOM     30  H   UNL A   1      40.460  18.084  25.870  1.00  0.00     0.163 HD
ATOM     31  O   UNL A   1      42.801  18.652  25.890  1.00  0.00    -0.269 OA
BRANCH  29  32
ATOM     32  C   UNL A   1      42.221  20.854  26.453  1.00  0.00     0.039 A 
ATOM     33  C   UNL A   1      42.330  21.793  25.424  1.00  0.00     0.014 A 
ATOM     34  C   UNL A   1      42.468  21.235  27.776  1.00  0.00     0.014 A 
ATOM     35  C   UNL A   1      42.665  23.115  25.720  1.00  0.00     0.010 A 
ATOM     36  C   UNL A   1      42.726  22.570  28.078  1.00  0.00     0.010 A 
ATOM     37  C   UNL A   1      42.851  23.517  27.052  1.00  0.00    -0.014 A 
BRANCH  37  38
ATOM     38  C   UNL A   1      43.227  24.916  27.378  1.00  0.00     0.031 A 
ATOM     39  C   UNL A   1      44.623  25.403  27.099  1.00  0.00     0.074 A 
ATOM     40  C   UNL A   1      42.327  25.735  27.953  1.00  0.00     0.049 A 
ATOM     41  N   UNL A   1      45.153  26.579  27.327  1.00  0.00    -0.248 NA
ATOM     42  C   UNL A   1      45.558  24.430  26.510  1.00  0.00     0.031 C 
ATOM     43  C   UNL A   1      40.958  25.365  28.311  1.00  0.00     0.029 A 
ATOM     44  N   UNL A   1      42.429  27.048  28.336  1.00  0.00    -0.354 N 
ATOM     45  C   UNL A   1      46.480  26.479  26.931  1.00  0.00     0.074 A 
ATOM     46  C   UNL A   1      46.692  25.115  26.499  1.00  0.00     0.031 C 
ATOM     47  C   UNL A   1      40.336  26.436  28.832  1.00  0.00     0.029 A 
ATOM     48  C   UNL A   1      41.272  27.556  28.873  1.00  0.00     0.049 A 
ATOM     49  H   UNL A   1      43.253  27.576  28.236  1.00  0.00     0.167 HD
ATOM     50  C   UNL A   1      47.431  27.444  26.906  1.00  0.00     0.037 A 
ATOM     51  C   UNL A   1      40.997  28.789  29.338  1.00  0.00     0.037 A 
ATOM     52  C   UNL A   1      47.204  28.809  27.300  1.00  0.00     0.049 A 
ATOM     53  C   UNL A   1      42.067  29.846  29.286  1.00  0.00     0.074 A 
ATOM     54  C   UNL A   1      48.078  29.881  27.246  1.00  0.00     0.029 A 
ATOM     55  N   UNL A   1      46.012  29.291  27.823  1.00  0.00    -0.354 N 
ATOM     56  N   UNL A   1      43.296  29.762  28.839  1.00  0.00    -0.248 NA
ATOM     57  C   UNL A   1      41.704  31.177  29.793  1.00  0.00     0.031 C 
ATOM     58  C   UNL A   1      47.430  31.000  27.780  1.00  0.00     0.029 A 
ATOM     59  C   UNL A   1      46.135  30.640  28.115  1.00  0.00     0.049 A 
ATOM     60  H   UNL A   1      45.199  28.754  27.964  1.00  0.00     0.167 HD
ATOM     61  C   UNL A   1      43.841  31.031  28.976  1.00  0.00     0.074 A 
ATOM     62  C   UNL A   1      42.804  31.871  29.538  1.00  0.00     0.031 C 
ATOM     63  C   UNL A   1      45.087  31.464  28.662  1.00  0.00     0.037 A 
BRANCH  50  64
ATOM     64  C   UNL A   1      48.804  27.055  26.438  1.00  0.00     0.064 A 
ATOM     65  C   UNL A   1      49.795  26.619  27.330  1.00  0.00     0.173 A 
ATOM     66  C   UNL A   1      49.125  27.094  25.072  1.00  0.00     0.173 A 
ATOM     67  F   UNL A   1      49.545  26.574  28.648  1.00  0.00    -0.203 F 
ATOM     68  C   UNL A   1      51.065  26.270  26.878  1.00  0.00     0.198 A 
ATOM     69  C   UNL A   1      50.386  26.713  24.620  1.00  0.00     0.198 A 
ATOM     70  F   UNL A   1      48.214  27.497  24.174  1.00  0.00    -0.203 F 
ATOM     71  F   UNL A   1      52.012  25.912  27.756  1.00  0.00    -0.200 F 
ATOM     72  C   UNL A   1      51.358  26.311  25.524  1.00  0.00     0.200 A 
ATOM     73  F   UNL A   1      50.663  26.741  23.309  1.00  0.00    -0.200 F 
ATOM     74  F   UNL A   1      52.579  25.970  25.089  1.00  0.00    -0.200 F 
ENDBRANCH  50  64
BRANCH  51  75
ATOM     75  C   UNL A   1      39.639  29.106  29.851  1.00  0.00     0.064 A 
ATOM     76  C   UNL A   1      38.635  29.564  28.985  1.00  0.00     0.173 A 
ATOM     77  C   UNL A   1      39.316  28.965  31.208  1.00  0.00     0.173 A 
ATOM     78  F   UNL A   1      38.902  29.733  27.681  1.00  0.00    -0.203 F 
ATOM     79  C   UNL A   1      37.368  29.893  29.461  1.00  0.00     0.198 A 
ATOM     80  C   UNL A   1      38.039  29.266  31.678  1.00  0.00     0.198 A 
ATOM     81  F   UNL A   1      40.238  28.523  32.076  1.00  0.00    -0.203 F 
ATOM     82  F   UNL A   1      36.442  30.374  28.619  1.00  0.00    -0.200 F 
ATOM     83  C   UNL A   1      37.069  29.738  30.806  1.00  0.00     0.200 A 
ATOM     84  F   UNL A   1      37.749  29.102  32.976  1.00  0.00    -0.200 F 
ATOM     85  F   UNL A   1      35.849  30.052  31.263  1.00  0.00    -0.200 F 
ENDBRANCH  51  75
BRANCH  63  86
ATOM     86  C   UNL A   1      45.381  32.921  28.872  1.00  0.00     0.064 A 
ATOM     87  C   UNL A   1      45.092  33.883  27.893  1.00  0.00     0.173 A 
ATOM     88  C   UNL A   1      45.933  33.362  30.085  1.00  0.00     0.173 A 
ATOM     89  F   UNL A   1      44.577  33.509  26.712  1.00  0.00    -0.203 F 
ATOM     90  C   UNL A   1      45.374  35.229  28.109  1.00  0.00     0.198 A 
ATOM     91  C   UNL A   1      46.184  34.712  30.309  1.00  0.00     0.198 A 
ATOM     92  F   UNL A   1      46.221  32.483  31.057  1.00  0.00    -0.203 F 
ATOM     93  F   UNL A   1      45.141  36.123  27.139  1.00  0.00    -0.200 F 
ATOM     94  C   UNL A   1      45.914  35.643  29.318  1.00  0.00     0.200 A 
ATOM     95  F   UNL A   1      46.691  35.113  31.483  1.00  0.00    -0.200 F 
ATOM     96  F   UNL A   1      46.181  36.940  29.525  1.00  0.00    -0.200 F 
ENDBRANCH  63  86
ENDBRANCH  37  38
ENDBRANCH  29  32
ENDBRANCH  27  28
ENDBRANCH  26  27
ENDBRANCH  25  26
ENDBRANCH  24  25
ENDBRANCH   1  24
TORSDOF 19
ENDMDL
