MODEL 1
REMARK VINA RESULT:     -12.6      0.000      0.000
REMARK SMILES O=C(COc1ccccc1/C=C1\C(=O)Nc2ccccc21)NCCCCCCNC(=O)c1ccc(-c2c3nc(c(-c4c(F)c(F)c(F)c(F)c4F)c4ccc([nH]4)c(-c4c(F)c(F)c(F)c(F)c4F)c4nc(c(-c5c(F)c(F)c(F)c(F)c5F)c5ccc2[nH]5)C=C4)C=C3)cc1
REMARK SMILES IDX 25 1 24 2 23 3 22 4 1 5 2 6 3 8 4 9 5 10 6 11 10 12 7 13
REMARK SMILES IDX 9 14 8 15 11 16 12 17 13 18 21 19 14 20 15 21 16 22 20 23
REMARK SMILES IDX 17 25 19 26 18 27 26 28 27 29 28 30 29 31 30 32 31 34 32 35
REMARK SMILES IDX 33 36 94 37 34 38 93 39 35 40 36 41 37 42 87 43 38 44 92 45
REMARK SMILES IDX 86 46 88 47 39 48 91 49 85 50 84 51 40 53 72 54 52 55 71 56
REMARK SMILES IDX 53 57 56 58 70 59 89 60 54 61 55 62 69 64 90 65 57 66 41 67
REMARK SMILES IDX 42 68 50 69 43 70 44 71 48 72 51 73 45 74 46 75 49 76 47 77
REMARK SMILES IDX 73 78 74 79 82 80 75 81 76 82 80 83 83 84 77 85 78 86 81 87
REMARK SMILES IDX 79 88 58 89 59 90 67 91 60 92 61 93 65 94 68 95 62 96 63 97
REMARK SMILES IDX 66 98 64 99
REMARK H PARENT 22 7 15 24 29 33 88 52 56 63
REMARK Flexibility Score: inf
ROOT
ATOM      1  C   UNL A   1      35.243  32.746  28.037  1.00  0.00     0.002 C 
ENDROOT
BRANCH   1   2
ATOM      2  C   UNL A   1      35.026  31.237  27.913  1.00  0.00     0.021 C 
BRANCH   2   3
ATOM      3  C   UNL A   1      33.641  30.797  27.481  1.00  0.00     0.116 C 
BRANCH   3   4
ATOM      4  N   UNL A   1      33.377  29.385  27.594  1.00  0.00    -0.353 N 
ATOM      5  O   UNL A   1      31.505  29.307  26.246  1.00  0.00    -0.271 OA
ATOM      6  C   UNL A   1      32.453  28.742  26.781  1.00  0.00     0.257 C 
ATOM      7  H   UNL A   1      33.866  28.861  28.268  1.00  0.00     0.163 HD
BRANCH   6   8
ATOM      8  C   UNL A   1      32.764  27.259  26.572  1.00  0.00     0.329 C 
BRANCH   8   9
ATOM      9  O   UNL A   1      31.543  26.576  26.877  1.00  0.00    -0.483 OA
BRANCH   9  10
ATOM     10  C   UNL A   1      31.349  25.393  26.212  1.00  0.00     0.127 A 
ATOM     11  C   UNL A   1      32.005  24.281  26.760  1.00  0.00     0.047 A 
ATOM     12  C   UNL A   1      30.810  25.369  24.905  1.00  0.00     0.017 A 
ATOM     13  C   UNL A   1      32.210  23.146  25.986  1.00  0.00     0.004 A 
ATOM     14  C   UNL A   1      31.160  24.267  24.118  1.00  0.00     0.012 A 
ATOM     15  C   UNL A   1      31.829  23.159  24.651  1.00  0.00     0.001 A 
BRANCH  12  16
ATOM     16  C   UNL A   1      29.963  26.475  24.373  1.00  0.00     0.026 C 
ATOM     17  C   UNL A   1      30.260  27.513  23.561  1.00  0.00     0.050 C 
ATOM     18  C   UNL A   1      31.593  27.936  22.964  1.00  0.00     0.256 C 
ATOM     19  C   UNL A   1      29.278  28.509  23.063  1.00  0.00     0.011 A 
ATOM     20  O   UNL A   1      32.676  27.390  23.006  1.00  0.00    -0.269 OA
ATOM     21  N   UNL A   1      31.345  29.126  22.304  1.00  0.00    -0.321 N 
ATOM     22  C   UNL A   1      30.000  29.460  22.336  1.00  0.00     0.049 A 
ATOM     23  C   UNL A   1      27.901  28.623  23.126  1.00  0.00     0.011 A 
ATOM     24  H   UNL A   1      32.037  29.671  21.864  1.00  0.00     0.170 HD
ATOM     25  C   UNL A   1      29.415  30.539  21.701  1.00  0.00     0.027 A 
ATOM     26  C   UNL A   1      27.278  29.710  22.492  1.00  0.00     0.001 A 
ATOM     27  C   UNL A   1      28.030  30.663  21.789  1.00  0.00     0.002 A 
ENDBRANCH  12  16
ENDBRANCH   9  10
ENDBRANCH   8   9
ENDBRANCH   6   8
ENDBRANCH   3   4
ENDBRANCH   2   3
ENDBRANCH   1   2
BRANCH   1  28
ATOM     28  C   UNL A   1      34.564  33.456  29.212  1.00  0.00     0.002 C 
BRANCH  28  29
ATOM     29  C   UNL A   1      33.347  34.324  28.889  1.00  0.00     0.021 C 
BRANCH  29  30
ATOM     30  C   UNL A   1      33.436  35.793  29.288  1.00  0.00     0.116 C 
BRANCH  30  31
ATOM     31  N   UNL A   1      32.528  36.166  30.358  1.00  0.00    -0.352 N 
ATOM     32  C   UNL A   1      32.611  35.890  31.702  1.00  0.00     0.251 C 
ATOM     33  H   UNL A   1      31.742  36.690  30.082  1.00  0.00     0.163 HD
ATOM     34  O   UNL A   1      31.706  36.225  32.460  1.00  0.00    -0.269 OA
BRANCH  32  35
ATOM     35  C   UNL A   1      33.776  35.148  32.235  1.00  0.00     0.039 A 
ATOM     36  C   UNL A   1      33.574  33.865  32.753  1.00  0.00     0.014 A 
ATOM     37  C   UNL A   1      35.057  35.704  32.221  1.00  0.00     0.014 A 
ATOM     38  C   UNL A   1      34.666  33.110  33.191  1.00  0.00     0.010 A 
ATOM     39  C   UNL A   1      36.152  34.929  32.600  1.00  0.00     0.010 A 
ATOM     40  C   UNL A   1      35.969  33.623  33.083  1.00  0.00    -0.014 A 
BRANCH  40  41
ATOM     41  C   UNL A   1      37.155  32.814  33.462  1.00  0.00     0.031 A 
ATOM     42  C   UNL A   1      37.878  33.099  34.750  1.00  0.00     0.074 A 
ATOM     43  C   UNL A   1      37.635  31.886  32.611  1.00  0.00     0.049 A 
ATOM     44  N   UNL A   1      39.001  32.598  35.199  1.00  0.00    -0.248 NA
ATOM     45  C   UNL A   1      37.271  34.102  35.640  1.00  0.00     0.031 C 
ATOM     46  C   UNL A   1      37.047  31.542  31.315  1.00  0.00     0.029 A 
ATOM     47  N   UNL A   1      38.741  31.076  32.697  1.00  0.00    -0.354 N 
ATOM     48  C   UNL A   1      39.249  33.244  36.402  1.00  0.00     0.074 A 
ATOM     49  C   UNL A   1      38.178  34.196  36.602  1.00  0.00     0.031 C 
ATOM     50  C   UNL A   1      37.792  30.587  30.733  1.00  0.00     0.029 A 
ATOM     51  C   UNL A   1      38.931  30.281  31.593  1.00  0.00     0.049 A 
ATOM     52  H   UNL A   1      39.342  31.066  33.477  1.00  0.00     0.167 HD
ATOM     53  C   UNL A   1      40.273  33.050  37.268  1.00  0.00     0.037 A 
ATOM     54  C   UNL A   1      39.923  29.417  31.299  1.00  0.00     0.037 A 
ATOM     55  C   UNL A   1      41.308  32.066  37.092  1.00  0.00     0.049 A 
ATOM     56  C   UNL A   1      41.042  29.218  32.287  1.00  0.00     0.074 A 
ATOM     57  C   UNL A   1      42.336  31.734  37.958  1.00  0.00     0.029 A 
ATOM     58  N   UNL A   1      41.445  31.255  35.977  1.00  0.00    -0.354 N 
ATOM     59  N   UNL A   1      41.224  29.782  33.455  1.00  0.00    -0.248 NA
ATOM     60  C   UNL A   1      42.092  28.259  31.915  1.00  0.00     0.031 C 
ATOM     61  C   UNL A   1      43.121  30.752  37.348  1.00  0.00     0.029 A 
ATOM     62  C   UNL A   1      42.556  30.440  36.123  1.00  0.00     0.049 A 
ATOM     63  H   UNL A   1      40.844  31.257  35.198  1.00  0.00     0.167 HD
ATOM     64  C   UNL A   1      42.384  29.220  33.973  1.00  0.00     0.074 A 
ATOM     65  C   UNL A   1      42.860  28.266  32.995  1.00  0.00     0.031 C 
ATOM     66  C   UNL A   1      43.000  29.474  35.153  1.00  0.00     0.037 A 
BRANCH  53  67
ATOM     67  C   UNL A   1      40.332  33.913  38.492  1.00  0.00     0.064 A 
ATOM     68  C   UNL A   1      41.046  35.120  38.509  1.00  0.00     0.173 A 
ATOM     69  C   UNL A   1      39.600  33.566  39.638  1.00  0.00     0.173 A 
ATOM     70  F   UNL A   1      41.769  35.492  37.443  1.00  0.00    -0.203 F 
ATOM     71  C   UNL A   1      41.036  35.941  39.635  1.00  0.00     0.198 A 
ATOM     72  C   UNL A   1      39.572  34.401  40.751  1.00  0.00     0.198 A 
ATOM     73  F   UNL A   1      38.895  32.425  39.670  1.00  0.00    -0.203 F 
ATOM     74  F   UNL A   1      41.751  37.075  39.640  1.00  0.00    -0.200 F 
ATOM     75  C   UNL A   1      40.292  35.586  40.750  1.00  0.00     0.200 A 
ATOM     76  F   UNL A   1      38.842  34.063  41.823  1.00  0.00    -0.200 F 
ATOM     77  F   UNL A   1      40.271  36.386  41.825  1.00  0.00    -0.200 F 
ENDBRANCH  53  67
BRANCH  54  78
ATOM     78  C   UNL A   1      39.909  28.662  30.019  1.00  0.00     0.064 A 
ATOM     79  C   UNL A   1      39.345  27.381  29.946  1.00  0.00     0.173 A 
ATOM     80  C   UNL A   1      40.491  29.184  28.855  1.00  0.00     0.173 A 
ATOM     81  F   UNL A   1      38.798  26.828  31.040  1.00  0.00    -0.203 F 
ATOM     82  C   UNL A   1      39.394  26.637  28.770  1.00  0.00     0.198 A 
ATOM     83  C   UNL A   1      40.513  28.452  27.670  1.00  0.00     0.198 A 
ATOM     84  F   UNL A   1      41.042  30.407  28.869  1.00  0.00    -0.203 F 
ATOM     85  F   UNL A   1      38.903  25.390  28.745  1.00  0.00    -0.200 F 
ATOM     86  C   UNL A   1      39.976  27.174  27.631  1.00  0.00     0.200 A 
ATOM     87  F   UNL A   1      41.067  28.979  26.569  1.00  0.00    -0.200 F 
ATOM     88  F   UNL A   1      40.029  26.456  26.501  1.00  0.00    -0.200 F 
ENDBRANCH  54  78
BRANCH  66  89
ATOM     89  C   UNL A   1      44.222  28.670  35.483  1.00  0.00     0.064 A 
ATOM     90  C   UNL A   1      44.137  27.443  36.157  1.00  0.00     0.173 A 
ATOM     91  C   UNL A   1      45.490  29.108  35.070  1.00  0.00     0.173 A 
ATOM     92  F   UNL A   1      42.949  26.990  36.585  1.00  0.00    -0.203 F 
ATOM     93  C   UNL A   1      45.279  26.694  36.421  1.00  0.00     0.198 A 
ATOM     94  C   UNL A   1      46.625  28.342  35.311  1.00  0.00     0.198 A 
ATOM     95  F   UNL A   1      45.622  30.272  34.415  1.00  0.00    -0.203 F 
ATOM     96  F   UNL A   1      45.180  25.543  37.102  1.00  0.00    -0.200 F 
ATOM     97  C   UNL A   1      46.520  27.138  35.991  1.00  0.00     0.200 A 
ATOM     98  F   UNL A   1      47.822  28.766  34.883  1.00  0.00    -0.200 F 
ATOM     99  F   UNL A   1      47.617  26.409  36.237  1.00  0.00    -0.200 F 
ENDBRANCH  66  89
ENDBRANCH  40  41
ENDBRANCH  32  35
ENDBRANCH  30  31
ENDBRANCH  29  30
ENDBRANCH  28  29
ENDBRANCH   1  28
TORSDOF 16
ENDMDL
MODEL 2
REMARK VINA RESULT:     -12.5      2.976      8.628
REMARK SMILES O=C(COc1ccccc1/C=C1\C(=O)Nc2ccccc21)NCCCCCCNC(=O)c1ccc(-c2c3nc(c(-c4c(F)c(F)c(F)c(F)c4F)c4ccc([nH]4)c(-c4c(F)c(F)c(F)c(F)c4F)c4nc(c(-c5c(F)c(F)c(F)c(F)c5F)c5ccc2[nH]5)C=C4)C=C3)cc1
REMARK SMILES IDX 25 1 24 2 23 3 22 4 1 5 2 6 3 8 4 9 5 10 6 11 10 12 7 13
REMARK SMILES IDX 9 14 8 15 11 16 12 17 13 18 21 19 14 20 15 21 16 22 20 23
REMARK SMILES IDX 17 25 19 26 18 27 26 28 27 29 28 30 29 31 30 32 31 34 32 35
REMARK SMILES IDX 33 36 94 37 34 38 93 39 35 40 36 41 37 42 87 43 38 44 92 45
REMARK SMILES IDX 86 46 88 47 39 48 91 49 85 50 84 51 40 53 72 54 52 55 71 56
REMARK SMILES IDX 53 57 56 58 70 59 89 60 54 61 55 62 69 64 90 65 57 66 41 67
REMARK SMILES IDX 42 68 50 69 43 70 44 71 48 72 51 73 45 74 46 75 49 76 47 77
REMARK SMILES IDX 73 78 74 79 82 80 75 81 76 82 80 83 83 84 77 85 78 86 81 87
REMARK SMILES IDX 79 88 58 89 59 90 67 91 60 92 61 93 65 94 68 95 62 96 63 97
REMARK SMILES IDX 66 98 64 99
REMARK H PARENT 22 7 15 24 29 33 88 52 56 63
REMARK Flexibility Score: inf
ROOT
ATOM      1  C   UNL A   1      34.106  25.968  25.026  1.00  0.00     0.002 C 
ENDROOT
BRANCH   1   2
ATOM      2  C   UNL A   1      34.468  24.498  25.237  1.00  0.00     0.021 C 
BRANCH   2   3
ATOM      3  C   UNL A   1      35.751  24.026  24.580  1.00  0.00     0.116 C 
BRANCH   3   4
ATOM      4  N   UNL A   1      35.800  22.625  24.252  1.00  0.00    -0.353 N 
ATOM      5  O   UNL A   1      37.922  22.188  25.046  1.00  0.00    -0.271 OA
ATOM      6  C   UNL A   1      36.808  21.793  24.721  1.00  0.00     0.257 C 
ATOM      7  H   UNL A   1      35.097  22.244  23.677  1.00  0.00     0.163 HD
BRANCH   6   8
ATOM      8  C   UNL A   1      36.374  20.331  24.844  1.00  0.00     0.329 C 
BRANCH   8   9
ATOM      9  O   UNL A   1      35.045  20.379  25.372  1.00  0.00    -0.483 OA
BRANCH   9  10
ATOM     10  C   UNL A   1      34.170  19.462  24.850  1.00  0.00     0.127 A 
ATOM     11  C   UNL A   1      34.736  18.231  24.489  1.00  0.00     0.047 A 
ATOM     12  C   UNL A   1      32.884  19.848  24.408  1.00  0.00     0.017 A 
ATOM     13  C   UNL A   1      34.063  17.390  23.612  1.00  0.00     0.004 A 
ATOM     14  C   UNL A   1      32.307  19.042  23.421  1.00  0.00     0.012 A 
ATOM     15  C   UNL A   1      32.872  17.819  23.042  1.00  0.00     0.001 A 
BRANCH  12  16
ATOM     16  C   UNL A   1      32.201  21.071  24.919  1.00  0.00     0.026 C 
ATOM     17  C   UNL A   1      31.813  22.204  24.292  1.00  0.00     0.050 C 
ATOM     18  C   UNL A   1      32.007  22.635  22.848  1.00  0.00     0.256 C 
ATOM     19  C   UNL A   1      31.076  23.320  24.936  1.00  0.00     0.011 A 
ATOM     20  O   UNL A   1      32.472  22.027  21.907  1.00  0.00    -0.269 OA
ATOM     21  N   UNL A   1      31.513  23.926  22.775  1.00  0.00    -0.321 N 
ATOM     22  C   UNL A   1      30.951  24.328  23.976  1.00  0.00     0.049 A 
ATOM     23  C   UNL A   1      30.488  23.503  26.175  1.00  0.00     0.011 A 
ATOM     24  H   UNL A   1      31.555  24.490  21.970  1.00  0.00     0.170 HD
ATOM     25  C   UNL A   1      30.299  25.525  24.207  1.00  0.00     0.027 A 
ATOM     26  C   UNL A   1      29.821  24.709  26.441  1.00  0.00     0.001 A 
ATOM     27  C   UNL A   1      29.732  25.715  25.466  1.00  0.00     0.002 A 
ENDBRANCH  12  16
ENDBRANCH   9  10
ENDBRANCH   8   9
ENDBRANCH   6   8
ENDBRANCH   3   4
ENDBRANCH   2   3
ENDBRANCH   1   2
BRANCH   1  28
ATOM     28  C   UNL A   1      33.344  26.670  26.154  1.00  0.00     0.002 C 
BRANCH  28  29
ATOM     29  C   UNL A   1      32.522  27.902  25.775  1.00  0.00     0.021 C 
BRANCH  29  30
ATOM     30  C   UNL A   1      33.307  29.156  25.406  1.00  0.00     0.116 C 
BRANCH  30  31
ATOM     31  N   UNL A   1      32.754  30.378  25.960  1.00  0.00    -0.352 N 
ATOM     32  C   UNL A   1      33.253  31.182  26.957  1.00  0.00     0.251 C 
ATOM     33  H   UNL A   1      31.901  30.673  25.566  1.00  0.00     0.163 HD
ATOM     34  O   UNL A   1      32.609  32.150  27.352  1.00  0.00    -0.269 OA
BRANCH  32  35
ATOM     35  C   UNL A   1      34.552  30.860  27.589  1.00  0.00     0.039 A 
ATOM     36  C   UNL A   1      35.506  31.874  27.714  1.00  0.00     0.014 A 
ATOM     37  C   UNL A   1      34.829  29.575  28.061  1.00  0.00     0.014 A 
ATOM     38  C   UNL A   1      36.710  31.620  28.376  1.00  0.00     0.010 A 
ATOM     39  C   UNL A   1      36.002  29.339  28.775  1.00  0.00     0.010 A 
ATOM     40  C   UNL A   1      36.952  30.359  28.945  1.00  0.00    -0.014 A 
BRANCH  40  41
ATOM     41  C   UNL A   1      38.185  30.082  29.725  1.00  0.00     0.031 A 
ATOM     42  C   UNL A   1      39.216  29.128  29.188  1.00  0.00     0.074 A 
ATOM     43  C   UNL A   1      38.337  30.619  30.953  1.00  0.00     0.049 A 
ATOM     44  N   UNL A   1      40.291  28.657  29.768  1.00  0.00    -0.248 NA
ATOM     45  C   UNL A   1      38.994  28.614  27.828  1.00  0.00     0.031 C 
ATOM     46  C   UNL A   1      37.391  31.529  31.601  1.00  0.00     0.029 A 
ATOM     47  N   UNL A   1      39.334  30.459  31.885  1.00  0.00    -0.354 N 
ATOM     48  C   UNL A   1      40.853  27.771  28.859  1.00  0.00     0.074 A 
ATOM     49  C   UNL A   1      39.988  27.745  27.701  1.00  0.00     0.031 C 
ATOM     50  C   UNL A   1      37.857  31.853  32.820  1.00  0.00     0.029 A 
ATOM     51  C   UNL A   1      39.110  31.142  33.055  1.00  0.00     0.049 A 
ATOM     52  H   UNL A   1      40.132  29.905  31.729  1.00  0.00     0.167 HD
ATOM     53  C   UNL A   1      41.997  27.054  28.978  1.00  0.00     0.037 A 
ATOM     54  C   UNL A   1      39.825  31.177  34.196  1.00  0.00     0.037 A 
ATOM     55  C   UNL A   1      42.883  27.122  30.109  1.00  0.00     0.049 A 
ATOM     56  C   UNL A   1      41.097  30.375  34.292  1.00  0.00     0.074 A 
ATOM     57  C   UNL A   1      44.109  26.502  30.280  1.00  0.00     0.029 A 
ATOM     58  N   UNL A   1      42.640  27.855  31.260  1.00  0.00    -0.354 N 
ATOM     59  N   UNL A   1      41.656  29.600  33.396  1.00  0.00    -0.248 NA
ATOM     60  C   UNL A   1      41.838  30.457  35.559  1.00  0.00     0.031 C 
ATOM     61  C   UNL A   1      44.588  26.825  31.553  1.00  0.00     0.029 A 
ATOM     62  C   UNL A   1      43.682  27.683  32.156  1.00  0.00     0.049 A 
ATOM     63  H   UNL A   1      41.845  28.414  31.418  1.00  0.00     0.167 HD
ATOM     64  C   UNL A   1      42.829  29.133  33.974  1.00  0.00     0.074 A 
ATOM     65  C   UNL A   1      42.906  29.717  35.296  1.00  0.00     0.031 C 
ATOM     66  C   UNL A   1      43.758  28.295  33.456  1.00  0.00     0.037 A 
BRANCH  53  67
ATOM     67  C   UNL A   1      42.368  26.132  27.856  1.00  0.00     0.064 A 
ATOM     68  C   UNL A   1      41.810  24.851  27.740  1.00  0.00     0.173 A 
ATOM     69  C   UNL A   1      43.234  26.566  26.840  1.00  0.00     0.173 A 
ATOM     70  F   UNL A   1      40.984  24.385  28.689  1.00  0.00    -0.203 F 
ATOM     71  C   UNL A   1      42.117  24.032  26.656  1.00  0.00     0.198 A 
ATOM     72  C   UNL A   1      43.517  25.755  25.745  1.00  0.00     0.198 A 
ATOM     73  F   UNL A   1      43.788  27.786  26.900  1.00  0.00    -0.203 F 
ATOM     74  F   UNL A   1      41.597  22.799  26.581  1.00  0.00    -0.200 F 
ATOM     75  C   UNL A   1      42.962  24.489  25.655  1.00  0.00     0.200 A 
ATOM     76  F   UNL A   1      44.324  26.203  24.772  1.00  0.00    -0.200 F 
ATOM     77  F   UNL A   1      43.242  23.705  24.604  1.00  0.00    -0.200 F 
ENDBRANCH  53  67
BRANCH  54  78
ATOM     78  C   UNL A   1      39.371  32.004  35.346  1.00  0.00     0.064 A 
ATOM     79  C   UNL A   1      38.555  31.459  36.345  1.00  0.00     0.173 A 
ATOM     80  C   UNL A   1      39.708  33.361  35.448  1.00  0.00     0.173 A 
ATOM     81  F   UNL A   1      38.185  30.171  36.278  1.00  0.00    -0.203 F 
ATOM     82  C   UNL A   1      38.065  32.245  37.385  1.00  0.00     0.198 A 
ATOM     83  C   UNL A   1      39.244  34.141  36.505  1.00  0.00     0.198 A 
ATOM     84  F   UNL A   1      40.490  33.933  34.519  1.00  0.00    -0.203 F 
ATOM     85  F   UNL A   1      37.236  31.713  38.294  1.00  0.00    -0.200 F 
ATOM     86  C   UNL A   1      38.412  33.585  37.466  1.00  0.00     0.200 A 
ATOM     87  F   UNL A   1      39.590  35.433  36.585  1.00  0.00    -0.200 F 
ATOM     88  F   UNL A   1      37.936  34.344  38.463  1.00  0.00    -0.200 F 
ENDBRANCH  54  78
BRANCH  66  89
ATOM     89  C   UNL A   1      44.969  28.002  34.292  1.00  0.00     0.064 A 
ATOM     90  C   UNL A   1      46.105  28.824  34.255  1.00  0.00     0.173 A 
ATOM     91  C   UNL A   1      44.970  26.916  35.179  1.00  0.00     0.173 A 
ATOM     92  F   UNL A   1      46.157  29.865  33.411  1.00  0.00    -0.203 F 
ATOM     93  C   UNL A   1      47.205  28.557  35.065  1.00  0.00     0.198 A 
ATOM     94  C   UNL A   1      46.060  26.669  36.008  1.00  0.00     0.198 A 
ATOM     95  F   UNL A   1      43.904  26.104  35.255  1.00  0.00    -0.203 F 
ATOM     96  F   UNL A   1      48.295  29.332  34.987  1.00  0.00    -0.200 F 
ATOM     97  C   UNL A   1      47.178  27.487  35.947  1.00  0.00     0.200 A 
ATOM     98  F   UNL A   1      46.028  25.642  36.868  1.00  0.00    -0.200 F 
ATOM     99  F   UNL A   1      48.234  27.238  36.734  1.00  0.00    -0.200 F 
ENDBRANCH  66  89
ENDBRANCH  40  41
ENDBRANCH  32  35
ENDBRANCH  30  31
ENDBRANCH  29  30
ENDBRANCH  28  29
ENDBRANCH   1  28
TORSDOF 16
ENDMDL
MODEL 3
REMARK VINA RESULT:     -12.5      1.721      7.478
REMARK SMILES O=C(COc1ccccc1/C=C1\C(=O)Nc2ccccc21)NCCCCCCNC(=O)c1ccc(-c2c3nc(c(-c4c(F)c(F)c(F)c(F)c4F)c4ccc([nH]4)c(-c4c(F)c(F)c(F)c(F)c4F)c4nc(c(-c5c(F)c(F)c(F)c(F)c5F)c5ccc2[nH]5)C=C4)C=C3)cc1
REMARK SMILES IDX 25 1 24 2 23 3 22 4 1 5 2 6 3 8 4 9 5 10 6 11 10 12 7 13
REMARK SMILES IDX 9 14 8 15 11 16 12 17 13 18 21 19 14 20 15 21 16 22 20 23
REMARK SMILES IDX 17 25 19 26 18 27 26 28 27 29 28 30 29 31 30 32 31 34 32 35
REMARK SMILES IDX 33 36 94 37 34 38 93 39 35 40 36 41 37 42 87 43 38 44 92 45
REMARK SMILES IDX 86 46 88 47 39 48 91 49 85 50 84 51 40 53 72 54 52 55 71 56
REMARK SMILES IDX 53 57 56 58 70 59 89 60 54 61 55 62 69 64 90 65 57 66 41 67
REMARK SMILES IDX 42 68 50 69 43 70 44 71 48 72 51 73 45 74 46 75 49 76 47 77
REMARK SMILES IDX 73 78 74 79 82 80 75 81 76 82 80 83 83 84 77 85 78 86 81 87
REMARK SMILES IDX 79 88 58 89 59 90 67 91 60 92 61 93 65 94 68 95 62 96 63 97
REMARK SMILES IDX 66 98 64 99
REMARK H PARENT 22 7 15 24 29 33 88 52 56 63
REMARK Flexibility Score: inf
ROOT
ATOM      1  C   UNL A   1      32.204  29.412  26.877  1.00  0.00     0.002 C 
ENDROOT
BRANCH   1   2
ATOM      2  C   UNL A   1      31.993  27.997  26.334  1.00  0.00     0.021 C 
BRANCH   2   3
ATOM      3  C   UNL A   1      33.212  27.094  26.336  1.00  0.00     0.116 C 
BRANCH   3   4
ATOM      4  N   UNL A   1      32.945  25.694  26.135  1.00  0.00    -0.353 N 
ATOM      5  O   UNL A   1      34.961  25.124  25.169  1.00  0.00    -0.271 OA
ATOM      6  C   UNL A   1      33.940  24.799  25.767  1.00  0.00     0.257 C 
ATOM      7  H   UNL A   1      32.027  25.360  26.263  1.00  0.00     0.163 HD
BRANCH   6   8
ATOM      8  C   UNL A   1      33.666  23.367  26.228  1.00  0.00     0.329 C 
BRANCH   8   9
ATOM      9  O   UNL A   1      32.263  23.171  26.020  1.00  0.00    -0.483 OA
BRANCH   9  10
ATOM     10  C   UNL A   1      31.931  22.397  24.939  1.00  0.00     0.127 A 
ATOM     11  C   UNL A   1      32.352  21.061  25.004  1.00  0.00     0.047 A 
ATOM     12  C   UNL A   1      31.500  22.983  23.726  1.00  0.00     0.017 A 
ATOM     13  C   UNL A   1      32.429  20.301  23.843  1.00  0.00     0.004 A 
ATOM     14  C   UNL A   1      31.725  22.232  22.568  1.00  0.00     0.012 A 
ATOM     15  C   UNL A   1      32.161  20.902  22.621  1.00  0.00     0.001 A 
BRANCH  12  16
ATOM     16  C   UNL A   1      30.889  24.342  23.672  1.00  0.00     0.026 C 
ATOM     17  C   UNL A   1      31.332  25.498  23.129  1.00  0.00     0.050 C 
ATOM     18  C   UNL A   1      32.650  25.809  22.439  1.00  0.00     0.256 C 
ATOM     19  C   UNL A   1      30.569  26.771  23.102  1.00  0.00     0.011 A 
ATOM     20  O   UNL A   1      33.567  25.074  22.137  1.00  0.00    -0.269 OA
ATOM     21  N   UNL A   1      32.622  27.168  22.179  1.00  0.00    -0.321 N 
ATOM     22  C   UNL A   1      31.411  27.734  22.540  1.00  0.00     0.049 A 
ATOM     23  C   UNL A   1      29.276  27.130  23.439  1.00  0.00     0.011 A 
ATOM     24  H   UNL A   1      33.370  27.672  21.784  1.00  0.00     0.170 HD
ATOM     25  C   UNL A   1      31.034  29.049  22.334  1.00  0.00     0.027 A 
ATOM     26  C   UNL A   1      28.865  28.457  23.243  1.00  0.00     0.001 A 
ATOM     27  C   UNL A   1      29.739  29.411  22.700  1.00  0.00     0.002 A 
ENDBRANCH  12  16
ENDBRANCH   9  10
ENDBRANCH   8   9
ENDBRANCH   6   8
ENDBRANCH   3   4
ENDBRANCH   2   3
ENDBRANCH   1   2
BRANCH   1  28
ATOM     28  C   UNL A   1      31.802  30.577  25.967  1.00  0.00     0.002 C 
BRANCH  28  29
ATOM     29  C   UNL A   1      31.469  31.905  26.646  1.00  0.00     0.021 C 
BRANCH  29  30
ATOM     30  C   UNL A   1      32.633  32.646  27.297  1.00  0.00     0.116 C 
BRANCH  30  31
ATOM     31  N   UNL A   1      32.336  34.029  27.627  1.00  0.00    -0.352 N 
ATOM     32  C   UNL A   1      32.977  34.867  28.508  1.00  0.00     0.251 C 
ATOM     33  H   UNL A   1      31.568  34.421  27.152  1.00  0.00     0.163 HD
ATOM     34  O   UNL A   1      32.541  35.995  28.717  1.00  0.00    -0.269 OA
BRANCH  32  35
ATOM     35  C   UNL A   1      34.173  34.397  29.242  1.00  0.00     0.039 A 
ATOM     36  C   UNL A   1      33.999  33.788  30.488  1.00  0.00     0.014 A 
ATOM     37  C   UNL A   1      35.455  34.546  28.709  1.00  0.00     0.014 A 
ATOM     38  C   UNL A   1      35.101  33.263  31.168  1.00  0.00     0.010 A 
ATOM     39  C   UNL A   1      36.545  33.969  29.357  1.00  0.00     0.010 A 
ATOM     40  C   UNL A   1      36.380  33.317  30.590  1.00  0.00    -0.014 A 
BRANCH  40  41
ATOM     41  C   UNL A   1      37.557  32.696  31.249  1.00  0.00     0.031 A 
ATOM     42  C   UNL A   1      38.275  31.554  30.584  1.00  0.00     0.074 A 
ATOM     43  C   UNL A   1      37.925  33.099  32.482  1.00  0.00     0.049 A 
ATOM     44  N   UNL A   1      39.237  30.797  31.049  1.00  0.00    -0.248 NA
ATOM     45  C   UNL A   1      37.835  31.199  29.226  1.00  0.00     0.031 C 
ATOM     46  C   UNL A   1      37.286  34.170  33.248  1.00  0.00     0.029 A 
ATOM     47  N   UNL A   1      38.914  32.639  33.317  1.00  0.00    -0.354 N 
ATOM     48  C   UNL A   1      39.493  29.860  30.056  1.00  0.00     0.074 A 
ATOM     49  C   UNL A   1      38.568  30.123  28.976  1.00  0.00     0.031 C 
ATOM     50  C   UNL A   1      37.904  34.290  34.436  1.00  0.00     0.029 A 
ATOM     51  C   UNL A   1      38.953  33.279  34.532  1.00  0.00     0.049 A 
ATOM     52  H   UNL A   1      39.536  31.917  33.069  1.00  0.00     0.167 HD
ATOM     53  C   UNL A   1      40.427  28.879  30.045  1.00  0.00     0.037 A 
ATOM     54  C   UNL A   1      39.734  33.064  35.608  1.00  0.00     0.037 A 
ATOM     55  C   UNL A   1      41.380  28.654  31.098  1.00  0.00     0.049 A 
ATOM     56  C   UNL A   1      40.768  31.969  35.560  1.00  0.00     0.074 A 
ATOM     57  C   UNL A   1      42.421  27.742  31.137  1.00  0.00     0.029 A 
ATOM     58  N   UNL A   1      41.411  29.348  32.297  1.00  0.00    -0.354 N 
ATOM     59  N   UNL A   1      41.050  31.140  34.586  1.00  0.00    -0.248 NA
ATOM     60  C   UNL A   1      41.595  31.784  36.761  1.00  0.00     0.031 C 
ATOM     61  C   UNL A   1      43.055  27.855  32.377  1.00  0.00     0.029 A 
ATOM     62  C   UNL A   1      42.438  28.868  33.093  1.00  0.00     0.049 A 
ATOM     63  H   UNL A   1      40.794  30.073  32.547  1.00  0.00     0.167 HD
ATOM     64  C   UNL A   1      42.107  30.363  35.040  1.00  0.00     0.074 A 
ATOM     65  C   UNL A   1      42.422  30.823  36.375  1.00  0.00     0.031 C 
ATOM     66  C   UNL A   1      42.758  29.357  34.408  1.00  0.00     0.037 A 
BRANCH  53  67
ATOM     67  C   UNL A   1      40.474  27.968  28.855  1.00  0.00     0.064 A 
ATOM     68  C   UNL A   1      39.718  26.788  28.800  1.00  0.00     0.173 A 
ATOM     69  C   UNL A   1      41.226  28.320  27.724  1.00  0.00     0.173 A 
ATOM     70  F   UNL A   1      38.991  26.402  29.859  1.00  0.00    -0.203 F 
ATOM     71  C   UNL A   1      39.725  25.987  27.661  1.00  0.00     0.198 A 
ATOM     72  C   UNL A   1      41.209  27.531  26.577  1.00  0.00     0.198 A 
ATOM     73  F   UNL A   1      41.960  29.443  27.723  1.00  0.00    -0.203 F 
ATOM     74  F   UNL A   1      39.019  24.847  27.641  1.00  0.00    -0.200 F 
ATOM     75  C   UNL A   1      40.462  26.364  26.548  1.00  0.00     0.200 A 
ATOM     76  F   UNL A   1      41.912  27.904  25.498  1.00  0.00    -0.200 F 
ATOM     77  F   UNL A   1      40.453  25.600  25.447  1.00  0.00    -0.200 F 
ENDBRANCH  53  67
BRANCH  54  78
ATOM     78  C   UNL A   1      39.584  33.901  36.828  1.00  0.00     0.064 A 
ATOM     79  C   UNL A   1      38.788  33.475  37.899  1.00  0.00     0.173 A 
ATOM     80  C   UNL A   1      40.198  35.158  36.932  1.00  0.00     0.173 A 
ATOM     81  F   UNL A   1      38.160  32.291  37.836  1.00  0.00    -0.203 F 
ATOM     82  C   UNL A   1      38.584  34.285  39.013  1.00  0.00     0.198 A 
ATOM     83  C   UNL A   1      40.019  35.955  38.059  1.00  0.00     0.198 A 
ATOM     84  F   UNL A   1      40.973  35.613  35.935  1.00  0.00    -0.203 F 
ATOM     85  F   UNL A   1      37.768  33.879  39.996  1.00  0.00    -0.200 F 
ATOM     86  C   UNL A   1      39.201  35.524  39.094  1.00  0.00     0.200 A 
ATOM     87  F   UNL A   1      40.625  37.147  38.138  1.00  0.00    -0.200 F 
ATOM     88  F   UNL A   1      38.999  36.308  40.162  1.00  0.00    -0.200 F 
ENDBRANCH  54  78
BRANCH  66  89
ATOM     89  C   UNL A   1      43.913  28.722  35.123  1.00  0.00     0.064 A 
ATOM     90  C   UNL A   1      43.744  27.595  35.940  1.00  0.00     0.173 A 
ATOM     91  C   UNL A   1      45.214  29.217  34.944  1.00  0.00     0.173 A 
ATOM     92  F   UNL A   1      42.517  27.096  36.155  1.00  0.00    -0.203 F 
ATOM     93  C   UNL A   1      44.834  26.998  36.566  1.00  0.00     0.198 A 
ATOM     94  C   UNL A   1      46.304  28.600  35.548  1.00  0.00     0.198 A 
ATOM     95  F   UNL A   1      45.428  30.289  34.166  1.00  0.00    -0.203 F 
ATOM     96  F   UNL A   1      44.645  25.945  37.374  1.00  0.00    -0.200 F 
ATOM     97  C   UNL A   1      46.113  27.494  36.363  1.00  0.00     0.200 A 
ATOM     98  F   UNL A   1      47.541  29.072  35.340  1.00  0.00    -0.200 F 
ATOM     99  F   UNL A   1      47.162  26.910  36.958  1.00  0.00    -0.200 F 
ENDBRANCH  66  89
ENDBRANCH  40  41
ENDBRANCH  32  35
ENDBRANCH  30  31
ENDBRANCH  29  30
ENDBRANCH  28  29
ENDBRANCH   1  28
TORSDOF 16
ENDMDL
