MODEL 1
REMARK VINA RESULT:     -11.7      0.000      0.000
REMARK SMILES Cc1ccc([C@H]2CC(c3cccs3)=NN2C(=O)CCC(=O)NCCCCCCNC(=O)c2ccc(-c3c4nc(c(-c5c(F)c(F)c(F)c(F)c5F)c5ccc([nH]5)c(-c5c(F)c(F)c(F)c(F)c5F)c5nc(c(-c6c(F)c(F)c(F)c(F)c6F)c6ccc3[nH]6)C=C5)C=C4)cc2)o1
REMARK SMILES IDX 24 1 23 2 22 3 20 4 21 5 19 7 18 8 16 9 17 10 15 11 6 12
REMARK SMILES IDX 7 13 8 14 14 15 5 16 1 17 2 18 3 19 95 20 4 21 9 22 10 23
REMARK SMILES IDX 13 24 11 25 12 26 25 27 26 28 27 29 28 30 29 31 30 32 31 34
REMARK SMILES IDX 32 35 33 36 94 37 34 38 93 39 35 40 36 41 37 42 87 43 38 44
REMARK SMILES IDX 92 45 86 46 88 47 39 48 91 49 85 50 84 51 40 53 72 54 52 55
REMARK SMILES IDX 71 56 53 57 56 58 70 59 89 60 54 61 55 62 69 64 90 65 57 66
REMARK SMILES IDX 41 67 42 68 50 69 43 70 44 71 48 72 51 73 45 74 46 75 49 76
REMARK SMILES IDX 47 77 73 78 74 79 82 80 75 81 76 82 80 83 83 84 77 85 78 86
REMARK SMILES IDX 81 87 79 88 58 89 59 90 67 91 60 92 61 93 65 94 68 95 62 96
REMARK SMILES IDX 63 97 66 98 64 99
REMARK H PARENT 22 6 29 33 88 52 56 63
REMARK Flexibility Score: inf
ROOT
ATOM      1  C   UNL A   1      34.309  24.158  23.921  1.00  0.00     0.021 C 
ENDROOT
BRANCH   1   2
ATOM      2  C   UNL A   1      33.371  25.102  24.673  1.00  0.00     0.116 C 
BRANCH   2   3
ATOM      3  N   UNL A   1      33.021  24.769  26.040  1.00  0.00    -0.356 N 
ATOM      4  C   UNL A   1      31.988  24.034  26.527  1.00  0.00     0.220 C 
ATOM      5  O   UNL A   1      32.111  23.521  27.639  1.00  0.00    -0.275 OA
ATOM      6  H   UNL A   1      33.629  25.134  26.723  1.00  0.00     0.163 HD
BRANCH   4   7
ATOM      7  C   UNL A   1      30.701  23.906  25.749  1.00  0.00     0.110 C 
BRANCH   7   8
ATOM      8  C   UNL A   1      29.862  25.179  25.904  1.00  0.00     0.112 C 
BRANCH   8   9
ATOM      9  C   UNL A   1      29.873  25.934  24.595  1.00  0.00     0.243 C 
ATOM     10  O   UNL A   1      29.561  25.347  23.555  1.00  0.00    -0.273 OA
BRANCH   9  11
ATOM     11  N   UNL A   1      30.373  27.225  24.625  1.00  0.00    -0.222 N 
ATOM     12  C   UNL A   1      30.576  28.098  23.469  1.00  0.00     0.183 C 
ATOM     13  C   UNL A   1      31.853  28.862  23.821  1.00  0.00     0.095 C 
ATOM     14  C   UNL A   1      31.948  28.533  25.277  1.00  0.00     0.081 C 
ATOM     15  N   UNL A   1      31.160  27.593  25.683  1.00  0.00    -0.173 NA
BRANCH  12  16
ATOM     16  C   UNL A   1      29.409  29.003  23.281  1.00  0.00     0.129 A 
ATOM     17  C   UNL A   1      28.576  32.472  23.187  1.00  0.00     0.087 C 
ATOM     18  C   UNL A   1      28.507  31.000  23.156  1.00  0.00     0.101 A 
ATOM     19  C   UNL A   1      27.501  30.102  22.872  1.00  0.00     0.045 A 
ATOM     20  O   UNL A   1      29.663  30.337  23.430  1.00  0.00    -0.464 OA
ATOM     21  C   UNL A   1      28.080  28.815  22.960  1.00  0.00     0.048 A 
ENDBRANCH  12  16
BRANCH  14  22
ATOM     22  C   UNL A   1      32.902  29.119  26.172  1.00  0.00     0.050 A 
ATOM     23  C   UNL A   1      34.172  28.684  26.487  1.00  0.00     0.022 A 
ATOM     24  S   UNL A   1      32.557  30.644  26.859  1.00  0.00    -0.142 S 
ATOM     25  C   UNL A   1      34.881  29.635  27.279  1.00  0.00     0.012 A 
ATOM     26  C   UNL A   1      34.125  30.760  27.531  1.00  0.00     0.065 A 
ENDBRANCH  14  22
ENDBRANCH   9  11
ENDBRANCH   8   9
ENDBRANCH   7   8
ENDBRANCH   4   7
ENDBRANCH   2   3
ENDBRANCH   1   2
BRANCH   1  27
ATOM     27  C   UNL A   1      34.202  22.644  24.128  1.00  0.00     0.002 C 
BRANCH  27  28
ATOM     28  C   UNL A   1      35.488  21.838  24.318  1.00  0.00     0.002 C 
BRANCH  28  29
ATOM     29  C   UNL A   1      36.777  22.650  24.252  1.00  0.00     0.021 C 
BRANCH  29  30
ATOM     30  C   UNL A   1      37.355  22.984  25.620  1.00  0.00     0.116 C 
BRANCH  30  31
ATOM     31  N   UNL A   1      38.568  22.245  25.961  1.00  0.00    -0.352 N 
ATOM     32  C   UNL A   1      39.683  22.748  26.596  1.00  0.00     0.251 C 
ATOM     33  H   UNL A   1      38.592  21.293  25.711  1.00  0.00     0.163 HD
ATOM     34  O   UNL A   1      40.694  22.083  26.783  1.00  0.00    -0.269 OA
BRANCH  32  35
ATOM     35  C   UNL A   1      39.626  24.164  26.999  1.00  0.00     0.039 A 
ATOM     36  C   UNL A   1      39.255  24.478  28.306  1.00  0.00     0.014 A 
ATOM     37  C   UNL A   1      40.168  25.126  26.145  1.00  0.00     0.014 A 
ATOM     38  C   UNL A   1      39.532  25.752  28.797  1.00  0.00     0.010 A 
ATOM     39  C   UNL A   1      40.522  26.363  26.663  1.00  0.00     0.010 A 
ATOM     40  C   UNL A   1      40.224  26.679  27.999  1.00  0.00    -0.014 A 
BRANCH  40  41
ATOM     41  C   UNL A   1      40.673  27.978  28.549  1.00  0.00     0.031 A 
ATOM     42  C   UNL A   1      42.125  28.182  28.871  1.00  0.00     0.074 A 
ATOM     43  C   UNL A   1      39.764  28.931  28.833  1.00  0.00     0.049 A 
ATOM     44  N   UNL A   1      42.714  29.212  29.420  1.00  0.00    -0.248 NA
ATOM     45  C   UNL A   1      43.028  27.061  28.568  1.00  0.00     0.031 C 
ATOM     46  C   UNL A   1      38.317  28.807  28.636  1.00  0.00     0.029 A 
ATOM     47  N   UNL A   1      39.918  30.189  29.357  1.00  0.00    -0.354 N 
ATOM     48  C   UNL A   1      44.050  28.856  29.539  1.00  0.00     0.074 A 
ATOM     49  C   UNL A   1      44.173  27.494  29.070  1.00  0.00     0.031 C 
ATOM     50  C   UNL A   1      37.721  29.952  29.009  1.00  0.00     0.029 A 
ATOM     51  C   UNL A   1      38.738  30.880  29.495  1.00  0.00     0.049 A 
ATOM     52  H   UNL A   1      40.793  30.563  29.612  1.00  0.00     0.167 HD
ATOM     53  C   UNL A   1      45.087  29.613  29.967  1.00  0.00     0.037 A 
ATOM     54  C   UNL A   1      38.509  32.124  29.956  1.00  0.00     0.037 A 
ATOM     55  C   UNL A   1      44.956  30.974  30.408  1.00  0.00     0.049 A 
ATOM     56  C   UNL A   1      39.684  32.958  30.392  1.00  0.00     0.074 A 
ATOM     57  C   UNL A   1      45.940  31.847  30.831  1.00  0.00     0.029 A 
ATOM     58  N   UNL A   1      43.751  31.661  30.476  1.00  0.00    -0.354 N 
ATOM     59  N   UNL A   1      40.955  32.637  30.433  1.00  0.00    -0.248 NA
ATOM     60  C   UNL A   1      39.397  34.330  30.831  1.00  0.00     0.031 C 
ATOM     61  C   UNL A   1      45.328  33.058  31.177  1.00  0.00     0.029 A 
ATOM     62  C   UNL A   1      43.968  32.950  30.935  1.00  0.00     0.049 A 
ATOM     63  H   UNL A   1      42.873  31.289  30.234  1.00  0.00     0.167 HD
ATOM     64  C   UNL A   1      41.622  33.771  30.876  1.00  0.00     0.074 A 
ATOM     65  C   UNL A   1      40.615  34.794  31.073  1.00  0.00     0.031 C 
ATOM     66  C   UNL A   1      42.946  33.950  31.105  1.00  0.00     0.037 A 
BRANCH  53  67
ATOM     67  C   UNL A   1      46.447  28.980  29.953  1.00  0.00     0.064 A 
ATOM     68  C   UNL A   1      46.952  28.310  31.080  1.00  0.00     0.173 A 
ATOM     69  C   UNL A   1      47.258  29.041  28.810  1.00  0.00     0.173 A 
ATOM     70  F   UNL A   1      46.223  28.238  32.205  1.00  0.00    -0.203 F 
ATOM     71  C   UNL A   1      48.230  27.758  31.075  1.00  0.00     0.198 A 
ATOM     72  C   UNL A   1      48.523  28.461  28.798  1.00  0.00     0.198 A 
ATOM     73  F   UNL A   1      46.824  29.667  27.706  1.00  0.00    -0.203 F 
ATOM     74  F   UNL A   1      48.711  27.178  32.183  1.00  0.00    -0.200 F 
ATOM     75  C   UNL A   1      49.013  27.830  29.933  1.00  0.00     0.200 A 
ATOM     76  F   UNL A   1      49.276  28.521  27.691  1.00  0.00    -0.200 F 
ATOM     77  F   UNL A   1      50.243  27.299  29.929  1.00  0.00    -0.200 F 
ENDBRANCH  53  67
BRANCH  54  78
ATOM     78  C   UNL A   1      37.127  32.670  29.989  1.00  0.00     0.064 A 
ATOM     79  C   UNL A   1      36.627  33.429  28.922  1.00  0.00     0.173 A 
ATOM     80  C   UNL A   1      36.278  32.452  31.085  1.00  0.00     0.173 A 
ATOM     81  F   UNL A   1      37.405  33.680  27.859  1.00  0.00    -0.203 F 
ATOM     82  C   UNL A   1      35.343  33.970  28.958  1.00  0.00     0.198 A 
ATOM     83  C   UNL A   1      34.985  32.971  31.109  1.00  0.00     0.198 A 
ATOM     84  F   UNL A   1      36.703  31.725  32.129  1.00  0.00    -0.203 F 
ATOM     85  F   UNL A   1      34.910  34.731  27.944  1.00  0.00    -0.200 F 
ATOM     86  C   UNL A   1      34.521  33.737  30.050  1.00  0.00     0.200 A 
ATOM     87  F   UNL A   1      34.188  32.731  32.160  1.00  0.00    -0.200 F 
ATOM     88  F   UNL A   1      33.287  34.256  30.085  1.00  0.00    -0.200 F 
ENDBRANCH  54  78
BRANCH  66  89
ATOM     89  C   UNL A   1      43.380  35.309  31.562  1.00  0.00     0.064 A 
ATOM     90  C   UNL A   1      43.806  36.286  30.653  1.00  0.00     0.173 A 
ATOM     91  C   UNL A   1      43.324  35.651  32.922  1.00  0.00     0.173 A 
ATOM     92  F   UNL A   1      43.891  36.000  29.344  1.00  0.00    -0.203 F 
ATOM     93  C   UNL A   1      44.182  37.553  31.090  1.00  0.00     0.198 A 
ATOM     94  C   UNL A   1      43.673  36.926  33.353  1.00  0.00     0.198 A 
ATOM     95  F   UNL A   1      42.917  34.749  33.829  1.00  0.00    -0.203 F 
ATOM     96  F   UNL A   1      44.625  38.459  30.209  1.00  0.00    -0.200 F 
ATOM     97  C   UNL A   1      44.108  37.874  32.437  1.00  0.00     0.200 A 
ATOM     98  F   UNL A   1      43.592  37.238  34.653  1.00  0.00    -0.200 F 
ATOM     99  F   UNL A   1      44.462  39.097  32.856  1.00  0.00    -0.200 F 
ENDBRANCH  66  89
ENDBRANCH  40  41
ENDBRANCH  32  35
ENDBRANCH  30  31
ENDBRANCH  29  30
ENDBRANCH  28  29
ENDBRANCH  27  28
ENDBRANCH   1  27
TORSDOF 18
ENDMDL
MODEL 2
REMARK VINA RESULT:     -11.6      1.212      1.815
REMARK SMILES Cc1ccc([C@H]2CC(c3cccs3)=NN2C(=O)CCC(=O)NCCCCCCNC(=O)c2ccc(-c3c4nc(c(-c5c(F)c(F)c(F)c(F)c5F)c5ccc([nH]5)c(-c5c(F)c(F)c(F)c(F)c5F)c5nc(c(-c6c(F)c(F)c(F)c(F)c6F)c6ccc3[nH]6)C=C5)C=C4)cc2)o1
REMARK SMILES IDX 24 1 23 2 22 3 20 4 21 5 19 7 18 8 16 9 17 10 15 11 6 12
REMARK SMILES IDX 7 13 8 14 14 15 5 16 1 17 2 18 3 19 95 20 4 21 9 22 10 23
REMARK SMILES IDX 13 24 11 25 12 26 25 27 26 28 27 29 28 30 29 31 30 32 31 34
REMARK SMILES IDX 32 35 33 36 94 37 34 38 93 39 35 40 36 41 37 42 87 43 38 44
REMARK SMILES IDX 92 45 86 46 88 47 39 48 91 49 85 50 84 51 40 53 72 54 52 55
REMARK SMILES IDX 71 56 53 57 56 58 70 59 89 60 54 61 55 62 69 64 90 65 57 66
REMARK SMILES IDX 41 67 42 68 50 69 43 70 44 71 48 72 51 73 45 74 46 75 49 76
REMARK SMILES IDX 47 77 73 78 74 79 82 80 75 81 76 82 80 83 83 84 77 85 78 86
REMARK SMILES IDX 81 87 79 88 58 89 59 90 67 91 60 92 61 93 65 94 68 95 62 96
REMARK SMILES IDX 63 97 66 98 64 99
REMARK H PARENT 22 6 29 33 88 52 56 63
REMARK Flexibility Score: inf
ROOT
ATOM      1  C   UNL A   1      34.374  21.559  26.410  1.00  0.00     0.021 C 
ENDROOT
BRANCH   1   2
ATOM      2  C   UNL A   1      32.875  21.425  26.142  1.00  0.00     0.116 C 
BRANCH   2   3
ATOM      3  N   UNL A   1      31.960  22.151  27.001  1.00  0.00    -0.356 N 
ATOM      4  C   UNL A   1      30.877  22.908  26.688  1.00  0.00     0.220 C 
ATOM      5  O   UNL A   1      30.011  23.070  27.547  1.00  0.00    -0.275 OA
ATOM      6  H   UNL A   1      32.155  22.084  27.964  1.00  0.00     0.163 HD
BRANCH   4   7
ATOM      7  C   UNL A   1      30.775  23.585  25.342  1.00  0.00     0.110 C 
BRANCH   7   8
ATOM      8  C   UNL A   1      30.402  25.061  25.521  1.00  0.00     0.112 C 
BRANCH   8   9
ATOM      9  C   UNL A   1      30.490  25.754  24.181  1.00  0.00     0.243 C 
ATOM     10  O   UNL A   1      30.472  25.078  23.149  1.00  0.00    -0.273 OA
BRANCH   9  11
ATOM     11  N   UNL A   1      30.728  27.117  24.199  1.00  0.00    -0.222 N 
ATOM     12  C   UNL A   1      30.822  27.992  23.030  1.00  0.00     0.183 C 
ATOM     13  C   UNL A   1      31.905  28.997  23.425  1.00  0.00     0.095 C 
ATOM     14  C   UNL A   1      31.980  28.720  24.893  1.00  0.00     0.081 C 
ATOM     15  N   UNL A   1      31.367  27.652  25.285  1.00  0.00    -0.173 NA
BRANCH  12  16
ATOM     16  C   UNL A   1      29.514  28.648  22.756  1.00  0.00     0.129 A 
ATOM     17  C   UNL A   1      28.079  31.263  20.796  1.00  0.00     0.087 C 
ATOM     18  C   UNL A   1      28.273  30.142  21.735  1.00  0.00     0.101 A 
ATOM     19  C   UNL A   1      27.411  29.367  22.480  1.00  0.00     0.045 A 
ATOM     20  O   UNL A   1      29.555  29.726  21.918  1.00  0.00    -0.464 OA
ATOM     21  C   UNL A   1      28.212  28.408  23.144  1.00  0.00     0.048 A 
ENDBRANCH  12  16
BRANCH  14  22
ATOM     22  C   UNL A   1      32.749  29.497  25.818  1.00  0.00     0.050 A 
ATOM     23  C   UNL A   1      32.424  30.695  26.420  1.00  0.00     0.022 A 
ATOM     24  S   UNL A   1      34.205  28.847  26.430  1.00  0.00    -0.142 S 
ATOM     25  C   UNL A   1      33.372  31.065  27.420  1.00  0.00     0.012 A 
ATOM     26  C   UNL A   1      34.378  30.131  27.545  1.00  0.00     0.065 A 
ENDBRANCH  14  22
ENDBRANCH   9  11
ENDBRANCH   8   9
ENDBRANCH   7   8
ENDBRANCH   4   7
ENDBRANCH   2   3
ENDBRANCH   1   2
BRANCH   1  27
ATOM     27  C   UNL A   1      35.381  21.298  25.286  1.00  0.00     0.002 C 
BRANCH  27  28
ATOM     28  C   UNL A   1      35.465  22.296  24.130  1.00  0.00     0.002 C 
BRANCH  28  29
ATOM     29  C   UNL A   1      36.783  23.057  24.028  1.00  0.00     0.021 C 
BRANCH  29  30
ATOM     30  C   UNL A   1      37.428  23.337  25.378  1.00  0.00     0.116 C 
BRANCH  30  31
ATOM     31  N   UNL A   1      38.666  22.601  25.621  1.00  0.00    -0.352 N 
ATOM     32  C   UNL A   1      39.773  23.061  26.303  1.00  0.00     0.251 C 
ATOM     33  H   UNL A   1      38.715  21.686  25.262  1.00  0.00     0.163 HD
ATOM     34  O   UNL A   1      40.805  22.410  26.404  1.00  0.00    -0.269 OA
BRANCH  32  35
ATOM     35  C   UNL A   1      39.678  24.418  26.868  1.00  0.00     0.039 A 
ATOM     36  C   UNL A   1      39.158  24.578  28.152  1.00  0.00     0.014 A 
ATOM     37  C   UNL A   1      40.322  25.466  26.208  1.00  0.00     0.014 A 
ATOM     38  C   UNL A   1      39.384  25.777  28.825  1.00  0.00     0.010 A 
ATOM     39  C   UNL A   1      40.621  26.622  26.913  1.00  0.00     0.010 A 
ATOM     40  C   UNL A   1      40.170  26.779  28.233  1.00  0.00    -0.014 A 
BRANCH  40  41
ATOM     41  C   UNL A   1      40.560  27.992  28.988  1.00  0.00     0.031 A 
ATOM     42  C   UNL A   1      41.940  28.088  29.571  1.00  0.00     0.074 A 
ATOM     43  C   UNL A   1      39.648  28.958  29.214  1.00  0.00     0.049 A 
ATOM     44  N   UNL A   1      42.459  29.026  30.320  1.00  0.00    -0.248 NA
ATOM     45  C   UNL A   1      42.844  26.958  29.308  1.00  0.00     0.031 C 
ATOM     46  C   UNL A   1      38.254  28.929  28.763  1.00  0.00     0.029 A 
ATOM     47  N   UNL A   1      39.751  30.147  29.889  1.00  0.00    -0.354 N 
ATOM     48  C   UNL A   1      43.741  28.592  30.625  1.00  0.00     0.074 A 
ATOM     49  C   UNL A   1      43.898  27.278  30.040  1.00  0.00     0.031 C 
ATOM     50  C   UNL A   1      37.641  30.060  29.150  1.00  0.00     0.029 A 
ATOM     51  C   UNL A   1      38.588  30.881  29.898  1.00  0.00     0.049 A 
ATOM     52  H   UNL A   1      40.580  30.448  30.327  1.00  0.00     0.167 HD
ATOM     53  C   UNL A   1      44.713  29.247  31.302  1.00  0.00     0.037 A 
ATOM     54  C   UNL A   1      38.325  32.082  30.445  1.00  0.00     0.037 A 
ATOM     55  C   UNL A   1      44.552  30.562  31.858  1.00  0.00     0.049 A 
ATOM     56  C   UNL A   1      39.433  32.807  31.161  1.00  0.00     0.074 A 
ATOM     57  C   UNL A   1      45.477  31.337  32.532  1.00  0.00     0.029 A 
ATOM     58  N   UNL A   1      43.377  31.301  31.793  1.00  0.00    -0.354 N 
ATOM     59  N   UNL A   1      40.667  32.419  31.382  1.00  0.00    -0.248 NA
ATOM     60  C   UNL A   1      39.121  34.142  31.689  1.00  0.00     0.031 C 
ATOM     61  C   UNL A   1      44.855  32.537  32.898  1.00  0.00     0.029 A 
ATOM     62  C   UNL A   1      43.555  32.524  32.418  1.00  0.00     0.049 A 
ATOM     63  H   UNL A   1      42.543  31.000  31.367  1.00  0.00     0.167 HD
ATOM     64  C   UNL A   1      41.283  33.466  32.051  1.00  0.00     0.074 A 
ATOM     65  C   UNL A   1      40.293  34.515  32.183  1.00  0.00     0.031 C 
ATOM     66  C   UNL A   1      42.552  33.553  32.519  1.00  0.00     0.037 A 
BRANCH  53  67
ATOM     67  C   UNL A   1      46.032  28.549  31.451  1.00  0.00     0.064 A 
ATOM     68  C   UNL A   1      46.296  27.712  32.547  1.00  0.00     0.173 A 
ATOM     69  C   UNL A   1      47.046  28.715  30.496  1.00  0.00     0.173 A 
ATOM     70  F   UNL A   1      45.365  27.533  33.498  1.00  0.00    -0.203 F 
ATOM     71  C   UNL A   1      47.535  27.098  32.701  1.00  0.00     0.198 A 
ATOM     72  C   UNL A   1      48.274  28.075  30.636  1.00  0.00     0.198 A 
ATOM     73  F   UNL A   1      46.847  29.502  29.428  1.00  0.00    -0.203 F 
ATOM     74  F   UNL A   1      47.781  26.353  33.787  1.00  0.00    -0.200 F 
ATOM     75  C   UNL A   1      48.522  27.276  31.744  1.00  0.00     0.200 A 
ATOM     76  F   UNL A   1      49.225  28.239  29.706  1.00  0.00    -0.200 F 
ATOM     77  F   UNL A   1      49.715  26.684  31.893  1.00  0.00    -0.200 F 
ENDBRANCH  53  67
BRANCH  54  78
ATOM     78  C   UNL A   1      36.977  32.693  30.301  1.00  0.00     0.064 A 
ATOM     79  C   UNL A   1      36.031  32.600  31.332  1.00  0.00     0.173 A 
ATOM     80  C   UNL A   1      36.602  33.375  29.134  1.00  0.00     0.173 A 
ATOM     81  F   UNL A   1      36.335  31.945  32.461  1.00  0.00    -0.203 F 
ATOM     82  C   UNL A   1      34.755  33.144  31.193  1.00  0.00     0.198 A 
ATOM     83  C   UNL A   1      35.334  33.940  29.006  1.00  0.00     0.198 A 
ATOM     84  F   UNL A   1      37.471  33.500  28.120  1.00  0.00    -0.203 F 
ATOM     85  F   UNL A   1      33.857  33.000  32.177  1.00  0.00    -0.200 F 
ATOM     86  C   UNL A   1      34.409  33.817  30.032  1.00  0.00     0.200 A 
ATOM     87  F   UNL A   1      35.008  34.603  27.887  1.00  0.00    -0.200 F 
ATOM     88  F   UNL A   1      33.183  34.340  29.898  1.00  0.00    -0.200 F 
ENDBRANCH  54  78
BRANCH  66  89
ATOM     89  C   UNL A   1      42.946  34.835  33.187  1.00  0.00     0.064 A 
ATOM     90  C   UNL A   1      43.372  35.946  32.446  1.00  0.00     0.173 A 
ATOM     91  C   UNL A   1      42.850  34.967  34.580  1.00  0.00     0.173 A 
ATOM     92  F   UNL A   1      43.494  35.862  31.111  1.00  0.00    -0.203 F 
ATOM     93  C   UNL A   1      43.709  37.139  33.078  1.00  0.00     0.198 A 
ATOM     94  C   UNL A   1      43.162  36.169  35.207  1.00  0.00     0.198 A 
ATOM     95  F   UNL A   1      42.442  33.932  35.330  1.00  0.00    -0.203 F 
ATOM     96  F   UNL A   1      44.153  38.176  32.355  1.00  0.00    -0.200 F 
ATOM     97  C   UNL A   1      43.597  37.252  34.456  1.00  0.00     0.200 A 
ATOM     98  F   UNL A   1      43.043  36.281  36.536  1.00  0.00    -0.200 F 
ATOM     99  F   UNL A   1      43.914  38.404  35.063  1.00  0.00    -0.200 F 
ENDBRANCH  66  89
ENDBRANCH  40  41
ENDBRANCH  32  35
ENDBRANCH  30  31
ENDBRANCH  29  30
ENDBRANCH  28  29
ENDBRANCH  27  28
ENDBRANCH   1  27
TORSDOF 18
ENDMDL
MODEL 3
REMARK VINA RESULT:     -11.6      4.108      9.457
REMARK SMILES Cc1ccc([C@H]2CC(c3cccs3)=NN2C(=O)CCC(=O)NCCCCCCNC(=O)c2ccc(-c3c4nc(c(-c5c(F)c(F)c(F)c(F)c5F)c5ccc([nH]5)c(-c5c(F)c(F)c(F)c(F)c5F)c5nc(c(-c6c(F)c(F)c(F)c(F)c6F)c6ccc3[nH]6)C=C5)C=C4)cc2)o1
REMARK SMILES IDX 24 1 23 2 22 3 20 4 21 5 19 7 18 8 16 9 17 10 15 11 6 12
REMARK SMILES IDX 7 13 8 14 14 15 5 16 1 17 2 18 3 19 95 20 4 21 9 22 10 23
REMARK SMILES IDX 13 24 11 25 12 26 25 27 26 28 27 29 28 30 29 31 30 32 31 34
REMARK SMILES IDX 32 35 33 36 94 37 34 38 93 39 35 40 36 41 37 42 87 43 38 44
REMARK SMILES IDX 92 45 86 46 88 47 39 48 91 49 85 50 84 51 40 53 72 54 52 55
REMARK SMILES IDX 71 56 53 57 56 58 70 59 89 60 54 61 55 62 69 64 90 65 57 66
REMARK SMILES IDX 41 67 42 68 50 69 43 70 44 71 48 72 51 73 45 74 46 75 49 76
REMARK SMILES IDX 47 77 73 78 74 79 82 80 75 81 76 82 80 83 83 84 77 85 78 86
REMARK SMILES IDX 81 87 79 88 58 89 59 90 67 91 60 92 61 93 65 94 68 95 62 96
REMARK SMILES IDX 63 97 66 98 64 99
REMARK H PARENT 22 6 29 33 88 52 56 63
REMARK Flexibility Score: inf
ROOT
ATOM      1  C   UNL A   1      30.967  26.059  26.132  1.00  0.00     0.021 C 
ENDROOT
BRANCH   1   2
ATOM      2  C   UNL A   1      30.432  26.191  24.707  1.00  0.00     0.116 C 
BRANCH   2   3
ATOM      3  N   UNL A   1      31.216  26.948  23.751  1.00  0.00    -0.356 N 
ATOM      4  C   UNL A   1      32.292  26.578  23.009  1.00  0.00     0.220 C 
ATOM      5  O   UNL A   1      32.530  27.202  21.975  1.00  0.00    -0.275 OA
ATOM      6  H   UNL A   1      30.921  27.878  23.618  1.00  0.00     0.163 HD
BRANCH   4   7
ATOM      7  C   UNL A   1      33.204  25.470  23.478  1.00  0.00     0.110 C 
BRANCH   7   8
ATOM      8  C   UNL A   1      33.100  24.266  22.534  1.00  0.00     0.112 C 
BRANCH   8   9
ATOM      9  C   UNL A   1      32.489  23.107  23.288  1.00  0.00     0.243 C 
ATOM     10  O   UNL A   1      31.270  23.085  23.479  1.00  0.00    -0.273 OA
BRANCH   9  11
ATOM     11  N   UNL A   1      33.368  22.194  23.845  1.00  0.00    -0.222 N 
ATOM     12  C   UNL A   1      33.007  21.054  24.689  1.00  0.00     0.183 C 
ATOM     13  C   UNL A   1      34.154  20.984  25.698  1.00  0.00     0.095 C 
ATOM     14  C   UNL A   1      35.139  21.884  25.021  1.00  0.00     0.081 C 
ATOM     15  N   UNL A   1      34.668  22.577  24.038  1.00  0.00    -0.173 NA
BRANCH  12  16
ATOM     16  C   UNL A   1      32.891  19.813  23.877  1.00  0.00     0.129 A 
ATOM     17  C   UNL A   1      34.022  16.429  23.805  1.00  0.00     0.087 C 
ATOM     18  C   UNL A   1      33.360  17.706  23.481  1.00  0.00     0.101 A 
ATOM     19  C   UNL A   1      32.454  18.088  22.517  1.00  0.00     0.045 A 
ATOM     20  O   UNL A   1      33.649  18.757  24.295  1.00  0.00    -0.464 OA
ATOM     21  C   UNL A   1      32.156  19.448  22.767  1.00  0.00     0.048 A 
ENDBRANCH  12  16
BRANCH  14  22
ATOM     22  C   UNL A   1      36.489  22.072  25.462  1.00  0.00     0.050 A 
ATOM     23  C   UNL A   1      37.558  21.206  25.367  1.00  0.00     0.022 A 
ATOM     24  S   UNL A   1      36.956  23.606  26.051  1.00  0.00    -0.142 S 
ATOM     25  C   UNL A   1      38.783  21.826  25.755  1.00  0.00     0.012 A 
ATOM     26  C   UNL A   1      38.600  23.141  26.125  1.00  0.00     0.065 A 
ENDBRANCH  14  22
ENDBRANCH   9  11
ENDBRANCH   8   9
ENDBRANCH   7   8
ENDBRANCH   4   7
ENDBRANCH   2   3
ENDBRANCH   1   2
BRANCH   1  27
ATOM     27  C   UNL A   1      32.097  26.974  26.615  1.00  0.00     0.002 C 
BRANCH  27  28
ATOM     28  C   UNL A   1      31.731  28.303  27.278  1.00  0.00     0.002 C 
BRANCH  28  29
ATOM     29  C   UNL A   1      31.637  29.495  26.330  1.00  0.00     0.021 C 
BRANCH  29  30
ATOM     30  C   UNL A   1      32.885  30.366  26.326  1.00  0.00     0.116 C 
BRANCH  30  31
ATOM     31  N   UNL A   1      32.690  31.705  26.876  1.00  0.00    -0.352 N 
ATOM     32  C   UNL A   1      33.593  32.420  27.634  1.00  0.00     0.251 C 
ATOM     33  H   UNL A   1      31.827  32.140  26.688  1.00  0.00     0.163 HD
ATOM     34  O   UNL A   1      33.329  33.511  28.123  1.00  0.00    -0.269 OA
BRANCH  32  35
ATOM     35  C   UNL A   1      34.896  31.776  27.882  1.00  0.00     0.039 A 
ATOM     36  C   UNL A   1      36.024  32.580  28.041  1.00  0.00     0.014 A 
ATOM     37  C   UNL A   1      34.923  30.413  28.186  1.00  0.00     0.014 A 
ATOM     38  C   UNL A   1      37.168  32.029  28.614  1.00  0.00     0.010 A 
ATOM     39  C   UNL A   1      36.031  29.892  28.836  1.00  0.00     0.010 A 
ATOM     40  C   UNL A   1      37.155  30.700  29.072  1.00  0.00    -0.014 A 
BRANCH  40  41
ATOM     41  C   UNL A   1      38.298  30.141  29.830  1.00  0.00     0.031 A 
ATOM     42  C   UNL A   1      38.531  30.579  31.246  1.00  0.00     0.074 A 
ATOM     43  C   UNL A   1      39.162  29.311  29.214  1.00  0.00     0.049 A 
ATOM     44  N   UNL A   1      39.506  30.266  32.060  1.00  0.00    -0.248 NA
ATOM     45  C   UNL A   1      37.557  31.526  31.810  1.00  0.00     0.031 C 
ATOM     46  C   UNL A   1      39.077  28.884  27.815  1.00  0.00     0.029 A 
ATOM     47  N   UNL A   1      40.290  28.684  29.681  1.00  0.00    -0.354 N 
ATOM     48  C   UNL A   1      39.267  30.987  33.221  1.00  0.00     0.074 A 
ATOM     49  C   UNL A   1      38.097  31.804  32.985  1.00  0.00     0.031 C 
ATOM     50  C   UNL A   1      40.091  28.046  27.546  1.00  0.00     0.029 A 
ATOM     51  C   UNL A   1      40.913  27.896  28.743  1.00  0.00     0.049 A 
ATOM     52  H   UNL A   1      40.623  28.790  30.602  1.00  0.00     0.167 HD
ATOM     53  C   UNL A   1      39.943  30.942  34.393  1.00  0.00     0.037 A 
ATOM     54  C   UNL A   1      42.020  27.136  28.846  1.00  0.00     0.037 A 
ATOM     55  C   UNL A   1      41.089  30.109  34.624  1.00  0.00     0.049 A 
ATOM     56  C   UNL A   1      42.732  27.075  30.171  1.00  0.00     0.074 A 
ATOM     57  C   UNL A   1      41.832  29.956  35.780  1.00  0.00     0.029 A 
ATOM     58  N   UNL A   1      41.656  29.276  33.668  1.00  0.00    -0.354 N 
ATOM     59  N   UNL A   1      42.456  27.706  31.287  1.00  0.00    -0.248 NA
ATOM     60  C   UNL A   1      43.899  26.187  30.257  1.00  0.00     0.031 C 
ATOM     61  C   UNL A   1      42.864  29.047  35.517  1.00  0.00     0.029 A 
ATOM     62  C   UNL A   1      42.741  28.606  34.209  1.00  0.00     0.049 A 
ATOM     63  H   UNL A   1      41.335  29.175  32.743  1.00  0.00     0.167 HD
ATOM     64  C   UNL A   1      43.395  27.275  32.213  1.00  0.00     0.074 A 
ATOM     65  C   UNL A   1      44.238  26.313  31.532  1.00  0.00     0.031 C 
ATOM     66  C   UNL A   1      43.551  27.644  33.508  1.00  0.00     0.037 A 
BRANCH  53  67
ATOM     67  C   UNL A   1      39.435  31.808  35.509  1.00  0.00     0.064 A 
ATOM     68  C   UNL A   1      38.494  31.329  36.435  1.00  0.00     0.173 A 
ATOM     69  C   UNL A   1      39.887  33.127  35.658  1.00  0.00     0.173 A 
ATOM     70  F   UNL A   1      38.017  30.079  36.326  1.00  0.00    -0.203 F 
ATOM     71  C   UNL A   1      37.998  32.148  37.444  1.00  0.00     0.198 A 
ATOM     72  C   UNL A   1      39.412  33.935  36.687  1.00  0.00     0.198 A 
ATOM     73  F   UNL A   1      40.787  33.635  34.802  1.00  0.00    -0.203 F 
ATOM     74  F   UNL A   1      37.056  31.686  38.277  1.00  0.00    -0.200 F 
ATOM     75  C   UNL A   1      38.460  33.449  37.573  1.00  0.00     0.200 A 
ATOM     76  F   UNL A   1      39.865  35.189  36.818  1.00  0.00    -0.200 F 
ATOM     77  F   UNL A   1      37.981  34.238  38.545  1.00  0.00    -0.200 F 
ENDBRANCH  53  67
BRANCH  54  78
ATOM     78  C   UNL A   1      42.495  26.342  27.682  1.00  0.00     0.064 A 
ATOM     79  C   UNL A   1      41.965  25.073  27.412  1.00  0.00     0.173 A 
ATOM     80  C   UNL A   1      43.491  26.828  26.821  1.00  0.00     0.173 A 
ATOM     81  F   UNL A   1      41.024  24.557  28.215  1.00  0.00    -0.203 F 
ATOM     82  C   UNL A   1      42.427  24.310  26.341  1.00  0.00     0.198 A 
ATOM     83  C   UNL A   1      43.934  26.075  25.735  1.00  0.00     0.198 A 
ATOM     84  F   UNL A   1      44.026  28.040  27.029  1.00  0.00    -0.203 F 
ATOM     85  F   UNL A   1      41.934  23.081  26.135  1.00  0.00    -0.200 F 
ATOM     86  C   UNL A   1      43.408  24.813  25.501  1.00  0.00     0.200 A 
ATOM     87  F   UNL A   1      44.872  26.571  24.916  1.00  0.00    -0.200 F 
ATOM     88  F   UNL A   1      43.852  24.080  24.471  1.00  0.00    -0.200 F 
ENDBRANCH  54  78
BRANCH  66  89
ATOM     89  C   UNL A   1      44.653  26.980  34.276  1.00  0.00     0.064 A 
ATOM     90  C   UNL A   1      44.451  25.766  34.946  1.00  0.00     0.173 A 
ATOM     91  C   UNL A   1      45.937  27.544  34.302  1.00  0.00     0.173 A 
ATOM     92  F   UNL A   1      43.236  25.197  34.962  1.00  0.00    -0.203 F 
ATOM     93  C   UNL A   1      45.492  25.149  35.634  1.00  0.00     0.198 A 
ATOM     94  C   UNL A   1      46.982  26.911  34.967  1.00  0.00     0.198 A 
ATOM     95  F   UNL A   1      46.180  28.703  33.670  1.00  0.00    -0.203 F 
ATOM     96  F   UNL A   1      45.268  24.010  36.302  1.00  0.00    -0.200 F 
ATOM     97  C   UNL A   1      46.757  25.718  35.638  1.00  0.00     0.200 A 
ATOM     98  F   UNL A   1      48.206  27.455  34.961  1.00  0.00    -0.200 F 
ATOM     99  F   UNL A   1      47.760  25.118  36.294  1.00  0.00    -0.200 F 
ENDBRANCH  66  89
ENDBRANCH  40  41
ENDBRANCH  32  35
ENDBRANCH  30  31
ENDBRANCH  29  30
ENDBRANCH  28  29
ENDBRANCH  27  28
ENDBRANCH   1  27
TORSDOF 18
ENDMDL
