MODEL 1
REMARK VINA RESULT:     -11.8      0.000      0.000
REMARK SMILES COc1ncccc1NS(=O)(=O)c1ccc(Br)c(C(=O)NCCCCCCNC(=O)c2ccc(-c3c4nc(c(-c5c(F)c(F)c(F)c(F)c5F)c5ccc([nH]5)c(-c5c(F)c(F)c(F)c(F)c5F)c5nc(c(-c6c(F)c(F)c(F)c(F)c6F)c6ccc3[nH]6)C=C5)C=C4)cc2)c1
REMARK SMILES IDX 23 1 22 2 21 3 19 4 20 5 18 7 13 8 14 9 94 10 15 11 16 12
REMARK SMILES IDX 17 13 10 14 11 15 12 16 9 17 8 19 3 20 4 21 5 22 7 23 6 24
REMARK SMILES IDX 2 25 1 26 24 27 25 28 26 29 27 30 28 31 29 32 30 34 31 35
REMARK SMILES IDX 32 36 93 37 33 38 92 39 34 40 35 41 36 42 86 43 37 44 91 45
REMARK SMILES IDX 85 46 87 47 38 48 90 49 84 50 83 51 39 53 71 54 51 55 70 56
REMARK SMILES IDX 52 57 55 58 69 59 88 60 53 61 54 62 68 64 89 65 56 66 40 67
REMARK SMILES IDX 41 68 49 69 42 70 43 71 47 72 50 73 44 74 45 75 48 76 46 77
REMARK SMILES IDX 72 78 73 79 81 80 74 81 75 82 79 83 82 84 76 85 77 86 80 87
REMARK SMILES IDX 78 88 57 89 58 90 66 91 59 92 60 93 64 94 67 95 61 96 62 97
REMARK SMILES IDX 65 98 63 99
REMARK H PARENT 21 6 9 18 28 33 87 52 55 63
REMARK Flexibility Score: inf
ROOT
ATOM      1  C   UNL A   1      35.385  22.395  24.794  1.00  0.00     0.021 C 
ENDROOT
BRANCH   1   2
ATOM      2  C   UNL A   1      35.295  23.593  25.738  1.00  0.00     0.116 C 
BRANCH   2   3
ATOM      3  N   UNL A   1      33.995  23.808  26.337  1.00  0.00    -0.352 N 
ATOM      4  C   UNL A   1      32.816  24.260  25.791  1.00  0.00     0.252 C 
ATOM      5  O   UNL A   1      31.813  24.258  26.508  1.00  0.00    -0.269 OA
ATOM      6  H   UNL A   1      33.946  23.595  27.296  1.00  0.00     0.163 HD
BRANCH   4   7
ATOM      7  C   UNL A   1      32.709  24.874  24.439  1.00  0.00     0.055 A 
ATOM      8  C   UNL A   1      32.635  27.012  23.248  1.00  0.00     0.088 A 
ATOM      9  C   UNL A   1      32.636  26.346  22.023  1.00  0.00     0.023 A 
ATOM     10  C   UNL A   1      32.656  26.283  24.444  1.00  0.00     0.037 A 
ATOM     11  C   UNL A   1      32.598  24.951  22.008  1.00  0.00     0.018 A 
ATOM     12  C   UNL A   1      32.582  24.216  23.209  1.00  0.00     0.030 A 
ATOM     13  Br  UNL A   1      32.131  22.380  23.024  1.00  0.00    -0.050 Br
BRANCH   8  14
ATOM     14  S   UNL A   1      32.473  28.776  23.305  1.00  0.00     0.262 S 
ATOM     15  O   UNL A   1      33.758  29.355  22.967  1.00  0.00    -0.201 OA
ATOM     16  O   UNL A   1      31.831  29.120  24.556  1.00  0.00    -0.201 OA
BRANCH  14  17
ATOM     17  N   UNL A   1      31.382  29.260  22.099  1.00  0.00    -0.274 N 
ATOM     18  H   UNL A   1      31.686  29.353  21.167  1.00  0.00     0.180 HD
BRANCH  17  19
ATOM     19  C   UNL A   1      30.012  29.532  22.443  1.00  0.00     0.111 A 
ATOM     20  C   UNL A   1      29.118  28.523  22.827  1.00  0.00     0.238 A 
ATOM     21  N   UNL A   1      27.827  28.739  23.159  1.00  0.00    -0.220 NA
ATOM     22  C   UNL A   1      27.409  30.022  23.149  1.00  0.00     0.115 A 
ATOM     23  C   UNL A   1      29.539  30.844  22.438  1.00  0.00     0.034 A 
ATOM     24  C   UNL A   1      28.219  31.095  22.809  1.00  0.00     0.023 A 
BRANCH  20  25
ATOM     25  O   UNL A   1      29.480  27.201  22.805  1.00  0.00    -0.480 OA
ATOM     26  C   UNL A   1      28.971  26.508  23.935  1.00  0.00     0.280 C 
ENDBRANCH  20  25
ENDBRANCH  17  19
ENDBRANCH  14  17
ENDBRANCH   8  14
ENDBRANCH   4   7
ENDBRANCH   2   3
ENDBRANCH   1   2
BRANCH   1  27
ATOM     27  C   UNL A   1      36.282  21.227  25.228  1.00  0.00     0.002 C 
BRANCH  27  28
ATOM     28  C   UNL A   1      37.780  21.321  24.918  1.00  0.00     0.002 C 
BRANCH  28  29
ATOM     29  C   UNL A   1      38.587  20.022  24.951  1.00  0.00     0.021 C 
BRANCH  29  30
ATOM     30  C   UNL A   1      39.403  19.761  26.212  1.00  0.00     0.116 C 
BRANCH  30  31
ATOM     31  N   UNL A   1      40.525  18.865  25.995  1.00  0.00    -0.352 N 
ATOM     32  C   UNL A   1      41.875  19.123  25.978  1.00  0.00     0.251 C 
ATOM     33  H   UNL A   1      40.282  17.925  25.834  1.00  0.00     0.163 HD
ATOM     34  O   UNL A   1      42.661  18.237  25.655  1.00  0.00    -0.269 OA
BRANCH  32  35
ATOM     35  C   UNL A   1      42.398  20.467  26.322  1.00  0.00     0.039 A 
ATOM     36  C   UNL A   1      42.898  21.272  25.293  1.00  0.00     0.014 A 
ATOM     37  C   UNL A   1      42.434  20.926  27.641  1.00  0.00     0.014 A 
ATOM     38  C   UNL A   1      43.372  22.556  25.577  1.00  0.00     0.010 A 
ATOM     39  C   UNL A   1      42.843  22.231  27.915  1.00  0.00     0.010 A 
ATOM     40  C   UNL A   1      43.317  23.060  26.886  1.00  0.00    -0.014 A 
BRANCH  40  41
ATOM     41  C   UNL A   1      43.750  24.448  27.195  1.00  0.00     0.031 A 
ATOM     42  C   UNL A   1      42.765  25.453  27.724  1.00  0.00     0.074 A 
ATOM     43  C   UNL A   1      45.020  24.823  26.942  1.00  0.00     0.049 A 
ATOM     44  N   UNL A   1      42.935  26.726  27.985  1.00  0.00    -0.248 NA
ATOM     45  C   UNL A   1      41.397  24.968  27.970  1.00  0.00     0.031 C 
ATOM     46  C   UNL A   1      46.062  23.957  26.391  1.00  0.00     0.029 A 
ATOM     47  N   UNL A   1      45.647  26.034  27.104  1.00  0.00    -0.354 N 
ATOM     48  C   UNL A   1      41.698  27.194  28.409  1.00  0.00     0.074 A 
ATOM     49  C   UNL A   1      40.775  26.083  28.324  1.00  0.00     0.031 C 
ATOM     50  C   UNL A   1      47.202  24.657  26.277  1.00  0.00     0.029 A 
ATOM     51  C   UNL A   1      46.963  26.031  26.709  1.00  0.00     0.049 A 
ATOM     52  H   UNL A   1      45.196  26.831  27.467  1.00  0.00     0.167 HD
ATOM     53  C   UNL A   1      41.369  28.432  28.850  1.00  0.00     0.037 A 
ATOM     54  C   UNL A   1      47.872  27.025  26.690  1.00  0.00     0.037 A 
ATOM     55  C   UNL A   1      42.294  29.529  28.957  1.00  0.00     0.049 A 
ATOM     56  C   UNL A   1      47.476  28.393  27.175  1.00  0.00     0.074 A 
ATOM     57  C   UNL A   1      42.070  30.803  29.448  1.00  0.00     0.029 A 
ATOM     58  N   UNL A   1      43.624  29.482  28.561  1.00  0.00    -0.354 N 
ATOM     59  N   UNL A   1      46.322  28.807  27.636  1.00  0.00    -0.248 NA
ATOM     60  C   UNL A   1      48.515  29.433  27.142  1.00  0.00     0.031 C 
ATOM     61  C   UNL A   1      43.250  31.542  29.306  1.00  0.00     0.029 A 
ATOM     62  C   UNL A   1      44.225  30.713  28.775  1.00  0.00     0.049 A 
ATOM     63  H   UNL A   1      44.073  28.692  28.183  1.00  0.00     0.167 HD
ATOM     64  C   UNL A   1      46.501  30.141  27.973  1.00  0.00     0.074 A 
ATOM     65  C   UNL A   1      47.881  30.465  27.679  1.00  0.00     0.031 C 
ATOM     66  C   UNL A   1      45.601  31.020  28.481  1.00  0.00     0.037 A 
BRANCH  53  67
ATOM     67  C   UNL A   1      39.941  28.668  29.254  1.00  0.00     0.064 A 
ATOM     68  C   UNL A   1      39.504  28.458  30.571  1.00  0.00     0.173 A 
ATOM     69  C   UNL A   1      39.006  29.146  28.323  1.00  0.00     0.173 A 
ATOM     70  F   UNL A   1      40.354  27.994  31.498  1.00  0.00    -0.203 F 
ATOM     71  C   UNL A   1      38.179  28.689  30.933  1.00  0.00     0.198 A 
ATOM     72  C   UNL A   1      37.690  29.404  28.694  1.00  0.00     0.198 A 
ATOM     73  F   UNL A   1      39.373  29.370  27.051  1.00  0.00    -0.203 F 
ATOM     74  F   UNL A   1      37.774  28.434  32.184  1.00  0.00    -0.200 F 
ATOM     75  C   UNL A   1      37.275  29.168  29.996  1.00  0.00     0.200 A 
ATOM     76  F   UNL A   1      36.821  29.882  27.792  1.00  0.00    -0.200 F 
ATOM     77  F   UNL A   1      36.002  29.396  30.347  1.00  0.00    -0.200 F 
ENDBRANCH  53  67
BRANCH  54  78
ATOM     78  C   UNL A   1      49.253  26.757  26.211  1.00  0.00     0.064 A 
ATOM     79  C   UNL A   1      49.614  27.004  24.879  1.00  0.00     0.173 A 
ATOM     80  C   UNL A   1      50.237  26.243  27.068  1.00  0.00     0.173 A 
ATOM     81  F   UNL A   1      48.701  27.474  24.016  1.00  0.00    -0.203 F 
ATOM     82  C   UNL A   1      50.899  26.729  24.418  1.00  0.00     0.198 A 
ATOM     83  C   UNL A   1      51.531  25.997  26.613  1.00  0.00     0.198 A 
ATOM     84  F   UNL A   1      49.945  25.992  28.353  1.00  0.00    -0.203 F 
ATOM     85  F   UNL A   1      51.203  26.931  23.129  1.00  0.00    -0.200 F 
ATOM     86  C   UNL A   1      51.859  26.232  25.287  1.00  0.00     0.200 A 
ATOM     87  F   UNL A   1      52.459  25.528  27.459  1.00  0.00    -0.200 F 
ATOM     88  F   UNL A   1      53.096  25.970  24.844  1.00  0.00    -0.200 F 
ENDBRANCH  54  78
BRANCH  66  89
ATOM     89  C   UNL A   1      46.090  32.408  28.781  1.00  0.00     0.064 A 
ATOM     90  C   UNL A   1      46.652  32.738  30.022  1.00  0.00     0.173 A 
ATOM     91  C   UNL A   1      46.029  33.409  27.800  1.00  0.00     0.173 A 
ATOM     92  F   UNL A   1      46.719  31.821  30.999  1.00  0.00    -0.203 F 
ATOM     93  C   UNL A   1      47.112  34.027  30.280  1.00  0.00     0.198 A 
ATOM     94  C   UNL A   1      46.518  34.688  28.050  1.00  0.00     0.198 A 
ATOM     95  F   UNL A   1      45.506  33.143  26.593  1.00  0.00    -0.203 F 
ATOM     96  F   UNL A   1      47.601  34.333  31.489  1.00  0.00    -0.200 F 
ATOM     97  C   UNL A   1      47.052  34.998  29.290  1.00  0.00     0.200 A 
ATOM     98  F   UNL A   1      46.471  35.621  27.088  1.00  0.00    -0.200 F 
ATOM     99  F   UNL A   1      47.502  36.236  29.538  1.00  0.00    -0.200 F 
ENDBRANCH  66  89
ENDBRANCH  40  41
ENDBRANCH  32  35
ENDBRANCH  30  31
ENDBRANCH  29  30
ENDBRANCH  28  29
ENDBRANCH  27  28
ENDBRANCH   1  27
TORSDOF 17
ENDMDL
MODEL 2
REMARK VINA RESULT:     -11.6      1.719      2.345
REMARK SMILES COc1ncccc1NS(=O)(=O)c1ccc(Br)c(C(=O)NCCCCCCNC(=O)c2ccc(-c3c4nc(c(-c5c(F)c(F)c(F)c(F)c5F)c5ccc([nH]5)c(-c5c(F)c(F)c(F)c(F)c5F)c5nc(c(-c6c(F)c(F)c(F)c(F)c6F)c6ccc3[nH]6)C=C5)C=C4)cc2)c1
REMARK SMILES IDX 23 1 22 2 21 3 19 4 20 5 18 7 13 8 14 9 94 10 15 11 16 12
REMARK SMILES IDX 17 13 10 14 11 15 12 16 9 17 8 19 3 20 4 21 5 22 7 23 6 24
REMARK SMILES IDX 2 25 1 26 24 27 25 28 26 29 27 30 28 31 29 32 30 34 31 35
REMARK SMILES IDX 32 36 93 37 33 38 92 39 34 40 35 41 36 42 86 43 37 44 91 45
REMARK SMILES IDX 85 46 87 47 38 48 90 49 84 50 83 51 39 53 71 54 51 55 70 56
REMARK SMILES IDX 52 57 55 58 69 59 88 60 53 61 54 62 68 64 89 65 56 66 40 67
REMARK SMILES IDX 41 68 49 69 42 70 43 71 47 72 50 73 44 74 45 75 48 76 46 77
REMARK SMILES IDX 72 78 73 79 81 80 74 81 75 82 79 83 82 84 76 85 77 86 80 87
REMARK SMILES IDX 78 88 57 89 58 90 66 91 59 92 60 93 64 94 67 95 61 96 62 97
REMARK SMILES IDX 65 98 63 99
REMARK H PARENT 21 6 9 18 28 33 87 52 55 63
REMARK Flexibility Score: inf
ROOT
ATOM      1  C   UNL A   1      37.522  23.219  25.512  1.00  0.00     0.021 C 
ENDROOT
BRANCH   1   2
ATOM      2  C   UNL A   1      36.143  23.707  25.955  1.00  0.00     0.116 C 
BRANCH   2   3
ATOM      3  N   UNL A   1      35.432  22.815  26.846  1.00  0.00    -0.352 N 
ATOM      4  C   UNL A   1      34.289  22.075  26.654  1.00  0.00     0.252 C 
ATOM      5  O   UNL A   1      33.943  21.308  27.557  1.00  0.00    -0.269 OA
ATOM      6  H   UNL A   1      35.834  22.723  27.739  1.00  0.00     0.163 HD
BRANCH   4   7
ATOM      7  C   UNL A   1      33.377  22.241  25.489  1.00  0.00     0.055 A 
ATOM      8  C   UNL A   1      31.880  23.824  24.372  1.00  0.00     0.088 A 
ATOM      9  C   UNL A   1      31.675  22.918  23.331  1.00  0.00     0.023 A 
ATOM     10  C   UNL A   1      32.710  23.482  25.447  1.00  0.00     0.037 A 
ATOM     11  C   UNL A   1      32.260  21.653  23.408  1.00  0.00     0.018 A 
ATOM     12  C   UNL A   1      33.065  21.294  24.506  1.00  0.00     0.030 A 
ATOM     13  Br  UNL A   1      33.447  19.439  24.653  1.00  0.00    -0.050 Br
BRANCH   8  14
ATOM     14  S   UNL A   1      30.989  25.356  24.410  1.00  0.00     0.262 S 
ATOM     15  O   UNL A   1      30.740  25.694  25.796  1.00  0.00    -0.201 OA
ATOM     16  O   UNL A   1      29.883  25.247  23.482  1.00  0.00    -0.201 OA
BRANCH  14  17
ATOM     17  N   UNL A   1      31.982  26.576  23.775  1.00  0.00    -0.274 N 
ATOM     18  H   UNL A   1      32.400  26.462  22.891  1.00  0.00     0.180 HD
BRANCH  17  19
ATOM     19  C   UNL A   1      32.210  27.777  24.533  1.00  0.00     0.111 A 
ATOM     20  C   UNL A   1      31.287  28.833  24.566  1.00  0.00     0.238 A 
ATOM     21  N   UNL A   1      31.464  29.974  25.266  1.00  0.00    -0.220 NA
ATOM     22  C   UNL A   1      32.591  30.060  26.004  1.00  0.00     0.115 A 
ATOM     23  C   UNL A   1      33.365  27.908  25.303  1.00  0.00     0.034 A 
ATOM     24  C   UNL A   1      33.554  29.063  26.061  1.00  0.00     0.023 A 
BRANCH  20  25
ATOM     25  O   UNL A   1      30.154  28.815  23.796  1.00  0.00    -0.480 OA
ATOM     26  C   UNL A   1      30.393  29.375  22.512  1.00  0.00     0.280 C 
ENDBRANCH  20  25
ENDBRANCH  17  19
ENDBRANCH  14  17
ENDBRANCH   8  14
ENDBRANCH   4   7
ENDBRANCH   2   3
ENDBRANCH   1   2
BRANCH   1  27
ATOM     27  C   UNL A   1      38.709  23.555  26.424  1.00  0.00     0.002 C 
BRANCH  27  28
ATOM     28  C   UNL A   1      39.672  22.421  26.792  1.00  0.00     0.002 C 
BRANCH  28  29
ATOM     29  C   UNL A   1      39.654  21.170  25.910  1.00  0.00     0.021 C 
BRANCH  29  30
ATOM     30  C   UNL A   1      40.074  19.864  26.576  1.00  0.00     0.116 C 
BRANCH  30  31
ATOM     31  N   UNL A   1      41.207  19.228  25.927  1.00  0.00    -0.352 N 
ATOM     32  C   UNL A   1      42.471  19.707  25.679  1.00  0.00     0.251 C 
ATOM     33  H   UNL A   1      41.045  18.309  25.615  1.00  0.00     0.163 HD
ATOM     34  O   UNL A   1      43.253  19.044  25.003  1.00  0.00    -0.269 OA
BRANCH  32  35
ATOM     35  C   UNL A   1      42.899  21.029  26.195  1.00  0.00     0.039 A 
ATOM     36  C   UNL A   1      43.226  22.031  25.275  1.00  0.00     0.014 A 
ATOM     37  C   UNL A   1      43.016  21.280  27.564  1.00  0.00     0.014 A 
ATOM     38  C   UNL A   1      43.605  23.299  25.727  1.00  0.00     0.010 A 
ATOM     39  C   UNL A   1      43.328  22.564  28.014  1.00  0.00     0.010 A 
ATOM     40  C   UNL A   1      43.627  23.586  27.100  1.00  0.00    -0.014 A 
BRANCH  40  41
ATOM     41  C   UNL A   1      43.959  24.948  27.596  1.00  0.00     0.031 A 
ATOM     42  C   UNL A   1      42.865  25.913  27.960  1.00  0.00     0.074 A 
ATOM     43  C   UNL A   1      45.247  25.339  27.662  1.00  0.00     0.049 A 
ATOM     44  N   UNL A   1      42.953  27.163  28.341  1.00  0.00    -0.248 NA
ATOM     45  C   UNL A   1      41.484  25.413  27.857  1.00  0.00     0.031 C 
ATOM     46  C   UNL A   1      46.399  24.513  27.300  1.00  0.00     0.029 A 
ATOM     47  N   UNL A   1      45.803  26.534  28.047  1.00  0.00    -0.354 N 
ATOM     48  C   UNL A   1      41.645  27.601  28.509  1.00  0.00     0.074 A 
ATOM     49  C   UNL A   1      40.781  26.500  28.139  1.00  0.00     0.031 C 
ATOM     50  C   UNL A   1      47.525  25.218  27.495  1.00  0.00     0.029 A 
ATOM     51  C   UNL A   1      47.174  26.557  27.959  1.00  0.00     0.049 A 
ATOM     52  H   UNL A   1      45.271  27.302  28.354  1.00  0.00     0.167 HD
ATOM     53  C   UNL A   1      41.206  28.804  28.950  1.00  0.00     0.037 A 
ATOM     54  C   UNL A   1      48.049  27.549  28.215  1.00  0.00     0.037 A 
ATOM     55  C   UNL A   1      42.068  29.890  29.341  1.00  0.00     0.049 A 
ATOM     56  C   UNL A   1      47.534  28.879  28.695  1.00  0.00     0.074 A 
ATOM     57  C   UNL A   1      41.720  31.125  29.858  1.00  0.00     0.029 A 
ATOM     58  N   UNL A   1      43.453  29.870  29.252  1.00  0.00    -0.354 N 
ATOM     59  N   UNL A   1      46.300  29.260  28.912  1.00  0.00    -0.248 NA
ATOM     60  C   UNL A   1      48.538  29.917  28.970  1.00  0.00     0.031 C 
ATOM     61  C   UNL A   1      42.890  31.871  30.038  1.00  0.00     0.029 A 
ATOM     62  C   UNL A   1      43.972  31.081  29.682  1.00  0.00     0.049 A 
ATOM     63  H   UNL A   1      43.987  29.108  28.930  1.00  0.00     0.167 HD
ATOM     64  C   UNL A   1      46.378  30.566  29.374  1.00  0.00     0.074 A 
ATOM     65  C   UNL A   1      47.784  30.909  29.422  1.00  0.00     0.031 C 
ATOM     66  C   UNL A   1      45.374  31.407  29.728  1.00  0.00     0.037 A 
BRANCH  53  67
ATOM     67  C   UNL A   1      39.721  29.012  29.038  1.00  0.00     0.064 A 
ATOM     68  C   UNL A   1      39.032  28.896  30.255  1.00  0.00     0.173 A 
ATOM     69  C   UNL A   1      38.983  29.370  27.900  1.00  0.00     0.173 A 
ATOM     70  F   UNL A   1      39.688  28.547  31.372  1.00  0.00    -0.203 F 
ATOM     71  C   UNL A   1      37.656  29.099  30.323  1.00  0.00     0.198 A 
ATOM     72  C   UNL A   1      37.613  29.602  27.976  1.00  0.00     0.198 A 
ATOM     73  F   UNL A   1      39.593  29.502  26.712  1.00  0.00    -0.203 F 
ATOM     74  F   UNL A   1      37.012  28.933  31.486  1.00  0.00    -0.200 F 
ATOM     75  C   UNL A   1      36.948  29.459  29.185  1.00  0.00     0.200 A 
ATOM     76  F   UNL A   1      36.933  29.965  26.879  1.00  0.00    -0.200 F 
ATOM     77  F   UNL A   1      35.626  29.661  29.253  1.00  0.00    -0.200 F 
ENDBRANCH  53  67
BRANCH  54  78
ATOM     78  C   UNL A   1      49.506  27.315  28.042  1.00  0.00     0.064 A 
ATOM     79  C   UNL A   1      50.114  27.454  26.786  1.00  0.00     0.173 A 
ATOM     80  C   UNL A   1      50.320  26.942  29.122  1.00  0.00     0.173 A 
ATOM     81  F   UNL A   1      49.372  27.787  25.719  1.00  0.00    -0.203 F 
ATOM     82  C   UNL A   1      51.474  27.209  26.612  1.00  0.00     0.198 A 
ATOM     83  C   UNL A   1      51.686  26.726  28.952  1.00  0.00     0.198 A 
ATOM     84  F   UNL A   1      49.790  26.798  30.345  1.00  0.00    -0.203 F 
ATOM     85  F   UNL A   1      52.018  27.303  25.392  1.00  0.00    -0.200 F 
ATOM     86  C   UNL A   1      52.260  26.851  27.696  1.00  0.00     0.200 A 
ATOM     87  F   UNL A   1      52.446  26.393  30.006  1.00  0.00    -0.200 F 
ATOM     88  F   UNL A   1      53.569  26.619  27.530  1.00  0.00    -0.200 F 
ENDBRANCH  54  78
BRANCH  66  89
ATOM     89  C   UNL A   1      45.762  32.769  30.228  1.00  0.00     0.064 A 
ATOM     90  C   UNL A   1      46.040  33.005  31.581  1.00  0.00     0.173 A 
ATOM     91  C   UNL A   1      45.894  33.841  29.333  1.00  0.00     0.173 A 
ATOM     92  F   UNL A   1      45.914  32.015  32.479  1.00  0.00    -0.203 F 
ATOM     93  C   UNL A   1      46.411  34.271  32.026  1.00  0.00     0.198 A 
ATOM     94  C   UNL A   1      46.295  35.099  29.776  1.00  0.00     0.198 A 
ATOM     95  F   UNL A   1      45.646  33.668  28.026  1.00  0.00    -0.203 F 
ATOM     96  F   UNL A   1      46.625  34.484  33.332  1.00  0.00    -0.200 F 
ATOM     97  C   UNL A   1      46.546  35.314  31.122  1.00  0.00     0.200 A 
ATOM     98  F   UNL A   1      46.437  36.103  28.899  1.00  0.00    -0.200 F 
ATOM     99  F   UNL A   1      46.910  36.531  31.551  1.00  0.00    -0.200 F 
ENDBRANCH  66  89
ENDBRANCH  40  41
ENDBRANCH  32  35
ENDBRANCH  30  31
ENDBRANCH  29  30
ENDBRANCH  28  29
ENDBRANCH  27  28
ENDBRANCH   1  27
TORSDOF 17
ENDMDL
MODEL 3
REMARK VINA RESULT:     -11.5      5.663     11.661
REMARK SMILES COc1ncccc1NS(=O)(=O)c1ccc(Br)c(C(=O)NCCCCCCNC(=O)c2ccc(-c3c4nc(c(-c5c(F)c(F)c(F)c(F)c5F)c5ccc([nH]5)c(-c5c(F)c(F)c(F)c(F)c5F)c5nc(c(-c6c(F)c(F)c(F)c(F)c6F)c6ccc3[nH]6)C=C5)C=C4)cc2)c1
REMARK SMILES IDX 23 1 22 2 21 3 19 4 20 5 18 7 13 8 14 9 94 10 15 11 16 12
REMARK SMILES IDX 17 13 10 14 11 15 12 16 9 17 8 19 3 20 4 21 5 22 7 23 6 24
REMARK SMILES IDX 2 25 1 26 24 27 25 28 26 29 27 30 28 31 29 32 30 34 31 35
REMARK SMILES IDX 32 36 93 37 33 38 92 39 34 40 35 41 36 42 86 43 37 44 91 45
REMARK SMILES IDX 85 46 87 47 38 48 90 49 84 50 83 51 39 53 71 54 51 55 70 56
REMARK SMILES IDX 52 57 55 58 69 59 88 60 53 61 54 62 68 64 89 65 56 66 40 67
REMARK SMILES IDX 41 68 49 69 42 70 43 71 47 72 50 73 44 74 45 75 48 76 46 77
REMARK SMILES IDX 72 78 73 79 81 80 74 81 75 82 79 83 82 84 76 85 77 86 80 87
REMARK SMILES IDX 78 88 57 89 58 90 66 91 59 92 60 93 64 94 67 95 61 96 62 97
REMARK SMILES IDX 65 98 63 99
REMARK H PARENT 21 6 9 18 28 33 87 52 55 63
REMARK Flexibility Score: inf
ROOT
ATOM      1  C   UNL A   1      44.827  24.375  28.436  1.00  0.00     0.021 C 
ENDROOT
BRANCH   1   2
ATOM      2  C   UNL A   1      45.709  23.435  27.616  1.00  0.00     0.116 C 
BRANCH   2   3
ATOM      3  N   UNL A   1      45.906  23.823  26.235  1.00  0.00    -0.352 N 
ATOM      4  C   UNL A   1      46.553  24.906  25.689  1.00  0.00     0.252 C 
ATOM      5  O   UNL A   1      46.663  24.951  24.461  1.00  0.00    -0.269 OA
ATOM      6  H   UNL A   1      45.511  23.208  25.577  1.00  0.00     0.163 HD
BRANCH   4   7
ATOM      7  C   UNL A   1      47.005  26.087  26.476  1.00  0.00     0.055 A 
ATOM      8  C   UNL A   1      46.557  28.456  26.904  1.00  0.00     0.088 A 
ATOM      9  C   UNL A   1      47.537  28.476  27.896  1.00  0.00     0.023 A 
ATOM     10  C   UNL A   1      46.305  27.277  26.190  1.00  0.00     0.037 A 
ATOM     11  C   UNL A   1      48.297  27.328  28.124  1.00  0.00     0.018 A 
ATOM     12  C   UNL A   1      48.070  26.152  27.382  1.00  0.00     0.030 A 
ATOM     13  Br  UNL A   1      49.428  24.832  27.529  1.00  0.00    -0.050 Br
BRANCH   8  14
ATOM     14  S   UNL A   1      45.720  29.949  26.446  1.00  0.00     0.262 S 
ATOM     15  O   UNL A   1      44.297  29.734  26.615  1.00  0.00    -0.201 OA
ATOM     16  O   UNL A   1      46.239  30.371  25.163  1.00  0.00    -0.201 OA
BRANCH  14  17
ATOM     17  N   UNL A   1      46.165  31.175  27.530  1.00  0.00    -0.274 N 
ATOM     18  H   UNL A   1      47.073  31.193  27.910  1.00  0.00     0.180 HD
BRANCH  17  19
ATOM     19  C   UNL A   1      45.211  32.189  27.892  1.00  0.00     0.111 A 
ATOM     20  C   UNL A   1      44.829  33.212  27.012  1.00  0.00     0.238 A 
ATOM     21  N   UNL A   1      43.936  34.179  27.315  1.00  0.00    -0.220 NA
ATOM     22  C   UNL A   1      43.361  34.109  28.534  1.00  0.00     0.115 A 
ATOM     23  C   UNL A   1      44.599  32.156  29.145  1.00  0.00     0.034 A 
ATOM     24  C   UNL A   1      43.649  33.124  29.467  1.00  0.00     0.023 A 
BRANCH  20  25
ATOM     25  O   UNL A   1      45.420  33.355  25.784  1.00  0.00    -0.480 OA
ATOM     26  C   UNL A   1      46.093  34.602  25.678  1.00  0.00     0.280 C 
ENDBRANCH  20  25
ENDBRANCH  17  19
ENDBRANCH  14  17
ENDBRANCH   8  14
ENDBRANCH   4   7
ENDBRANCH   2   3
ENDBRANCH   1   2
BRANCH   1  27
ATOM     27  C   UNL A   1      43.315  24.319  28.179  1.00  0.00     0.002 C 
BRANCH  27  28
ATOM     28  C   UNL A   1      42.512  23.214  28.872  1.00  0.00     0.002 C 
BRANCH  28  29
ATOM     29  C   UNL A   1      41.822  22.180  27.979  1.00  0.00     0.021 C 
BRANCH  29  30
ATOM     30  C   UNL A   1      41.700  22.534  26.502  1.00  0.00     0.116 C 
BRANCH  30  31
ATOM     31  N   UNL A   1      40.325  22.575  26.033  1.00  0.00    -0.352 N 
ATOM     32  C   UNL A   1      39.335  23.498  26.271  1.00  0.00     0.251 C 
ATOM     33  H   UNL A   1      40.060  21.824  25.455  1.00  0.00     0.163 HD
ATOM     34  O   UNL A   1      38.193  23.284  25.874  1.00  0.00    -0.269 OA
BRANCH  32  35
ATOM     35  C   UNL A   1      39.619  24.742  27.026  1.00  0.00     0.039 A 
ATOM     36  C   UNL A   1      39.156  24.845  28.342  1.00  0.00     0.014 A 
ATOM     37  C   UNL A   1      40.300  25.814  26.445  1.00  0.00     0.014 A 
ATOM     38  C   UNL A   1      39.431  25.993  29.092  1.00  0.00     0.010 A 
ATOM     39  C   UNL A   1      40.633  26.929  27.215  1.00  0.00     0.010 A 
ATOM     40  C   UNL A   1      40.202  27.031  28.546  1.00  0.00    -0.014 A 
BRANCH  40  41
ATOM     41  C   UNL A   1      40.564  28.226  29.352  1.00  0.00     0.031 A 
ATOM     42  C   UNL A   1      41.907  28.314  30.021  1.00  0.00     0.074 A 
ATOM     43  C   UNL A   1      39.659  29.209  29.534  1.00  0.00     0.049 A 
ATOM     44  N   UNL A   1      42.379  29.239  30.821  1.00  0.00    -0.248 NA
ATOM     45  C   UNL A   1      42.838  27.200  29.779  1.00  0.00     0.031 C 
ATOM     46  C   UNL A   1      38.308  29.225  28.973  1.00  0.00     0.029 A 
ATOM     47  N   UNL A   1      39.736  30.378  30.250  1.00  0.00    -0.354 N 
ATOM     48  C   UNL A   1      43.649  28.812  31.186  1.00  0.00     0.074 A 
ATOM     49  C   UNL A   1      43.856  27.523  30.563  1.00  0.00     0.031 C 
ATOM     50  C   UNL A   1      37.688  30.355  29.351  1.00  0.00     0.029 A 
ATOM     51  C   UNL A   1      38.583  31.124  30.211  1.00  0.00     0.049 A 
ATOM     52  H   UNL A   1      40.540  30.655  30.745  1.00  0.00     0.167 HD
ATOM     53  C   UNL A   1      44.566  29.448  31.954  1.00  0.00     0.037 A 
ATOM     54  C   UNL A   1      38.278  32.293  30.808  1.00  0.00     0.037 A 
ATOM     55  C   UNL A   1      44.368  30.742  32.553  1.00  0.00     0.049 A 
ATOM     56  C   UNL A   1      39.312  32.973  31.664  1.00  0.00     0.074 A 
ATOM     57  C   UNL A   1      45.258  31.496  33.297  1.00  0.00     0.029 A 
ATOM     58  N   UNL A   1      43.190  31.474  32.478  1.00  0.00    -0.354 N 
ATOM     59  N   UNL A   1      40.533  32.592  31.949  1.00  0.00    -0.248 NA
ATOM     60  C   UNL A   1      38.926  34.251  32.278  1.00  0.00     0.031 C 
ATOM     61  C   UNL A   1      44.606  32.662  33.713  1.00  0.00     0.029 A 
ATOM     62  C   UNL A   1      43.325  32.660  33.185  1.00  0.00     0.049 A 
ATOM     63  H   UNL A   1      42.379  31.193  31.996  1.00  0.00     0.167 HD
ATOM     64  C   UNL A   1      41.069  33.591  32.749  1.00  0.00     0.074 A 
ATOM     65  C   UNL A   1      40.045  34.606  32.892  1.00  0.00     0.031 C 
ATOM     66  C   UNL A   1      42.299  33.662  33.315  1.00  0.00     0.037 A 
BRANCH  53  67
ATOM     67  C   UNL A   1      45.876  28.752  32.191  1.00  0.00     0.064 A 
ATOM     68  C   UNL A   1      47.031  29.092  31.470  1.00  0.00     0.173 A 
ATOM     69  C   UNL A   1      45.989  27.761  33.177  1.00  0.00     0.173 A 
ATOM     70  F   UNL A   1      46.977  30.027  30.509  1.00  0.00    -0.203 F 
ATOM     71  C   UNL A   1      48.241  28.443  31.705  1.00  0.00     0.198 A 
ATOM     72  C   UNL A   1      47.206  27.136  33.432  1.00  0.00     0.198 A 
ATOM     73  F   UNL A   1      44.917  27.403  33.902  1.00  0.00    -0.203 F 
ATOM     74  F   UNL A   1      49.318  28.749  30.969  1.00  0.00    -0.200 F 
ATOM     75  C   UNL A   1      48.329  27.471  32.690  1.00  0.00     0.200 A 
ATOM     76  F   UNL A   1      47.294  26.207  34.395  1.00  0.00    -0.200 F 
ATOM     77  F   UNL A   1      49.495  26.853  32.921  1.00  0.00    -0.200 F 
ENDBRANCH  53  67
BRANCH  54  78
ATOM     78  C   UNL A   1      36.940  32.904  30.601  1.00  0.00     0.064 A 
ATOM     79  C   UNL A   1      35.949  32.820  31.589  1.00  0.00     0.173 A 
ATOM     80  C   UNL A   1      36.621  33.578  29.413  1.00  0.00     0.173 A 
ATOM     81  F   UNL A   1      36.200  32.166  32.733  1.00  0.00    -0.203 F 
ATOM     82  C   UNL A   1      34.684  33.367  31.389  1.00  0.00     0.198 A 
ATOM     83  C   UNL A   1      35.364  34.151  29.226  1.00  0.00     0.198 A 
ATOM     84  F   UNL A   1      37.534  33.690  28.437  1.00  0.00    -0.203 F 
ATOM     85  F   UNL A   1      33.741  33.231  32.331  1.00  0.00    -0.200 F 
ATOM     86  C   UNL A   1      34.394  34.038  30.211  1.00  0.00     0.200 A 
ATOM     87  F   UNL A   1      35.092  34.809  28.091  1.00  0.00    -0.200 F 
ATOM     88  F   UNL A   1      33.178  34.567  30.020  1.00  0.00    -0.200 F 
ENDBRANCH  54  78
BRANCH  66  89
ATOM     89  C   UNL A   1      42.618  34.893  34.115  1.00  0.00     0.064 A 
ATOM     90  C   UNL A   1      42.454  34.929  35.507  1.00  0.00     0.173 A 
ATOM     91  C   UNL A   1      43.133  36.035  33.484  1.00  0.00     0.173 A 
ATOM     92  F   UNL A   1      41.952  33.867  36.155  1.00  0.00    -0.203 F 
ATOM     93  C   UNL A   1      42.767  36.074  36.235  1.00  0.00     0.198 A 
ATOM     94  C   UNL A   1      43.473  37.168  34.218  1.00  0.00     0.198 A 
ATOM     95  F   UNL A   1      43.315  36.051  32.154  1.00  0.00    -0.203 F 
ATOM     96  F   UNL A   1      42.556  36.103  37.558  1.00  0.00    -0.200 F 
ATOM     97  C   UNL A   1      43.284  37.189  35.591  1.00  0.00     0.200 A 
ATOM     98  F   UNL A   1      43.985  38.239  33.596  1.00  0.00    -0.200 F 
ATOM     99  F   UNL A   1      43.592  38.287  36.295  1.00  0.00    -0.200 F 
ENDBRANCH  66  89
ENDBRANCH  40  41
ENDBRANCH  32  35
ENDBRANCH  30  31
ENDBRANCH  29  30
ENDBRANCH  28  29
ENDBRANCH  27  28
ENDBRANCH   1  27
TORSDOF 17
ENDMDL
