MODEL 1
REMARK VINA RESULT:     -13.0      0.000      0.000
REMARK SMILES Cc1cc(C[N@H+]2CC[C@@H](C(=O)NCCCCCCNC(=O)c3ccc(-c4c5nc(c(-c6c(F)c(F)c(F)c(F)c6F)c6ccc([nH]6)c(-c6c(F)c(F)c(F)c(F)c6F)c6nc(c(-c7c(F)c(F)c(F)c(F)c7F)c7ccc4[nH]7)C=C6)C=C5)cc3)[C@@H]2C)ccc1Br
REMARK SMILES IDX 15 1 14 2 13 3 12 4 10 5 11 6 9 8 6 9 7 10 85 11 8 13 86 14
REMARK SMILES IDX 5 15 4 16 1 17 2 18 3 19 89 20 88 21 90 22 87 23 16 24 17 25
REMARK SMILES IDX 18 26 19 27 20 28 21 30 22 31 23 32 84 33 24 34 83 35 25 36
REMARK SMILES IDX 26 37 27 38 77 39 28 40 82 41 76 42 78 43 29 44 81 45 75 46
REMARK SMILES IDX 74 47 30 49 62 50 42 51 61 52 43 53 46 54 60 55 79 56 44 57
REMARK SMILES IDX 45 58 59 60 80 61 47 62 31 63 32 64 40 65 33 66 34 67 38 68
REMARK SMILES IDX 41 69 35 70 36 71 39 72 37 73 63 74 64 75 72 76 65 77 66 78
REMARK SMILES IDX 70 79 73 80 67 81 68 82 71 83 69 84 48 85 49 86 57 87 50 88
REMARK SMILES IDX 51 89 55 90 58 91 52 92 53 93 56 94 54 95
REMARK H PARENT 12 7 6 12 19 29 78 48 46 59
REMARK Flexibility Score: inf
ROOT
ATOM      1  C   UNL A   1      34.900  33.089  29.079  1.00  0.00     0.002 C 
ENDROOT
BRANCH   1   2
ATOM      2  C   UNL A   1      35.191  31.903  27.833  1.00  0.00     0.021 C 
BRANCH   2   3
ATOM      3  C   UNL A   1      34.770  29.763  27.619  1.00  0.00     0.116 C 
BRANCH   3   4
ATOM      4  N   UNL A   1      33.453  28.901  27.900  1.00  0.00    -0.356 N 
ATOM      5  C   UNL A   1      32.468  28.369  27.135  1.00  0.00     0.229 C 
ATOM      6  O   UNL A   1      31.544  27.819  27.749  1.00  0.00    -0.275 OA
ATOM      7  H   UNL A   1      33.326  28.713  28.858  1.00  0.00     0.163 HD
BRANCH   5   8
ATOM      8  C   UNL A   1      32.427  28.413  25.614  1.00  0.00     0.142 C 
ATOM      9  N   UNL A   1      31.099  26.964  24.216  1.00  0.00    -0.328 N 
ATOM     10  C   UNL A   1      30.528  28.307  24.105  1.00  0.00     0.263 C 
ATOM     11  C   UNL A   1      32.383  27.053  24.922  1.00  0.00     0.193 C 
ATOM     12  H   UNL A   1      31.267  26.626  23.268  1.00  0.00     0.348 HD
ATOM     13  C   UNL A   1      31.297  29.241  25.031  1.00  0.00     0.081 C 
ATOM     14  C   UNL A   1      33.509  26.899  23.894  1.00  0.00     0.076 C 
BRANCH   9  15
ATOM     15  C   UNL A   1      30.196  25.915  24.704  1.00  0.00     0.299 C 
BRANCH  15  16
ATOM     16  C   UNL A   1      30.820  24.544  24.827  1.00  0.00     0.007 A 
ATOM     17  C   UNL A   1      33.235  22.232  27.801  1.00  0.00     0.045 C 
ATOM     18  C   UNL A   1      32.638  22.615  26.483  1.00  0.00    -0.036 A 
ATOM     19  C   UNL A   1      31.589  24.079  26.393  1.00  0.00     0.014 A 
ATOM     20  C   UNL A   1      32.954  21.638  24.996  1.00  0.00     0.020 A 
ATOM     21  C   UNL A   1      32.152  22.073  23.435  1.00  0.00     0.016 A 
ATOM     22  Br  UNL A   1      34.287  20.291  24.986  1.00  0.00    -0.051 Br
ATOM     23  C   UNL A   1      31.077  23.522  23.352  1.00  0.00     0.011 A 
ENDBRANCH  15  16
ENDBRANCH   9  15
ENDBRANCH   5   8
ENDBRANCH   3   4
ENDBRANCH   2   3
ENDBRANCH   1   2
BRANCH   1  24
ATOM     24  C   UNL A   1      35.255  34.549  28.744  1.00  0.00     0.002 C 
BRANCH  24  25
ATOM     25  C   UNL A   1      34.101  35.537  28.838  1.00  0.00     0.021 C 
BRANCH  25  26
ATOM     26  C   UNL A   1      32.940  34.982  29.641  1.00  0.00     0.116 C 
BRANCH  26  27
ATOM     27  N   UNL A   1      32.552  35.939  30.672  1.00  0.00    -0.352 N 
ATOM     28  C   UNL A   1      32.797  35.828  32.019  1.00  0.00     0.251 C 
ATOM     29  H   UNL A   1      32.066  36.743  30.373  1.00  0.00     0.163 HD
ATOM     30  O   UNL A   1      32.071  36.354  32.852  1.00  0.00    -0.269 OA
BRANCH  28  31
ATOM     31  C   UNL A   1      33.982  35.053  32.427  1.00  0.00     0.039 A 
ATOM     32  C   UNL A   1      33.856  33.730  32.844  1.00  0.00     0.014 A 
ATOM     33  C   UNL A   1      35.237  35.663  32.339  1.00  0.00     0.014 A 
ATOM     34  C   UNL A   1      35.009  33.009  33.149  1.00  0.00     0.010 A 
ATOM     35  C   UNL A   1      36.380  34.907  32.506  1.00  0.00     0.010 A 
ATOM     36  C   UNL A   1      36.277  33.588  32.962  1.00  0.00    -0.014 A 
BRANCH  36  37
ATOM     37  C   UNL A   1      37.518  32.855  33.294  1.00  0.00     0.031 A 
ATOM     38  C   UNL A   1      38.242  33.163  34.576  1.00  0.00     0.074 A 
ATOM     39  C   UNL A   1      38.017  31.969  32.415  1.00  0.00     0.049 A 
ATOM     40  N   UNL A   1      39.348  32.649  35.046  1.00  0.00    -0.248 NA
ATOM     41  C   UNL A   1      37.675  34.227  35.420  1.00  0.00     0.031 C 
ATOM     42  C   UNL A   1      37.445  31.667  31.102  1.00  0.00     0.029 A 
ATOM     43  N   UNL A   1      39.122  31.162  32.493  1.00  0.00    -0.354 N 
ATOM     44  C   UNL A   1      39.612  33.339  36.222  1.00  0.00     0.074 A 
ATOM     45  C   UNL A   1      38.606  34.366  36.348  1.00  0.00     0.031 C 
ATOM     46  C   UNL A   1      38.177  30.707  30.516  1.00  0.00     0.029 A 
ATOM     47  C   UNL A   1      39.287  30.355  31.396  1.00  0.00     0.049 A 
ATOM     48  H   UNL A   1      39.736  31.161  33.262  1.00  0.00     0.167 HD
ATOM     49  C   UNL A   1      40.584  33.109  37.136  1.00  0.00     0.037 A 
ATOM     50  C   UNL A   1      40.228  29.428  31.138  1.00  0.00     0.037 A 
ATOM     51  C   UNL A   1      41.561  32.063  37.005  1.00  0.00     0.049 A 
ATOM     52  C   UNL A   1      41.277  29.159  32.181  1.00  0.00     0.074 A 
ATOM     53  C   UNL A   1      42.540  31.676  37.899  1.00  0.00     0.029 A 
ATOM     54  N   UNL A   1      41.683  31.238  35.893  1.00  0.00    -0.354 N 
ATOM     55  N   UNL A   1      41.459  29.744  33.342  1.00  0.00    -0.248 NA
ATOM     56  C   UNL A   1      42.240  28.093  31.885  1.00  0.00     0.031 C 
ATOM     57  C   UNL A   1      43.296  30.660  37.303  1.00  0.00     0.029 A 
ATOM     58  C   UNL A   1      42.746  30.367  36.063  1.00  0.00     0.049 A 
ATOM     59  H   UNL A   1      41.099  31.269  35.101  1.00  0.00     0.167 HD
ATOM     60  C   UNL A   1      42.550  29.113  33.922  1.00  0.00     0.074 A 
ATOM     61  C   UNL A   1      42.967  28.078  32.994  1.00  0.00     0.031 C 
ATOM     62  C   UNL A   1      43.156  29.364  35.110  1.00  0.00     0.037 A 
BRANCH  49  63
ATOM     63  C   UNL A   1      40.628  34.012  38.338  1.00  0.00     0.064 A 
ATOM     64  C   UNL A   1      39.899  33.734  39.507  1.00  0.00     0.173 A 
ATOM     65  C   UNL A   1      41.394  35.188  38.314  1.00  0.00     0.173 A 
ATOM     66  F   UNL A   1      39.138  32.632  39.582  1.00  0.00    -0.203 F 
ATOM     67  C   UNL A   1      39.891  34.623  40.580  1.00  0.00     0.198 A 
ATOM     68  C   UNL A   1      41.416  36.054  39.405  1.00  0.00     0.198 A 
ATOM     69  F   UNL A   1      42.113  35.507  37.228  1.00  0.00    -0.203 F 
ATOM     70  F   UNL A   1      39.122  34.373  41.648  1.00  0.00    -0.200 F 
ATOM     71  C   UNL A   1      40.653  35.779  40.530  1.00  0.00     0.200 A 
ATOM     72  F   UNL A   1      42.164  37.165  39.361  1.00  0.00    -0.200 F 
ATOM     73  F   UNL A   1      40.642  36.635  41.561  1.00  0.00    -0.200 F 
ENDBRANCH  49  63
BRANCH  50  74
ATOM     74  C   UNL A   1      40.176  28.671  29.862  1.00  0.00     0.064 A 
ATOM     75  C   UNL A   1      40.832  29.138  28.716  1.00  0.00     0.173 A 
ATOM     76  C   UNL A   1      39.518  27.435  29.779  1.00  0.00     0.173 A 
ATOM     77  F   UNL A   1      41.465  30.321  28.742  1.00  0.00    -0.203 F 
ATOM     78  C   UNL A   1      40.826  28.403  27.531  1.00  0.00     0.198 A 
ATOM     79  C   UNL A   1      39.536  26.686  28.603  1.00  0.00     0.198 A 
ATOM     80  F   UNL A   1      38.887  26.937  30.852  1.00  0.00    -0.203 F 
ATOM     81  F   UNL A   1      41.438  28.885  26.442  1.00  0.00    -0.200 F 
ATOM     82  C   UNL A   1      40.187  27.173  27.479  1.00  0.00     0.200 A 
ATOM     83  F   UNL A   1      38.937  25.489  28.566  1.00  0.00    -0.200 F 
ATOM     84  F   UNL A   1      40.199  26.456  26.349  1.00  0.00    -0.200 F 
ENDBRANCH  50  74
BRANCH  62  85
ATOM     85  C   UNL A   1      44.333  28.503  35.466  1.00  0.00     0.064 A 
ATOM     86  C   UNL A   1      45.641  28.862  35.105  1.00  0.00     0.173 A 
ATOM     87  C   UNL A   1      44.155  27.316  36.192  1.00  0.00     0.173 A 
ATOM     88  F   UNL A   1      45.865  29.981  34.398  1.00  0.00    -0.203 F 
ATOM     89  C   UNL A   1      46.722  28.044  35.423  1.00  0.00     0.198 A 
ATOM     90  C   UNL A   1      45.241  26.521  36.542  1.00  0.00     0.198 A 
ATOM     91  F   UNL A   1      42.926  26.933  36.572  1.00  0.00    -0.203 F 
ATOM     92  F   UNL A   1      47.953  28.374  35.011  1.00  0.00    -0.200 F 
ATOM     93  C   UNL A   1      46.521  26.878  36.147  1.00  0.00     0.200 A 
ATOM     94  F   UNL A   1      45.048  25.404  37.258  1.00  0.00    -0.200 F 
ATOM     95  F   UNL A   1      47.562  26.093  36.454  1.00  0.00    -0.200 F 
ENDBRANCH  62  85
ENDBRANCH  36  37
ENDBRANCH  28  31
ENDBRANCH  26  27
ENDBRANCH  25  26
ENDBRANCH  24  25
ENDBRANCH   1  24
TORSDOF 15
ENDMDL
MODEL 2
REMARK VINA RESULT:     -12.9      2.102      3.246
REMARK SMILES Cc1cc(C[N@H+]2CC[C@@H](C(=O)NCCCCCCNC(=O)c3ccc(-c4c5nc(c(-c6c(F)c(F)c(F)c(F)c6F)c6ccc([nH]6)c(-c6c(F)c(F)c(F)c(F)c6F)c6nc(c(-c7c(F)c(F)c(F)c(F)c7F)c7ccc4[nH]7)C=C6)C=C5)cc3)[C@@H]2C)ccc1Br
REMARK SMILES IDX 15 1 14 2 13 3 12 4 10 5 11 6 9 8 6 9 7 10 85 11 8 13 86 14
REMARK SMILES IDX 5 15 4 16 1 17 2 18 3 19 89 20 88 21 90 22 87 23 16 24 17 25
REMARK SMILES IDX 18 26 19 27 20 28 21 30 22 31 23 32 84 33 24 34 83 35 25 36
REMARK SMILES IDX 26 37 27 38 77 39 28 40 82 41 76 42 78 43 29 44 81 45 75 46
REMARK SMILES IDX 74 47 30 49 62 50 42 51 61 52 43 53 46 54 60 55 79 56 44 57
REMARK SMILES IDX 45 58 59 60 80 61 47 62 31 63 32 64 40 65 33 66 34 67 38 68
REMARK SMILES IDX 41 69 35 70 36 71 39 72 37 73 63 74 64 75 72 76 65 77 66 78
REMARK SMILES IDX 70 79 73 80 67 81 68 82 71 83 69 84 48 85 49 86 57 87 50 88
REMARK SMILES IDX 51 89 55 90 58 91 52 92 53 93 56 94 54 95
REMARK H PARENT 12 7 6 12 19 29 78 48 46 59
REMARK Flexibility Score: inf
ROOT
ATOM      1  C   UNL A   1      31.774  29.514  26.818  1.00  0.00     0.002 C 
ENDROOT
BRANCH   1   2
ATOM      2  C   UNL A   1      31.796  27.894  26.170  1.00  0.00     0.021 C 
BRANCH   2   3
ATOM      3  C   UNL A   1      33.238  26.723  25.006  1.00  0.00     0.116 C 
BRANCH   3   4
ATOM      4  N   UNL A   1      33.519  26.634  23.434  1.00  0.00    -0.356 N 
ATOM      5  C   UNL A   1      33.141  25.802  22.433  1.00  0.00     0.229 C 
ATOM      6  O   UNL A   1      33.649  26.021  21.326  1.00  0.00    -0.275 OA
ATOM      7  H   UNL A   1      34.107  27.357  23.118  1.00  0.00     0.163 HD
BRANCH   5   8
ATOM      8  C   UNL A   1      32.167  24.642  22.588  1.00  0.00     0.142 C 
ATOM      9  N   UNL A   1      32.061  23.158  24.487  1.00  0.00    -0.328 N 
ATOM     10  C   UNL A   1      30.842  23.968  24.508  1.00  0.00     0.263 C 
ATOM     11  C   UNL A   1      32.751  23.376  23.209  1.00  0.00     0.193 C 
ATOM     12  H   UNL A   1      31.778  22.180  24.545  1.00  0.00     0.348 HD
ATOM     13  C   UNL A   1      30.904  24.969  23.362  1.00  0.00     0.081 C 
ATOM     14  C   UNL A   1      32.524  22.147  22.323  1.00  0.00     0.076 C 
BRANCH   9  15
ATOM     15  C   UNL A   1      32.918  23.247  25.676  1.00  0.00     0.299 C 
BRANCH  15  16
ATOM     16  C   UNL A   1      34.375  22.926  25.436  1.00  0.00     0.007 A 
ATOM     17  C   UNL A   1      36.948  19.306  24.883  1.00  0.00     0.045 C 
ATOM     18  C   UNL A   1      36.582  20.727  25.180  1.00  0.00    -0.036 A 
ATOM     19  C   UNL A   1      34.846  21.210  25.125  1.00  0.00     0.014 A 
ATOM     20  C   UNL A   1      37.847  21.951  25.588  1.00  0.00     0.020 A 
ATOM     21  C   UNL A   1      37.388  23.679  25.858  1.00  0.00     0.016 A 
ATOM     22  Br  UNL A   1      39.628  21.419  25.959  1.00  0.00    -0.051 Br
ATOM     23  C   UNL A   1      35.651  24.169  25.774  1.00  0.00     0.011 A 
ENDBRANCH  15  16
ENDBRANCH   9  15
ENDBRANCH   5   8
ENDBRANCH   3   4
ENDBRANCH   2   3
ENDBRANCH   1   2
BRANCH   1  24
ATOM     24  C   UNL A   1      31.412  30.647  25.840  1.00  0.00     0.002 C 
BRANCH  24  25
ATOM     25  C   UNL A   1      31.325  32.036  26.456  1.00  0.00     0.021 C 
BRANCH  25  26
ATOM     26  C   UNL A   1      32.601  32.418  27.182  1.00  0.00     0.116 C 
BRANCH  26  27
ATOM     27  N   UNL A   1      32.564  33.835  27.531  1.00  0.00    -0.352 N 
ATOM     28  C   UNL A   1      33.178  34.422  28.610  1.00  0.00     0.251 C 
ATOM     29  H   UNL A   1      32.047  34.426  26.936  1.00  0.00     0.163 HD
ATOM     30  O   UNL A   1      32.743  35.445  29.121  1.00  0.00    -0.269 OA
BRANCH  28  31
ATOM     31  C   UNL A   1      34.396  33.775  29.128  1.00  0.00     0.039 A 
ATOM     32  C   UNL A   1      35.656  34.275  28.806  1.00  0.00     0.014 A 
ATOM     33  C   UNL A   1      34.254  32.679  29.984  1.00  0.00     0.014 A 
ATOM     34  C   UNL A   1      36.781  33.681  29.377  1.00  0.00     0.010 A 
ATOM     35  C   UNL A   1      35.356  32.186  30.654  1.00  0.00     0.010 A 
ATOM     36  C   UNL A   1      36.634  32.646  30.319  1.00  0.00    -0.014 A 
BRANCH  36  37
ATOM     37  C   UNL A   1      37.807  31.984  30.928  1.00  0.00     0.031 A 
ATOM     38  C   UNL A   1      38.246  32.373  32.313  1.00  0.00     0.074 A 
ATOM     39  C   UNL A   1      38.506  31.087  30.209  1.00  0.00     0.049 A 
ATOM     40  N   UNL A   1      39.252  31.928  33.018  1.00  0.00    -0.248 NA
ATOM     41  C   UNL A   1      37.481  33.443  32.975  1.00  0.00     0.031 C 
ATOM     42  C   UNL A   1      38.223  30.709  28.824  1.00  0.00     0.029 A 
ATOM     43  N   UNL A   1      39.600  30.334  30.546  1.00  0.00    -0.354 N 
ATOM     44  C   UNL A   1      39.247  32.674  34.190  1.00  0.00     0.074 A 
ATOM     45  C   UNL A   1      38.200  33.660  34.063  1.00  0.00     0.031 C 
ATOM     46  C   UNL A   1      39.093  29.761  28.442  1.00  0.00     0.029 A 
ATOM     47  C   UNL A   1      40.013  29.494  29.543  1.00  0.00     0.049 A 
ATOM     48  H   UNL A   1      40.046  30.392  31.421  1.00  0.00     0.167 HD
ATOM     49  C   UNL A   1      40.021  32.524  35.290  1.00  0.00     0.037 A 
ATOM     50  C   UNL A   1      41.021  28.601  29.523  1.00  0.00     0.037 A 
ATOM     51  C   UNL A   1      41.042  31.519  35.407  1.00  0.00     0.049 A 
ATOM     52  C   UNL A   1      41.846  28.420  30.767  1.00  0.00     0.074 A 
ATOM     53  C   UNL A   1      41.833  31.212  36.497  1.00  0.00     0.029 A 
ATOM     54  N   UNL A   1      41.416  30.658  34.383  1.00  0.00    -0.354 N 
ATOM     55  N   UNL A   1      41.768  29.057  31.911  1.00  0.00    -0.248 NA
ATOM     56  C   UNL A   1      42.887  27.389  30.721  1.00  0.00     0.031 C 
ATOM     57  C   UNL A   1      42.730  30.209  36.113  1.00  0.00     0.029 A 
ATOM     58  C   UNL A   1      42.454  29.844  34.803  1.00  0.00     0.049 A 
ATOM     59  H   UNL A   1      41.004  30.632  33.489  1.00  0.00     0.167 HD
ATOM     60  C   UNL A   1      42.741  28.499  32.728  1.00  0.00     0.074 A 
ATOM     61  C   UNL A   1      43.375  27.449  31.952  1.00  0.00     0.031 C 
ATOM     62  C   UNL A   1      43.084  28.823  34.000  1.00  0.00     0.037 A 
BRANCH  49  63
ATOM     63  C   UNL A   1      39.789  33.475  36.432  1.00  0.00     0.064 A 
ATOM     64  C   UNL A   1      38.932  33.160  37.502  1.00  0.00     0.173 A 
ATOM     65  C   UNL A   1      40.413  34.731  36.449  1.00  0.00     0.173 A 
ATOM     66  F   UNL A   1      38.296  31.979  37.533  1.00  0.00    -0.203 F 
ATOM     67  C   UNL A   1      38.669  34.084  38.510  1.00  0.00     0.198 A 
ATOM     68  C   UNL A   1      40.179  35.637  37.481  1.00  0.00     0.198 A 
ATOM     69  F   UNL A   1      41.243  35.089  35.458  1.00  0.00    -0.203 F 
ATOM     70  F   UNL A   1      37.784  33.789  39.472  1.00  0.00    -0.200 F 
ATOM     71  C   UNL A   1      39.296  35.320  38.502  1.00  0.00     0.200 A 
ATOM     72  F   UNL A   1      40.797  36.827  37.478  1.00  0.00    -0.200 F 
ATOM     73  F   UNL A   1      39.039  36.210  39.470  1.00  0.00    -0.200 F 
ENDBRANCH  49  63
BRANCH  50  74
ATOM     74  C   UNL A   1      41.255  27.793  28.299  1.00  0.00     0.064 A 
ATOM     75  C   UNL A   1      42.126  28.237  27.296  1.00  0.00     0.173 A 
ATOM     76  C   UNL A   1      40.659  26.534  28.137  1.00  0.00     0.173 A 
ATOM     77  F   UNL A   1      42.711  29.439  27.400  1.00  0.00    -0.203 F 
ATOM     78  C   UNL A   1      42.386  27.456  26.171  1.00  0.00     0.198 A 
ATOM     79  C   UNL A   1      40.941  25.741  27.026  1.00  0.00     0.198 A 
ATOM     80  F   UNL A   1      39.828  26.058  29.075  1.00  0.00    -0.203 F 
ATOM     81  F   UNL A   1      43.202  27.915  25.212  1.00  0.00    -0.200 F 
ATOM     82  C   UNL A   1      41.801  26.205  26.042  1.00  0.00     0.200 A 
ATOM     83  F   UNL A   1      40.392  24.524  26.918  1.00  0.00    -0.200 F 
ATOM     84  F   UNL A   1      42.068  25.445  24.972  1.00  0.00    -0.200 F 
ENDBRANCH  50  74
BRANCH  62  85
ATOM     85  C   UNL A   1      44.196  28.031  34.625  1.00  0.00     0.064 A 
ATOM     86  C   UNL A   1      45.528  28.469  34.575  1.00  0.00     0.173 A 
ATOM     87  C   UNL A   1      43.924  26.831  35.298  1.00  0.00     0.173 A 
ATOM     88  F   UNL A   1      45.843  29.604  33.931  1.00  0.00    -0.203 F 
ATOM     89  C   UNL A   1      46.552  27.714  35.140  1.00  0.00     0.198 A 
ATOM     90  C   UNL A   1      44.945  26.098  35.896  1.00  0.00     0.198 A 
ATOM     91  F   UNL A   1      42.666  26.373  35.386  1.00  0.00    -0.203 F 
ATOM     92  F   UNL A   1      47.824  28.119  35.023  1.00  0.00    -0.200 F 
ATOM     93  C   UNL A   1      46.258  26.533  35.806  1.00  0.00     0.200 A 
ATOM     94  F   UNL A   1      44.658  24.967  36.555  1.00  0.00    -0.200 F 
ATOM     95  F   UNL A   1      47.244  25.809  36.351  1.00  0.00    -0.200 F 
ENDBRANCH  62  85
ENDBRANCH  36  37
ENDBRANCH  28  31
ENDBRANCH  26  27
ENDBRANCH  25  26
ENDBRANCH  24  25
ENDBRANCH   1  24
TORSDOF 15
ENDMDL
MODEL 3
REMARK VINA RESULT:     -12.8      2.060      3.325
REMARK SMILES Cc1cc(C[N@H+]2CC[C@@H](C(=O)NCCCCCCNC(=O)c3ccc(-c4c5nc(c(-c6c(F)c(F)c(F)c(F)c6F)c6ccc([nH]6)c(-c6c(F)c(F)c(F)c(F)c6F)c6nc(c(-c7c(F)c(F)c(F)c(F)c7F)c7ccc4[nH]7)C=C6)C=C5)cc3)[C@@H]2C)ccc1Br
REMARK SMILES IDX 15 1 14 2 13 3 12 4 10 5 11 6 9 8 6 9 7 10 85 11 8 13 86 14
REMARK SMILES IDX 5 15 4 16 1 17 2 18 3 19 89 20 88 21 90 22 87 23 16 24 17 25
REMARK SMILES IDX 18 26 19 27 20 28 21 30 22 31 23 32 84 33 24 34 83 35 25 36
REMARK SMILES IDX 26 37 27 38 77 39 28 40 82 41 76 42 78 43 29 44 81 45 75 46
REMARK SMILES IDX 74 47 30 49 62 50 42 51 61 52 43 53 46 54 60 55 79 56 44 57
REMARK SMILES IDX 45 58 59 60 80 61 47 62 31 63 32 64 40 65 33 66 34 67 38 68
REMARK SMILES IDX 41 69 35 70 36 71 39 72 37 73 63 74 64 75 72 76 65 77 66 78
REMARK SMILES IDX 70 79 73 80 67 81 68 82 71 83 69 84 48 85 49 86 57 87 50 88
REMARK SMILES IDX 51 89 55 90 58 91 52 92 53 93 56 94 54 95
REMARK H PARENT 12 7 6 12 19 29 78 48 46 59
REMARK Flexibility Score: inf
ROOT
ATOM      1  C   UNL A   1      32.297  29.932  27.012  1.00  0.00     0.002 C 
ENDROOT
BRANCH   1   2
ATOM      2  C   UNL A   1      33.187  28.675  26.193  1.00  0.00     0.021 C 
BRANCH   2   3
ATOM      3  C   UNL A   1      33.045  26.489  26.120  1.00  0.00     0.116 C 
BRANCH   3   4
ATOM      4  N   UNL A   1      31.963  25.469  26.709  1.00  0.00    -0.356 N 
ATOM      5  C   UNL A   1      31.844  24.121  26.773  1.00  0.00     0.229 C 
ATOM      6  O   UNL A   1      30.786  23.692  27.252  1.00  0.00    -0.275 OA
ATOM      7  H   UNL A   1      31.201  25.932  27.125  1.00  0.00     0.163 HD
BRANCH   5   8
ATOM      8  C   UNL A   1      32.899  23.131  26.296  1.00  0.00     0.142 C 
ATOM      9  N   UNL A   1      33.411  22.650  23.988  1.00  0.00    -0.328 N 
ATOM     10  C   UNL A   1      34.565  23.357  24.544  1.00  0.00     0.263 C 
ATOM     11  C   UNL A   1      32.504  22.289  25.085  1.00  0.00     0.193 C 
ATOM     12  H   UNL A   1      33.758  21.795  23.554  1.00  0.00     0.348 HD
ATOM     13  C   UNL A   1      34.252  23.743  25.984  1.00  0.00     0.081 C 
ATOM     14  C   UNL A   1      32.654  20.789  25.360  1.00  0.00     0.076 C 
BRANCH   9  15
ATOM     15  C   UNL A   1      32.763  23.278  22.831  1.00  0.00     0.299 C 
BRANCH  15  16
ATOM     16  C   UNL A   1      32.248  24.679  23.072  1.00  0.00     0.007 A 
ATOM     17  C   UNL A   1      28.340  26.704  23.876  1.00  0.00     0.045 C 
ATOM     18  C   UNL A   1      29.771  26.544  23.470  1.00  0.00    -0.036 A 
ATOM     19  C   UNL A   1      30.511  24.900  23.514  1.00  0.00     0.014 A 
ATOM     20  C   UNL A   1      30.757  27.963  22.942  1.00  0.00     0.020 A 
ATOM     21  C   UNL A   1      32.507  27.756  22.539  1.00  0.00     0.016 A 
ATOM     22  Br  UNL A   1      29.937  29.635  22.586  1.00  0.00    -0.051 Br
ATOM     23  C   UNL A   1      33.257  26.114  22.613  1.00  0.00     0.011 A 
ENDBRANCH  15  16
ENDBRANCH   9  15
ENDBRANCH   5   8
ENDBRANCH   3   4
ENDBRANCH   2   3
ENDBRANCH   1   2
BRANCH   1  24
ATOM     24  C   UNL A   1      31.404  30.833  26.139  1.00  0.00     0.002 C 
BRANCH  24  25
ATOM     25  C   UNL A   1      31.408  32.309  26.509  1.00  0.00     0.021 C 
BRANCH  25  26
ATOM     26  C   UNL A   1      32.639  32.692  27.311  1.00  0.00     0.116 C 
BRANCH  26  27
ATOM     27  N   UNL A   1      32.604  34.118  27.615  1.00  0.00    -0.352 N 
ATOM     28  C   UNL A   1      33.111  34.722  28.739  1.00  0.00     0.251 C 
ATOM     29  H   UNL A   1      32.175  34.705  26.949  1.00  0.00     0.163 HD
ATOM     30  O   UNL A   1      32.652  35.771  29.170  1.00  0.00    -0.269 OA
BRANCH  28  31
ATOM     31  C   UNL A   1      34.245  34.059  29.408  1.00  0.00     0.039 A 
ATOM     32  C   UNL A   1      34.024  33.114  30.409  1.00  0.00     0.014 A 
ATOM     33  C   UNL A   1      35.540  34.367  28.982  1.00  0.00     0.014 A 
ATOM     34  C   UNL A   1      35.120  32.455  30.963  1.00  0.00     0.010 A 
ATOM     35  C   UNL A   1      36.606  33.614  29.432  1.00  0.00     0.010 A 
ATOM     36  C   UNL A   1      36.414  32.688  30.463  1.00  0.00    -0.014 A 
BRANCH  36  37
ATOM     37  C   UNL A   1      37.598  32.018  31.043  1.00  0.00     0.031 A 
ATOM     38  C   UNL A   1      38.071  32.404  32.417  1.00  0.00     0.074 A 
ATOM     39  C   UNL A   1      38.275  31.118  30.307  1.00  0.00     0.049 A 
ATOM     40  N   UNL A   1      39.092  31.953  33.099  1.00  0.00    -0.248 NA
ATOM     41  C   UNL A   1      37.328  33.477  33.098  1.00  0.00     0.031 C 
ATOM     42  C   UNL A   1      37.957  30.743  28.929  1.00  0.00     0.029 A 
ATOM     43  N   UNL A   1      39.373  30.359  30.617  1.00  0.00    -0.354 N 
ATOM     44  C   UNL A   1      39.119  32.698  34.271  1.00  0.00     0.074 A 
ATOM     45  C   UNL A   1      38.074  33.689  34.170  1.00  0.00     0.031 C 
ATOM     46  C   UNL A   1      38.812  29.791  28.526  1.00  0.00     0.029 A 
ATOM     47  C   UNL A   1      39.757  29.518  29.605  1.00  0.00     0.049 A 
ATOM     48  H   UNL A   1      39.840  30.413  31.481  1.00  0.00     0.167 HD
ATOM     49  C   UNL A   1      39.918  32.543  35.352  1.00  0.00     0.037 A 
ATOM     50  C   UNL A   1      40.759  28.620  29.560  1.00  0.00     0.037 A 
ATOM     51  C   UNL A   1      40.936  31.532  35.444  1.00  0.00     0.049 A 
ATOM     52  C   UNL A   1      41.612  28.433  30.783  1.00  0.00     0.074 A 
ATOM     53  C   UNL A   1      41.751  31.219  36.514  1.00  0.00     0.029 A 
ATOM     54  N   UNL A   1      41.281  30.670  34.410  1.00  0.00    -0.354 N 
ATOM     55  N   UNL A   1      41.565  29.069  31.930  1.00  0.00    -0.248 NA
ATOM     56  C   UNL A   1      42.647  27.396  30.711  1.00  0.00     0.031 C 
ATOM     57  C   UNL A   1      42.633  30.211  36.108  1.00  0.00     0.029 A 
ATOM     58  C   UNL A   1      42.324  29.849  34.805  1.00  0.00     0.049 A 
ATOM     59  H   UNL A   1      40.848  30.646  33.526  1.00  0.00     0.167 HD
ATOM     60  C   UNL A   1      42.554  28.505  32.722  1.00  0.00     0.074 A 
ATOM     61  C   UNL A   1      43.164  27.453  31.931  1.00  0.00     0.031 C 
ATOM     62  C   UNL A   1      42.929  28.826  33.987  1.00  0.00     0.037 A 
BRANCH  49  63
ATOM     63  C   UNL A   1      39.718  33.493  36.500  1.00  0.00     0.064 A 
ATOM     64  C   UNL A   1      38.872  33.189  37.581  1.00  0.00     0.173 A 
ATOM     65  C   UNL A   1      40.363  34.739  36.511  1.00  0.00     0.173 A 
ATOM     66  F   UNL A   1      38.217  32.018  37.618  1.00  0.00    -0.203 F 
ATOM     67  C   UNL A   1      38.639  34.114  38.596  1.00  0.00     0.198 A 
ATOM     68  C   UNL A   1      40.159  35.646  37.549  1.00  0.00     0.198 A 
ATOM     69  F   UNL A   1      41.184  35.086  35.509  1.00  0.00    -0.203 F 
ATOM     70  F   UNL A   1      37.764  33.831  39.570  1.00  0.00    -0.200 F 
ATOM     71  C   UNL A   1      39.286  35.340  38.582  1.00  0.00     0.200 A 
ATOM     72  F   UNL A   1      40.796  36.825  37.541  1.00  0.00    -0.200 F 
ATOM     73  F   UNL A   1      39.058  36.231  39.557  1.00  0.00    -0.200 F 
ENDBRANCH  49  63
BRANCH  50  74
ATOM     74  C   UNL A   1      40.960  27.812  28.330  1.00  0.00     0.064 A 
ATOM     75  C   UNL A   1      41.815  28.248  27.310  1.00  0.00     0.173 A 
ATOM     76  C   UNL A   1      40.346  26.560  28.177  1.00  0.00     0.173 A 
ATOM     77  F   UNL A   1      42.416  29.443  27.405  1.00  0.00    -0.203 F 
ATOM     78  C   UNL A   1      42.044  27.466  26.178  1.00  0.00     0.198 A 
ATOM     79  C   UNL A   1      40.598  25.766  27.059  1.00  0.00     0.198 A 
ATOM     80  F   UNL A   1      39.529  26.091  29.131  1.00  0.00    -0.203 F 
ATOM     81  F   UNL A   1      42.846  27.918  25.204  1.00  0.00    -0.200 F 
ATOM     82  C   UNL A   1      41.443  26.222  26.059  1.00  0.00     0.200 A 
ATOM     83  F   UNL A   1      40.032  24.556  26.960  1.00  0.00    -0.200 F 
ATOM     84  F   UNL A   1      41.680  25.461  24.983  1.00  0.00    -0.200 F 
ENDBRANCH  50  74
BRANCH  62  85
ATOM     85  C   UNL A   1      44.052  28.027  34.584  1.00  0.00     0.064 A 
ATOM     86  C   UNL A   1      45.388  28.442  34.475  1.00  0.00     0.173 A 
ATOM     87  C   UNL A   1      43.786  26.845  35.290  1.00  0.00     0.173 A 
ATOM     88  F   UNL A   1      45.696  29.560  33.798  1.00  0.00    -0.203 F 
ATOM     89  C   UNL A   1      46.420  27.681  35.016  1.00  0.00     0.198 A 
ATOM     90  C   UNL A   1      44.817  26.106  35.863  1.00  0.00     0.198 A 
ATOM     91  F   UNL A   1      42.525  26.409  35.434  1.00  0.00    -0.203 F 
ATOM     92  F   UNL A   1      47.693  28.062  34.842  1.00  0.00    -0.200 F 
ATOM     93  C   UNL A   1      46.133  26.517  35.715  1.00  0.00     0.200 A 
ATOM     94  F   UNL A   1      44.537  24.993  36.554  1.00  0.00    -0.200 F 
ATOM     95  F   UNL A   1      47.127  25.787  36.237  1.00  0.00    -0.200 F 
ENDBRANCH  62  85
ENDBRANCH  36  37
ENDBRANCH  28  31
ENDBRANCH  26  27
ENDBRANCH  25  26
ENDBRANCH  24  25
ENDBRANCH   1  24
TORSDOF 15
ENDMDL
