MODEL 1
REMARK VINA RESULT:     -12.5      0.000      0.000
REMARK SMILES Cc1ccc(C(=O)N2CCC(CC(=O)NCCCCCCNC(=O)c3ccc(-c4c5nc(c(-c6c(F)c(F)c(F)c(F)c6F)c6ccc([nH]6)c(-c6c(F)c(F)c(F)c(F)c6F)c6nc(c(-c7c(F)c(F)c(F)c(F)c7F)c7ccc4[nH]7)C=C6)C=C5)cc3)CC2)cn1
REMARK SMILES IDX 18 1 17 2 16 3 15 4 13 5 14 6 12 8 11 9 6 10 7 11 8 12 9 13
REMARK SMILES IDX 89 14 10 15 88 16 5 17 1 18 2 19 3 20 91 21 4 22 90 23 19 24
REMARK SMILES IDX 20 25 21 26 22 27 23 28 24 30 25 31 26 32 87 33 27 34 86 35
REMARK SMILES IDX 28 36 29 37 30 38 80 39 31 40 85 41 79 42 81 43 32 44 84 45
REMARK SMILES IDX 78 46 77 47 33 49 65 50 45 51 64 52 46 53 49 54 63 55 82 56
REMARK SMILES IDX 47 57 48 58 62 60 83 61 50 62 34 63 35 64 43 65 36 66 37 67
REMARK SMILES IDX 41 68 44 69 38 70 39 71 42 72 40 73 66 74 67 75 75 76 68 77
REMARK SMILES IDX 69 78 73 79 76 80 70 81 71 82 74 83 72 84 51 85 52 86 60 87
REMARK SMILES IDX 53 88 54 89 58 90 61 91 55 92 56 93 59 94 57 95
REMARK H PARENT 15 7 22 29 81 48 49 59
REMARK Flexibility Score: inf
ROOT
ATOM      1  C   UNL A   1      32.326  29.982  26.401  1.00  0.00     0.002 C 
ENDROOT
BRANCH   1   2
ATOM      2  C   UNL A   1      31.786  28.853  27.275  1.00  0.00     0.021 C 
BRANCH   2   3
ATOM      3  C   UNL A   1      31.961  27.443  26.696  1.00  0.00     0.116 C 
BRANCH   3   4
ATOM      4  N   UNL A   1      32.368  27.502  25.300  1.00  0.00    -0.356 N 
ATOM      5  C   UNL A   1      33.334  26.819  24.624  1.00  0.00     0.220 C 
ATOM      6  O   UNL A   1      33.563  27.138  23.455  1.00  0.00    -0.275 OA
ATOM      7  H   UNL A   1      31.860  28.144  24.753  1.00  0.00     0.163 HD
BRANCH   5   8
ATOM      8  C   UNL A   1      34.116  25.694  25.287  1.00  0.00     0.103 C 
BRANCH   8   9
ATOM      9  C   UNL A   1      33.392  24.333  25.281  1.00  0.00     0.002 C 
ATOM     10  C   UNL A   1      34.549  20.481  24.917  1.00  0.00     0.255 C 
ATOM     11  O   UNL A   1      35.714  20.754  24.646  1.00  0.00    -0.269 OA
ATOM     12  N   UNL A   1      33.569  21.438  25.096  1.00  0.00    -0.339 N 
ATOM     13  C   UNL A   1      33.101  22.173  23.948  1.00  0.00     0.120 C 
ATOM     14  C   UNL A   1      33.325  22.035  26.399  1.00  0.00     0.120 C 
ATOM     15  C   UNL A   1      33.631  23.590  23.965  1.00  0.00     0.026 C 
ATOM     16  C   UNL A   1      33.853  23.470  26.473  1.00  0.00     0.026 C 
BRANCH  10  17
ATOM     17  C   UNL A   1      34.059  19.080  24.931  1.00  0.00     0.058 A 
ATOM     18  C   UNL A   1      32.574  15.113  25.292  1.00  0.00     0.066 C 
ATOM     19  C   UNL A   1      33.111  16.504  25.138  1.00  0.00     0.037 A 
ATOM     20  C   UNL A   1      34.356  16.717  24.557  1.00  0.00     0.024 A 
ATOM     21  N   UNL A   1      32.339  17.517  25.602  1.00  0.00    -0.261 NA
ATOM     22  C   UNL A   1      34.832  18.019  24.452  1.00  0.00     0.017 A 
ATOM     23  C   UNL A   1      32.828  18.780  25.491  1.00  0.00     0.125 A 
ENDBRANCH  10  17
ENDBRANCH   8   9
ENDBRANCH   5   8
ENDBRANCH   3   4
ENDBRANCH   2   3
ENDBRANCH   1   2
BRANCH   1  24
ATOM     24  C   UNL A   1      31.264  30.927  25.839  1.00  0.00     0.002 C 
BRANCH  24  25
ATOM     25  C   UNL A   1      31.162  32.289  26.531  1.00  0.00     0.021 C 
BRANCH  25  26
ATOM     26  C   UNL A   1      32.460  32.805  27.148  1.00  0.00     0.116 C 
BRANCH  26  27
ATOM     27  N   UNL A   1      32.351  34.190  27.571  1.00  0.00    -0.352 N 
ATOM     28  C   UNL A   1      33.006  34.854  28.581  1.00  0.00     0.251 C 
ATOM     29  H   UNL A   1      31.712  34.736  27.057  1.00  0.00     0.163 HD
ATOM     30  O   UNL A   1      32.629  35.957  28.941  1.00  0.00    -0.269 OA
BRANCH  28  31
ATOM     31  C   UNL A   1      34.173  34.223  29.235  1.00  0.00     0.039 A 
ATOM     32  C   UNL A   1      35.456  34.536  28.778  1.00  0.00     0.014 A 
ATOM     33  C   UNL A   1      34.000  33.299  30.270  1.00  0.00     0.014 A 
ATOM     34  C   UNL A   1      36.569  33.956  29.391  1.00  0.00     0.010 A 
ATOM     35  C   UNL A   1      35.111  32.777  30.926  1.00  0.00     0.010 A 
ATOM     36  C   UNL A   1      36.407  33.090  30.484  1.00  0.00    -0.014 A 
BRANCH  36  37
ATOM     37  C   UNL A   1      37.577  32.475  31.160  1.00  0.00     0.031 A 
ATOM     38  C   UNL A   1      38.326  31.356  30.489  1.00  0.00     0.074 A 
ATOM     39  C   UNL A   1      37.932  32.886  32.392  1.00  0.00     0.049 A 
ATOM     40  N   UNL A   1      39.325  30.640  30.940  1.00  0.00    -0.248 NA
ATOM     41  C   UNL A   1      37.876  30.973  29.142  1.00  0.00     0.031 C 
ATOM     42  C   UNL A   1      37.263  33.937  33.159  1.00  0.00     0.029 A 
ATOM     43  N   UNL A   1      38.941  32.461  33.220  1.00  0.00    -0.354 N 
ATOM     44  C   UNL A   1      39.611  29.719  29.940  1.00  0.00     0.074 A 
ATOM     45  C   UNL A   1      38.645  29.928  28.883  1.00  0.00     0.031 C 
ATOM     46  C   UNL A   1      37.891  34.090  34.337  1.00  0.00     0.029 A 
ATOM     47  C   UNL A   1      38.982  33.123  34.424  1.00  0.00     0.049 A 
ATOM     48  H   UNL A   1      39.576  31.749  32.976  1.00  0.00     0.167 HD
ATOM     49  C   UNL A   1      40.606  28.801  29.895  1.00  0.00     0.037 A 
ATOM     50  C   UNL A   1      39.801  32.960  35.479  1.00  0.00     0.037 A 
ATOM     51  C   UNL A   1      41.577  28.610  30.939  1.00  0.00     0.049 A 
ATOM     52  C   UNL A   1      40.887  31.918  35.410  1.00  0.00     0.074 A 
ATOM     53  C   UNL A   1      42.647  27.733  30.975  1.00  0.00     0.029 A 
ATOM     54  N   UNL A   1      41.595  29.312  32.136  1.00  0.00    -0.354 N 
ATOM     55  N   UNL A   1      41.185  31.094  34.435  1.00  0.00    -0.248 NA
ATOM     56  C   UNL A   1      41.757  31.790  36.588  1.00  0.00     0.031 C 
ATOM     57  C   UNL A   1      43.289  27.876  32.209  1.00  0.00     0.029 A 
ATOM     58  C   UNL A   1      42.651  28.878  32.922  1.00  0.00     0.049 A 
ATOM     59  H   UNL A   1      40.954  30.014  32.389  1.00  0.00     0.167 HD
ATOM     60  C   UNL A   1      42.296  30.379  34.863  1.00  0.00     0.074 A 
ATOM     61  C   UNL A   1      42.625  30.875  36.183  1.00  0.00     0.031 C 
ATOM     62  C   UNL A   1      42.979  29.400  34.223  1.00  0.00     0.037 A 
BRANCH  49  63
ATOM     63  C   UNL A   1      40.700  27.937  28.671  1.00  0.00     0.064 A 
ATOM     64  C   UNL A   1      39.987  26.732  28.567  1.00  0.00     0.173 A 
ATOM     65  C   UNL A   1      41.475  28.336  27.570  1.00  0.00     0.173 A 
ATOM     66  F   UNL A   1      39.241  26.299  29.594  1.00  0.00    -0.203 F 
ATOM     67  C   UNL A   1      40.071  25.945  27.421  1.00  0.00     0.198 A 
ATOM     68  C   UNL A   1      41.530  27.563  26.414  1.00  0.00     0.198 A 
ATOM     69  F   UNL A   1      42.170  29.482  27.613  1.00  0.00    -0.203 F 
ATOM     70  F   UNL A   1      39.420  24.775  27.366  1.00  0.00    -0.200 F 
ATOM     71  C   UNL A   1      40.834  26.365  26.343  1.00  0.00     0.200 A 
ATOM     72  F   UNL A   1      42.257  27.976  25.367  1.00  0.00    -0.200 F 
ATOM     73  F   UNL A   1      40.905  25.611  25.237  1.00  0.00    -0.200 F 
ENDBRANCH  49  63
BRANCH  50  74
ATOM     74  C   UNL A   1      39.651  33.817  36.684  1.00  0.00     0.064 A 
ATOM     75  C   UNL A   1      38.863  33.401  37.767  1.00  0.00     0.173 A 
ATOM     76  C   UNL A   1      40.265  35.074  36.772  1.00  0.00     0.173 A 
ATOM     77  F   UNL A   1      38.238  32.215  37.723  1.00  0.00    -0.203 F 
ATOM     78  C   UNL A   1      38.672  34.221  38.877  1.00  0.00     0.198 A 
ATOM     79  C   UNL A   1      40.098  35.882  37.896  1.00  0.00     0.198 A 
ATOM     80  F   UNL A   1      41.033  35.519  35.766  1.00  0.00    -0.203 F 
ATOM     81  F   UNL A   1      37.867  33.821  39.873  1.00  0.00    -0.200 F 
ATOM     82  C   UNL A   1      39.292  35.459  38.942  1.00  0.00     0.200 A 
ATOM     83  F   UNL A   1      40.711  37.071  37.961  1.00  0.00    -0.200 F 
ATOM     84  F   UNL A   1      39.106  36.249  40.009  1.00  0.00    -0.200 F 
ENDBRANCH  50  74
BRANCH  62  85
ATOM     85  C   UNL A   1      44.188  28.838  34.914  1.00  0.00     0.064 A 
ATOM     86  C   UNL A   1      45.459  29.412  34.762  1.00  0.00     0.173 A 
ATOM     87  C   UNL A   1      44.063  27.734  35.770  1.00  0.00     0.173 A 
ATOM     88  F   UNL A   1      45.634  30.460  33.943  1.00  0.00    -0.203 F 
ATOM     89  C   UNL A   1      46.565  28.884  35.422  1.00  0.00     0.198 A 
ATOM     90  C   UNL A   1      45.165  27.228  36.454  1.00  0.00     0.198 A 
ATOM     91  F   UNL A   1      42.868  27.153  35.955  1.00  0.00    -0.203 F 
ATOM     92  F   UNL A   1      47.779  29.416  35.224  1.00  0.00    -0.200 F 
ATOM     93  C   UNL A   1      46.416  27.798  36.273  1.00  0.00     0.200 A 
ATOM     94  F   UNL A   1      45.017  26.188  37.286  1.00  0.00    -0.200 F 
ATOM     95  F   UNL A   1      47.481  27.295  36.913  1.00  0.00    -0.200 F 
ENDBRANCH  62  85
ENDBRANCH  36  37
ENDBRANCH  28  31
ENDBRANCH  26  27
ENDBRANCH  25  26
ENDBRANCH  24  25
ENDBRANCH   1  24
TORSDOF 15
ENDMDL
MODEL 2
REMARK VINA RESULT:     -12.5      4.978      8.558
REMARK SMILES Cc1ccc(C(=O)N2CCC(CC(=O)NCCCCCCNC(=O)c3ccc(-c4c5nc(c(-c6c(F)c(F)c(F)c(F)c6F)c6ccc([nH]6)c(-c6c(F)c(F)c(F)c(F)c6F)c6nc(c(-c7c(F)c(F)c(F)c(F)c7F)c7ccc4[nH]7)C=C6)C=C5)cc3)CC2)cn1
REMARK SMILES IDX 18 1 17 2 16 3 15 4 13 5 14 6 12 8 11 9 6 10 7 11 8 12 9 13
REMARK SMILES IDX 89 14 10 15 88 16 5 17 1 18 2 19 3 20 91 21 4 22 90 23 19 24
REMARK SMILES IDX 20 25 21 26 22 27 23 28 24 30 25 31 26 32 87 33 27 34 86 35
REMARK SMILES IDX 28 36 29 37 30 38 80 39 31 40 85 41 79 42 81 43 32 44 84 45
REMARK SMILES IDX 78 46 77 47 33 49 65 50 45 51 64 52 46 53 49 54 63 55 82 56
REMARK SMILES IDX 47 57 48 58 62 60 83 61 50 62 34 63 35 64 43 65 36 66 37 67
REMARK SMILES IDX 41 68 44 69 38 70 39 71 42 72 40 73 66 74 67 75 75 76 68 77
REMARK SMILES IDX 69 78 73 79 76 80 70 81 71 82 74 83 72 84 51 85 52 86 60 87
REMARK SMILES IDX 53 88 54 89 58 90 61 91 55 92 56 93 59 94 57 95
REMARK H PARENT 15 7 22 29 81 48 49 59
REMARK Flexibility Score: inf
ROOT
ATOM      1  C   UNL A   1      34.403  35.977  27.926  1.00  0.00     0.002 C 
ENDROOT
BRANCH   1   2
ATOM      2  C   UNL A   1      33.631  37.012  28.741  1.00  0.00     0.021 C 
BRANCH   2   3
ATOM      3  C   UNL A   1      33.038  36.490  30.056  1.00  0.00     0.116 C 
BRANCH   3   4
ATOM      4  N   UNL A   1      33.515  37.271  31.188  1.00  0.00    -0.356 N 
ATOM      5  C   UNL A   1      33.725  36.920  32.488  1.00  0.00     0.220 C 
ATOM      6  O   UNL A   1      34.028  37.807  33.289  1.00  0.00    -0.275 OA
ATOM      7  H   UNL A   1      33.722  38.211  30.978  1.00  0.00     0.163 HD
BRANCH   5   8
ATOM      8  C   UNL A   1      33.587  35.475  32.947  1.00  0.00     0.103 C 
BRANCH   8   9
ATOM      9  C   UNL A   1      34.724  34.551  32.470  1.00  0.00     0.002 C 
ATOM     10  C   UNL A   1      37.339  32.065  34.286  1.00  0.00     0.255 C 
ATOM     11  O   UNL A   1      37.028  32.409  35.422  1.00  0.00    -0.269 OA
ATOM     12  N   UNL A   1      36.811  32.643  33.148  1.00  0.00    -0.339 N 
ATOM     13  C   UNL A   1      37.193  33.993  32.816  1.00  0.00     0.120 C 
ATOM     14  C   UNL A   1      35.586  32.145  32.546  1.00  0.00     0.120 C 
ATOM     15  C   UNL A   1      36.061  34.957  33.095  1.00  0.00     0.026 C 
ATOM     16  C   UNL A   1      34.403  33.080  32.807  1.00  0.00     0.026 C 
BRANCH  10  17
ATOM     17  C   UNL A   1      38.429  31.090  34.038  1.00  0.00     0.058 A 
ATOM     18  C   UNL A   1      41.341  28.054  33.419  1.00  0.00     0.066 C 
ATOM     19  C   UNL A   1      40.337  29.145  33.635  1.00  0.00     0.037 A 
ATOM     20  C   UNL A   1      40.678  30.282  34.360  1.00  0.00     0.024 A 
ATOM     21  N   UNL A   1      39.101  28.957  33.112  1.00  0.00    -0.261 NA
ATOM     22  C   UNL A   1      39.713  31.263  34.560  1.00  0.00     0.017 A 
ATOM     23  C   UNL A   1      38.175  29.930  33.324  1.00  0.00     0.125 A 
ENDBRANCH  10  17
ENDBRANCH   8   9
ENDBRANCH   5   8
ENDBRANCH   3   4
ENDBRANCH   2   3
ENDBRANCH   1   2
BRANCH   1  24
ATOM     24  C   UNL A   1      35.083  34.884  28.750  1.00  0.00     0.002 C 
BRANCH  24  25
ATOM     25  C   UNL A   1      35.033  33.477  28.148  1.00  0.00     0.021 C 
BRANCH  25  26
ATOM     26  C   UNL A   1      34.632  32.369  29.120  1.00  0.00     0.116 C 
BRANCH  26  27
ATOM     27  N   UNL A   1      34.036  31.233  28.436  1.00  0.00    -0.352 N 
ATOM     28  C   UNL A   1      34.634  30.115  27.908  1.00  0.00     0.251 C 
ATOM     29  H   UNL A   1      33.057  31.271  28.337  1.00  0.00     0.163 HD
ATOM     30  O   UNL A   1      34.009  29.369  27.172  1.00  0.00    -0.269 OA
BRANCH  28  31
ATOM     31  C   UNL A   1      36.047  29.817  28.231  1.00  0.00     0.039 A 
ATOM     32  C   UNL A   1      37.022  30.019  27.251  1.00  0.00     0.014 A 
ATOM     33  C   UNL A   1      36.402  29.305  29.483  1.00  0.00     0.014 A 
ATOM     34  C   UNL A   1      38.362  29.751  27.542  1.00  0.00     0.010 A 
ATOM     35  C   UNL A   1      37.744  29.106  29.795  1.00  0.00     0.010 A 
ATOM     36  C   UNL A   1      38.736  29.315  28.823  1.00  0.00    -0.014 A 
BRANCH  36  37
ATOM     37  C   UNL A   1      40.155  29.039  29.158  1.00  0.00     0.031 A 
ATOM     38  C   UNL A   1      40.799  27.760  28.697  1.00  0.00     0.074 A 
ATOM     39  C   UNL A   1      40.847  29.911  29.918  1.00  0.00     0.049 A 
ATOM     40  N   UNL A   1      41.999  27.299  28.945  1.00  0.00    -0.248 NA
ATOM     41  C   UNL A   1      39.976  26.867  27.868  1.00  0.00     0.031 C 
ATOM     42  C   UNL A   1      40.322  31.167  30.454  1.00  0.00     0.029 A 
ATOM     43  N   UNL A   1      42.139  29.867  30.378  1.00  0.00    -0.354 N 
ATOM     44  C   UNL A   1      42.067  26.064  28.314  1.00  0.00     0.074 A 
ATOM     45  C   UNL A   1      40.771  25.820  27.721  1.00  0.00     0.031 C 
ATOM     46  C   UNL A   1      41.289  31.785  31.153  1.00  0.00     0.029 A 
ATOM     47  C   UNL A   1      42.488  30.952  31.146  1.00  0.00     0.049 A 
ATOM     48  H   UNL A   1      42.758  29.128  30.177  1.00  0.00     0.167 HD
ATOM     49  C   UNL A   1      43.123  25.221  28.216  1.00  0.00     0.037 A 
ATOM     50  C   UNL A   1      43.641  31.235  31.778  1.00  0.00     0.037 A 
ATOM     51  C   UNL A   1      44.417  25.477  28.790  1.00  0.00     0.049 A 
ATOM     52  C   UNL A   1      44.794  30.271  31.668  1.00  0.00     0.074 A 
ATOM     53  C   UNL A   1      45.565  24.706  28.715  1.00  0.00     0.029 A 
ATOM     54  N   UNL A   1      44.736  26.596  29.546  1.00  0.00    -0.354 N 
ATOM     55  N   UNL A   1      44.865  29.134  31.019  1.00  0.00    -0.248 NA
ATOM     56  C   UNL A   1      46.031  30.635  32.373  1.00  0.00     0.031 C 
ATOM     57  C   UNL A   1      46.566  25.337  29.460  1.00  0.00     0.029 A 
ATOM     58  C   UNL A   1      46.059  26.528  29.956  1.00  0.00     0.049 A 
ATOM     59  H   UNL A   1      44.116  27.328  29.761  1.00  0.00     0.167 HD
ATOM     60  C   UNL A   1      46.160  28.668  31.204  1.00  0.00     0.074 A 
ATOM     61  C   UNL A   1      46.844  29.652  32.017  1.00  0.00     0.031 C 
ATOM     62  C   UNL A   1      46.730  27.528  30.745  1.00  0.00     0.037 A 
BRANCH  49  63
ATOM     63  C   UNL A   1      42.925  23.945  27.449  1.00  0.00     0.064 A 
ATOM     64  C   UNL A   1      43.276  23.843  26.094  1.00  0.00     0.173 A 
ATOM     65  C   UNL A   1      42.420  22.800  28.083  1.00  0.00     0.173 A 
ATOM     66  F   UNL A   1      43.752  24.911  25.437  1.00  0.00    -0.203 F 
ATOM     67  C   UNL A   1      43.101  22.650  25.395  1.00  0.00     0.198 A 
ATOM     68  C   UNL A   1      42.277  21.600  27.391  1.00  0.00     0.198 A 
ATOM     69  F   UNL A   1      42.076  22.841  29.379  1.00  0.00    -0.203 F 
ATOM     70  F   UNL A   1      43.397  22.591  24.090  1.00  0.00    -0.200 F 
ATOM     71  C   UNL A   1      42.611  21.529  26.046  1.00  0.00     0.200 A 
ATOM     72  F   UNL A   1      41.816  20.513  28.024  1.00  0.00    -0.200 F 
ATOM     73  F   UNL A   1      42.452  20.380  25.375  1.00  0.00    -0.200 F 
ENDBRANCH  49  63
BRANCH  50  74
ATOM     74  C   UNL A   1      43.782  32.496  32.553  1.00  0.00     0.064 A 
ATOM     75  C   UNL A   1      43.701  32.491  33.954  1.00  0.00     0.173 A 
ATOM     76  C   UNL A   1      43.973  33.731  31.917  1.00  0.00     0.173 A 
ATOM     77  F   UNL A   1      43.499  31.338  34.608  1.00  0.00    -0.203 F 
ATOM     78  C   UNL A   1      43.776  33.675  34.684  1.00  0.00     0.198 A 
ATOM     79  C   UNL A   1      44.078  34.911  32.650  1.00  0.00     0.198 A 
ATOM     80  F   UNL A   1      44.061  33.791  30.579  1.00  0.00    -0.203 F 
ATOM     81  F   UNL A   1      43.639  33.647  36.017  1.00  0.00    -0.200 F 
ATOM     82  C   UNL A   1      43.968  34.884  34.032  1.00  0.00     0.200 A 
ATOM     83  F   UNL A   1      44.278  36.075  32.018  1.00  0.00    -0.200 F 
ATOM     84  F   UNL A   1      44.037  36.023  34.735  1.00  0.00    -0.200 F 
ENDBRANCH  50  74
BRANCH  62  85
ATOM     85  C   UNL A   1      48.182  27.308  31.058  1.00  0.00     0.064 A 
ATOM     86  C   UNL A   1      48.593  26.536  32.154  1.00  0.00     0.173 A 
ATOM     87  C   UNL A   1      49.174  27.848  30.225  1.00  0.00     0.173 A 
ATOM     88  F   UNL A   1      47.684  26.011  32.990  1.00  0.00    -0.203 F 
ATOM     89  C   UNL A   1      49.945  26.334  32.420  1.00  0.00     0.198 A 
ATOM     90  C   UNL A   1      50.523  27.616  30.475  1.00  0.00     0.198 A 
ATOM     91  F   UNL A   1      48.833  28.588  29.159  1.00  0.00    -0.203 F 
ATOM     92  F   UNL A   1      50.317  25.635  33.501  1.00  0.00    -0.200 F 
ATOM     93  C   UNL A   1      50.908  26.867  31.576  1.00  0.00     0.200 A 
ATOM     94  F   UNL A   1      51.452  28.121  29.650  1.00  0.00    -0.200 F 
ATOM     95  F   UNL A   1      52.208  26.666  31.828  1.00  0.00    -0.200 F 
ENDBRANCH  62  85
ENDBRANCH  36  37
ENDBRANCH  28  31
ENDBRANCH  26  27
ENDBRANCH  25  26
ENDBRANCH  24  25
ENDBRANCH   1  24
TORSDOF 15
ENDMDL
MODEL 3
REMARK VINA RESULT:     -12.4      5.001     10.984
REMARK SMILES Cc1ccc(C(=O)N2CCC(CC(=O)NCCCCCCNC(=O)c3ccc(-c4c5nc(c(-c6c(F)c(F)c(F)c(F)c6F)c6ccc([nH]6)c(-c6c(F)c(F)c(F)c(F)c6F)c6nc(c(-c7c(F)c(F)c(F)c(F)c7F)c7ccc4[nH]7)C=C6)C=C5)cc3)CC2)cn1
REMARK SMILES IDX 18 1 17 2 16 3 15 4 13 5 14 6 12 8 11 9 6 10 7 11 8 12 9 13
REMARK SMILES IDX 89 14 10 15 88 16 5 17 1 18 2 19 3 20 91 21 4 22 90 23 19 24
REMARK SMILES IDX 20 25 21 26 22 27 23 28 24 30 25 31 26 32 87 33 27 34 86 35
REMARK SMILES IDX 28 36 29 37 30 38 80 39 31 40 85 41 79 42 81 43 32 44 84 45
REMARK SMILES IDX 78 46 77 47 33 49 65 50 45 51 64 52 46 53 49 54 63 55 82 56
REMARK SMILES IDX 47 57 48 58 62 60 83 61 50 62 34 63 35 64 43 65 36 66 37 67
REMARK SMILES IDX 41 68 44 69 38 70 39 71 42 72 40 73 66 74 67 75 75 76 68 77
REMARK SMILES IDX 69 78 73 79 76 80 70 81 71 82 74 83 72 84 51 85 52 86 60 87
REMARK SMILES IDX 53 88 54 89 58 90 61 91 55 92 56 93 59 94 57 95
REMARK H PARENT 15 7 22 29 81 48 49 59
REMARK Flexibility Score: inf
ROOT
ATOM      1  C   UNL A   1      34.403  35.911  28.003  1.00  0.00     0.002 C 
ENDROOT
BRANCH   1   2
ATOM      2  C   UNL A   1      33.653  36.974  28.804  1.00  0.00     0.021 C 
BRANCH   2   3
ATOM      3  C   UNL A   1      33.151  36.516  30.179  1.00  0.00     0.116 C 
BRANCH   3   4
ATOM      4  N   UNL A   1      33.557  37.451  31.218  1.00  0.00    -0.356 N 
ATOM      5  C   UNL A   1      33.809  37.257  32.543  1.00  0.00     0.220 C 
ATOM      6  O   UNL A   1      34.028  38.247  33.245  1.00  0.00    -0.275 OA
ATOM      7  H   UNL A   1      33.667  38.381  30.911  1.00  0.00     0.163 HD
BRANCH   5   8
ATOM      8  C   UNL A   1      33.818  35.860  33.148  1.00  0.00     0.103 C 
BRANCH   8   9
ATOM      9  C   UNL A   1      35.225  35.327  33.482  1.00  0.00     0.002 C 
ATOM     10  C   UNL A   1      37.069  31.746  33.187  1.00  0.00     0.255 C 
ATOM     11  O   UNL A   1      36.053  31.138  32.868  1.00  0.00    -0.269 OA
ATOM     12  N   UNL A   1      37.078  33.087  33.516  1.00  0.00    -0.339 N 
ATOM     13  C   UNL A   1      36.474  33.500  34.758  1.00  0.00     0.120 C 
ATOM     14  C   UNL A   1      37.250  34.113  32.501  1.00  0.00     0.120 C 
ATOM     15  C   UNL A   1      35.153  34.194  34.509  1.00  0.00     0.026 C 
ATOM     16  C   UNL A   1      35.938  34.842  32.203  1.00  0.00     0.026 C 
BRANCH  10  17
ATOM     17  C   UNL A   1      38.363  31.048  33.390  1.00  0.00     0.058 A 
ATOM     18  C   UNL A   1      41.899  28.802  34.117  1.00  0.00     0.066 C 
ATOM     19  C   UNL A   1      40.670  29.618  33.854  1.00  0.00     0.037 A 
ATOM     20  C   UNL A   1      40.633  30.965  34.199  1.00  0.00     0.024 A 
ATOM     21  N   UNL A   1      39.615  28.980  33.291  1.00  0.00    -0.261 NA
ATOM     22  C   UNL A   1      39.467  31.685  33.962  1.00  0.00     0.017 A 
ATOM     23  C   UNL A   1      38.486  29.705  33.073  1.00  0.00     0.125 A 
ENDBRANCH  10  17
ENDBRANCH   8   9
ENDBRANCH   5   8
ENDBRANCH   3   4
ENDBRANCH   2   3
ENDBRANCH   1   2
BRANCH   1  24
ATOM     24  C   UNL A   1      35.179  34.900  28.845  1.00  0.00     0.002 C 
BRANCH  24  25
ATOM     25  C   UNL A   1      35.209  33.470  28.297  1.00  0.00     0.021 C 
BRANCH  25  26
ATOM     26  C   UNL A   1      34.739  32.391  29.271  1.00  0.00     0.116 C 
BRANCH  26  27
ATOM     27  N   UNL A   1      34.058  31.302  28.591  1.00  0.00    -0.352 N 
ATOM     28  C   UNL A   1      34.576  30.165  28.019  1.00  0.00     0.251 C 
ATOM     29  H   UNL A   1      33.080  31.392  28.532  1.00  0.00     0.163 HD
ATOM     30  O   UNL A   1      33.884  29.467  27.295  1.00  0.00    -0.269 OA
BRANCH  28  31
ATOM     31  C   UNL A   1      35.983  29.788  28.280  1.00  0.00     0.039 A 
ATOM     32  C   UNL A   1      36.919  29.913  27.251  1.00  0.00     0.014 A 
ATOM     33  C   UNL A   1      36.368  29.278  29.523  1.00  0.00     0.014 A 
ATOM     34  C   UNL A   1      38.253  29.570  27.482  1.00  0.00     0.010 A 
ATOM     35  C   UNL A   1      37.709  29.004  29.775  1.00  0.00     0.010 A 
ATOM     36  C   UNL A   1      38.663  29.135  28.753  1.00  0.00    -0.014 A 
BRANCH  36  37
ATOM     37  C   UNL A   1      40.078  28.780  29.025  1.00  0.00     0.031 A 
ATOM     38  C   UNL A   1      40.969  29.752  29.750  1.00  0.00     0.074 A 
ATOM     39  C   UNL A   1      40.574  27.610  28.578  1.00  0.00     0.049 A 
ATOM     40  N   UNL A   1      42.246  29.664  30.021  1.00  0.00    -0.248 NA
ATOM     41  C   UNL A   1      40.346  31.003  30.209  1.00  0.00     0.031 C 
ATOM     42  C   UNL A   1      39.820  26.601  27.833  1.00  0.00     0.029 A 
ATOM     43  N   UNL A   1      41.835  27.077  28.677  1.00  0.00    -0.354 N 
ATOM     44  C   UNL A   1      42.578  30.847  30.667  1.00  0.00     0.074 A 
ATOM     45  C   UNL A   1      41.384  31.662  30.699  1.00  0.00     0.031 C 
ATOM     46  C   UNL A   1      40.627  25.562  27.560  1.00  0.00     0.029 A 
ATOM     47  C   UNL A   1      41.963  25.848  28.076  1.00  0.00     0.049 A 
ATOM     48  H   UNL A   1      42.579  27.532  29.135  1.00  0.00     0.167 HD
ATOM     49  C   UNL A   1      43.765  31.210  31.210  1.00  0.00     0.037 A 
ATOM     50  C   UNL A   1      43.037  25.048  27.951  1.00  0.00     0.037 A 
ATOM     51  C   UNL A   1      44.946  30.388  31.196  1.00  0.00     0.049 A 
ATOM     52  C   UNL A   1      44.350  25.485  28.548  1.00  0.00     0.074 A 
ATOM     53  C   UNL A   1      46.187  30.647  31.751  1.00  0.00     0.029 A 
ATOM     54  N   UNL A   1      45.030  29.141  30.593  1.00  0.00    -0.354 N 
ATOM     55  N   UNL A   1      44.637  26.580  29.210  1.00  0.00    -0.248 NA
ATOM     56  C   UNL A   1      45.488  24.569  28.387  1.00  0.00     0.031 C 
ATOM     57  C   UNL A   1      47.034  29.576  31.450  1.00  0.00     0.029 A 
ATOM     58  C   UNL A   1      46.306  28.625  30.751  1.00  0.00     0.049 A 
ATOM     59  H   UNL A   1      44.293  28.690  30.122  1.00  0.00     0.167 HD
ATOM     60  C   UNL A   1      45.971  26.467  29.576  1.00  0.00     0.074 A 
ATOM     61  C   UNL A   1      46.434  25.192  29.073  1.00  0.00     0.031 C 
ATOM     62  C   UNL A   1      46.744  27.342  30.264  1.00  0.00     0.037 A 
BRANCH  49  63
ATOM     63  C   UNL A   1      43.843  32.553  31.876  1.00  0.00     0.064 A 
ATOM     64  C   UNL A   1      43.809  32.682  33.274  1.00  0.00     0.173 A 
ATOM     65  C   UNL A   1      43.995  33.723  31.115  1.00  0.00     0.173 A 
ATOM     66  F   UNL A   1      43.653  31.598  34.048  1.00  0.00    -0.203 F 
ATOM     67  C   UNL A   1      43.895  33.932  33.882  1.00  0.00     0.198 A 
ATOM     68  C   UNL A   1      44.114  34.967  31.728  1.00  0.00     0.198 A 
ATOM     69  F   UNL A   1      44.040  33.656  29.776  1.00  0.00    -0.203 F 
ATOM     70  F   UNL A   1      43.812  34.033  35.216  1.00  0.00    -0.200 F 
ATOM     71  C   UNL A   1      44.057  35.072  33.110  1.00  0.00     0.200 A 
ATOM     72  F   UNL A   1      44.283  36.067  30.981  1.00  0.00    -0.200 F 
ATOM     73  F   UNL A   1      44.150  36.272  33.697  1.00  0.00    -0.200 F 
ENDBRANCH  49  63
BRANCH  50  74
ATOM     74  C   UNL A   1      42.921  23.739  27.255  1.00  0.00     0.064 A 
ATOM     75  C   UNL A   1      42.421  22.612  27.923  1.00  0.00     0.173 A 
ATOM     76  C   UNL A   1      43.329  23.578  25.923  1.00  0.00     0.173 A 
ATOM     77  F   UNL A   1      42.036  22.710  29.205  1.00  0.00    -0.203 F 
ATOM     78  C   UNL A   1      42.360  21.370  27.295  1.00  0.00     0.198 A 
ATOM     79  C   UNL A   1      43.240  22.342  25.287  1.00  0.00     0.198 A 
ATOM     80  F   UNL A   1      43.811  24.625  25.237  1.00  0.00    -0.203 F 
ATOM     81  F   UNL A   1      41.931  20.298  27.976  1.00  0.00    -0.200 F 
ATOM     82  C   UNL A   1      42.767  21.236  25.977  1.00  0.00     0.200 A 
ATOM     83  F   UNL A   1      43.620  22.220  24.008  1.00  0.00    -0.200 F 
ATOM     84  F   UNL A   1      42.711  20.041  25.374  1.00  0.00    -0.200 F 
ENDBRANCH  50  74
BRANCH  62  85
ATOM     85  C   UNL A   1      48.154  26.926  30.568  1.00  0.00     0.064 A 
ATOM     86  C   UNL A   1      49.225  27.286  29.737  1.00  0.00     0.173 A 
ATOM     87  C   UNL A   1      48.439  26.191  31.728  1.00  0.00     0.173 A 
ATOM     88  F   UNL A   1      49.004  27.975  28.608  1.00  0.00    -0.203 F 
ATOM     89  C   UNL A   1      50.528  26.900  30.044  1.00  0.00     0.198 A 
ATOM     90  C   UNL A   1      49.746  25.835  32.049  1.00  0.00     0.198 A 
ATOM     91  F   UNL A   1      47.450  25.829  32.560  1.00  0.00    -0.203 F 
ATOM     92  F   UNL A   1      51.531  27.211  29.211  1.00  0.00    -0.200 F 
ATOM     93  C   UNL A   1      50.788  26.183  31.203  1.00  0.00     0.200 A 
ATOM     94  F   UNL A   1      49.997  25.155  33.176  1.00  0.00    -0.200 F 
ATOM     95  F   UNL A   1      52.043  25.819  31.500  1.00  0.00    -0.200 F 
ENDBRANCH  62  85
ENDBRANCH  36  37
ENDBRANCH  28  31
ENDBRANCH  26  27
ENDBRANCH  25  26
ENDBRANCH  24  25
ENDBRANCH   1  24
TORSDOF 15
ENDMDL
