MODEL 1
REMARK VINA RESULT:     -11.2      0.000      0.000
REMARK SMILES CCN1CC(=O)N(C[C@@H]([NH3+])C(=O)NCCCCCCNC(=O)c2ccc(-c3c4nc(c(-c5c(F)c(F)c(F)c(F)c5F)c5ccc([nH]5)c(-c5c(F)c(F)c(F)c(F)c5F)c5nc(c(-c6c(F)c(F)c(F)c(F)c6F)c6ccc3[nH]6)C=C5)C=C4)cc2)CC1=O
REMARK SMILES IDX 16 1 15 2 14 3 13 4 11 5 12 6 9 8 8 9 7 10 3 11 4 12 87 13
REMARK SMILES IDX 5 14 86 15 88 16 6 17 2 18 1 19 10 20 17 24 18 25 19 26
REMARK SMILES IDX 20 27 21 28 22 30 23 31 24 32 85 33 25 34 84 35 26 36 27 37
REMARK SMILES IDX 28 38 78 39 29 40 83 41 77 42 79 43 30 44 82 45 76 46 75 47
REMARK SMILES IDX 31 49 63 50 43 51 62 52 44 53 47 54 61 55 80 56 45 57 46 58
REMARK SMILES IDX 60 60 81 61 48 62 32 63 33 64 41 65 34 66 35 67 39 68 42 69
REMARK SMILES IDX 36 70 37 71 40 72 38 73 64 74 65 75 73 76 66 77 67 78 71 79
REMARK SMILES IDX 74 80 68 81 69 82 72 83 70 84 49 85 50 86 58 87 51 88 52 89
REMARK SMILES IDX 56 90 59 91 53 92 54 93 57 94 55 95
REMARK H PARENT 13 7 10 21 10 22 10 23 20 29 79 48 47 59
REMARK Flexibility Score: inf
ROOT
ATOM      1  C   UNL A   1      32.511  30.198  27.029  1.00  0.00     0.002 C 
ENDROOT
BRANCH   1   2
ATOM      2  C   UNL A   1      32.248  28.698  27.212  1.00  0.00     0.021 C 
BRANCH   2   3
ATOM      3  C   UNL A   1      32.441  27.872  25.937  1.00  0.00     0.116 C 
BRANCH   3   4
ATOM      4  N   UNL A   1      32.615  26.468  26.261  1.00  0.00    -0.351 N 
ATOM      5  C   UNL A   1      31.705  25.453  26.305  1.00  0.00     0.280 C 
ATOM      6  O   UNL A   1      32.109  24.335  26.638  1.00  0.00    -0.268 OA
ATOM      7  H   UNL A   1      33.536  26.207  26.485  1.00  0.00     0.163 HD
BRANCH   5   8
ATOM      8  C   UNL A   1      30.235  25.665  25.884  1.00  0.00     0.290 C 
BRANCH   8   9
ATOM      9  C   UNL A   1      30.056  25.434  24.367  1.00  0.00     0.195 C 
BRANCH   9  10
ATOM     10  N   UNL A   1      29.698  26.614  23.573  1.00  0.00    -0.325 N 
ATOM     11  N   UNL A   1      29.430  29.288  22.852  1.00  0.00    -0.332 N 
ATOM     12  C   UNL A   1      28.233  28.436  22.812  1.00  0.00     0.219 C 
ATOM     13  C   UNL A   1      30.681  28.698  22.652  1.00  0.00     0.242 C 
ATOM     14  C   UNL A   1      28.411  27.127  23.596  1.00  0.00     0.242 C 
ATOM     15  C   UNL A   1      30.672  27.174  22.642  1.00  0.00     0.220 C 
ATOM     16  O   UNL A   1      31.687  29.339  22.352  1.00  0.00    -0.273 OA
ATOM     17  O   UNL A   1      27.462  26.536  24.106  1.00  0.00    -0.273 OA
BRANCH  11  18
ATOM     18  C   UNL A   1      29.354  30.737  22.678  1.00  0.00     0.116 C 
ATOM     19  C   UNL A   1      28.744  31.541  23.812  1.00  0.00     0.027 C 
ENDBRANCH  11  18
ENDBRANCH   9  10
ENDBRANCH   8   9
BRANCH   8  20
ATOM     20  N   UNL A   1      29.359  24.860  26.778  1.00  0.00    -0.346 N 
ATOM     21  H   UNL A   1      29.469  23.870  26.560  1.00  0.00     0.345 HD
ATOM     22  H   UNL A   1      28.386  25.134  26.637  1.00  0.00     0.345 HD
ATOM     23  H   UNL A   1      29.620  25.025  27.750  1.00  0.00     0.345 HD
ENDBRANCH   8  20
ENDBRANCH   5   8
ENDBRANCH   3   4
ENDBRANCH   2   3
ENDBRANCH   1   2
BRANCH   1  24
ATOM     24  C   UNL A   1      31.422  30.959  26.265  1.00  0.00     0.002 C 
BRANCH  24  25
ATOM     25  C   UNL A   1      31.388  32.468  26.516  1.00  0.00     0.021 C 
BRANCH  25  26
ATOM     26  C   UNL A   1      32.598  33.016  27.267  1.00  0.00     0.116 C 
BRANCH  26  27
ATOM     27  N   UNL A   1      32.401  34.391  27.698  1.00  0.00    -0.352 N 
ATOM     28  C   UNL A   1      33.014  35.080  28.713  1.00  0.00     0.251 C 
ATOM     29  H   UNL A   1      31.732  34.900  27.188  1.00  0.00     0.163 HD
ATOM     30  O   UNL A   1      32.588  36.181  29.057  1.00  0.00    -0.269 OA
BRANCH  28  31
ATOM     31  C   UNL A   1      34.177  34.494  29.410  1.00  0.00     0.039 A 
ATOM     32  C   UNL A   1      33.971  33.812  30.612  1.00  0.00     0.014 A 
ATOM     33  C   UNL A   1      35.470  34.635  28.895  1.00  0.00     0.014 A 
ATOM     34  C   UNL A   1      35.053  33.227  31.272  1.00  0.00     0.010 A 
ATOM     35  C   UNL A   1      36.538  33.996  29.520  1.00  0.00     0.010 A 
ATOM     36  C   UNL A   1      36.341  33.292  30.717  1.00  0.00    -0.014 A 
BRANCH  36  37
ATOM     37  C   UNL A   1      37.495  32.638  31.383  1.00  0.00     0.031 A 
ATOM     38  C   UNL A   1      38.212  31.503  30.707  1.00  0.00     0.074 A 
ATOM     39  C   UNL A   1      37.860  33.028  32.619  1.00  0.00     0.049 A 
ATOM     40  N   UNL A   1      39.202  30.769  31.148  1.00  0.00    -0.248 NA
ATOM     41  C   UNL A   1      37.736  31.126  29.367  1.00  0.00     0.031 C 
ATOM     42  C   UNL A   1      37.213  34.086  33.397  1.00  0.00     0.029 A 
ATOM     43  N   UNL A   1      38.859  32.573  33.443  1.00  0.00    -0.354 N 
ATOM     44  C   UNL A   1      39.455  29.837  30.150  1.00  0.00     0.074 A 
ATOM     45  C   UNL A   1      38.483  30.065  29.103  1.00  0.00     0.031 C 
ATOM     46  C   UNL A   1      37.845  34.214  34.574  1.00  0.00     0.029 A 
ATOM     47  C   UNL A   1      38.919  33.226  34.649  1.00  0.00     0.049 A 
ATOM     48  H   UNL A   1      39.475  31.847  33.192  1.00  0.00     0.167 HD
ATOM     49  C   UNL A   1      40.425  28.894  30.101  1.00  0.00     0.037 A 
ATOM     50  C   UNL A   1      39.744  33.047  35.696  1.00  0.00     0.037 A 
ATOM     51  C   UNL A   1      41.407  28.687  31.133  1.00  0.00     0.049 A 
ATOM     52  C   UNL A   1      40.815  31.993  35.615  1.00  0.00     0.074 A 
ATOM     53  C   UNL A   1      42.467  27.796  31.153  1.00  0.00     0.029 A 
ATOM     54  N   UNL A   1      41.448  29.382  32.333  1.00  0.00    -0.354 N 
ATOM     55  N   UNL A   1      41.088  31.162  34.639  1.00  0.00    -0.248 NA
ATOM     56  C   UNL A   1      41.698  31.858  36.782  1.00  0.00     0.031 C 
ATOM     57  C   UNL A   1      43.124  27.924  32.381  1.00  0.00     0.029 A 
ATOM     58  C   UNL A   1      42.503  28.927  33.108  1.00  0.00     0.049 A 
ATOM     59  H   UNL A   1      40.820  30.093  32.596  1.00  0.00     0.167 HD
ATOM     60  C   UNL A   1      42.188  30.427  35.058  1.00  0.00     0.074 A 
ATOM     61  C   UNL A   1      42.541  30.919  36.375  1.00  0.00     0.031 C 
ATOM     62  C   UNL A   1      42.846  29.434  34.412  1.00  0.00     0.037 A 
BRANCH  49  63
ATOM     63  C   UNL A   1      40.474  28.014  28.886  1.00  0.00     0.064 A 
ATOM     64  C   UNL A   1      41.233  28.359  27.757  1.00  0.00     0.173 A 
ATOM     65  C   UNL A   1      39.774  26.798  28.857  1.00  0.00     0.173 A 
ATOM     66  F   UNL A   1      41.911  29.518  27.729  1.00  0.00    -0.203 F 
ATOM     67  C   UNL A   1      41.265  27.538  26.634  1.00  0.00     0.198 A 
ATOM     68  C   UNL A   1      39.833  25.963  27.743  1.00  0.00     0.198 A 
ATOM     69  F   UNL A   1      39.037  26.415  29.911  1.00  0.00    -0.203 F 
ATOM     70  F   UNL A   1      41.955  27.915  25.549  1.00  0.00    -0.200 F 
ATOM     71  C   UNL A   1      40.570  26.338  26.630  1.00  0.00     0.200 A 
ATOM     72  F   UNL A   1      39.172  24.797  27.746  1.00  0.00    -0.200 F 
ATOM     73  F   UNL A   1      40.605  25.545  25.550  1.00  0.00    -0.200 F 
ENDBRANCH  49  63
BRANCH  50  74
ATOM     74  C   UNL A   1      39.614  33.909  36.898  1.00  0.00     0.064 A 
ATOM     75  C   UNL A   1      40.245  35.160  36.955  1.00  0.00     0.173 A 
ATOM     76  C   UNL A   1      38.857  33.508  38.007  1.00  0.00     0.173 A 
ATOM     77  F   UNL A   1      40.995  35.578  35.925  1.00  0.00    -0.203 F 
ATOM     78  C   UNL A   1      40.138  35.969  38.085  1.00  0.00     0.198 A 
ATOM     79  C   UNL A   1      38.729  34.328  39.127  1.00  0.00     0.198 A 
ATOM     80  F   UNL A   1      38.230  32.322  38.000  1.00  0.00    -0.203 F 
ATOM     81  F   UNL A   1      40.784  37.141  38.128  1.00  0.00    -0.200 F 
ATOM     82  C   UNL A   1      39.376  35.556  39.166  1.00  0.00     0.200 A 
ATOM     83  F   UNL A   1      37.981  33.931  40.165  1.00  0.00    -0.200 F 
ATOM     84  F   UNL A   1      39.270  36.335  40.251  1.00  0.00    -0.200 F 
ENDBRANCH  50  74
BRANCH  62  85
ATOM     85  C   UNL A   1      44.037  28.837  35.103  1.00  0.00     0.064 A 
ATOM     86  C   UNL A   1      43.920  27.710  35.929  1.00  0.00     0.173 A 
ATOM     87  C   UNL A   1      45.316  29.380  34.906  1.00  0.00     0.173 A 
ATOM     88  F   UNL A   1      42.717  27.165  36.162  1.00  0.00    -0.203 F 
ATOM     89  C   UNL A   1      45.039  27.164  36.554  1.00  0.00     0.198 A 
ATOM     90  C   UNL A   1      46.435  28.813  35.509  1.00  0.00     0.198 A 
ATOM     91  F   UNL A   1      45.481  30.454  34.121  1.00  0.00    -0.203 F 
ATOM     92  F   UNL A   1      44.898  26.115  37.377  1.00  0.00    -0.200 F 
ATOM     93  C   UNL A   1      46.294  27.710  36.338  1.00  0.00     0.200 A 
ATOM     94  F   UNL A   1      47.650  29.335  35.290  1.00  0.00    -0.200 F 
ATOM     95  F   UNL A   1      47.370  27.179  36.935  1.00  0.00    -0.200 F 
ENDBRANCH  62  85
ENDBRANCH  36  37
ENDBRANCH  28  31
ENDBRANCH  26  27
ENDBRANCH  25  26
ENDBRANCH  24  25
ENDBRANCH   1  24
TORSDOF 17
ENDMDL
MODEL 2
REMARK VINA RESULT:     -11.2      0.245      1.976
REMARK SMILES CCN1CC(=O)N(C[C@@H]([NH3+])C(=O)NCCCCCCNC(=O)c2ccc(-c3c4nc(c(-c5c(F)c(F)c(F)c(F)c5F)c5ccc([nH]5)c(-c5c(F)c(F)c(F)c(F)c5F)c5nc(c(-c6c(F)c(F)c(F)c(F)c6F)c6ccc3[nH]6)C=C5)C=C4)cc2)CC1=O
REMARK SMILES IDX 16 1 15 2 14 3 13 4 11 5 12 6 9 8 8 9 7 10 3 11 4 12 87 13
REMARK SMILES IDX 5 14 86 15 88 16 6 17 2 18 1 19 10 20 17 24 18 25 19 26
REMARK SMILES IDX 20 27 21 28 22 30 23 31 24 32 85 33 25 34 84 35 26 36 27 37
REMARK SMILES IDX 28 38 78 39 29 40 83 41 77 42 79 43 30 44 82 45 76 46 75 47
REMARK SMILES IDX 31 49 63 50 43 51 62 52 44 53 47 54 61 55 80 56 45 57 46 58
REMARK SMILES IDX 60 60 81 61 48 62 32 63 33 64 41 65 34 66 35 67 39 68 42 69
REMARK SMILES IDX 36 70 37 71 40 72 38 73 64 74 65 75 73 76 66 77 67 78 71 79
REMARK SMILES IDX 74 80 68 81 69 82 72 83 70 84 49 85 50 86 58 87 51 88 52 89
REMARK SMILES IDX 56 90 59 91 53 92 54 93 57 94 55 95
REMARK H PARENT 13 7 10 21 10 22 10 23 20 29 79 48 47 59
REMARK Flexibility Score: inf
ROOT
ATOM      1  C   UNL A   1      31.714  29.547  27.091  1.00  0.00     0.002 C 
ENDROOT
BRANCH   1   2
ATOM      2  C   UNL A   1      32.923  28.611  26.963  1.00  0.00     0.021 C 
BRANCH   2   3
ATOM      3  C   UNL A   1      32.830  27.632  25.790  1.00  0.00     0.116 C 
BRANCH   3   4
ATOM      4  N   UNL A   1      32.789  26.263  26.272  1.00  0.00    -0.351 N 
ATOM      5  C   UNL A   1      31.744  25.392  26.369  1.00  0.00     0.280 C 
ATOM      6  O   UNL A   1      31.972  24.275  26.843  1.00  0.00    -0.268 OA
ATOM      7  H   UNL A   1      33.654  25.907  26.577  1.00  0.00     0.163 HD
BRANCH   5   8
ATOM      8  C   UNL A   1      30.339  25.751  25.840  1.00  0.00     0.290 C 
BRANCH   8   9
ATOM      9  C   UNL A   1      30.259  25.560  24.309  1.00  0.00     0.195 C 
BRANCH   9  10
ATOM     10  N   UNL A   1      29.766  26.707  23.541  1.00  0.00    -0.325 N 
ATOM     11  N   UNL A   1      29.246  29.351  22.848  1.00  0.00    -0.332 N 
ATOM     12  C   UNL A   1      28.120  28.406  22.869  1.00  0.00     0.219 C 
ATOM     13  C   UNL A   1      30.528  28.864  22.579  1.00  0.00     0.242 C 
ATOM     14  C   UNL A   1      28.445  27.114  23.636  1.00  0.00     0.242 C 
ATOM     15  C   UNL A   1      30.640  27.343  22.562  1.00  0.00     0.220 C 
ATOM     16  O   UNL A   1      31.461  29.583  22.228  1.00  0.00    -0.273 OA
ATOM     17  O   UNL A   1      27.575  26.450  24.192  1.00  0.00    -0.273 OA
BRANCH  11  18
ATOM     18  C   UNL A   1      29.045  30.789  22.684  1.00  0.00     0.116 C 
ATOM     19  C   UNL A   1      28.174  31.488  23.712  1.00  0.00     0.027 C 
ENDBRANCH  11  18
ENDBRANCH   9  10
ENDBRANCH   8   9
BRANCH   8  20
ATOM     20  N   UNL A   1      29.323  25.022  26.646  1.00  0.00    -0.346 N 
ATOM     21  H   UNL A   1      29.571  24.033  26.694  1.00  0.00     0.345 HD
ATOM     22  H   UNL A   1      28.407  25.121  26.208  1.00  0.00     0.345 HD
ATOM     23  H   UNL A   1      29.292  25.410  27.589  1.00  0.00     0.345 HD
ENDBRANCH   8  20
ENDBRANCH   5   8
ENDBRANCH   3   4
ENDBRANCH   2   3
ENDBRANCH   1   2
BRANCH   1  24
ATOM     24  C   UNL A   1      31.673  30.696  26.078  1.00  0.00     0.002 C 
BRANCH  24  25
ATOM     25  C   UNL A   1      31.445  32.084  26.682  1.00  0.00     0.021 C 
BRANCH  25  26
ATOM     26  C   UNL A   1      32.716  32.801  27.127  1.00  0.00     0.116 C 
BRANCH  26  27
ATOM     27  N   UNL A   1      32.450  34.154  27.590  1.00  0.00    -0.352 N 
ATOM     28  C   UNL A   1      33.012  34.840  28.636  1.00  0.00     0.251 C 
ATOM     29  H   UNL A   1      31.769  34.647  27.080  1.00  0.00     0.163 HD
ATOM     30  O   UNL A   1      32.531  35.912  29.000  1.00  0.00    -0.269 OA
BRANCH  28  31
ATOM     31  C   UNL A   1      34.185  34.287  29.342  1.00  0.00     0.039 A 
ATOM     32  C   UNL A   1      33.989  33.599  30.542  1.00  0.00     0.014 A 
ATOM     33  C   UNL A   1      35.477  34.463  28.836  1.00  0.00     0.014 A 
ATOM     34  C   UNL A   1      35.082  33.044  31.210  1.00  0.00     0.010 A 
ATOM     35  C   UNL A   1      36.558  33.854  29.468  1.00  0.00     0.010 A 
ATOM     36  C   UNL A   1      36.372  33.145  30.664  1.00  0.00    -0.014 A 
BRANCH  36  37
ATOM     37  C   UNL A   1      37.539  32.523  31.338  1.00  0.00     0.031 A 
ATOM     38  C   UNL A   1      38.292  31.408  30.668  1.00  0.00     0.074 A 
ATOM     39  C   UNL A   1      37.885  32.923  32.576  1.00  0.00     0.049 A 
ATOM     40  N   UNL A   1      39.298  30.700  31.116  1.00  0.00    -0.248 NA
ATOM     41  C   UNL A   1      37.834  31.017  29.325  1.00  0.00     0.031 C 
ATOM     42  C   UNL A   1      37.204  33.964  33.349  1.00  0.00     0.029 A 
ATOM     43  N   UNL A   1      38.890  32.495  33.407  1.00  0.00    -0.354 N 
ATOM     44  C   UNL A   1      39.583  29.776  30.121  1.00  0.00     0.074 A 
ATOM     45  C   UNL A   1      38.613  29.977  29.066  1.00  0.00     0.031 C 
ATOM     46  C   UNL A   1      37.825  34.109  34.531  1.00  0.00     0.029 A 
ATOM     47  C   UNL A   1      38.924  33.151  34.613  1.00  0.00     0.049 A 
ATOM     48  H   UNL A   1      39.527  31.786  33.160  1.00  0.00     0.167 HD
ATOM     49  C   UNL A   1      40.579  28.859  30.078  1.00  0.00     0.037 A 
ATOM     50  C   UNL A   1      39.747  32.995  35.665  1.00  0.00     0.037 A 
ATOM     51  C   UNL A   1      41.559  28.679  31.117  1.00  0.00     0.049 A 
ATOM     52  C   UNL A   1      40.847  31.971  35.593  1.00  0.00     0.074 A 
ATOM     53  C   UNL A   1      42.642  27.818  31.145  1.00  0.00     0.029 A 
ATOM     54  N   UNL A   1      41.573  29.376  32.317  1.00  0.00    -0.354 N 
ATOM     55  N   UNL A   1      41.148  31.147  34.620  1.00  0.00    -0.248 NA
ATOM     56  C   UNL A   1      41.725  31.860  36.766  1.00  0.00     0.031 C 
ATOM     57  C   UNL A   1      43.287  27.964  32.378  1.00  0.00     0.029 A 
ATOM     58  C   UNL A   1      42.635  28.950  33.099  1.00  0.00     0.049 A 
ATOM     59  H   UNL A   1      40.923  30.070  32.575  1.00  0.00     0.167 HD
ATOM     60  C   UNL A   1      42.265  30.442  35.046  1.00  0.00     0.074 A 
ATOM     61  C   UNL A   1      42.596  30.944  36.365  1.00  0.00     0.031 C 
ATOM     62  C   UNL A   1      42.954  29.467  34.406  1.00  0.00     0.037 A 
BRANCH  49  63
ATOM     63  C   UNL A   1      40.660  27.980  28.864  1.00  0.00     0.064 A 
ATOM     64  C   UNL A   1      39.924  26.789  28.769  1.00  0.00     0.173 A 
ATOM     65  C   UNL A   1      41.462  28.343  27.772  1.00  0.00     0.173 A 
ATOM     66  F   UNL A   1      39.151  26.389  29.791  1.00  0.00    -0.203 F 
ATOM     67  C   UNL A   1      40.012  25.979  27.640  1.00  0.00     0.198 A 
ATOM     68  C   UNL A   1      41.524  27.546  26.631  1.00  0.00     0.198 A 
ATOM     69  F   UNL A   1      42.182  29.475  27.807  1.00  0.00    -0.203 F 
ATOM     70  F   UNL A   1      39.340  24.820  27.595  1.00  0.00    -0.200 F 
ATOM     71  C   UNL A   1      40.807  26.361  26.570  1.00  0.00     0.200 A 
ATOM     72  F   UNL A   1      42.282  27.923  25.592  1.00  0.00    -0.200 F 
ATOM     73  F   UNL A   1      40.888  25.583  25.482  1.00  0.00    -0.200 F 
ENDBRANCH  49  63
BRANCH  50  74
ATOM     74  C   UNL A   1      39.585  33.854  36.866  1.00  0.00     0.064 A 
ATOM     75  C   UNL A   1      38.834  33.415  37.966  1.00  0.00     0.173 A 
ATOM     76  C   UNL A   1      40.176  35.122  36.943  1.00  0.00     0.173 A 
ATOM     77  F   UNL A   1      38.234  32.216  37.930  1.00  0.00    -0.203 F 
ATOM     78  C   UNL A   1      38.666  34.220  39.090  1.00  0.00     0.198 A 
ATOM     79  C   UNL A   1      40.029  35.917  38.078  1.00  0.00     0.198 A 
ATOM     80  F   UNL A   1      40.908  35.586  35.919  1.00  0.00    -0.203 F 
ATOM     81  F   UNL A   1      37.909  33.792  40.110  1.00  0.00    -0.200 F 
ATOM     82  C   UNL A   1      39.268  35.468  39.148  1.00  0.00     0.200 A 
ATOM     83  F   UNL A   1      40.623  37.116  38.137  1.00  0.00    -0.200 F 
ATOM     84  F   UNL A   1      39.110  36.241  40.231  1.00  0.00    -0.200 F 
ENDBRANCH  50  74
BRANCH  62  85
ATOM     85  C   UNL A   1      44.156  28.903  35.105  1.00  0.00     0.064 A 
ATOM     86  C   UNL A   1      45.435  29.452  34.931  1.00  0.00     0.173 A 
ATOM     87  C   UNL A   1      44.019  27.822  35.989  1.00  0.00     0.173 A 
ATOM     88  F   UNL A   1      45.621  30.476  34.084  1.00  0.00    -0.203 F 
ATOM     89  C   UNL A   1      46.537  28.921  35.596  1.00  0.00     0.198 A 
ATOM     90  C   UNL A   1      45.118  27.313  36.674  1.00  0.00     0.198 A 
ATOM     91  F   UNL A   1      42.816  27.265  36.195  1.00  0.00    -0.203 F 
ATOM     92  F   UNL A   1      47.757  29.431  35.379  1.00  0.00    -0.200 F 
ATOM     93  C   UNL A   1      46.377  27.858  36.472  1.00  0.00     0.200 A 
ATOM     94  F   UNL A   1      44.960  26.293  37.530  1.00  0.00    -0.200 F 
ATOM     95  F   UNL A   1      47.438  27.353  37.117  1.00  0.00    -0.200 F 
ENDBRANCH  62  85
ENDBRANCH  36  37
ENDBRANCH  28  31
ENDBRANCH  26  27
ENDBRANCH  25  26
ENDBRANCH  24  25
ENDBRANCH   1  24
TORSDOF 17
ENDMDL
MODEL 3
REMARK VINA RESULT:     -11.0      1.772      3.592
REMARK SMILES CCN1CC(=O)N(C[C@@H]([NH3+])C(=O)NCCCCCCNC(=O)c2ccc(-c3c4nc(c(-c5c(F)c(F)c(F)c(F)c5F)c5ccc([nH]5)c(-c5c(F)c(F)c(F)c(F)c5F)c5nc(c(-c6c(F)c(F)c(F)c(F)c6F)c6ccc3[nH]6)C=C5)C=C4)cc2)CC1=O
REMARK SMILES IDX 16 1 15 2 14 3 13 4 11 5 12 6 9 8 8 9 7 10 3 11 4 12 87 13
REMARK SMILES IDX 5 14 86 15 88 16 6 17 2 18 1 19 10 20 17 24 18 25 19 26
REMARK SMILES IDX 20 27 21 28 22 30 23 31 24 32 85 33 25 34 84 35 26 36 27 37
REMARK SMILES IDX 28 38 78 39 29 40 83 41 77 42 79 43 30 44 82 45 76 46 75 47
REMARK SMILES IDX 31 49 63 50 43 51 62 52 44 53 47 54 61 55 80 56 45 57 46 58
REMARK SMILES IDX 60 60 81 61 48 62 32 63 33 64 41 65 34 66 35 67 39 68 42 69
REMARK SMILES IDX 36 70 37 71 40 72 38 73 64 74 65 75 73 76 66 77 67 78 71 79
REMARK SMILES IDX 74 80 68 81 69 82 72 83 70 84 49 85 50 86 58 87 51 88 52 89
REMARK SMILES IDX 56 90 59 91 53 92 54 93 57 94 55 95
REMARK H PARENT 13 7 10 21 10 22 10 23 20 29 79 48 47 59
REMARK Flexibility Score: inf
ROOT
ATOM      1  C   UNL A   1      32.583  30.055  27.203  1.00  0.00     0.002 C 
ENDROOT
BRANCH   1   2
ATOM      2  C   UNL A   1      32.373  28.559  27.469  1.00  0.00     0.021 C 
BRANCH   2   3
ATOM      3  C   UNL A   1      31.688  27.814  26.320  1.00  0.00     0.116 C 
BRANCH   3   4
ATOM      4  N   UNL A   1      31.241  26.503  26.757  1.00  0.00    -0.351 N 
ATOM      5  C   UNL A   1      30.945  25.385  26.035  1.00  0.00     0.280 C 
ATOM      6  O   UNL A   1      30.557  24.390  26.654  1.00  0.00    -0.268 OA
ATOM      7  H   UNL A   1      31.136  26.407  27.731  1.00  0.00     0.163 HD
BRANCH   5   8
ATOM      8  C   UNL A   1      31.155  25.329  24.507  1.00  0.00     0.290 C 
BRANCH   8   9
ATOM      9  C   UNL A   1      32.638  25.070  24.162  1.00  0.00     0.195 C 
BRANCH   9  10
ATOM     10  N   UNL A   1      33.036  23.664  24.043  1.00  0.00    -0.325 N 
ATOM     11  N   UNL A   1      32.832  20.889  24.030  1.00  0.00    -0.332 N 
ATOM     12  C   UNL A   1      33.881  21.503  24.857  1.00  0.00     0.219 C 
ATOM     13  C   UNL A   1      32.398  21.563  22.886  1.00  0.00     0.242 C 
ATOM     14  C   UNL A   1      33.645  23.002  25.097  1.00  0.00     0.242 C 
ATOM     15  C   UNL A   1      32.915  22.991  22.754  1.00  0.00     0.220 C 
ATOM     16  O   UNL A   1      31.780  21.015  21.976  1.00  0.00    -0.273 OA
ATOM     17  O   UNL A   1      34.062  23.576  26.100  1.00  0.00    -0.273 OA
BRANCH  11  18
ATOM     18  C   UNL A   1      32.525  19.462  24.106  1.00  0.00     0.116 C 
ATOM     19  C   UNL A   1      33.683  18.516  24.367  1.00  0.00     0.027 C 
ENDBRANCH  11  18
ENDBRANCH   9  10
ENDBRANCH   8   9
BRANCH   8  20
ATOM     20  N   UNL A   1      30.170  24.380  23.922  1.00  0.00    -0.346 N 
ATOM     21  H   UNL A   1      30.660  23.564  23.555  1.00  0.00     0.345 HD
ATOM     22  H   UNL A   1      29.662  24.840  23.167  1.00  0.00     0.345 HD
ATOM     23  H   UNL A   1      29.511  24.084  24.643  1.00  0.00     0.345 HD
ENDBRANCH   8  20
ENDBRANCH   5   8
ENDBRANCH   3   4
ENDBRANCH   2   3
ENDBRANCH   1   2
BRANCH   1  24
ATOM     24  C   UNL A   1      31.457  30.739  26.420  1.00  0.00     0.002 C 
BRANCH  24  25
ATOM     25  C   UNL A   1      31.398  32.262  26.568  1.00  0.00     0.021 C 
BRANCH  25  26
ATOM     26  C   UNL A   1      32.650  32.892  27.168  1.00  0.00     0.116 C 
BRANCH  26  27
ATOM     27  N   UNL A   1      32.415  34.252  27.626  1.00  0.00    -0.352 N 
ATOM     28  C   UNL A   1      32.986  34.928  28.673  1.00  0.00     0.251 C 
ATOM     29  H   UNL A   1      31.751  34.762  27.109  1.00  0.00     0.163 HD
ATOM     30  O   UNL A   1      32.530  36.012  29.031  1.00  0.00    -0.269 OA
BRANCH  28  31
ATOM     31  C   UNL A   1      34.140  34.347  29.390  1.00  0.00     0.039 A 
ATOM     32  C   UNL A   1      33.905  33.516  30.488  1.00  0.00     0.014 A 
ATOM     33  C   UNL A   1      35.450  34.637  28.996  1.00  0.00     0.014 A 
ATOM     34  C   UNL A   1      34.981  32.934  31.161  1.00  0.00     0.010 A 
ATOM     35  C   UNL A   1      36.520  34.005  29.627  1.00  0.00     0.010 A 
ATOM     36  C   UNL A   1      36.295  33.154  30.719  1.00  0.00    -0.014 A 
BRANCH  36  37
ATOM     37  C   UNL A   1      37.447  32.508  31.396  1.00  0.00     0.031 A 
ATOM     38  C   UNL A   1      38.176  31.375  30.729  1.00  0.00     0.074 A 
ATOM     39  C   UNL A   1      37.802  32.905  32.632  1.00  0.00     0.049 A 
ATOM     40  N   UNL A   1      39.166  30.647  31.181  1.00  0.00    -0.248 NA
ATOM     41  C   UNL A   1      37.710  30.990  29.388  1.00  0.00     0.031 C 
ATOM     42  C   UNL A   1      37.145  33.963  33.401  1.00  0.00     0.029 A 
ATOM     43  N   UNL A   1      38.797  32.458  33.465  1.00  0.00    -0.354 N 
ATOM     44  C   UNL A   1      39.431  29.713  30.188  1.00  0.00     0.074 A 
ATOM     45  C   UNL A   1      38.465  29.932  29.133  1.00  0.00     0.031 C 
ATOM     46  C   UNL A   1      37.768  34.099  34.583  1.00  0.00     0.029 A 
ATOM     47  C   UNL A   1      38.845  33.116  34.669  1.00  0.00     0.049 A 
ATOM     48  H   UNL A   1      39.419  31.734  33.221  1.00  0.00     0.167 HD
ATOM     49  C   UNL A   1      40.406  28.774  30.149  1.00  0.00     0.037 A 
ATOM     50  C   UNL A   1      39.665  32.946  35.722  1.00  0.00     0.037 A 
ATOM     51  C   UNL A   1      41.382  28.576  31.189  1.00  0.00     0.049 A 
ATOM     52  C   UNL A   1      40.741  31.897  35.654  1.00  0.00     0.074 A 
ATOM     53  C   UNL A   1      42.446  27.691  31.220  1.00  0.00     0.029 A 
ATOM     54  N   UNL A   1      41.410  29.277  32.387  1.00  0.00    -0.354 N 
ATOM     55  N   UNL A   1      41.025  31.064  34.683  1.00  0.00    -0.248 NA
ATOM     56  C   UNL A   1      41.617  31.771  36.827  1.00  0.00     0.031 C 
ATOM     57  C   UNL A   1      43.093  27.827  32.453  1.00  0.00     0.029 A 
ATOM     58  C   UNL A   1      42.463  28.830  33.171  1.00  0.00     0.049 A 
ATOM     59  H   UNL A   1      40.777  29.985  32.642  1.00  0.00     0.167 HD
ATOM     60  C   UNL A   1      42.126  30.336  35.113  1.00  0.00     0.074 A 
ATOM     61  C   UNL A   1      42.467  30.835  36.429  1.00  0.00     0.031 C 
ATOM     62  C   UNL A   1      42.793  29.344  34.475  1.00  0.00     0.037 A 
BRANCH  49  63
ATOM     63  C   UNL A   1      40.468  27.889  28.938  1.00  0.00     0.064 A 
ATOM     64  C   UNL A   1      39.743  26.690  28.866  1.00  0.00     0.173 A 
ATOM     65  C   UNL A   1      41.240  28.255  27.825  1.00  0.00     0.173 A 
ATOM     66  F   UNL A   1      38.999  26.287  29.909  1.00  0.00    -0.203 F 
ATOM     67  C   UNL A   1      39.813  25.875  27.740  1.00  0.00     0.198 A 
ATOM     68  C   UNL A   1      41.284  27.453  26.688  1.00  0.00     0.198 A 
ATOM     69  F   UNL A   1      41.948  29.395  27.837  1.00  0.00    -0.203 F 
ATOM     70  F   UNL A   1      39.153  24.709  27.716  1.00  0.00    -0.200 F 
ATOM     71  C   UNL A   1      40.579  26.260  26.649  1.00  0.00     0.200 A 
ATOM     72  F   UNL A   1      42.013  27.832  25.629  1.00  0.00    -0.200 F 
ATOM     73  F   UNL A   1      40.642  25.477  25.564  1.00  0.00    -0.200 F 
ENDBRANCH  49  63
BRANCH  50  74
ATOM     74  C   UNL A   1      39.521  33.812  36.920  1.00  0.00     0.064 A 
ATOM     75  C   UNL A   1      38.734  33.408  38.008  1.00  0.00     0.173 A 
ATOM     76  C   UNL A   1      40.166  35.054  37.006  1.00  0.00     0.173 A 
ATOM     77  F   UNL A   1      38.082  32.237  37.962  1.00  0.00    -0.203 F 
ATOM     78  C   UNL A   1      38.584  34.221  39.129  1.00  0.00     0.198 A 
ATOM     79  C   UNL A   1      40.036  35.855  38.139  1.00  0.00     0.198 A 
ATOM     80  F   UNL A   1      40.934  35.484  35.994  1.00  0.00    -0.203 F 
ATOM     81  F   UNL A   1      37.793  33.827  40.136  1.00  0.00    -0.200 F 
ATOM     82  C   UNL A   1      39.239  35.441  39.197  1.00  0.00     0.200 A 
ATOM     83  F   UNL A   1      40.681  37.027  38.206  1.00  0.00    -0.200 F 
ATOM     84  F   UNL A   1      39.097  36.221  40.277  1.00  0.00    -0.200 F 
ENDBRANCH  50  74
BRANCH  62  85
ATOM     85  C   UNL A   1      43.982  28.756  35.177  1.00  0.00     0.064 A 
ATOM     86  C   UNL A   1      45.278  29.249  34.970  1.00  0.00     0.173 A 
ATOM     87  C   UNL A   1      43.815  27.708  36.096  1.00  0.00     0.173 A 
ATOM     88  F   UNL A   1      45.492  30.238  34.089  1.00  0.00    -0.203 F 
ATOM     89  C   UNL A   1      46.368  28.696  35.638  1.00  0.00     0.198 A 
ATOM     90  C   UNL A   1      44.904  27.179  36.783  1.00  0.00     0.198 A 
ATOM     91  F   UNL A   1      42.595  27.205  36.335  1.00  0.00    -0.203 F 
ATOM     92  F   UNL A   1      47.604  29.152  35.389  1.00  0.00    -0.200 F 
ATOM     93  C   UNL A   1      46.179  27.669  36.549  1.00  0.00     0.200 A 
ATOM     94  F   UNL A   1      44.718  26.192  37.673  1.00  0.00    -0.200 F 
ATOM     95  F   UNL A   1      47.229  27.143  37.195  1.00  0.00    -0.200 F 
ENDBRANCH  62  85
ENDBRANCH  36  37
ENDBRANCH  28  31
ENDBRANCH  26  27
ENDBRANCH  25  26
ENDBRANCH  24  25
ENDBRANCH   1  24
TORSDOF 17
ENDMDL
