MODEL 1
REMARK VINA RESULT:     -11.6      0.000      0.000
REMARK SMILES Cc1nsc(N[C@@H](C)C2CCCC2)c1C(=O)NCCCCCCNC(=O)c1ccc(-c2c3nc(c(-c4c(F)c(F)c(F)c(F)c4F)c4ccc([nH]4)c(-c4c(F)c(F)c(F)c(F)c4F)c4nc(c(-c5c(F)c(F)c(F)c(F)c5F)c5ccc2[nH]5)C=C4)C=C3)cc1
REMARK SMILES IDX 20 1 19 2 18 3 17 4 15 5 16 6 14 8 1 9 2 10 3 11 4 12 5 13
REMARK SMILES IDX 6 14 7 16 8 17 9 18 10 19 13 20 11 21 12 22 21 23 22 24
REMARK SMILES IDX 23 25 24 26 25 27 26 29 27 30 28 31 89 32 29 33 88 34 30 35
REMARK SMILES IDX 31 36 32 37 82 38 33 39 87 40 81 41 83 42 34 43 86 44 80 45
REMARK SMILES IDX 79 46 35 48 67 49 47 50 66 51 48 52 51 53 65 54 84 55 49 56
REMARK SMILES IDX 50 57 64 59 85 60 52 61 36 62 37 63 45 64 38 65 39 66 43 67
REMARK SMILES IDX 46 68 40 69 41 70 44 71 42 72 68 73 69 74 77 75 70 76 71 77
REMARK SMILES IDX 75 78 78 79 72 80 73 81 76 82 74 83 53 84 54 85 62 86 55 87
REMARK SMILES IDX 56 88 60 89 63 90 57 91 58 92 61 93 59 94
REMARK H PARENT 17 7 6 15 24 28 83 47 51 58
REMARK Flexibility Score: inf
ROOT
ATOM      1  C   UNL A   1      40.139  22.079  26.281  1.00  0.00     0.002 C 
ENDROOT
BRANCH   1   2
ATOM      2  C   UNL A   1      38.729  21.647  25.874  1.00  0.00     0.021 C 
BRANCH   2   3
ATOM      3  C   UNL A   1      37.748  22.800  25.704  1.00  0.00     0.116 C 
BRANCH   3   4
ATOM      4  N   UNL A   1      37.102  22.797  24.427  1.00  0.00    -0.352 N 
ATOM      5  C   UNL A   1      35.840  23.036  23.962  1.00  0.00     0.256 C 
ATOM      6  O   UNL A   1      35.811  22.986  22.721  1.00  0.00    -0.269 OA
ATOM      7  H   UNL A   1      37.723  22.562  23.700  1.00  0.00     0.163 HD
BRANCH   5   8
ATOM      8  C   UNL A   1      34.606  23.330  24.740  1.00  0.00     0.097 A 
ATOM      9  C   UNL A   1      34.604  25.854  25.736  1.00  0.00     0.069 C 
ATOM     10  C   UNL A   1      34.073  24.487  25.479  1.00  0.00     0.066 A 
ATOM     11  N   UNL A   1      32.879  24.327  26.049  1.00  0.00    -0.195 NA
ATOM     12  S   UNL A   1      32.320  22.828  25.773  1.00  0.00    -0.018 S 
ATOM     13  C   UNL A   1      33.653  22.288  24.849  1.00  0.00     0.122 A 
BRANCH  13  14
ATOM     14  N   UNL A   1      33.750  21.035  24.318  1.00  0.00    -0.372 N 
ATOM     15  H   UNL A   1      34.657  20.671  24.201  1.00  0.00     0.161 HD
BRANCH  14  16
ATOM     16  C   UNL A   1      32.642  20.184  23.907  1.00  0.00     0.080 C 
ATOM     17  C   UNL A   1      32.074  20.766  22.613  1.00  0.00     0.031 C 
BRANCH  16  18
ATOM     18  C   UNL A   1      33.152  18.725  23.824  1.00  0.00     0.011 C 
ATOM     19  C   UNL A   1      34.533  18.566  24.468  1.00  0.00     0.006 C 
ATOM     20  C   UNL A   1      32.339  17.650  24.544  1.00  0.00     0.006 C 
ATOM     21  C   UNL A   1      34.712  17.060  24.588  1.00  0.00     0.000 C 
ATOM     22  C   UNL A   1      33.306  16.484  24.746  1.00  0.00     0.000 C 
ENDBRANCH  16  18
ENDBRANCH  14  16
ENDBRANCH  13  14
ENDBRANCH   5   8
ENDBRANCH   3   4
ENDBRANCH   2   3
ENDBRANCH   1   2
BRANCH   1  23
ATOM     23  C   UNL A   1      40.741  21.358  27.498  1.00  0.00     0.002 C 
BRANCH  23  24
ATOM     24  C   UNL A   1      41.857  20.338  27.226  1.00  0.00     0.021 C 
BRANCH  24  25
ATOM     25  C   UNL A   1      41.939  19.881  25.779  1.00  0.00     0.116 C 
BRANCH  25  26
ATOM     26  N   UNL A   1      43.315  19.639  25.347  1.00  0.00    -0.352 N 
ATOM     27  C   UNL A   1      44.290  20.556  24.999  1.00  0.00     0.251 C 
ATOM     28  H   UNL A   1      43.584  18.693  25.296  1.00  0.00     0.163 HD
ATOM     29  O   UNL A   1      45.257  20.229  24.334  1.00  0.00    -0.269 OA
BRANCH  27  30
ATOM     30  C   UNL A   1      44.135  21.949  25.453  1.00  0.00     0.039 A 
ATOM     31  C   UNL A   1      43.345  22.861  24.753  1.00  0.00     0.014 A 
ATOM     32  C   UNL A   1      44.784  22.323  26.625  1.00  0.00     0.014 A 
ATOM     33  C   UNL A   1      43.161  24.132  25.292  1.00  0.00     0.010 A 
ATOM     34  C   UNL A   1      44.437  23.485  27.254  1.00  0.00     0.010 A 
ATOM     35  C   UNL A   1      43.697  24.427  26.557  1.00  0.00    -0.014 A 
BRANCH  35  36
ATOM     36  C   UNL A   1      43.446  25.704  27.203  1.00  0.00     0.031 A 
ATOM     37  C   UNL A   1      44.395  26.781  26.834  1.00  0.00     0.074 A 
ATOM     38  C   UNL A   1      42.345  25.958  27.943  1.00  0.00     0.049 A 
ATOM     39  N   UNL A   1      45.301  27.310  27.585  1.00  0.00    -0.248 NA
ATOM     40  C   UNL A   1      44.439  27.232  25.435  1.00  0.00     0.031 C 
ATOM     41  C   UNL A   1      41.155  25.126  28.159  1.00  0.00     0.029 A 
ATOM     42  N   UNL A   1      42.034  27.096  28.616  1.00  0.00    -0.354 N 
ATOM     43  C   UNL A   1      45.915  28.293  26.818  1.00  0.00     0.074 A 
ATOM     44  C   UNL A   1      45.465  28.086  25.466  1.00  0.00     0.031 C 
ATOM     45  C   UNL A   1      40.172  25.871  28.713  1.00  0.00     0.029 A 
ATOM     46  C   UNL A   1      40.720  27.169  29.058  1.00  0.00     0.049 A 
ATOM     47  H   UNL A   1      42.688  27.814  28.776  1.00  0.00     0.167 HD
ATOM     48  C   UNL A   1      46.564  29.332  27.416  1.00  0.00     0.037 A 
ATOM     49  C   UNL A   1      40.131  28.233  29.654  1.00  0.00     0.037 A 
ATOM     50  C   UNL A   1      46.845  29.035  28.801  1.00  0.00     0.049 A 
ATOM     51  C   UNL A   1      41.219  29.085  30.200  1.00  0.00     0.074 A 
ATOM     52  C   UNL A   1      47.552  28.038  29.448  1.00  0.00     0.029 A 
ATOM     53  N   UNL A   1      46.027  29.582  29.762  1.00  0.00    -0.354 N 
ATOM     54  N   UNL A   1      41.988  28.725  31.192  1.00  0.00    -0.248 NA
ATOM     55  C   UNL A   1      41.763  30.119  29.331  1.00  0.00     0.031 C 
ATOM     56  C   UNL A   1      46.756  27.702  30.584  1.00  0.00     0.029 A 
ATOM     57  C   UNL A   1      45.662  28.566  30.609  1.00  0.00     0.049 A 
ATOM     58  H   UNL A   1      45.755  30.525  29.830  1.00  0.00     0.167 HD
ATOM     59  C   UNL A   1      43.256  29.146  30.823  1.00  0.00     0.074 A 
ATOM     60  C   UNL A   1      43.043  30.068  29.709  1.00  0.00     0.031 C 
ATOM     61  C   UNL A   1      44.373  28.491  31.257  1.00  0.00     0.037 A 
BRANCH  48  62
ATOM     62  C   UNL A   1      46.613  30.738  26.871  1.00  0.00     0.064 A 
ATOM     63  C   UNL A   1      47.857  31.401  26.806  1.00  0.00     0.173 A 
ATOM     64  C   UNL A   1      45.479  31.562  26.702  1.00  0.00     0.173 A 
ATOM     65  F   UNL A   1      49.003  30.721  26.959  1.00  0.00    -0.203 F 
ATOM     66  C   UNL A   1      47.949  32.790  26.683  1.00  0.00     0.198 A 
ATOM     67  C   UNL A   1      45.578  32.940  26.525  1.00  0.00     0.198 A 
ATOM     68  F   UNL A   1      44.231  31.094  26.814  1.00  0.00    -0.203 F 
ATOM     69  F   UNL A   1      49.146  33.387  26.766  1.00  0.00    -0.200 F 
ATOM     70  C   UNL A   1      46.808  33.560  26.552  1.00  0.00     0.200 A 
ATOM     71  F   UNL A   1      44.458  33.670  26.416  1.00  0.00    -0.200 F 
ATOM     72  F   UNL A   1      46.888  34.895  26.505  1.00  0.00    -0.200 F 
ENDBRANCH  48  62
BRANCH  49  73
ATOM     73  C   UNL A   1      38.735  28.708  29.516  1.00  0.00     0.064 A 
ATOM     74  C   UNL A   1      37.937  28.954  30.645  1.00  0.00     0.173 A 
ATOM     75  C   UNL A   1      38.253  29.202  28.287  1.00  0.00     0.173 A 
ATOM     76  F   UNL A   1      38.344  28.553  31.857  1.00  0.00    -0.203 F 
ATOM     77  C   UNL A   1      36.745  29.681  30.556  1.00  0.00     0.198 A 
ATOM     78  C   UNL A   1      37.061  29.922  28.199  1.00  0.00     0.198 A 
ATOM     79  F   UNL A   1      38.977  29.080  27.166  1.00  0.00    -0.203 F 
ATOM     80  F   UNL A   1      36.043  29.953  31.665  1.00  0.00    -0.200 F 
ATOM     81  C   UNL A   1      36.314  30.175  29.335  1.00  0.00     0.200 A 
ATOM     82  F   UNL A   1      36.676  30.428  27.018  1.00  0.00    -0.200 F 
ATOM     83  F   UNL A   1      35.208  30.928  29.259  1.00  0.00    -0.200 F 
ENDBRANCH  49  73
BRANCH  61  84
ATOM     84  C   UNL A   1      44.211  27.450  32.332  1.00  0.00     0.064 A 
ATOM     85  C   UNL A   1      44.090  26.070  32.087  1.00  0.00     0.173 A 
ATOM     86  C   UNL A   1      44.329  27.853  33.669  1.00  0.00     0.173 A 
ATOM     87  F   UNL A   1      44.075  25.587  30.839  1.00  0.00    -0.203 F 
ATOM     88  C   UNL A   1      44.041  25.147  33.132  1.00  0.00     0.198 A 
ATOM     89  C   UNL A   1      44.317  26.927  34.710  1.00  0.00     0.198 A 
ATOM     90  F   UNL A   1      44.502  29.150  33.966  1.00  0.00    -0.203 F 
ATOM     91  F   UNL A   1      43.910  23.839  32.870  1.00  0.00    -0.200 F 
ATOM     92  C   UNL A   1      44.161  25.577  34.443  1.00  0.00     0.200 A 
ATOM     93  F   UNL A   1      44.484  27.345  35.972  1.00  0.00    -0.200 F 
ATOM     94  F   UNL A   1      44.155  24.689  35.446  1.00  0.00    -0.200 F 
ENDBRANCH  61  84
ENDBRANCH  35  36
ENDBRANCH  27  30
ENDBRANCH  25  26
ENDBRANCH  24  25
ENDBRANCH  23  24
ENDBRANCH   1  23
TORSDOF 16
ENDMDL
MODEL 2
REMARK VINA RESULT:     -11.3      2.938      8.544
REMARK SMILES Cc1nsc(N[C@@H](C)C2CCCC2)c1C(=O)NCCCCCCNC(=O)c1ccc(-c2c3nc(c(-c4c(F)c(F)c(F)c(F)c4F)c4ccc([nH]4)c(-c4c(F)c(F)c(F)c(F)c4F)c4nc(c(-c5c(F)c(F)c(F)c(F)c5F)c5ccc2[nH]5)C=C4)C=C3)cc1
REMARK SMILES IDX 20 1 19 2 18 3 17 4 15 5 16 6 14 8 1 9 2 10 3 11 4 12 5 13
REMARK SMILES IDX 6 14 7 16 8 17 9 18 10 19 13 20 11 21 12 22 21 23 22 24
REMARK SMILES IDX 23 25 24 26 25 27 26 29 27 30 28 31 89 32 29 33 88 34 30 35
REMARK SMILES IDX 31 36 32 37 82 38 33 39 87 40 81 41 83 42 34 43 86 44 80 45
REMARK SMILES IDX 79 46 35 48 67 49 47 50 66 51 48 52 51 53 65 54 84 55 49 56
REMARK SMILES IDX 50 57 64 59 85 60 52 61 36 62 37 63 45 64 38 65 39 66 43 67
REMARK SMILES IDX 46 68 40 69 41 70 44 71 42 72 68 73 69 74 77 75 70 76 71 77
REMARK SMILES IDX 75 78 78 79 72 80 73 81 76 82 74 83 53 84 54 85 62 86 55 87
REMARK SMILES IDX 56 88 60 89 63 90 57 91 58 92 61 93 59 94
REMARK H PARENT 17 7 6 15 24 28 83 47 51 58
REMARK Flexibility Score: inf
ROOT
ATOM      1  C   UNL A   1      33.884  28.590  25.643  1.00  0.00     0.002 C 
ENDROOT
BRANCH   1   2
ATOM      2  C   UNL A   1      33.850  27.201  25.002  1.00  0.00     0.021 C 
BRANCH   2   3
ATOM      3  C   UNL A   1      33.160  27.158  23.644  1.00  0.00     0.116 C 
BRANCH   3   4
ATOM      4  N   UNL A   1      33.061  25.832  23.113  1.00  0.00    -0.352 N 
ATOM      5  C   UNL A   1      32.613  24.624  23.563  1.00  0.00     0.256 C 
ATOM      6  O   UNL A   1      32.666  23.771  22.661  1.00  0.00    -0.269 OA
ATOM      7  H   UNL A   1      33.404  25.778  22.192  1.00  0.00     0.163 HD
BRANCH   5   8
ATOM      8  C   UNL A   1      32.107  24.268  24.916  1.00  0.00     0.097 A 
ATOM      9  C   UNL A   1      30.262  26.043  25.816  1.00  0.00     0.069 C 
ATOM     10  C   UNL A   1      31.135  24.838  25.864  1.00  0.00     0.066 A 
ATOM     11  N   UNL A   1      30.968  24.177  27.011  1.00  0.00    -0.195 NA
ATOM     12  S   UNL A   1      31.936  22.876  27.056  1.00  0.00    -0.018 S 
ATOM     13  C   UNL A   1      32.647  23.105  25.518  1.00  0.00     0.122 A 
BRANCH  13  14
ATOM     14  N   UNL A   1      33.590  22.274  24.986  1.00  0.00    -0.372 N 
ATOM     15  H   UNL A   1      33.814  22.406  24.037  1.00  0.00     0.161 HD
BRANCH  14  16
ATOM     16  C   UNL A   1      34.297  21.212  25.688  1.00  0.00     0.080 C 
ATOM     17  C   UNL A   1      34.201  19.952  24.827  1.00  0.00     0.031 C 
BRANCH  16  18
ATOM     18  C   UNL A   1      35.730  21.705  26.003  1.00  0.00     0.011 C 
ATOM     19  C   UNL A   1      36.784  20.958  25.180  1.00  0.00     0.006 C 
ATOM     20  C   UNL A   1      36.060  23.165  25.692  1.00  0.00     0.006 C 
ATOM     21  C   UNL A   1      38.050  21.781  25.368  1.00  0.00     0.000 C 
ATOM     22  C   UNL A   1      37.583  23.218  25.590  1.00  0.00     0.000 C 
ENDBRANCH  16  18
ENDBRANCH  14  16
ENDBRANCH  13  14
ENDBRANCH   5   8
ENDBRANCH   3   4
ENDBRANCH   2   3
ENDBRANCH   1   2
BRANCH   1  23
ATOM     23  C   UNL A   1      32.523  29.277  25.840  1.00  0.00     0.002 C 
BRANCH  23  24
ATOM     24  C   UNL A   1      32.396  30.252  27.020  1.00  0.00     0.021 C 
BRANCH  24  25
ATOM     25  C   UNL A   1      33.694  30.490  27.771  1.00  0.00     0.116 C 
BRANCH  25  26
ATOM     26  N   UNL A   1      34.236  31.829  27.542  1.00  0.00    -0.352 N 
ATOM     27  C   UNL A   1      35.459  32.348  27.925  1.00  0.00     0.251 C 
ATOM     28  H   UNL A   1      33.649  32.445  27.047  1.00  0.00     0.163 HD
ATOM     29  O   UNL A   1      35.645  33.550  27.985  1.00  0.00    -0.269 OA
BRANCH  27  30
ATOM     30  C   UNL A   1      36.543  31.409  28.264  1.00  0.00     0.039 A 
ATOM     31  C   UNL A   1      36.647  30.161  27.648  1.00  0.00     0.014 A 
ATOM     32  C   UNL A   1      37.481  31.818  29.205  1.00  0.00     0.014 A 
ATOM     33  C   UNL A   1      37.752  29.366  27.941  1.00  0.00     0.010 A 
ATOM     34  C   UNL A   1      38.659  31.137  29.331  1.00  0.00     0.010 A 
ATOM     35  C   UNL A   1      38.765  29.874  28.772  1.00  0.00    -0.014 A 
BRANCH  35  36
ATOM     36  C   UNL A   1      39.982  29.120  29.024  1.00  0.00     0.031 A 
ATOM     37  C   UNL A   1      40.274  28.879  30.457  1.00  0.00     0.074 A 
ATOM     38  C   UNL A   1      40.705  28.530  28.049  1.00  0.00     0.049 A 
ATOM     39  N   UNL A   1      41.222  29.405  31.156  1.00  0.00    -0.248 NA
ATOM     40  C   UNL A   1      39.331  28.069  31.242  1.00  0.00     0.031 C 
ATOM     41  C   UNL A   1      40.404  28.393  26.618  1.00  0.00     0.029 A 
ATOM     42  N   UNL A   1      41.868  27.839  28.171  1.00  0.00    -0.354 N 
ATOM     43  C   UNL A   1      41.117  28.857  32.429  1.00  0.00     0.074 A 
ATOM     44  C   UNL A   1      39.846  28.180  32.469  1.00  0.00     0.031 C 
ATOM     45  C   UNL A   1      41.235  27.483  26.062  1.00  0.00     0.029 A 
ATOM     46  C   UNL A   1      42.235  27.115  27.046  1.00  0.00     0.049 A 
ATOM     47  H   UNL A   1      42.408  27.850  28.995  1.00  0.00     0.167 HD
ATOM     48  C   UNL A   1      42.196  28.822  33.259  1.00  0.00     0.037 A 
ATOM     49  C   UNL A   1      43.285  26.264  26.945  1.00  0.00     0.037 A 
ATOM     50  C   UNL A   1      43.221  29.735  32.810  1.00  0.00     0.049 A 
ATOM     51  C   UNL A   1      44.237  26.616  28.029  1.00  0.00     0.074 A 
ATOM     52  C   UNL A   1      43.264  31.099  32.583  1.00  0.00     0.029 A 
ATOM     53  N   UNL A   1      44.297  29.219  32.125  1.00  0.00    -0.354 N 
ATOM     54  N   UNL A   1      44.912  27.733  28.062  1.00  0.00    -0.248 NA
ATOM     55  C   UNL A   1      44.070  25.949  29.313  1.00  0.00     0.031 C 
ATOM     56  C   UNL A   1      44.019  31.247  31.381  1.00  0.00     0.029 A 
ATOM     57  C   UNL A   1      44.462  29.982  30.995  1.00  0.00     0.049 A 
ATOM     58  H   UNL A   1      44.846  28.449  32.395  1.00  0.00     0.167 HD
ATOM     59  C   UNL A   1      44.868  28.131  29.390  1.00  0.00     0.074 A 
ATOM     60  C   UNL A   1      44.407  26.955  30.125  1.00  0.00     0.031 C 
ATOM     61  C   UNL A   1      44.926  29.451  29.736  1.00  0.00     0.037 A 
BRANCH  48  62
ATOM     62  C   UNL A   1      42.484  27.716  34.245  1.00  0.00     0.064 A 
ATOM     63  C   UNL A   1      43.055  26.515  33.775  1.00  0.00     0.173 A 
ATOM     64  C   UNL A   1      41.951  27.662  35.551  1.00  0.00     0.173 A 
ATOM     65  F   UNL A   1      43.585  26.446  32.545  1.00  0.00    -0.203 F 
ATOM     66  C   UNL A   1      43.003  25.332  34.516  1.00  0.00     0.198 A 
ATOM     67  C   UNL A   1      41.950  26.493  36.309  1.00  0.00     0.198 A 
ATOM     68  F   UNL A   1      41.309  28.696  36.106  1.00  0.00    -0.203 F 
ATOM     69  F   UNL A   1      43.434  24.186  33.971  1.00  0.00    -0.200 F 
ATOM     70  C   UNL A   1      42.443  25.320  35.779  1.00  0.00     0.200 A 
ATOM     71  F   UNL A   1      41.388  26.500  37.526  1.00  0.00    -0.200 F 
ATOM     72  F   UNL A   1      42.328  24.175  36.464  1.00  0.00    -0.200 F 
ENDBRANCH  48  62
BRANCH  49  73
ATOM     73  C   UNL A   1      43.371  24.998  26.182  1.00  0.00     0.064 A 
ATOM     74  C   UNL A   1      44.391  24.787  25.240  1.00  0.00     0.173 A 
ATOM     75  C   UNL A   1      42.630  23.864  26.568  1.00  0.00     0.173 A 
ATOM     76  F   UNL A   1      45.169  25.806  24.850  1.00  0.00    -0.203 F 
ATOM     77  C   UNL A   1      44.674  23.512  24.739  1.00  0.00     0.198 A 
ATOM     78  C   UNL A   1      42.911  22.593  26.064  1.00  0.00     0.198 A 
ATOM     79  F   UNL A   1      41.685  23.950  27.515  1.00  0.00    -0.203 F 
ATOM     80  F   UNL A   1      45.698  23.338  23.891  1.00  0.00    -0.200 F 
ATOM     81  C   UNL A   1      43.942  22.413  25.162  1.00  0.00     0.200 A 
ATOM     82  F   UNL A   1      42.220  21.534  26.511  1.00  0.00    -0.200 F 
ATOM     83  F   UNL A   1      44.256  21.183  24.735  1.00  0.00    -0.200 F 
ENDBRANCH  49  73
BRANCH  61  84
ATOM     84  C   UNL A   1      45.277  30.448  28.664  1.00  0.00     0.064 A 
ATOM     85  C   UNL A   1      44.341  31.046  27.801  1.00  0.00     0.173 A 
ATOM     86  C   UNL A   1      46.593  30.925  28.608  1.00  0.00     0.173 A 
ATOM     87  F   UNL A   1      43.043  30.726  27.857  1.00  0.00    -0.203 F 
ATOM     88  C   UNL A   1      44.718  32.038  26.894  1.00  0.00     0.198 A 
ATOM     89  C   UNL A   1      46.961  31.942  27.729  1.00  0.00     0.198 A 
ATOM     90  F   UNL A   1      47.521  30.435  29.445  1.00  0.00    -0.203 F 
ATOM     91  F   UNL A   1      43.808  32.579  26.072  1.00  0.00    -0.200 F 
ATOM     92  C   UNL A   1      46.027  32.488  26.864  1.00  0.00     0.200 A 
ATOM     93  F   UNL A   1      48.217  32.408  27.739  1.00  0.00    -0.200 F 
ATOM     94  F   UNL A   1      46.383  33.468  26.022  1.00  0.00    -0.200 F 
ENDBRANCH  61  84
ENDBRANCH  35  36
ENDBRANCH  27  30
ENDBRANCH  25  26
ENDBRANCH  24  25
ENDBRANCH  23  24
ENDBRANCH   1  23
TORSDOF 16
ENDMDL
MODEL 3
REMARK VINA RESULT:     -11.3      2.676      4.594
REMARK SMILES Cc1nsc(N[C@@H](C)C2CCCC2)c1C(=O)NCCCCCCNC(=O)c1ccc(-c2c3nc(c(-c4c(F)c(F)c(F)c(F)c4F)c4ccc([nH]4)c(-c4c(F)c(F)c(F)c(F)c4F)c4nc(c(-c5c(F)c(F)c(F)c(F)c5F)c5ccc2[nH]5)C=C4)C=C3)cc1
REMARK SMILES IDX 20 1 19 2 18 3 17 4 15 5 16 6 14 8 1 9 2 10 3 11 4 12 5 13
REMARK SMILES IDX 6 14 7 16 8 17 9 18 10 19 13 20 11 21 12 22 21 23 22 24
REMARK SMILES IDX 23 25 24 26 25 27 26 29 27 30 28 31 89 32 29 33 88 34 30 35
REMARK SMILES IDX 31 36 32 37 82 38 33 39 87 40 81 41 83 42 34 43 86 44 80 45
REMARK SMILES IDX 79 46 35 48 67 49 47 50 66 51 48 52 51 53 65 54 84 55 49 56
REMARK SMILES IDX 50 57 64 59 85 60 52 61 36 62 37 63 45 64 38 65 39 66 43 67
REMARK SMILES IDX 46 68 40 69 41 70 44 71 42 72 68 73 69 74 77 75 70 76 71 77
REMARK SMILES IDX 75 78 78 79 72 80 73 81 76 82 74 83 53 84 54 85 62 86 55 87
REMARK SMILES IDX 56 88 60 89 63 90 57 91 58 92 61 93 59 94
REMARK H PARENT 17 7 6 15 24 28 83 47 51 58
REMARK Flexibility Score: inf
ROOT
ATOM      1  C   UNL A   1      35.475  22.698  25.973  1.00  0.00     0.002 C 
ENDROOT
BRANCH   1   2
ATOM      2  C   UNL A   1      34.496  21.661  26.527  1.00  0.00     0.021 C 
BRANCH   2   3
ATOM      3  C   UNL A   1      33.661  22.155  27.702  1.00  0.00     0.116 C 
BRANCH   3   4
ATOM      4  N   UNL A   1      32.283  22.344  27.364  1.00  0.00    -0.352 N 
ATOM      5  C   UNL A   1      31.577  22.613  26.227  1.00  0.00     0.256 C 
ATOM      6  O   UNL A   1      30.356  22.594  26.452  1.00  0.00    -0.269 OA
ATOM      7  H   UNL A   1      31.696  22.259  28.150  1.00  0.00     0.163 HD
BRANCH   5   8
ATOM      8  C   UNL A   1      32.094  22.897  24.861  1.00  0.00     0.097 A 
ATOM      9  C   UNL A   1      32.357  20.640  23.378  1.00  0.00     0.069 C 
ATOM     10  C   UNL A   1      32.421  22.099  23.668  1.00  0.00     0.066 A 
ATOM     11  N   UNL A   1      32.868  22.773  22.608  1.00  0.00    -0.195 NA
ATOM     12  S   UNL A   1      32.947  24.359  22.942  1.00  0.00    -0.018 S 
ATOM     13  C   UNL A   1      32.369  24.251  24.548  1.00  0.00     0.122 A 
BRANCH  13  14
ATOM     14  N   UNL A   1      32.215  25.327  25.373  1.00  0.00    -0.372 N 
ATOM     15  H   UNL A   1      32.702  25.304  26.228  1.00  0.00     0.161 HD
BRANCH  14  16
ATOM     16  C   UNL A   1      31.400  26.505  25.111  1.00  0.00     0.080 C 
ATOM     17  C   UNL A   1      29.935  26.076  25.195  1.00  0.00     0.031 C 
BRANCH  16  18
ATOM     18  C   UNL A   1      31.832  27.624  26.089  1.00  0.00     0.011 C 
ATOM     19  C   UNL A   1      33.328  27.551  26.415  1.00  0.00     0.006 C 
ATOM     20  C   UNL A   1      31.679  29.071  25.619  1.00  0.00     0.006 C 
ATOM     21  C   UNL A   1      33.623  28.881  27.093  1.00  0.00     0.000 C 
ATOM     22  C   UNL A   1      32.631  29.880  26.499  1.00  0.00     0.000 C 
ENDBRANCH  16  18
ENDBRANCH  14  16
ENDBRANCH  13  14
ENDBRANCH   5   8
ENDBRANCH   3   4
ENDBRANCH   2   3
ENDBRANCH   1   2
BRANCH   1  23
ATOM     23  C   UNL A   1      36.389  22.223  24.832  1.00  0.00     0.002 C 
BRANCH  23  24
ATOM     24  C   UNL A   1      37.713  21.554  25.230  1.00  0.00     0.021 C 
BRANCH  24  25
ATOM     25  C   UNL A   1      38.609  22.419  26.099  1.00  0.00     0.116 C 
BRANCH  25  26
ATOM     26  N   UNL A   1      40.011  22.007  26.042  1.00  0.00    -0.352 N 
ATOM     27  C   UNL A   1      41.148  22.769  26.240  1.00  0.00     0.251 C 
ATOM     28  H   UNL A   1      40.166  21.057  25.835  1.00  0.00     0.163 HD
ATOM     29  O   UNL A   1      42.234  22.402  25.827  1.00  0.00    -0.269 OA
BRANCH  27  30
ATOM     30  C   UNL A   1      41.019  24.045  26.965  1.00  0.00     0.039 A 
ATOM     31  C   UNL A   1      41.687  24.272  28.170  1.00  0.00     0.014 A 
ATOM     32  C   UNL A   1      40.226  25.035  26.395  1.00  0.00     0.014 A 
ATOM     33  C   UNL A   1      41.600  25.535  28.749  1.00  0.00     0.010 A 
ATOM     34  C   UNL A   1      40.312  26.321  26.847  1.00  0.00     0.010 A 
ATOM     35  C   UNL A   1      40.924  26.561  28.067  1.00  0.00    -0.014 A 
BRANCH  35  36
ATOM     36  C   UNL A   1      40.895  27.918  28.585  1.00  0.00     0.031 A 
ATOM     37  C   UNL A   1      41.971  28.799  28.073  1.00  0.00     0.074 A 
ATOM     38  C   UNL A   1      39.882  28.405  29.334  1.00  0.00     0.049 A 
ATOM     39  N   UNL A   1      42.981  29.257  28.732  1.00  0.00    -0.248 NA
ATOM     40  C   UNL A   1      42.010  29.100  26.635  1.00  0.00     0.031 C 
ATOM     41  C   UNL A   1      38.595  27.786  29.677  1.00  0.00     0.029 A 
ATOM     42  N   UNL A   1      39.774  29.637  29.896  1.00  0.00    -0.354 N 
ATOM     43  C   UNL A   1      43.693  30.057  27.847  1.00  0.00     0.074 A 
ATOM     44  C   UNL A   1      43.150  29.790  26.540  1.00  0.00     0.031 C 
ATOM     45  C   UNL A   1      37.761  28.721  30.186  1.00  0.00     0.029 A 
ATOM     46  C   UNL A   1      38.510  29.949  30.374  1.00  0.00     0.049 A 
ATOM     47  H   UNL A   1      40.534  30.260  29.957  1.00  0.00     0.167 HD
ATOM     48  C   UNL A   1      44.515  31.040  28.309  1.00  0.00     0.037 A 
ATOM     49  C   UNL A   1      38.113  31.142  30.877  1.00  0.00     0.037 A 
ATOM     50  C   UNL A   1      44.820  30.840  29.707  1.00  0.00     0.049 A 
ATOM     51  C   UNL A   1      39.339  31.870  31.293  1.00  0.00     0.074 A 
ATOM     52  C   UNL A   1      45.406  29.816  30.428  1.00  0.00     0.029 A 
ATOM     53  N   UNL A   1      44.140  31.594  30.635  1.00  0.00    -0.354 N 
ATOM     54  N   UNL A   1      40.096  31.497  32.289  1.00  0.00    -0.248 NA
ATOM     55  C   UNL A   1      39.984  32.721  30.303  1.00  0.00     0.031 C 
ATOM     56  C   UNL A   1      44.628  29.715  31.621  1.00  0.00     0.029 A 
ATOM     57  C   UNL A   1      43.674  30.732  31.596  1.00  0.00     0.049 A 
ATOM     58  H   UNL A   1      44.012  32.570  30.614  1.00  0.00     0.167 HD
ATOM     59  C   UNL A   1      41.393  31.685  31.834  1.00  0.00     0.074 A 
ATOM     60  C   UNL A   1      41.260  32.515  30.638  1.00  0.00     0.031 C 
ATOM     61  C   UNL A   1      42.423  30.915  32.293  1.00  0.00     0.037 A 
BRANCH  48  62
ATOM     62  C   UNL A   1      44.742  32.363  27.620  1.00  0.00     0.064 A 
ATOM     63  C   UNL A   1      45.916  32.544  26.861  1.00  0.00     0.173 A 
ATOM     64  C   UNL A   1      44.025  33.542  27.917  1.00  0.00     0.173 A 
ATOM     65  F   UNL A   1      46.682  31.495  26.525  1.00  0.00    -0.203 F 
ATOM     66  C   UNL A   1      46.386  33.814  26.516  1.00  0.00     0.198 A 
ATOM     67  C   UNL A   1      44.469  34.803  27.525  1.00  0.00     0.198 A 
ATOM     68  F   UNL A   1      42.935  33.542  28.692  1.00  0.00    -0.203 F 
ATOM     69  F   UNL A   1      47.577  33.943  25.916  1.00  0.00    -0.200 F 
ATOM     70  C   UNL A   1      45.666  34.944  26.856  1.00  0.00     0.200 A 
ATOM     71  F   UNL A   1      43.763  35.887  27.878  1.00  0.00    -0.200 F 
ATOM     72  F   UNL A   1      46.146  36.165  26.590  1.00  0.00    -0.200 F 
ENDBRANCH  48  62
BRANCH  49  73
ATOM     73  C   UNL A   1      36.795  31.805  30.740  1.00  0.00     0.064 A 
ATOM     74  C   UNL A   1      35.936  31.947  31.842  1.00  0.00     0.173 A 
ATOM     75  C   UNL A   1      36.479  32.565  29.597  1.00  0.00     0.173 A 
ATOM     76  F   UNL A   1      36.191  31.291  32.983  1.00  0.00    -0.203 F 
ATOM     77  C   UNL A   1      34.845  32.822  31.814  1.00  0.00     0.198 A 
ATOM     78  C   UNL A   1      35.387  33.433  29.568  1.00  0.00     0.198 A 
ATOM     79  F   UNL A   1      37.278  32.553  28.521  1.00  0.00    -0.203 F 
ATOM     80  F   UNL A   1      34.086  32.980  32.907  1.00  0.00    -0.200 F 
ATOM     81  C   UNL A   1      34.579  33.574  30.681  1.00  0.00     0.200 A 
ATOM     82  F   UNL A   1      35.163  34.184  28.479  1.00  0.00    -0.200 F 
ATOM     83  F   UNL A   1      33.575  34.462  30.676  1.00  0.00    -0.200 F 
ENDBRANCH  49  73
BRANCH  61  84
ATOM     84  C   UNL A   1      42.165  30.019  33.475  1.00  0.00     0.064 A 
ATOM     85  C   UNL A   1      41.728  28.686  33.379  1.00  0.00     0.173 A 
ATOM     86  C   UNL A   1      42.514  30.486  34.749  1.00  0.00     0.173 A 
ATOM     87  F   UNL A   1      41.472  28.125  32.191  1.00  0.00    -0.203 F 
ATOM     88  C   UNL A   1      41.602  27.878  34.510  1.00  0.00     0.198 A 
ATOM     89  C   UNL A   1      42.423  29.667  35.873  1.00  0.00     0.198 A 
ATOM     90  F   UNL A   1      42.990  31.732  34.901  1.00  0.00    -0.203 F 
ATOM     91  F   UNL A   1      41.169  26.615  34.390  1.00  0.00    -0.200 F 
ATOM     92  C   UNL A   1      41.956  28.369  35.755  1.00  0.00     0.200 A 
ATOM     93  F   UNL A   1      42.815  30.131  37.067  1.00  0.00    -0.200 F 
ATOM     94  F   UNL A   1      41.874  27.582  36.837  1.00  0.00    -0.200 F 
ENDBRANCH  61  84
ENDBRANCH  35  36
ENDBRANCH  27  30
ENDBRANCH  25  26
ENDBRANCH  24  25
ENDBRANCH  23  24
ENDBRANCH   1  23
TORSDOF 16
ENDMDL
