MODEL 1
REMARK VINA RESULT:     -11.9      0.000      0.000
REMARK SMILES C[C@@](CC(=O)Nc1ccc(NC(=O)c2ccco2)cc1)(C(=O)NCCCCCCNC(=O)c1ccc(-c2c3nc(c(-c4c(F)c(F)c(F)c(F)c4F)c4ccc([nH]4)c(-c4c(F)c(F)c(F)c(F)c4F)c4nc(c(-c5c(F)c(F)c(F)c(F)c5F)c5ccc2[nH]5)C=C4)C=C3)cc1)c1ccccc1
REMARK SMILES IDX 25 1 24 2 23 3 21 4 22 5 2 7 1 8 3 9 4 10 5 11 6 12 7 14
REMARK SMILES IDX 8 15 20 16 9 17 19 18 10 19 11 20 12 21 13 23 14 24 15 25
REMARK SMILES IDX 18 26 16 27 17 28 96 29 97 30 101 31 98 32 100 33 99 34
REMARK SMILES IDX 26 35 27 36 28 37 29 38 30 39 31 40 32 42 33 43 34 44 95 45
REMARK SMILES IDX 35 46 94 47 36 48 37 49 38 50 88 51 39 52 93 53 87 54 89 55
REMARK SMILES IDX 40 56 92 57 86 58 85 59 41 61 73 62 53 63 72 64 54 65 57 66
REMARK SMILES IDX 71 67 90 68 55 69 56 70 70 72 91 73 58 74 42 75 43 76 51 77
REMARK SMILES IDX 44 78 45 79 49 80 52 81 46 82 47 83 50 84 48 85 74 86 75 87
REMARK SMILES IDX 83 88 76 89 77 90 81 91 84 92 78 93 79 94 82 95 80 96 59 97
REMARK SMILES IDX 60 98 68 99 61 100 62 101 66 102 69 103 63 104 64 105 67 106
REMARK SMILES IDX 65 107
REMARK H PARENT 23 6 6 13 11 22 30 41 89 60 57 71
REMARK Flexibility Score: inf
ROOT
ATOM      1  C   UNL A   1      39.211  23.533  26.891  1.00  0.00     0.021 C 
ENDROOT
BRANCH   1   2
ATOM      2  C   UNL A   1      37.910  24.023  26.264  1.00  0.00     0.116 C 
BRANCH   2   3
ATOM      3  N   UNL A   1      37.693  23.632  24.884  1.00  0.00    -0.355 N 
ATOM      4  C   UNL A   1      36.633  23.031  24.253  1.00  0.00     0.230 C 
ATOM      5  O   UNL A   1      36.675  23.067  23.019  1.00  0.00    -0.274 OA
ATOM      6  H   UNL A   1      38.450  23.836  24.288  1.00  0.00     0.163 HD
BRANCH   4   7
ATOM      7  C   UNL A   1      35.488  22.293  25.034  1.00  0.00     0.080 C 
ATOM      8  C   UNL A   1      36.072  20.899  25.373  1.00  0.00     0.027 C 
BRANCH   7   9
ATOM      9  C   UNL A   1      34.929  23.171  26.204  1.00  0.00     0.121 C 
BRANCH   9  10
ATOM     10  C   UNL A   1      33.832  22.718  27.132  1.00  0.00     0.225 C 
ATOM     11  O   UNL A   1      34.084  21.877  28.005  1.00  0.00    -0.275 OA
ATOM     12  N   UNL A   1      32.555  23.182  27.102  1.00  0.00    -0.326 N 
ATOM     13  H   UNL A   1      32.006  22.821  27.835  1.00  0.00     0.169 HD
BRANCH  12  14
ATOM     14  C   UNL A   1      31.837  24.055  26.274  1.00  0.00     0.041 A 
ATOM     15  C   UNL A   1      31.918  25.419  26.574  1.00  0.00     0.028 A 
ATOM     16  C   UNL A   1      31.034  23.672  25.209  1.00  0.00     0.028 A 
ATOM     17  C   UNL A   1      31.208  26.364  25.823  1.00  0.00     0.028 A 
ATOM     18  C   UNL A   1      30.276  24.602  24.496  1.00  0.00     0.028 A 
ATOM     19  C   UNL A   1      30.402  25.958  24.760  1.00  0.00     0.041 A 
BRANCH  19  20
ATOM     20  N   UNL A   1      29.698  26.824  23.917  1.00  0.00    -0.319 N 
ATOM     21  C   UNL A   1      30.148  27.809  23.056  1.00  0.00     0.291 C 
ATOM     22  H   UNL A   1      28.720  26.716  23.941  1.00  0.00     0.170 HD
ATOM     23  O   UNL A   1      29.313  28.570  22.580  1.00  0.00    -0.265 OA
BRANCH  21  24
ATOM     24  C   UNL A   1      31.547  27.826  22.684  1.00  0.00     0.191 A 
ATOM     25  C   UNL A   1      32.351  26.914  22.023  1.00  0.00     0.056 A 
ATOM     26  O   UNL A   1      32.289  28.924  23.022  1.00  0.00    -0.459 OA
ATOM     27  C   UNL A   1      33.656  27.462  22.003  1.00  0.00     0.043 A 
ATOM     28  C   UNL A   1      33.563  28.687  22.619  1.00  0.00     0.196 A 
ENDBRANCH  21  24
ENDBRANCH  19  20
ENDBRANCH  12  14
ENDBRANCH   9  10
ENDBRANCH   7   9
BRANCH   7  29
ATOM     29  C   UNL A   1      34.184  22.102  24.144  1.00  0.00    -0.032 A 
ATOM     30  C   UNL A   1      33.441  20.904  24.233  1.00  0.00     0.005 A 
ATOM     31  C   UNL A   1      33.829  22.982  23.100  1.00  0.00     0.005 A 
ATOM     32  C   UNL A   1      32.448  20.579  23.303  1.00  0.00     0.000 A 
ATOM     33  C   UNL A   1      32.833  22.659  22.170  1.00  0.00     0.000 A 
ATOM     34  C   UNL A   1      32.154  21.450  22.262  1.00  0.00     0.000 A 
ENDBRANCH   7  29
ENDBRANCH   4   7
ENDBRANCH   2   3
ENDBRANCH   1   2
BRANCH   1  35
ATOM     35  C   UNL A   1      39.934  22.411  26.150  1.00  0.00     0.002 C 
BRANCH  35  36
ATOM     36  C   UNL A   1      40.698  21.404  27.016  1.00  0.00     0.002 C 
BRANCH  36  37
ATOM     37  C   UNL A   1      40.774  19.961  26.501  1.00  0.00     0.021 C 
BRANCH  37  38
ATOM     38  C   UNL A   1      42.042  19.184  26.843  1.00  0.00     0.116 C 
BRANCH  38  39
ATOM     39  N   UNL A   1      42.844  18.871  25.674  1.00  0.00    -0.352 N 
ATOM     40  C   UNL A   1      43.690  19.651  24.929  1.00  0.00     0.251 C 
ATOM     41  H   UNL A   1      42.766  17.940  25.363  1.00  0.00     0.163 HD
ATOM     42  O   UNL A   1      44.155  19.205  23.882  1.00  0.00    -0.269 OA
BRANCH  40  43
ATOM     43  C   UNL A   1      44.044  21.028  25.345  1.00  0.00     0.039 A 
ATOM     44  C   UNL A   1      43.475  22.098  24.645  1.00  0.00     0.014 A 
ATOM     45  C   UNL A   1      44.974  21.280  26.359  1.00  0.00     0.014 A 
ATOM     46  C   UNL A   1      43.794  23.415  24.993  1.00  0.00     0.010 A 
ATOM     47  C   UNL A   1      45.252  22.593  26.742  1.00  0.00     0.010 A 
ATOM     48  C   UNL A   1      44.665  23.673  26.061  1.00  0.00    -0.014 A 
BRANCH  48  49
ATOM     49  C   UNL A   1      44.973  25.065  26.478  1.00  0.00     0.031 A 
ATOM     50  C   UNL A   1      43.901  25.942  27.062  1.00  0.00     0.074 A 
ATOM     51  C   UNL A   1      46.209  25.561  26.277  1.00  0.00     0.049 A 
ATOM     52  N   UNL A   1      43.959  27.204  27.408  1.00  0.00    -0.248 NA
ATOM     53  C   UNL A   1      42.582  25.323  27.263  1.00  0.00     0.031 C 
ATOM     54  C   UNL A   1      47.327  24.827  25.687  1.00  0.00     0.029 A 
ATOM     55  N   UNL A   1      46.726  26.806  26.535  1.00  0.00    -0.354 N 
ATOM     56  C   UNL A   1      42.684  27.535  27.846  1.00  0.00     0.074 A 
ATOM     57  C   UNL A   1      41.864  26.352  27.695  1.00  0.00     0.031 C 
ATOM     58  C   UNL A   1      48.402  25.630  25.636  1.00  0.00     0.029 A 
ATOM     59  C   UNL A   1      48.041  26.944  26.162  1.00  0.00     0.049 A 
ATOM     60  H   UNL A   1      46.205  27.531  26.948  1.00  0.00     0.167 HD
ATOM     61  C   UNL A   1      42.242  28.715  28.346  1.00  0.00     0.037 A 
ATOM     62  C   UNL A   1      48.861  28.010  26.228  1.00  0.00     0.037 A 
ATOM     63  C   UNL A   1      43.064  29.882  28.530  1.00  0.00     0.049 A 
ATOM     64  C   UNL A   1      48.351  29.300  26.806  1.00  0.00     0.074 A 
ATOM     65  C   UNL A   1      42.718  31.104  29.082  1.00  0.00     0.029 A 
ATOM     66  N   UNL A   1      44.400  29.971  28.171  1.00  0.00    -0.354 N 
ATOM     67  N   UNL A   1      47.156  29.587  27.261  1.00  0.00    -0.248 NA
ATOM     68  C   UNL A   1      49.307  30.415  26.885  1.00  0.00     0.031 C 
ATOM     69  C   UNL A   1      43.838  31.941  29.030  1.00  0.00     0.029 A 
ATOM     70  C   UNL A   1      44.890  31.230  28.477  1.00  0.00     0.049 A 
ATOM     71  H   UNL A   1      44.924  29.246  27.759  1.00  0.00     0.167 HD
ATOM     72  C   UNL A   1      47.221  30.902  27.699  1.00  0.00     0.074 A 
ATOM     73  C   UNL A   1      48.575  31.356  27.465  1.00  0.00     0.031 C 
ATOM     74  C   UNL A   1      46.243  31.665  28.244  1.00  0.00     0.037 A 
BRANCH  61  75
ATOM     75  C   UNL A   1      40.796  28.804  28.730  1.00  0.00     0.064 A 
ATOM     76  C   UNL A   1      39.805  29.121  27.788  1.00  0.00     0.173 A 
ATOM     77  C   UNL A   1      40.390  28.529  30.044  1.00  0.00     0.173 A 
ATOM     78  F   UNL A   1      40.145  29.404  26.522  1.00  0.00    -0.203 F 
ATOM     79  C   UNL A   1      38.463  29.182  28.154  1.00  0.00     0.198 A 
ATOM     80  C   UNL A   1      39.045  28.567  30.400  1.00  0.00     0.198 A 
ATOM     81  F   UNL A   1      41.298  28.215  30.981  1.00  0.00    -0.203 F 
ATOM     82  F   UNL A   1      37.538  29.525  27.247  1.00  0.00    -0.200 F 
ATOM     83  C   UNL A   1      38.083  28.899  29.457  1.00  0.00     0.200 A 
ATOM     84  F   UNL A   1      38.677  28.283  31.658  1.00  0.00    -0.200 F 
ATOM     85  F   UNL A   1      36.791  28.953  29.807  1.00  0.00    -0.200 F 
ENDBRANCH  61  75
BRANCH  62  86
ATOM     86  C   UNL A   1      50.261  27.891  25.753  1.00  0.00     0.064 A 
ATOM     87  C   UNL A   1      51.323  27.793  26.662  1.00  0.00     0.173 A 
ATOM     88  C   UNL A   1      50.565  27.868  24.384  1.00  0.00     0.173 A 
ATOM     89  F   UNL A   1      51.079  27.833  27.980  1.00  0.00    -0.203 F 
ATOM     90  C   UNL A   1      52.639  27.688  26.221  1.00  0.00     0.198 A 
ATOM     91  C   UNL A   1      51.881  27.741  23.943  1.00  0.00     0.198 A 
ATOM     92  F   UNL A   1      49.583  27.957  23.476  1.00  0.00    -0.203 F 
ATOM     93  F   UNL A   1      53.639  27.631  27.111  1.00  0.00    -0.200 F 
ATOM     94  C   UNL A   1      52.917  27.657  24.862  1.00  0.00     0.200 A 
ATOM     95  F   UNL A   1      52.145  27.701  22.631  1.00  0.00    -0.200 F 
ATOM     96  F   UNL A   1      54.184  27.552  24.438  1.00  0.00    -0.200 F 
ENDBRANCH  62  86
BRANCH  74  97
ATOM     97  C   UNL A   1      46.607  33.061  28.649  1.00  0.00     0.064 A 
ATOM     98  C   UNL A   1      46.466  34.140  27.764  1.00  0.00     0.173 A 
ATOM     99  C   UNL A   1      47.067  33.328  29.947  1.00  0.00     0.173 A 
ATOM    100  F   UNL A   1      46.047  33.930  26.506  1.00  0.00    -0.203 F 
ATOM    101  C   UNL A   1      46.790  35.435  28.160  1.00  0.00     0.198 A 
ATOM    102  C   UNL A   1      47.367  34.627  30.346  1.00  0.00     0.198 A 
ATOM    103  F   UNL A   1      47.214  32.329  30.831  1.00  0.00    -0.203 F 
ATOM    104  F   UNL A   1      46.683  36.446  27.287  1.00  0.00    -0.200 F 
ATOM    105  C   UNL A   1      47.233  35.678  29.452  1.00  0.00     0.200 A 
ATOM    106  F   UNL A   1      47.788  34.862  31.597  1.00  0.00    -0.200 F 
ATOM    107  F   UNL A   1      47.539  36.926  29.831  1.00  0.00    -0.200 F 
ENDBRANCH  74  97
ENDBRANCH  48  49
ENDBRANCH  40  43
ENDBRANCH  38  39
ENDBRANCH  37  38
ENDBRANCH  36  37
ENDBRANCH  35  36
ENDBRANCH   1  35
TORSDOF 19
ENDMDL
MODEL 2
REMARK VINA RESULT:     -11.6      4.657      7.251
REMARK SMILES C[C@@](CC(=O)Nc1ccc(NC(=O)c2ccco2)cc1)(C(=O)NCCCCCCNC(=O)c1ccc(-c2c3nc(c(-c4c(F)c(F)c(F)c(F)c4F)c4ccc([nH]4)c(-c4c(F)c(F)c(F)c(F)c4F)c4nc(c(-c5c(F)c(F)c(F)c(F)c5F)c5ccc2[nH]5)C=C4)C=C3)cc1)c1ccccc1
REMARK SMILES IDX 25 1 24 2 23 3 21 4 22 5 2 7 1 8 3 9 4 10 5 11 6 12 7 14
REMARK SMILES IDX 8 15 20 16 9 17 19 18 10 19 11 20 12 21 13 23 14 24 15 25
REMARK SMILES IDX 18 26 16 27 17 28 96 29 97 30 101 31 98 32 100 33 99 34
REMARK SMILES IDX 26 35 27 36 28 37 29 38 30 39 31 40 32 42 33 43 34 44 95 45
REMARK SMILES IDX 35 46 94 47 36 48 37 49 38 50 88 51 39 52 93 53 87 54 89 55
REMARK SMILES IDX 40 56 92 57 86 58 85 59 41 61 73 62 53 63 72 64 54 65 57 66
REMARK SMILES IDX 71 67 90 68 55 69 56 70 70 72 91 73 58 74 42 75 43 76 51 77
REMARK SMILES IDX 44 78 45 79 49 80 52 81 46 82 47 83 50 84 48 85 74 86 75 87
REMARK SMILES IDX 83 88 76 89 77 90 81 91 84 92 78 93 79 94 82 95 80 96 59 97
REMARK SMILES IDX 60 98 68 99 61 100 62 101 66 102 69 103 63 104 64 105 67 106
REMARK SMILES IDX 65 107
REMARK H PARENT 23 6 6 13 11 22 30 41 89 60 57 71
REMARK Flexibility Score: inf
ROOT
ATOM      1  C   UNL A   1      39.377  22.141  26.370  1.00  0.00     0.021 C 
ENDROOT
BRANCH   1   2
ATOM      2  C   UNL A   1      38.257  23.125  26.043  1.00  0.00     0.116 C 
BRANCH   2   3
ATOM      3  N   UNL A   1      37.791  23.110  24.671  1.00  0.00    -0.355 N 
ATOM      4  C   UNL A   1      36.567  22.827  24.116  1.00  0.00     0.230 C 
ATOM      5  O   UNL A   1      36.446  23.152  22.931  1.00  0.00    -0.274 OA
ATOM      6  H   UNL A   1      38.482  23.347  24.011  1.00  0.00     0.163 HD
BRANCH   4   7
ATOM      7  C   UNL A   1      35.430  22.085  24.904  1.00  0.00     0.080 C 
ATOM      8  C   UNL A   1      35.981  20.657  25.146  1.00  0.00     0.027 C 
BRANCH   7   9
ATOM      9  C   UNL A   1      34.948  22.915  26.141  1.00  0.00     0.121 C 
BRANCH   9  10
ATOM     10  C   UNL A   1      33.859  22.457  27.076  1.00  0.00     0.225 C 
ATOM     11  O   UNL A   1      34.103  21.568  27.902  1.00  0.00    -0.275 OA
ATOM     12  N   UNL A   1      32.600  22.967  27.103  1.00  0.00    -0.326 N 
ATOM     13  H   UNL A   1      32.056  22.592  27.832  1.00  0.00     0.169 HD
BRANCH  12  14
ATOM     14  C   UNL A   1      31.893  23.903  26.336  1.00  0.00     0.041 A 
ATOM     15  C   UNL A   1      32.056  25.250  26.677  1.00  0.00     0.028 A 
ATOM     16  C   UNL A   1      31.029  23.598  25.294  1.00  0.00     0.028 A 
ATOM     17  C   UNL A   1      31.365  26.255  25.989  1.00  0.00     0.028 A 
ATOM     18  C   UNL A   1      30.291  24.588  24.645  1.00  0.00     0.028 A 
ATOM     19  C   UNL A   1      30.496  25.927  24.948  1.00  0.00     0.041 A 
BRANCH  19  20
ATOM     20  N   UNL A   1      29.802  26.856  24.166  1.00  0.00    -0.319 N 
ATOM     21  C   UNL A   1      30.263  27.807  23.274  1.00  0.00     0.291 C 
ATOM     22  H   UNL A   1      28.823  26.830  24.267  1.00  0.00     0.170 HD
ATOM     23  O   UNL A   1      29.460  28.640  22.867  1.00  0.00    -0.265 OA
BRANCH  21  24
ATOM     24  C   UNL A   1      31.626  27.711  22.792  1.00  0.00     0.191 A 
ATOM     25  C   UNL A   1      32.402  26.638  22.388  1.00  0.00     0.056 A 
ATOM     26  O   UNL A   1      32.356  28.863  22.693  1.00  0.00    -0.459 OA
ATOM     27  C   UNL A   1      33.681  27.157  22.077  1.00  0.00     0.043 A 
ATOM     28  C   UNL A   1      33.599  28.515  22.274  1.00  0.00     0.196 A 
ENDBRANCH  21  24
ENDBRANCH  19  20
ENDBRANCH  12  14
ENDBRANCH   9  10
ENDBRANCH   7   9
BRANCH   7  29
ATOM     29  C   UNL A   1      34.086  21.981  24.061  1.00  0.00    -0.032 A 
ATOM     30  C   UNL A   1      33.333  20.787  24.080  1.00  0.00     0.005 A 
ATOM     31  C   UNL A   1      33.696  22.952  23.114  1.00  0.00     0.005 A 
ATOM     32  C   UNL A   1      32.296  20.552  23.171  1.00  0.00     0.000 A 
ATOM     33  C   UNL A   1      32.656  22.719  22.206  1.00  0.00     0.000 A 
ATOM     34  C   UNL A   1      31.968  21.512  22.223  1.00  0.00     0.000 A 
ENDBRANCH   7  29
ENDBRANCH   4   7
ENDBRANCH   2   3
ENDBRANCH   1   2
BRANCH   1  35
ATOM     35  C   UNL A   1      40.587  22.717  27.101  1.00  0.00     0.002 C 
BRANCH  35  36
ATOM     36  C   UNL A   1      41.840  21.838  27.144  1.00  0.00     0.002 C 
BRANCH  36  37
ATOM     37  C   UNL A   1      42.807  21.946  25.959  1.00  0.00     0.021 C 
BRANCH  37  38
ATOM     38  C   UNL A   1      42.680  23.195  25.091  1.00  0.00     0.116 C 
BRANCH  38  39
ATOM     39  N   UNL A   1      43.963  23.804  24.789  1.00  0.00    -0.352 N 
ATOM     40  C   UNL A   1      44.581  24.907  25.319  1.00  0.00     0.251 C 
ATOM     41  H   UNL A   1      44.475  23.347  24.083  1.00  0.00     0.163 HD
ATOM     42  O   UNL A   1      45.613  25.326  24.800  1.00  0.00    -0.269 OA
BRANCH  40  43
ATOM     43  C   UNL A   1      44.024  25.619  26.492  1.00  0.00     0.039 A 
ATOM     44  C   UNL A   1      43.951  27.016  26.446  1.00  0.00     0.014 A 
ATOM     45  C   UNL A   1      43.642  24.944  27.656  1.00  0.00     0.014 A 
ATOM     46  C   UNL A   1      43.448  27.731  27.538  1.00  0.00     0.010 A 
ATOM     47  C   UNL A   1      43.091  25.652  28.726  1.00  0.00     0.010 A 
ATOM     48  C   UNL A   1      42.990  27.053  28.676  1.00  0.00    -0.014 A 
BRANCH  48  49
ATOM     49  C   UNL A   1      42.404  27.793  29.823  1.00  0.00     0.031 A 
ATOM     50  C   UNL A   1      41.091  28.509  29.678  1.00  0.00     0.074 A 
ATOM     51  C   UNL A   1      43.085  27.868  30.983  1.00  0.00     0.049 A 
ATOM     52  N   UNL A   1      40.463  29.272  30.538  1.00  0.00    -0.248 NA
ATOM     53  C   UNL A   1      40.402  28.368  28.386  1.00  0.00     0.031 C 
ATOM     54  C   UNL A   1      44.384  27.249  31.241  1.00  0.00     0.029 A 
ATOM     55  N   UNL A   1      42.782  28.511  32.158  1.00  0.00    -0.354 N 
ATOM     56  C   UNL A   1      39.321  29.717  29.888  1.00  0.00     0.074 A 
ATOM     57  C   UNL A   1      39.355  29.165  28.550  1.00  0.00     0.031 C 
ATOM     58  C   UNL A   1      44.764  27.532  32.497  1.00  0.00     0.029 A 
ATOM     59  C   UNL A   1      43.750  28.378  33.123  1.00  0.00     0.049 A 
ATOM     60  H   UNL A   1      41.951  29.019  32.296  1.00  0.00     0.167 HD
ATOM     61  C   UNL A   1      38.325  30.500  30.368  1.00  0.00     0.037 A 
ATOM     62  C   UNL A   1      43.818  28.885  34.368  1.00  0.00     0.037 A 
ATOM     63  C   UNL A   1      38.271  31.021  31.708  1.00  0.00     0.049 A 
ATOM     64  C   UNL A   1      42.690  29.735  34.883  1.00  0.00     0.074 A 
ATOM     65  C   UNL A   1      37.274  31.776  32.303  1.00  0.00     0.029 A 
ATOM     66  N   UNL A   1      39.255  30.835  32.667  1.00  0.00    -0.354 N 
ATOM     67  N   UNL A   1      41.593  30.109  34.273  1.00  0.00    -0.248 NA
ATOM     68  C   UNL A   1      42.807  30.227  36.264  1.00  0.00     0.031 C 
ATOM     69  C   UNL A   1      37.670  32.072  33.612  1.00  0.00     0.029 A 
ATOM     70  C   UNL A   1      38.896  31.473  33.843  1.00  0.00     0.049 A 
ATOM     71  H   UNL A   1      40.088  30.326  32.532  1.00  0.00     0.167 HD
ATOM     72  C   UNL A   1      40.880  30.860  35.197  1.00  0.00     0.074 A 
ATOM     73  C   UNL A   1      41.664  30.881  36.414  1.00  0.00     0.031 C 
ATOM     74  C   UNL A   1      39.685  31.479  35.049  1.00  0.00     0.037 A 
BRANCH  61  75
ATOM     75  C   UNL A   1      37.206  30.847  29.432  1.00  0.00     0.064 A 
ATOM     76  C   UNL A   1      36.203  29.919  29.114  1.00  0.00     0.173 A 
ATOM     77  C   UNL A   1      37.111  32.133  28.881  1.00  0.00     0.173 A 
ATOM     78  F   UNL A   1      36.257  28.673  29.606  1.00  0.00    -0.203 F 
ATOM     79  C   UNL A   1      35.158  30.260  28.259  1.00  0.00     0.198 A 
ATOM     80  C   UNL A   1      36.051  32.478  28.047  1.00  0.00     0.198 A 
ATOM     81  F   UNL A   1      38.041  33.059  29.160  1.00  0.00    -0.203 F 
ATOM     82  F   UNL A   1      34.233  29.345  27.937  1.00  0.00    -0.200 F 
ATOM     83  C   UNL A   1      35.079  31.540  27.731  1.00  0.00     0.200 A 
ATOM     84  F   UNL A   1      35.970  33.719  27.545  1.00  0.00    -0.200 F 
ATOM     85  F   UNL A   1      34.071  31.868  26.913  1.00  0.00    -0.200 F 
ENDBRANCH  61  75
BRANCH  62  86
ATOM     86  C   UNL A   1      44.992  28.582  35.222  1.00  0.00     0.064 A 
ATOM     87  C   UNL A   1      44.966  27.510  36.125  1.00  0.00     0.173 A 
ATOM     88  C   UNL A   1      46.163  29.351  35.151  1.00  0.00     0.173 A 
ATOM     89  F   UNL A   1      43.860  26.763  36.243  1.00  0.00    -0.203 F 
ATOM     90  C   UNL A   1      46.063  27.226  36.934  1.00  0.00     0.198 A 
ATOM     91  C   UNL A   1      47.268  29.052  35.945  1.00  0.00     0.198 A 
ATOM     92  F   UNL A   1      46.236  30.385  34.300  1.00  0.00    -0.203 F 
ATOM     93  F   UNL A   1      46.000  26.218  37.814  1.00  0.00    -0.200 F 
ATOM     94  C   UNL A   1      47.216  27.993  36.840  1.00  0.00     0.200 A 
ATOM     95  F   UNL A   1      48.382  29.789  35.844  1.00  0.00    -0.200 F 
ATOM     96  F   UNL A   1      48.272  27.717  37.616  1.00  0.00    -0.200 F 
ENDBRANCH  62  86
BRANCH  74  97
ATOM     97  C   UNL A   1      39.138  32.210  36.237  1.00  0.00     0.064 A 
ATOM     98  C   UNL A   1      38.238  31.598  37.122  1.00  0.00     0.173 A 
ATOM     99  C   UNL A   1      39.548  33.522  36.516  1.00  0.00     0.173 A 
ATOM    100  F   UNL A   1      37.805  30.349  36.886  1.00  0.00    -0.203 F 
ATOM    101  C   UNL A   1      37.753  32.281  38.233  1.00  0.00     0.198 A 
ATOM    102  C   UNL A   1      39.079  34.194  37.641  1.00  0.00     0.198 A 
ATOM    103  F   UNL A   1      40.411  34.148  35.701  1.00  0.00    -0.203 F 
ATOM    104  F   UNL A   1      36.866  31.691  39.045  1.00  0.00    -0.200 F 
ATOM    105  C   UNL A   1      38.179  33.575  38.496  1.00  0.00     0.200 A 
ATOM    106  F   UNL A   1      39.496  35.441  37.898  1.00  0.00    -0.200 F 
ATOM    107  F   UNL A   1      37.714  34.228  39.569  1.00  0.00    -0.200 F 
ENDBRANCH  74  97
ENDBRANCH  48  49
ENDBRANCH  40  43
ENDBRANCH  38  39
ENDBRANCH  37  38
ENDBRANCH  36  37
ENDBRANCH  35  36
ENDBRANCH   1  35
TORSDOF 19
ENDMDL
MODEL 3
REMARK VINA RESULT:     -11.4      2.245      4.775
REMARK SMILES C[C@@](CC(=O)Nc1ccc(NC(=O)c2ccco2)cc1)(C(=O)NCCCCCCNC(=O)c1ccc(-c2c3nc(c(-c4c(F)c(F)c(F)c(F)c4F)c4ccc([nH]4)c(-c4c(F)c(F)c(F)c(F)c4F)c4nc(c(-c5c(F)c(F)c(F)c(F)c5F)c5ccc2[nH]5)C=C4)C=C3)cc1)c1ccccc1
REMARK SMILES IDX 25 1 24 2 23 3 21 4 22 5 2 7 1 8 3 9 4 10 5 11 6 12 7 14
REMARK SMILES IDX 8 15 20 16 9 17 19 18 10 19 11 20 12 21 13 23 14 24 15 25
REMARK SMILES IDX 18 26 16 27 17 28 96 29 97 30 101 31 98 32 100 33 99 34
REMARK SMILES IDX 26 35 27 36 28 37 29 38 30 39 31 40 32 42 33 43 34 44 95 45
REMARK SMILES IDX 35 46 94 47 36 48 37 49 38 50 88 51 39 52 93 53 87 54 89 55
REMARK SMILES IDX 40 56 92 57 86 58 85 59 41 61 73 62 53 63 72 64 54 65 57 66
REMARK SMILES IDX 71 67 90 68 55 69 56 70 70 72 91 73 58 74 42 75 43 76 51 77
REMARK SMILES IDX 44 78 45 79 49 80 52 81 46 82 47 83 50 84 48 85 74 86 75 87
REMARK SMILES IDX 83 88 76 89 77 90 81 91 84 92 78 93 79 94 82 95 80 96 59 97
REMARK SMILES IDX 60 98 68 99 61 100 62 101 66 102 69 103 63 104 64 105 67 106
REMARK SMILES IDX 65 107
REMARK H PARENT 23 6 6 13 11 22 30 41 89 60 57 71
REMARK Flexibility Score: inf
ROOT
ATOM      1  C   UNL A   1      35.551  22.203  24.116  1.00  0.00     0.021 C 
ENDROOT
BRANCH   1   2
ATOM      2  C   UNL A   1      35.213  23.675  24.333  1.00  0.00     0.116 C 
BRANCH   2   3
ATOM      3  N   UNL A   1      34.426  24.298  23.286  1.00  0.00    -0.355 N 
ATOM      4  C   UNL A   1      33.319  25.108  23.324  1.00  0.00     0.230 C 
ATOM      5  O   UNL A   1      33.048  25.668  22.257  1.00  0.00    -0.274 OA
ATOM      6  H   UNL A   1      34.748  24.104  22.376  1.00  0.00     0.163 HD
BRANCH   4   7
ATOM      7  C   UNL A   1      32.420  25.258  24.603  1.00  0.00     0.080 C 
ATOM      8  C   UNL A   1      30.972  25.041  24.099  1.00  0.00     0.027 C 
BRANCH   7   9
ATOM      9  C   UNL A   1      32.940  24.366  25.780  1.00  0.00     0.121 C 
BRANCH   9  10
ATOM     10  C   UNL A   1      32.035  23.551  26.668  1.00  0.00     0.225 C 
ATOM     11  O   UNL A   1      31.472  24.098  27.626  1.00  0.00    -0.275 OA
ATOM     12  N   UNL A   1      31.760  22.233  26.487  1.00  0.00    -0.326 N 
ATOM     13  H   UNL A   1      31.088  21.898  27.124  1.00  0.00     0.169 HD
BRANCH  12  14
ATOM     14  C   UNL A   1      32.207  21.239  25.607  1.00  0.00     0.041 A 
ATOM     15  C   UNL A   1      33.103  20.296  26.123  1.00  0.00     0.028 A 
ATOM     16  C   UNL A   1      31.857  21.136  24.269  1.00  0.00     0.028 A 
ATOM     17  C   UNL A   1      33.630  19.285  25.311  1.00  0.00     0.028 A 
ATOM     18  C   UNL A   1      32.425  20.169  23.439  1.00  0.00     0.028 A 
ATOM     19  C   UNL A   1      33.270  19.202  23.966  1.00  0.00     0.041 A 
BRANCH  19  20
ATOM     20  N   UNL A   1      33.696  18.202  23.086  1.00  0.00    -0.319 N 
ATOM     21  C   UNL A   1      33.806  16.834  23.261  1.00  0.00     0.291 C 
ATOM     22  H   UNL A   1      33.964  18.524  22.195  1.00  0.00     0.170 HD
ATOM     23  O   UNL A   1      34.403  16.199  22.398  1.00  0.00    -0.265 OA
BRANCH  21  24
ATOM     24  C   UNL A   1      33.132  16.217  24.384  1.00  0.00     0.191 A 
ATOM     25  C   UNL A   1      31.987  16.550  25.086  1.00  0.00     0.056 A 
ATOM     26  O   UNL A   1      33.674  15.079  24.913  1.00  0.00    -0.459 OA
ATOM     27  C   UNL A   1      31.855  15.598  26.124  1.00  0.00     0.043 A 
ATOM     28  C   UNL A   1      32.903  14.722  25.971  1.00  0.00     0.196 A 
ENDBRANCH  21  24
ENDBRANCH  19  20
ENDBRANCH  12  14
ENDBRANCH   9  10
ENDBRANCH   7   9
BRANCH   7  29
ATOM     29  C   UNL A   1      32.530  26.709  25.244  1.00  0.00    -0.032 A 
ATOM     30  C   UNL A   1      33.647  27.044  26.040  1.00  0.00     0.005 A 
ATOM     31  C   UNL A   1      31.465  27.634  25.238  1.00  0.00     0.005 A 
ATOM     32  C   UNL A   1      33.673  28.199  26.828  1.00  0.00     0.000 A 
ATOM     33  C   UNL A   1      31.492  28.792  26.025  1.00  0.00     0.000 A 
ATOM     34  C   UNL A   1      32.589  29.067  26.833  1.00  0.00     0.000 A 
ENDBRANCH   7  29
ENDBRANCH   4   7
ENDBRANCH   2   3
ENDBRANCH   1   2
BRANCH   1  35
ATOM     35  C   UNL A   1      36.638  21.623  25.017  1.00  0.00     0.002 C 
BRANCH  35  36
ATOM     36  C   UNL A   1      36.810  20.101  24.986  1.00  0.00     0.002 C 
BRANCH  36  37
ATOM     37  C   UNL A   1      38.238  19.565  24.831  1.00  0.00     0.021 C 
BRANCH  37  38
ATOM     38  C   UNL A   1      39.201  19.856  25.978  1.00  0.00     0.116 C 
BRANCH  38  39
ATOM     39  N   UNL A   1      40.355  18.975  25.983  1.00  0.00    -0.352 N 
ATOM     40  C   UNL A   1      41.693  19.248  26.101  1.00  0.00     0.251 C 
ATOM     41  H   UNL A   1      40.139  18.020  25.882  1.00  0.00     0.163 HD
ATOM     42  O   UNL A   1      42.509  18.345  25.930  1.00  0.00    -0.269 OA
BRANCH  40  43
ATOM     43  C   UNL A   1      42.182  20.611  26.414  1.00  0.00     0.039 A 
ATOM     44  C   UNL A   1      42.593  21.426  25.354  1.00  0.00     0.014 A 
ATOM     45  C   UNL A   1      42.309  21.069  27.730  1.00  0.00     0.014 A 
ATOM     46  C   UNL A   1      43.078  22.715  25.604  1.00  0.00     0.010 A 
ATOM     47  C   UNL A   1      42.743  22.373  27.976  1.00  0.00     0.010 A 
ATOM     48  C   UNL A   1      43.132  23.208  26.915  1.00  0.00    -0.014 A 
BRANCH  48  49
ATOM     49  C   UNL A   1      43.594  24.591  27.194  1.00  0.00     0.031 A 
ATOM     50  C   UNL A   1      42.637  25.624  27.719  1.00  0.00     0.074 A 
ATOM     51  C   UNL A   1      44.867  24.936  26.918  1.00  0.00     0.049 A 
ATOM     52  N   UNL A   1      42.834  26.899  27.945  1.00  0.00    -0.248 NA
ATOM     53  C   UNL A   1      41.269  25.167  28.009  1.00  0.00     0.031 C 
ATOM     54  C   UNL A   1      45.884  24.039  26.372  1.00  0.00     0.029 A 
ATOM     55  N   UNL A   1      45.516  26.138  27.047  1.00  0.00    -0.354 N 
ATOM     56  C   UNL A   1      41.616  27.400  28.381  1.00  0.00     0.074 A 
ATOM     57  C   UNL A   1      40.675  26.299  28.360  1.00  0.00     0.031 C 
ATOM     58  C   UNL A   1      47.033  24.717  26.221  1.00  0.00     0.029 A 
ATOM     59  C   UNL A   1      46.825  26.103  26.631  1.00  0.00     0.049 A 
ATOM     60  H   UNL A   1      45.086  26.948  27.404  1.00  0.00     0.167 HD
ATOM     61  C   UNL A   1      41.313  28.659  28.780  1.00  0.00     0.037 A 
ATOM     62  C   UNL A   1      47.751  27.080  26.579  1.00  0.00     0.037 A 
ATOM     63  C   UNL A   1      42.255  29.745  28.836  1.00  0.00     0.049 A 
ATOM     64  C   UNL A   1      47.395  28.463  27.047  1.00  0.00     0.074 A 
ATOM     65  C   UNL A   1      42.054  31.042  29.280  1.00  0.00     0.029 A 
ATOM     66  N   UNL A   1      43.580  29.662  28.438  1.00  0.00    -0.354 N 
ATOM     67  N   UNL A   1      46.251  28.912  27.502  1.00  0.00    -0.248 NA
ATOM     68  C   UNL A   1      48.461  29.474  27.000  1.00  0.00     0.031 C 
ATOM     69  C   UNL A   1      43.251  31.749  29.124  1.00  0.00     0.029 A 
ATOM     70  C   UNL A   1      44.205  30.886  28.614  1.00  0.00     0.049 A 
ATOM     71  H   UNL A   1      44.014  28.852  28.082  1.00  0.00     0.167 HD
ATOM     72  C   UNL A   1      46.464  30.248  27.814  1.00  0.00     0.074 A 
ATOM     73  C   UNL A   1      47.849  30.535  27.507  1.00  0.00     0.031 C 
ATOM     74  C   UNL A   1      45.587  31.154  28.309  1.00  0.00     0.037 A 
BRANCH  61  75
ATOM     75  C   UNL A   1      39.896  28.933  29.188  1.00  0.00     0.064 A 
ATOM     76  C   UNL A   1      39.498  28.880  30.532  1.00  0.00     0.173 A 
ATOM     77  C   UNL A   1      38.937  29.295  28.231  1.00  0.00     0.173 A 
ATOM     78  F   UNL A   1      40.376  28.528  31.482  1.00  0.00    -0.203 F 
ATOM     79  C   UNL A   1      38.183  29.156  30.900  1.00  0.00     0.198 A 
ATOM     80  C   UNL A   1      37.630  29.594  28.605  1.00  0.00     0.198 A 
ATOM     81  F   UNL A   1      39.269  29.367  26.933  1.00  0.00    -0.203 F 
ATOM     82  F   UNL A   1      37.815  29.060  32.185  1.00  0.00    -0.200 F 
ATOM     83  C   UNL A   1      37.253  29.518  29.938  1.00  0.00     0.200 A 
ATOM     84  F   UNL A   1      36.733  29.954  27.676  1.00  0.00    -0.200 F 
ATOM     85  F   UNL A   1      35.990  29.789  30.294  1.00  0.00    -0.200 F 
ENDBRANCH  61  75
BRANCH  62  86
ATOM     86  C   UNL A   1      49.115  26.773  26.083  1.00  0.00     0.064 A 
ATOM     87  C   UNL A   1      50.083  26.225  26.936  1.00  0.00     0.173 A 
ATOM     88  C   UNL A   1      49.477  27.016  24.751  1.00  0.00     0.173 A 
ATOM     89  F   UNL A   1      49.787  25.997  28.223  1.00  0.00    -0.203 F 
ATOM     90  C   UNL A   1      51.367  25.942  26.477  1.00  0.00     0.198 A 
ATOM     91  C   UNL A   1      50.755  26.712  24.286  1.00  0.00     0.198 A 
ATOM     92  F   UNL A   1      48.584  27.538  23.897  1.00  0.00    -0.203 F 
ATOM     93  F   UNL A   1      52.284  25.451  27.321  1.00  0.00    -0.200 F 
ATOM     94  C   UNL A   1      51.701  26.180  25.151  1.00  0.00     0.200 A 
ATOM     95  F   UNL A   1      51.071  26.935  23.004  1.00  0.00    -0.200 F 
ATOM     96  F   UNL A   1      52.935  25.904  24.709  1.00  0.00    -0.200 F 
ENDBRANCH  62  86
BRANCH  74  97
ATOM     97  C   UNL A   1      46.105  32.535  28.574  1.00  0.00     0.064 A 
ATOM     98  C   UNL A   1      46.688  32.875  29.803  1.00  0.00     0.173 A 
ATOM     99  C   UNL A   1      46.052  33.519  27.574  1.00  0.00     0.173 A 
ATOM    100  F   UNL A   1      46.746  31.972  30.794  1.00  0.00    -0.203 F 
ATOM    101  C   UNL A   1      47.184  34.156  30.029  1.00  0.00     0.198 A 
ATOM    102  C   UNL A   1      46.569  34.791  27.796  1.00  0.00     0.198 A 
ATOM    103  F   UNL A   1      45.507  33.240  26.381  1.00  0.00    -0.203 F 
ATOM    104  F   UNL A   1      47.704  34.470  31.223  1.00  0.00    -0.200 F 
ATOM    105  C   UNL A   1      47.130  35.111  29.024  1.00  0.00     0.200 A 
ATOM    106  F   UNL A   1      46.523  35.711  26.822  1.00  0.00    -0.200 F 
ATOM    107  F   UNL A   1      47.612  36.341  29.242  1.00  0.00    -0.200 F 
ENDBRANCH  74  97
ENDBRANCH  48  49
ENDBRANCH  40  43
ENDBRANCH  38  39
ENDBRANCH  37  38
ENDBRANCH  36  37
ENDBRANCH  35  36
ENDBRANCH   1  35
TORSDOF 19
ENDMDL
