MODEL 1
REMARK VINA RESULT:     -12.2      0.000      0.000
REMARK SMILES CC1(C)C(=O)N([C@H]2COC[C@@H]2C(=O)NCCCCCCNC(=O)c2ccc(-c3c4nc(c(-c5c(F)c(F)c(F)c(F)c5F)c5ccc([nH]5)c(-c5c(F)c(F)c(F)c(F)c5F)c5nc(c(-c6c(F)c(F)c(F)c(F)c6F)c6ccc3[nH]6)C=C5)C=C4)cc2)S1(=O)=O
REMARK SMILES IDX 18 1 17 2 16 3 15 4 14 5 12 6 13 7 11 9 7 10 8 11 9 12 10 13
REMARK SMILES IDX 6 14 1 15 2 16 3 17 4 18 87 19 5 20 88 21 89 22 19 23 20 24
REMARK SMILES IDX 21 25 22 26 23 28 24 29 25 30 86 31 26 32 85 33 27 34 28 35
REMARK SMILES IDX 29 36 79 37 30 38 84 39 78 40 80 41 31 42 83 43 77 44 76 45
REMARK SMILES IDX 32 47 64 48 44 49 63 50 45 51 48 52 62 53 81 54 46 55 47 56
REMARK SMILES IDX 61 58 82 59 49 60 33 61 34 62 42 63 35 64 36 65 40 66 43 67
REMARK SMILES IDX 37 68 38 69 41 70 39 71 65 72 66 73 74 74 67 75 68 76 72 77
REMARK SMILES IDX 75 78 69 79 70 80 73 81 71 82 50 83 51 84 59 85 52 86 53 87
REMARK SMILES IDX 57 88 60 89 54 90 55 91 58 92 56 93
REMARK H PARENT 14 8 21 27 80 46 48 57
REMARK Flexibility Score: inf
ROOT
ATOM      1  C   UNL A   1      31.475  30.728  26.336  1.00  0.00     0.002 C 
ENDROOT
BRANCH   1   2
ATOM      2  C   UNL A   1      32.460  29.990  27.252  1.00  0.00     0.002 C 
BRANCH   2   3
ATOM      3  C   UNL A   1      32.697  28.521  26.890  1.00  0.00     0.021 C 
BRANCH   3   4
ATOM      4  C   UNL A   1      34.015  28.282  26.148  1.00  0.00     0.116 C 
BRANCH   4   5
ATOM      5  N   UNL A   1      33.941  28.761  24.779  1.00  0.00    -0.356 N 
ATOM      6  C   UNL A   1      33.310  28.321  23.666  1.00  0.00     0.227 C 
ATOM      7  O   UNL A   1      33.533  28.978  22.639  1.00  0.00    -0.275 OA
ATOM      8  H   UNL A   1      34.462  29.583  24.629  1.00  0.00     0.163 HD
BRANCH   6   9
ATOM      9  C   UNL A   1      32.320  27.161  23.580  1.00  0.00     0.130 C 
ATOM     10  C   UNL A   1      33.112  25.862  23.525  1.00  0.00     0.143 C 
ATOM     11  C   UNL A   1      33.253  25.640  22.026  1.00  0.00     0.187 C 
ATOM     12  O   UNL A   1      32.127  26.272  21.391  1.00  0.00    -0.378 OA
ATOM     13  C   UNL A   1      31.423  27.047  22.373  1.00  0.00     0.176 C 
BRANCH  10  14
ATOM     14  N   UNL A   1      32.440  24.746  24.221  1.00  0.00    -0.231 N 
ATOM     15  C   UNL A   1      32.434  21.454  25.396  1.00  0.00     0.041 C 
ATOM     16  C   UNL A   1      31.873  22.862  25.208  1.00  0.00     0.165 C 
ATOM     17  C   UNL A   1      30.642  23.089  26.082  1.00  0.00     0.041 C 
ATOM     18  C   UNL A   1      32.934  23.996  25.308  1.00  0.00     0.259 C 
ATOM     19  S   UNL A   1      31.750  23.401  23.532  1.00  0.00     0.252 S 
ATOM     20  O   UNL A   1      33.838  24.301  26.046  1.00  0.00    -0.272 OA
ATOM     21  O   UNL A   1      32.701  22.738  22.674  1.00  0.00    -0.205 OA
ATOM     22  O   UNL A   1      30.405  23.727  23.125  1.00  0.00    -0.205 OA
ENDBRANCH  10  14
ENDBRANCH   6   9
ENDBRANCH   4   5
ENDBRANCH   3   4
ENDBRANCH   2   3
ENDBRANCH   1   2
BRANCH   1  23
ATOM     23  C   UNL A   1      31.415  32.244  26.539  1.00  0.00     0.021 C 
BRANCH  23  24
ATOM     24  C   UNL A   1      32.629  32.823  27.259  1.00  0.00     0.116 C 
BRANCH  24  25
ATOM     25  N   UNL A   1      32.430  34.225  27.595  1.00  0.00    -0.352 N 
ATOM     26  C   UNL A   1      32.978  34.959  28.617  1.00  0.00     0.251 C 
ATOM     27  H   UNL A   1      31.816  34.717  27.005  1.00  0.00     0.163 HD
ATOM     28  O   UNL A   1      32.511  36.052  28.918  1.00  0.00    -0.269 OA
BRANCH  26  29
ATOM     29  C   UNL A   1      34.133  34.419  29.362  1.00  0.00     0.039 A 
ATOM     30  C   UNL A   1      33.921  33.798  30.595  1.00  0.00     0.014 A 
ATOM     31  C   UNL A   1      35.425  34.538  28.842  1.00  0.00     0.014 A 
ATOM     32  C   UNL A   1      35.001  33.241  31.281  1.00  0.00     0.010 A 
ATOM     33  C   UNL A   1      36.488  33.919  29.490  1.00  0.00     0.010 A 
ATOM     34  C   UNL A   1      36.287  33.268  30.716  1.00  0.00    -0.014 A 
BRANCH  34  35
ATOM     35  C   UNL A   1      37.439  32.619  31.388  1.00  0.00     0.031 A 
ATOM     36  C   UNL A   1      38.147  31.471  30.727  1.00  0.00     0.074 A 
ATOM     37  C   UNL A   1      37.796  33.016  32.624  1.00  0.00     0.049 A 
ATOM     38  N   UNL A   1      39.116  30.720  31.184  1.00  0.00    -0.248 NA
ATOM     39  C   UNL A   1      37.685  31.101  29.380  1.00  0.00     0.031 C 
ATOM     40  C   UNL A   1      37.160  34.095  33.382  1.00  0.00     0.029 A 
ATOM     41  N   UNL A   1      38.776  32.551  33.464  1.00  0.00    -0.354 N 
ATOM     42  C   UNL A   1      39.371  29.786  30.189  1.00  0.00     0.074 A 
ATOM     43  C   UNL A   1      38.416  30.027  29.129  1.00  0.00     0.031 C 
ATOM     44  C   UNL A   1      37.783  34.227  34.564  1.00  0.00     0.029 A 
ATOM     45  C   UNL A   1      38.831  33.216  34.665  1.00  0.00     0.049 A 
ATOM     46  H   UNL A   1      39.382  31.811  33.229  1.00  0.00     0.167 HD
ATOM     47  C   UNL A   1      40.331  28.832  30.152  1.00  0.00     0.037 A 
ATOM     48  C   UNL A   1      39.633  33.024  35.728  1.00  0.00     0.037 A 
ATOM     49  C   UNL A   1      41.286  28.607  31.206  1.00  0.00     0.049 A 
ATOM     50  C   UNL A   1      40.664  31.929  35.680  1.00  0.00     0.074 A 
ATOM     51  C   UNL A   1      42.329  27.698  31.249  1.00  0.00     0.029 A 
ATOM     52  N   UNL A   1      41.306  29.295  32.412  1.00  0.00    -0.354 N 
ATOM     53  N   UNL A   1      40.941  31.093  34.709  1.00  0.00    -0.248 NA
ATOM     54  C   UNL A   1      41.495  31.753  36.878  1.00  0.00     0.031 C 
ATOM     55  C   UNL A   1      42.949  27.803  32.498  1.00  0.00     0.029 A 
ATOM     56  C   UNL A   1      42.328  28.814  33.215  1.00  0.00     0.049 A 
ATOM     57  H   UNL A   1      40.687  30.019  32.659  1.00  0.00     0.167 HD
ATOM     58  C   UNL A   1      41.995  30.314  35.164  1.00  0.00     0.074 A 
ATOM     59  C   UNL A   1      42.316  30.785  36.496  1.00  0.00     0.031 C 
ATOM     60  C   UNL A   1      42.640  29.301  34.536  1.00  0.00     0.037 A 
BRANCH  47  61
ATOM     61  C   UNL A   1      40.392  27.961  28.930  1.00  0.00     0.064 A 
ATOM     62  C   UNL A   1      39.668  26.760  28.845  1.00  0.00     0.173 A 
ATOM     63  C   UNL A   1      41.173  28.332  27.825  1.00  0.00     0.173 A 
ATOM     64  F   UNL A   1      38.914  26.352  29.878  1.00  0.00    -0.203 F 
ATOM     65  C   UNL A   1      39.755  25.947  27.718  1.00  0.00     0.198 A 
ATOM     66  C   UNL A   1      41.230  27.534  26.686  1.00  0.00     0.198 A 
ATOM     67  F   UNL A   1      41.880  29.472  27.849  1.00  0.00    -0.203 F 
ATOM     68  F   UNL A   1      39.103  24.777  27.687  1.00  0.00    -0.200 F 
ATOM     69  C   UNL A   1      40.531  26.337  26.638  1.00  0.00     0.200 A 
ATOM     70  F   UNL A   1      41.971  27.917  25.637  1.00  0.00    -0.200 F 
ATOM     71  F   UNL A   1      40.614  25.554  25.553  1.00  0.00    -0.200 F 
ENDBRANCH  47  61
BRANCH  48  72
ATOM     72  C   UNL A   1      39.517  33.909  36.916  1.00  0.00     0.064 A 
ATOM     73  C   UNL A   1      38.755  33.517  38.026  1.00  0.00     0.173 A 
ATOM     74  C   UNL A   1      40.159  35.154  36.972  1.00  0.00     0.173 A 
ATOM     75  F   UNL A   1      38.107  32.344  38.012  1.00  0.00    -0.203 F 
ATOM     76  C   UNL A   1      38.626  34.345  39.139  1.00  0.00     0.198 A 
ATOM     77  C   UNL A   1      40.052  35.969  38.097  1.00  0.00     0.198 A 
ATOM     78  F   UNL A   1      40.903  35.574  35.938  1.00  0.00    -0.203 F 
ATOM     79  F   UNL A   1      37.857  33.964  40.169  1.00  0.00    -0.200 F 
ATOM     80  C   UNL A   1      39.279  35.567  39.176  1.00  0.00     0.200 A 
ATOM     81  F   UNL A   1      40.696  37.143  38.136  1.00  0.00    -0.200 F 
ATOM     82  F   UNL A   1      39.159  36.361  40.249  1.00  0.00    -0.200 F 
ENDBRANCH  48  72
BRANCH  60  83
ATOM     83  C   UNL A   1      43.784  28.657  35.264  1.00  0.00     0.064 A 
ATOM     84  C   UNL A   1      45.103  29.109  35.116  1.00  0.00     0.173 A 
ATOM     85  C   UNL A   1      43.548  27.600  36.157  1.00  0.00     0.173 A 
ATOM     86  F   UNL A   1      45.382  30.106  34.262  1.00  0.00    -0.203 F 
ATOM     87  C   UNL A   1      46.147  28.511  35.816  1.00  0.00     0.198 A 
ATOM     88  C   UNL A   1      44.590  27.025  36.879  1.00  0.00     0.198 A 
ATOM     89  F   UNL A   1      42.303  27.133  36.340  1.00  0.00    -0.203 F 
ATOM     90  F   UNL A   1      47.406  28.928  35.622  1.00  0.00    -0.200 F 
ATOM     91  C   UNL A   1      45.889  27.475  36.702  1.00  0.00     0.200 A 
ATOM     92  F   UNL A   1      44.337  26.035  37.746  1.00  0.00    -0.200 F 
ATOM     93  F   UNL A   1      46.895  26.909  37.382  1.00  0.00    -0.200 F 
ENDBRANCH  60  83
ENDBRANCH  34  35
ENDBRANCH  26  29
ENDBRANCH  24  25
ENDBRANCH  23  24
ENDBRANCH   1  23
TORSDOF 14
ENDMDL
MODEL 2
REMARK VINA RESULT:     -12.1      0.169      1.601
REMARK SMILES CC1(C)C(=O)N([C@H]2COC[C@@H]2C(=O)NCCCCCCNC(=O)c2ccc(-c3c4nc(c(-c5c(F)c(F)c(F)c(F)c5F)c5ccc([nH]5)c(-c5c(F)c(F)c(F)c(F)c5F)c5nc(c(-c6c(F)c(F)c(F)c(F)c6F)c6ccc3[nH]6)C=C5)C=C4)cc2)S1(=O)=O
REMARK SMILES IDX 18 1 17 2 16 3 15 4 14 5 12 6 13 7 11 9 7 10 8 11 9 12 10 13
REMARK SMILES IDX 6 14 1 15 2 16 3 17 4 18 87 19 5 20 88 21 89 22 19 23 20 24
REMARK SMILES IDX 21 25 22 26 23 28 24 29 25 30 86 31 26 32 85 33 27 34 28 35
REMARK SMILES IDX 29 36 79 37 30 38 84 39 78 40 80 41 31 42 83 43 77 44 76 45
REMARK SMILES IDX 32 47 64 48 44 49 63 50 45 51 48 52 62 53 81 54 46 55 47 56
REMARK SMILES IDX 61 58 82 59 49 60 33 61 34 62 42 63 35 64 36 65 40 66 43 67
REMARK SMILES IDX 37 68 38 69 41 70 39 71 65 72 66 73 74 74 67 75 68 76 72 77
REMARK SMILES IDX 75 78 69 79 70 80 73 81 71 82 50 83 51 84 59 85 52 86 53 87
REMARK SMILES IDX 57 88 60 89 54 90 55 91 58 92 56 93
REMARK H PARENT 14 8 21 27 80 46 48 57
REMARK Flexibility Score: inf
ROOT
ATOM      1  C   UNL A   1      31.496  30.802  26.252  1.00  0.00     0.002 C 
ENDROOT
BRANCH   1   2
ATOM      2  C   UNL A   1      32.472  30.034  27.154  1.00  0.00     0.002 C 
BRANCH   2   3
ATOM      3  C   UNL A   1      32.686  28.568  26.766  1.00  0.00     0.021 C 
BRANCH   3   4
ATOM      4  C   UNL A   1      34.054  28.300  26.133  1.00  0.00     0.116 C 
BRANCH   4   5
ATOM      5  N   UNL A   1      34.065  28.668  24.729  1.00  0.00    -0.356 N 
ATOM      6  C   UNL A   1      33.464  28.168  23.625  1.00  0.00     0.227 C 
ATOM      7  O   UNL A   1      33.764  28.728  22.561  1.00  0.00    -0.275 OA
ATOM      8  H   UNL A   1      34.631  29.452  24.540  1.00  0.00     0.163 HD
BRANCH   6   9
ATOM      9  C   UNL A   1      32.424  27.049  23.583  1.00  0.00     0.130 C 
ATOM     10  C   UNL A   1      33.159  25.720  23.482  1.00  0.00     0.143 C 
ATOM     11  C   UNL A   1      33.216  25.502  21.977  1.00  0.00     0.187 C 
ATOM     12  O   UNL A   1      32.086  26.184  21.402  1.00  0.00    -0.378 OA
ATOM     13  C   UNL A   1      31.464  26.980  22.422  1.00  0.00     0.176 C 
BRANCH  10  14
ATOM     14  N   UNL A   1      32.478  24.627  24.206  1.00  0.00    -0.231 N 
ATOM     15  C   UNL A   1      32.420  21.348  25.413  1.00  0.00     0.041 C 
ATOM     16  C   UNL A   1      31.890  22.767  25.225  1.00  0.00     0.165 C 
ATOM     17  C   UNL A   1      30.687  23.033  26.128  1.00  0.00     0.041 C 
ATOM     18  C   UNL A   1      32.980  23.876  25.287  1.00  0.00     0.259 C 
ATOM     19  S   UNL A   1      31.737  23.294  23.547  1.00  0.00     0.252 S 
ATOM     20  O   UNL A   1      33.910  24.164  26.000  1.00  0.00    -0.272 OA
ATOM     21  O   UNL A   1      32.649  22.599  22.673  1.00  0.00    -0.205 OA
ATOM     22  O   UNL A   1      30.391  23.649  23.172  1.00  0.00    -0.205 OA
ENDBRANCH  10  14
ENDBRANCH   6   9
ENDBRANCH   4   5
ENDBRANCH   3   4
ENDBRANCH   2   3
ENDBRANCH   1   2
BRANCH   1  23
ATOM     23  C   UNL A   1      31.421  32.308  26.515  1.00  0.00     0.021 C 
BRANCH  23  24
ATOM     24  C   UNL A   1      32.589  32.855  27.331  1.00  0.00     0.116 C 
BRANCH  24  25
ATOM     25  N   UNL A   1      32.414  34.268  27.631  1.00  0.00    -0.352 N 
ATOM     26  C   UNL A   1      32.994  35.025  28.617  1.00  0.00     0.251 C 
ATOM     27  H   UNL A   1      31.791  34.750  27.041  1.00  0.00     0.163 HD
ATOM     28  O   UNL A   1      32.547  36.132  28.896  1.00  0.00    -0.269 OA
BRANCH  26  29
ATOM     29  C   UNL A   1      34.160  34.494  29.350  1.00  0.00     0.039 A 
ATOM     30  C   UNL A   1      33.966  33.882  30.590  1.00  0.00     0.014 A 
ATOM     31  C   UNL A   1      35.445  34.613  28.812  1.00  0.00     0.014 A 
ATOM     32  C   UNL A   1      35.057  33.332  31.265  1.00  0.00     0.010 A 
ATOM     33  C   UNL A   1      36.518  34.002  29.449  1.00  0.00     0.010 A 
ATOM     34  C   UNL A   1      36.336  33.359  30.683  1.00  0.00    -0.014 A 
BRANCH  34  35
ATOM     35  C   UNL A   1      37.499  32.717  31.344  1.00  0.00     0.031 A 
ATOM     36  C   UNL A   1      38.217  31.584  30.669  1.00  0.00     0.074 A 
ATOM     37  C   UNL A   1      37.857  33.108  32.581  1.00  0.00     0.049 A 
ATOM     38  N   UNL A   1      39.196  30.840  31.116  1.00  0.00    -0.248 NA
ATOM     39  C   UNL A   1      37.752  31.219  29.322  1.00  0.00     0.031 C 
ATOM     40  C   UNL A   1      37.213  34.174  33.351  1.00  0.00     0.029 A 
ATOM     41  N   UNL A   1      38.847  32.648  33.413  1.00  0.00    -0.354 N 
ATOM     42  C   UNL A   1      39.458  29.918  30.112  1.00  0.00     0.074 A 
ATOM     43  C   UNL A   1      38.494  30.156  29.059  1.00  0.00     0.031 C 
ATOM     44  C   UNL A   1      37.840  34.303  34.531  1.00  0.00     0.029 A 
ATOM     45  C   UNL A   1      38.900  33.304  34.619  1.00  0.00     0.049 A 
ATOM     46  H   UNL A   1      39.460  31.917  33.169  1.00  0.00     0.167 HD
ATOM     47  C   UNL A   1      40.429  28.975  30.063  1.00  0.00     0.037 A 
ATOM     48  C   UNL A   1      39.710  33.112  35.677  1.00  0.00     0.037 A 
ATOM     49  C   UNL A   1      41.391  28.753  31.110  1.00  0.00     0.049 A 
ATOM     50  C   UNL A   1      40.752  32.030  35.615  1.00  0.00     0.074 A 
ATOM     51  C   UNL A   1      42.445  27.855  31.140  1.00  0.00     0.029 A 
ATOM     52  N   UNL A   1      41.410  29.431  32.321  1.00  0.00    -0.354 N 
ATOM     53  N   UNL A   1      41.034  31.206  34.635  1.00  0.00    -0.248 NA
ATOM     54  C   UNL A   1      41.592  31.854  36.807  1.00  0.00     0.031 C 
ATOM     55  C   UNL A   1      43.070  27.958  32.387  1.00  0.00     0.029 A 
ATOM     56  C   UNL A   1      42.441  28.955  33.115  1.00  0.00     0.049 A 
ATOM     57  H   UNL A   1      40.783  30.146  32.577  1.00  0.00     0.167 HD
ATOM     58  C   UNL A   1      42.100  30.435  35.079  1.00  0.00     0.074 A 
ATOM     59  C   UNL A   1      42.422  30.899  36.413  1.00  0.00     0.031 C 
ATOM     60  C   UNL A   1      42.754  29.435  34.438  1.00  0.00     0.037 A 
BRANCH  47  61
ATOM     61  C   UNL A   1      40.494  28.115  28.833  1.00  0.00     0.064 A 
ATOM     62  C   UNL A   1      41.255  28.487  27.714  1.00  0.00     0.173 A 
ATOM     63  C   UNL A   1      39.796  26.899  28.774  1.00  0.00     0.173 A 
ATOM     64  F   UNL A   1      41.933  29.645  27.713  1.00  0.00    -0.203 F 
ATOM     65  C   UNL A   1      41.285  27.694  26.569  1.00  0.00     0.198 A 
ATOM     66  C   UNL A   1      39.856  26.092  27.641  1.00  0.00     0.198 A 
ATOM     67  F   UNL A   1      39.058  26.491  29.817  1.00  0.00    -0.203 F 
ATOM     68  F   UNL A   1      41.969  28.101  25.492  1.00  0.00    -0.200 F 
ATOM     69  C   UNL A   1      40.590  26.496  26.535  1.00  0.00     0.200 A 
ATOM     70  F   UNL A   1      39.193  24.927  27.614  1.00  0.00    -0.200 F 
ATOM     71  F   UNL A   1      40.618  25.733  25.434  1.00  0.00    -0.200 F 
ENDBRANCH  47  61
BRANCH  48  72
ATOM     72  C   UNL A   1      39.588  33.986  36.873  1.00  0.00     0.064 A 
ATOM     73  C   UNL A   1      40.257  35.217  36.928  1.00  0.00     0.173 A 
ATOM     74  C   UNL A   1      38.806  33.618  37.977  1.00  0.00     0.173 A 
ATOM     75  F   UNL A   1      41.032  35.604  35.904  1.00  0.00    -0.203 F 
ATOM     76  C   UNL A   1      40.164  36.038  38.050  1.00  0.00     0.198 A 
ATOM     77  C   UNL A   1      38.691  34.453  39.086  1.00  0.00     0.198 A 
ATOM     78  F   UNL A   1      38.143  32.453  37.972  1.00  0.00    -0.203 F 
ATOM     79  F   UNL A   1      40.847  37.190  38.093  1.00  0.00    -0.200 F 
ATOM     80  C   UNL A   1      39.375  35.658  39.125  1.00  0.00     0.200 A 
ATOM     81  F   UNL A   1      37.917  34.089  40.118  1.00  0.00    -0.200 F 
ATOM     82  F   UNL A   1      39.281  36.450  40.202  1.00  0.00    -0.200 F 
ENDBRANCH  48  72
BRANCH  60  83
ATOM     83  C   UNL A   1      43.908  28.798  35.156  1.00  0.00     0.064 A 
ATOM     84  C   UNL A   1      45.218  29.282  35.023  1.00  0.00     0.173 A 
ATOM     85  C   UNL A   1      43.693  27.716  36.023  1.00  0.00     0.173 A 
ATOM     86  F   UNL A   1      45.478  30.304  34.194  1.00  0.00    -0.203 F 
ATOM     87  C   UNL A   1      46.273  28.689  35.713  1.00  0.00     0.198 A 
ATOM     88  C   UNL A   1      44.744  27.147  36.735  1.00  0.00     0.198 A 
ATOM     89  F   UNL A   1      42.457  27.219  36.190  1.00  0.00    -0.203 F 
ATOM     90  F   UNL A   1      47.523  29.138  35.534  1.00  0.00    -0.200 F 
ATOM     91  C   UNL A   1      46.034  27.628  36.574  1.00  0.00     0.200 A 
ATOM     92  F   UNL A   1      44.509  26.131  37.578  1.00  0.00    -0.200 F 
ATOM     93  F   UNL A   1      47.049  27.067  37.244  1.00  0.00    -0.200 F 
ENDBRANCH  60  83
ENDBRANCH  34  35
ENDBRANCH  26  29
ENDBRANCH  24  25
ENDBRANCH  23  24
ENDBRANCH   1  23
TORSDOF 14
ENDMDL
MODEL 3
REMARK VINA RESULT:     -12.1      5.668     11.133
REMARK SMILES CC1(C)C(=O)N([C@H]2COC[C@@H]2C(=O)NCCCCCCNC(=O)c2ccc(-c3c4nc(c(-c5c(F)c(F)c(F)c(F)c5F)c5ccc([nH]5)c(-c5c(F)c(F)c(F)c(F)c5F)c5nc(c(-c6c(F)c(F)c(F)c(F)c6F)c6ccc3[nH]6)C=C5)C=C4)cc2)S1(=O)=O
REMARK SMILES IDX 18 1 17 2 16 3 15 4 14 5 12 6 13 7 11 9 7 10 8 11 9 12 10 13
REMARK SMILES IDX 6 14 1 15 2 16 3 17 4 18 87 19 5 20 88 21 89 22 19 23 20 24
REMARK SMILES IDX 21 25 22 26 23 28 24 29 25 30 86 31 26 32 85 33 27 34 28 35
REMARK SMILES IDX 29 36 79 37 30 38 84 39 78 40 80 41 31 42 83 43 77 44 76 45
REMARK SMILES IDX 32 47 64 48 44 49 63 50 45 51 48 52 62 53 81 54 46 55 47 56
REMARK SMILES IDX 61 58 82 59 49 60 33 61 34 62 42 63 35 64 36 65 40 66 43 67
REMARK SMILES IDX 37 68 38 69 41 70 39 71 65 72 66 73 74 74 67 75 68 76 72 77
REMARK SMILES IDX 75 78 69 79 70 80 73 81 71 82 50 83 51 84 59 85 52 86 53 87
REMARK SMILES IDX 57 88 60 89 54 90 55 91 58 92 56 93
REMARK H PARENT 14 8 21 27 80 46 48 57
REMARK Flexibility Score: inf
ROOT
ATOM      1  C   UNL A   1      36.994  20.542  24.986  1.00  0.00     0.002 C 
ENDROOT
BRANCH   1   2
ATOM      2  C   UNL A   1      37.151  21.880  24.250  1.00  0.00     0.002 C 
BRANCH   2   3
ATOM      3  C   UNL A   1      36.965  23.121  25.128  1.00  0.00     0.021 C 
BRANCH   3   4
ATOM      4  C   UNL A   1      35.647  23.856  24.871  1.00  0.00     0.116 C 
BRANCH   4   5
ATOM      5  N   UNL A   1      35.039  23.425  23.625  1.00  0.00    -0.356 N 
ATOM      6  C   UNL A   1      34.153  23.987  22.772  1.00  0.00     0.227 C 
ATOM      7  O   UNL A   1      33.817  23.276  21.814  1.00  0.00    -0.275 OA
ATOM      8  H   UNL A   1      35.338  22.531  23.338  1.00  0.00     0.163 HD
BRANCH   6   9
ATOM      9  C   UNL A   1      33.596  25.408  22.844  1.00  0.00     0.130 C 
ATOM     10  C   UNL A   1      32.357  25.389  23.730  1.00  0.00     0.143 C 
ATOM     11  C   UNL A   1      31.244  25.179  22.713  1.00  0.00     0.187 C 
ATOM     12  O   UNL A   1      31.697  25.728  21.462  1.00  0.00    -0.378 OA
ATOM     13  C   UNL A   1      33.087  26.064  21.586  1.00  0.00     0.176 C 
BRANCH  10  14
ATOM     14  N   UNL A   1      32.197  26.623  24.526  1.00  0.00    -0.231 N 
ATOM     15  C   UNL A   1      31.621  28.222  27.579  1.00  0.00     0.041 C 
ATOM     16  C   UNL A   1      31.949  28.151  26.090  1.00  0.00     0.165 C 
ATOM     17  C   UNL A   1      32.390  29.512  25.555  1.00  0.00     0.041 C 
ATOM     18  C   UNL A   1      32.897  26.982  25.694  1.00  0.00     0.259 C 
ATOM     19  S   UNL A   1      30.780  27.267  25.106  1.00  0.00     0.252 S 
ATOM     20  O   UNL A   1      33.934  26.510  26.091  1.00  0.00    -0.272 OA
ATOM     21  O   UNL A   1      30.060  26.279  25.871  1.00  0.00    -0.205 OA
ATOM     22  O   UNL A   1      30.174  28.066  24.069  1.00  0.00    -0.205 OA
ENDBRANCH  10  14
ENDBRANCH   6   9
ENDBRANCH   4   5
ENDBRANCH   3   4
ENDBRANCH   2   3
ENDBRANCH   1   2
BRANCH   1  23
ATOM     23  C   UNL A   1      38.226  19.633  24.943  1.00  0.00     0.021 C 
BRANCH  23  24
ATOM     24  C   UNL A   1      39.326  20.032  25.922  1.00  0.00     0.116 C 
BRANCH  24  25
ATOM     25  N   UNL A   1      40.362  19.012  26.004  1.00  0.00    -0.352 N 
ATOM     26  C   UNL A   1      41.724  19.161  26.069  1.00  0.00     0.251 C 
ATOM     27  H   UNL A   1      40.038  18.083  26.014  1.00  0.00     0.163 HD
ATOM     28  O   UNL A   1      42.465  18.204  25.872  1.00  0.00    -0.269 OA
BRANCH  26  29
ATOM     29  C   UNL A   1      42.296  20.488  26.373  1.00  0.00     0.039 A 
ATOM     30  C   UNL A   1      42.836  21.251  25.336  1.00  0.00     0.014 A 
ATOM     31  C   UNL A   1      42.306  20.968  27.685  1.00  0.00     0.014 A 
ATOM     32  C   UNL A   1      43.333  22.527  25.606  1.00  0.00     0.010 A 
ATOM     33  C   UNL A   1      42.734  22.265  27.942  1.00  0.00     0.010 A 
ATOM     34  C   UNL A   1      43.254  23.056  26.906  1.00  0.00    -0.014 A 
BRANCH  34  35
ATOM     35  C   UNL A   1      43.706  24.436  27.206  1.00  0.00     0.031 A 
ATOM     36  C   UNL A   1      42.730  25.450  27.732  1.00  0.00     0.074 A 
ATOM     37  C   UNL A   1      44.975  24.792  26.935  1.00  0.00     0.049 A 
ATOM     38  N   UNL A   1      42.909  26.723  27.975  1.00  0.00    -0.248 NA
ATOM     39  C   UNL A   1      41.363  24.974  27.992  1.00  0.00     0.031 C 
ATOM     40  C   UNL A   1      46.004  23.905  26.390  1.00  0.00     0.029 A 
ATOM     41  N   UNL A   1      45.615  25.999  27.072  1.00  0.00    -0.354 N 
ATOM     42  C   UNL A   1      41.678  27.201  28.407  1.00  0.00     0.074 A 
ATOM     43  C   UNL A   1      40.747  26.095  28.334  1.00  0.00     0.031 C 
ATOM     44  C   UNL A   1      47.153  24.589  26.264  1.00  0.00     0.029 A 
ATOM     45  C   UNL A   1      46.931  25.972  26.677  1.00  0.00     0.049 A 
ATOM     46  H   UNL A   1      45.173  26.807  27.421  1.00  0.00     0.167 HD
ATOM     47  C   UNL A   1      41.361  28.441  28.848  1.00  0.00     0.037 A 
ATOM     48  C   UNL A   1      47.849  26.955  26.647  1.00  0.00     0.037 A 
ATOM     49  C   UNL A   1      42.296  29.533  28.928  1.00  0.00     0.049 A 
ATOM     50  C   UNL A   1      47.460  28.335  27.101  1.00  0.00     0.074 A 
ATOM     51  C   UNL A   1      42.088  30.816  29.404  1.00  0.00     0.029 A 
ATOM     52  N   UNL A   1      43.618  29.470  28.512  1.00  0.00    -0.354 N 
ATOM     53  N   UNL A   1      46.311  28.761  27.568  1.00  0.00    -0.248 NA
ATOM     54  C   UNL A   1      48.497  29.372  27.024  1.00  0.00     0.031 C 
ATOM     55  C   UNL A   1      43.271  31.543  29.231  1.00  0.00     0.029 A 
ATOM     56  C   UNL A   1      44.232  30.699  28.696  1.00  0.00     0.049 A 
ATOM     57  H   UNL A   1      44.056  28.670  28.141  1.00  0.00     0.167 HD
ATOM     58  C   UNL A   1      46.495  30.103  27.870  1.00  0.00     0.074 A 
ATOM     59  C   UNL A   1      47.871  30.418  27.543  1.00  0.00     0.031 C 
ATOM     60  C   UNL A   1      45.606  30.994  28.374  1.00  0.00     0.037 A 
BRANCH  47  61
ATOM     61  C   UNL A   1      39.940  28.679  29.275  1.00  0.00     0.064 A 
ATOM     62  C   UNL A   1      38.972  29.158  28.378  1.00  0.00     0.173 A 
ATOM     63  C   UNL A   1      39.536  28.415  30.593  1.00  0.00     0.173 A 
ATOM     64  F   UNL A   1      39.307  29.436  27.109  1.00  0.00    -0.203 F 
ATOM     65  C   UNL A   1      37.665  29.401  28.793  1.00  0.00     0.198 A 
ATOM     66  C   UNL A   1      38.220  28.627  30.996  1.00  0.00     0.198 A 
ATOM     67  F   UNL A   1      40.418  27.950  31.490  1.00  0.00    -0.203 F 
ATOM     68  F   UNL A   1      36.776  29.916  27.934  1.00  0.00    -0.200 F 
ATOM     69  C   UNL A   1      37.290  29.131  30.099  1.00  0.00     0.200 A 
ATOM     70  F   UNL A   1      37.855  28.354  32.255  1.00  0.00    -0.200 F 
ATOM     71  F   UNL A   1      36.032  29.365  30.499  1.00  0.00    -0.200 F 
ENDBRANCH  47  61
BRANCH  48  72
ATOM     72  C   UNL A   1      49.236  26.662  26.200  1.00  0.00     0.064 A 
ATOM     73  C   UNL A   1      49.618  26.883  24.869  1.00  0.00     0.173 A 
ATOM     74  C   UNL A   1      50.203  26.162  27.083  1.00  0.00     0.173 A 
ATOM     75  F   UNL A   1      48.722  27.343  23.983  1.00  0.00    -0.203 F 
ATOM     76  C   UNL A   1      50.911  26.598  24.435  1.00  0.00     0.198 A 
ATOM     77  C   UNL A   1      51.503  25.904  26.654  1.00  0.00     0.198 A 
ATOM     78  F   UNL A   1      49.889  25.937  28.367  1.00  0.00    -0.203 F 
ATOM     79  F   UNL A   1      51.237  26.780  23.148  1.00  0.00    -0.200 F 
ATOM     80  C   UNL A   1      51.854  26.115  25.329  1.00  0.00     0.200 A 
ATOM     81  F   UNL A   1      52.416  25.450  27.523  1.00  0.00    -0.200 F 
ATOM     82  F   UNL A   1      53.099  25.846  24.912  1.00  0.00    -0.200 F 
ENDBRANCH  48  72
BRANCH  60  83
ATOM     83  C   UNL A   1      46.102  32.385  28.639  1.00  0.00     0.064 A 
ATOM     84  C   UNL A   1      45.991  33.404  27.680  1.00  0.00     0.173 A 
ATOM     85  C   UNL A   1      46.656  32.714  29.886  1.00  0.00     0.173 A 
ATOM     86  F   UNL A   1      45.484  33.136  26.468  1.00  0.00    -0.203 F 
ATOM     87  C   UNL A   1      46.440  34.694  27.953  1.00  0.00     0.198 A 
ATOM     88  C   UNL A   1      47.074  34.012  30.165  1.00  0.00     0.198 A 
ATOM     89  F   UNL A   1      46.779  31.778  30.839  1.00  0.00    -0.203 F 
ATOM     90  F   UNL A   1      46.368  35.639  27.005  1.00  0.00    -0.200 F 
ATOM     91  C   UNL A   1      46.973  34.998  29.197  1.00  0.00     0.200 A 
ATOM     92  F   UNL A   1      47.575  34.307  31.373  1.00  0.00    -0.200 F 
ATOM     93  F   UNL A   1      47.394  36.243  29.459  1.00  0.00    -0.200 F 
ENDBRANCH  60  83
ENDBRANCH  34  35
ENDBRANCH  26  29
ENDBRANCH  24  25
ENDBRANCH  23  24
ENDBRANCH   1  23
TORSDOF 14
ENDMDL
