MODEL 1
REMARK VINA RESULT:     -11.2      0.000      0.000
REMARK SMILES O=C(CC[NH+]1CC[NH+]([C@@H]2CCO[C@@]3(CCOC3)C2)CC1)NCCCCCCNC(=O)c1ccc(-c2c3nc(c(-c4c(F)c(F)c(F)c(F)c4F)c4ccc([nH]4)c(-c4c(F)c(F)c(F)c(F)c4F)c4nc(c(-c5c(F)c(F)c(F)c(F)c5F)c5ccc2[nH]5)C=C4)C=C3)cc1
REMARK SMILES IDX 24 1 23 2 22 3 21 4 1 5 2 6 3 8 4 9 5 10 6 11 20 12 7 14
REMARK SMILES IDX 19 15 8 16 9 18 10 19 18 20 11 21 13 22 12 23 14 24 17 25
REMARK SMILES IDX 15 26 16 27 25 28 26 29 27 30 28 31 29 32 30 34 31 35 32 36
REMARK SMILES IDX 93 37 33 38 92 39 34 40 35 41 36 42 86 43 37 44 91 45 85 46
REMARK SMILES IDX 87 47 38 48 90 49 84 50 83 51 39 53 71 54 51 55 70 56 52 57
REMARK SMILES IDX 55 58 69 59 88 60 53 61 54 62 68 64 89 65 56 66 40 67 41 68
REMARK SMILES IDX 49 69 42 70 43 71 47 72 50 73 44 74 45 75 48 76 46 77 72 78
REMARK SMILES IDX 73 79 81 80 74 81 75 82 79 83 82 84 76 85 77 86 80 87 78 88
REMARK SMILES IDX 57 89 58 90 66 91 59 92 60 93 64 94 67 95 61 96 62 97 65 98
REMARK SMILES IDX 63 99
REMARK H PARENT 21 7 5 13 8 17 28 33 87 52 55 63
REMARK Flexibility Score: inf
ROOT
ATOM      1  C   UNL A   1      41.967  20.897  27.110  1.00  0.00     0.002 C 
ENDROOT
BRANCH   1   2
ATOM      2  C   UNL A   1      40.692  21.675  27.466  1.00  0.00     0.021 C 
BRANCH   2   3
ATOM      3  C   UNL A   1      40.119  22.579  26.368  1.00  0.00     0.116 C 
BRANCH   3   4
ATOM      4  N   UNL A   1      38.978  21.976  25.720  1.00  0.00    -0.356 N 
ATOM      5  O   UNL A   1      37.551  23.721  26.094  1.00  0.00    -0.275 OA
ATOM      6  C   UNL A   1      37.741  22.567  25.716  1.00  0.00     0.225 C 
ATOM      7  H   UNL A   1      39.094  21.111  25.266  1.00  0.00     0.163 HD
BRANCH   6   8
ATOM      8  C   UNL A   1      36.569  21.667  25.373  1.00  0.00     0.161 C 
BRANCH   8   9
ATOM      9  C   UNL A   1      35.687  22.044  24.187  1.00  0.00     0.272 C 
BRANCH   9  10
ATOM     10  N   UNL A   1      34.242  22.244  24.415  1.00  0.00    -0.325 N 
ATOM     11  C   UNL A   1      33.855  23.087  25.563  1.00  0.00     0.324 C 
ATOM     12  C   UNL A   1      33.622  22.808  23.199  1.00  0.00     0.324 C 
ATOM     13  H   UNL A   1      33.904  21.310  24.645  1.00  0.00     0.348 HD
ATOM     14  C   UNL A   1      33.901  24.623  25.425  1.00  0.00     0.324 C 
ATOM     15  C   UNL A   1      33.852  24.325  23.058  1.00  0.00     0.324 C 
ATOM     16  N   UNL A   1      33.382  25.164  24.160  1.00  0.00    -0.323 N 
ATOM     17  H   UNL A   1      33.783  26.082  23.964  1.00  0.00     0.348 HD
BRANCH  16  18
ATOM     18  C   UNL A   1      31.978  25.613  24.206  1.00  0.00     0.189 C 
ATOM     19  C   UNL A   1      31.166  25.737  22.911  1.00  0.00     0.093 C 
ATOM     20  C   UNL A   1      31.762  26.906  25.020  1.00  0.00     0.103 C 
ATOM     21  C   UNL A   1      31.192  27.122  22.275  1.00  0.00     0.167 C 
ATOM     22  C   UNL A   1      32.073  28.209  24.251  1.00  0.00     0.099 C 
ATOM     23  O   UNL A   1      32.169  27.985  22.837  1.00  0.00    -0.372 OA
ATOM     24  C   UNL A   1      31.075  29.323  24.564  1.00  0.00     0.066 C 
ATOM     25  C   UNL A   1      33.391  28.866  24.737  1.00  0.00     0.195 C 
ATOM     26  C   UNL A   1      31.685  30.001  25.768  1.00  0.00     0.163 C 
ATOM     27  O   UNL A   1      33.084  30.033  25.509  1.00  0.00    -0.378 OA
ENDBRANCH  16  18
ENDBRANCH   9  10
ENDBRANCH   8   9
ENDBRANCH   6   8
ENDBRANCH   3   4
ENDBRANCH   2   3
ENDBRANCH   1   2
BRANCH   1  28
ATOM     28  C   UNL A   1      42.054  19.460  27.624  1.00  0.00     0.002 C 
BRANCH  28  29
ATOM     29  C   UNL A   1      42.889  18.528  26.750  1.00  0.00     0.021 C 
BRANCH  29  30
ATOM     30  C   UNL A   1      42.909  18.901  25.271  1.00  0.00     0.116 C 
BRANCH  30  31
ATOM     31  N   UNL A   1      44.202  18.658  24.649  1.00  0.00    -0.352 N 
ATOM     32  C   UNL A   1      45.202  19.551  24.354  1.00  0.00     0.251 C 
ATOM     33  H   UNL A   1      44.385  17.722  24.406  1.00  0.00     0.163 HD
ATOM     34  O   UNL A   1      46.169  19.202  23.680  1.00  0.00    -0.269 OA
BRANCH  32  35
ATOM     35  C   UNL A   1      45.095  20.950  24.818  1.00  0.00     0.039 A 
ATOM     36  C   UNL A   1      45.388  21.243  26.152  1.00  0.00     0.014 A 
ATOM     37  C   UNL A   1      44.742  21.974  23.935  1.00  0.00     0.014 A 
ATOM     38  C   UNL A   1      45.413  22.573  26.579  1.00  0.00     0.010 A 
ATOM     39  C   UNL A   1      44.842  23.302  24.341  1.00  0.00     0.010 A 
ATOM     40  C   UNL A   1      45.189  23.616  25.663  1.00  0.00    -0.014 A 
BRANCH  40  41
ATOM     41  C   UNL A   1      45.358  25.037  26.062  1.00  0.00     0.031 A 
ATOM     42  C   UNL A   1      46.710  25.688  26.014  1.00  0.00     0.074 A 
ATOM     43  C   UNL A   1      44.302  25.717  26.549  1.00  0.00     0.049 A 
ATOM     44  N   UNL A   1      47.065  26.889  26.397  1.00  0.00    -0.248 NA
ATOM     45  C   UNL A   1      47.814  24.872  25.489  1.00  0.00     0.031 C 
ATOM     46  C   UNL A   1      42.949  25.179  26.699  1.00  0.00     0.029 A 
ATOM     47  N   UNL A   1      44.203  27.000  27.026  1.00  0.00    -0.354 N 
ATOM     48  C   UNL A   1      48.431  26.970  26.164  1.00  0.00     0.074 A 
ATOM     49  C   UNL A   1      48.851  25.678  25.667  1.00  0.00     0.031 C 
ATOM     50  C   UNL A   1      42.155  26.125  27.221  1.00  0.00     0.029 A 
ATOM     51  C   UNL A   1      42.949  27.321  27.485  1.00  0.00     0.049 A 
ATOM     52  H   UNL A   1      44.959  27.631  27.038  1.00  0.00     0.167 HD
ATOM     53  C   UNL A   1      49.255  28.033  26.329  1.00  0.00     0.037 A 
ATOM     54  C   UNL A   1      42.492  28.444  28.072  1.00  0.00     0.037 A 
ATOM     55  C   UNL A   1      48.833  29.317  26.828  1.00  0.00     0.049 A 
ATOM     56  C   UNL A   1      43.430  29.602  28.273  1.00  0.00     0.074 A 
ATOM     57  C   UNL A   1      49.577  30.472  26.979  1.00  0.00     0.029 A 
ATOM     58  N   UNL A   1      47.550  29.609  27.272  1.00  0.00    -0.354 N 
ATOM     59  N   UNL A   1      44.703  29.696  27.975  1.00  0.00    -0.248 NA
ATOM     60  C   UNL A   1      42.868  30.812  28.887  1.00  0.00     0.031 C 
ATOM     61  C   UNL A   1      48.763  31.445  27.570  1.00  0.00     0.029 A 
ATOM     62  C   UNL A   1      47.493  30.917  27.730  1.00  0.00     0.049 A 
ATOM     63  H   UNL A   1      46.792  28.980  27.262  1.00  0.00     0.167 HD
ATOM     64  C   UNL A   1      45.091  30.976  28.348  1.00  0.00     0.074 A 
ATOM     65  C   UNL A   1      43.910  31.631  28.876  1.00  0.00     0.031 C 
ATOM     66  C   UNL A   1      46.313  31.555  28.263  1.00  0.00     0.037 A 
BRANCH  53  67
ATOM     67  C   UNL A   1      50.704  27.844  25.974  1.00  0.00     0.064 A 
ATOM     68  C   UNL A   1      51.668  27.535  26.947  1.00  0.00     0.173 A 
ATOM     69  C   UNL A   1      51.134  27.958  24.643  1.00  0.00     0.173 A 
ATOM     70  F   UNL A   1      51.314  27.423  28.237  1.00  0.00    -0.203 F 
ATOM     71  C   UNL A   1      53.011  27.395  26.609  1.00  0.00     0.198 A 
ATOM     72  C   UNL A   1      52.473  27.780  24.303  1.00  0.00     0.198 A 
ATOM     73  F   UNL A   1      50.256  28.242  23.669  1.00  0.00    -0.203 F 
ATOM     74  F   UNL A   1      53.921  27.166  27.567  1.00  0.00    -0.200 F 
ATOM     75  C   UNL A   1      53.412  27.511  25.288  1.00  0.00     0.200 A 
ATOM     76  F   UNL A   1      52.855  27.877  23.023  1.00  0.00    -0.200 F 
ATOM     77  F   UNL A   1      54.704  27.374  24.963  1.00  0.00    -0.200 F 
ENDBRANCH  53  67
BRANCH  54  78
ATOM     78  C   UNL A   1      41.073  28.517  28.509  1.00  0.00     0.064 A 
ATOM     79  C   UNL A   1      40.692  28.128  29.801  1.00  0.00     0.173 A 
ATOM     80  C   UNL A   1      40.074  28.999  27.652  1.00  0.00     0.173 A 
ATOM     81  F   UNL A   1      41.608  27.642  30.652  1.00  0.00    -0.203 F 
ATOM     82  C   UNL A   1      39.364  28.207  30.213  1.00  0.00     0.198 A 
ATOM     83  C   UNL A   1      38.751  29.107  28.076  1.00  0.00     0.198 A 
ATOM     84  F   UNL A   1      40.387  29.390  26.408  1.00  0.00    -0.203 F 
ATOM     85  F   UNL A   1      39.020  27.793  31.441  1.00  0.00    -0.200 F 
ATOM     86  C   UNL A   1      38.395  28.704  29.353  1.00  0.00     0.200 A 
ATOM     87  F   UNL A   1      37.823  29.605  27.247  1.00  0.00    -0.200 F 
ATOM     88  F   UNL A   1      37.120  28.793  29.755  1.00  0.00    -0.200 F 
ENDBRANCH  54  78
BRANCH  66  89
ATOM     89  C   UNL A   1      46.440  32.975  28.737  1.00  0.00     0.064 A 
ATOM     90  C   UNL A   1      46.809  33.281  30.055  1.00  0.00     0.173 A 
ATOM     91  C   UNL A   1      46.232  34.043  27.850  1.00  0.00     0.173 A 
ATOM     92  F   UNL A   1      47.004  32.298  30.948  1.00  0.00    -0.203 F 
ATOM     93  C   UNL A   1      46.943  34.603  30.474  1.00  0.00     0.198 A 
ATOM     94  C   UNL A   1      46.399  35.363  28.264  1.00  0.00     0.198 A 
ATOM     95  F   UNL A   1      45.882  33.807  26.577  1.00  0.00    -0.203 F 
ATOM     96  F   UNL A   1      47.250  34.871  31.751  1.00  0.00    -0.200 F 
ATOM     97  C   UNL A   1      46.746  35.641  29.577  1.00  0.00     0.200 A 
ATOM     98  F   UNL A   1      46.223  36.364  27.390  1.00  0.00    -0.200 F 
ATOM     99  F   UNL A   1      46.886  36.912  29.978  1.00  0.00    -0.200 F 
ENDBRANCH  66  89
ENDBRANCH  40  41
ENDBRANCH  32  35
ENDBRANCH  30  31
ENDBRANCH  29  30
ENDBRANCH  28  29
ENDBRANCH   1  28
TORSDOF 16
ENDMDL
MODEL 2
REMARK VINA RESULT:     -11.1      6.497     12.428
REMARK SMILES O=C(CC[NH+]1CC[NH+]([C@@H]2CCO[C@@]3(CCOC3)C2)CC1)NCCCCCCNC(=O)c1ccc(-c2c3nc(c(-c4c(F)c(F)c(F)c(F)c4F)c4ccc([nH]4)c(-c4c(F)c(F)c(F)c(F)c4F)c4nc(c(-c5c(F)c(F)c(F)c(F)c5F)c5ccc2[nH]5)C=C4)C=C3)cc1
REMARK SMILES IDX 24 1 23 2 22 3 21 4 1 5 2 6 3 8 4 9 5 10 6 11 20 12 7 14
REMARK SMILES IDX 19 15 8 16 9 18 10 19 18 20 11 21 13 22 12 23 14 24 17 25
REMARK SMILES IDX 15 26 16 27 25 28 26 29 27 30 28 31 29 32 30 34 31 35 32 36
REMARK SMILES IDX 93 37 33 38 92 39 34 40 35 41 36 42 86 43 37 44 91 45 85 46
REMARK SMILES IDX 87 47 38 48 90 49 84 50 83 51 39 53 71 54 51 55 70 56 52 57
REMARK SMILES IDX 55 58 69 59 88 60 53 61 54 62 68 64 89 65 56 66 40 67 41 68
REMARK SMILES IDX 49 69 42 70 43 71 47 72 50 73 44 74 45 75 48 76 46 77 72 78
REMARK SMILES IDX 73 79 81 80 74 81 75 82 79 83 82 84 76 85 77 86 80 87 78 88
REMARK SMILES IDX 57 89 58 90 66 91 59 92 60 93 64 94 67 95 61 96 62 97 65 98
REMARK SMILES IDX 63 99
REMARK H PARENT 21 7 5 13 8 17 28 33 87 52 55 63
REMARK Flexibility Score: inf
ROOT
ATOM      1  C   UNL A   1      34.876  32.073  28.064  1.00  0.00     0.002 C 
ENDROOT
BRANCH   1   2
ATOM      2  C   UNL A   1      33.680  31.214  27.631  1.00  0.00     0.021 C 
BRANCH   2   3
ATOM      3  C   UNL A   1      34.012  29.903  26.906  1.00  0.00     0.116 C 
BRANCH   3   4
ATOM      4  N   UNL A   1      33.618  29.945  25.518  1.00  0.00    -0.356 N 
ATOM      5  O   UNL A   1      32.359  28.039  25.577  1.00  0.00    -0.275 OA
ATOM      6  C   UNL A   1      32.887  28.943  24.933  1.00  0.00     0.225 C 
ATOM      7  H   UNL A   1      33.885  30.720  24.973  1.00  0.00     0.163 HD
BRANCH   6   8
ATOM      8  C   UNL A   1      32.892  28.906  23.417  1.00  0.00     0.161 C 
BRANCH   8   9
ATOM      9  C   UNL A   1      31.856  28.040  22.709  1.00  0.00     0.272 C 
BRANCH   9  10
ATOM     10  N   UNL A   1      32.317  26.852  21.962  1.00  0.00    -0.325 N 
ATOM     11  C   UNL A   1      33.651  26.322  22.303  1.00  0.00     0.324 C 
ATOM     12  C   UNL A   1      31.335  25.760  22.113  1.00  0.00     0.324 C 
ATOM     13  H   UNL A   1      32.401  27.189  21.003  1.00  0.00     0.348 HD
ATOM     14  C   UNL A   1      33.816  25.427  23.549  1.00  0.00     0.324 C 
ATOM     15  C   UNL A   1      31.467  25.017  23.457  1.00  0.00     0.324 C 
ATOM     16  N   UNL A   1      32.768  24.415  23.747  1.00  0.00    -0.323 N 
ATOM     17  H   UNL A   1      32.704  24.144  24.729  1.00  0.00     0.348 HD
BRANCH  16  18
ATOM     18  C   UNL A   1      33.096  23.072  23.235  1.00  0.00     0.189 C 
ATOM     19  C   UNL A   1      32.158  21.891  23.513  1.00  0.00     0.093 C 
ATOM     20  C   UNL A   1      34.534  22.614  23.557  1.00  0.00     0.103 C 
ATOM     21  C   UNL A   1      32.503  21.085  24.760  1.00  0.00     0.167 C 
ATOM     22  C   UNL A   1      34.721  22.033  24.976  1.00  0.00     0.099 C 
ATOM     23  O   UNL A   1      33.465  21.715  25.593  1.00  0.00    -0.372 OA
ATOM     24  C   UNL A   1      35.661  20.830  24.994  1.00  0.00     0.066 C 
ATOM     25  C   UNL A   1      35.491  23.009  25.903  1.00  0.00     0.195 C 
ATOM     26  C   UNL A   1      37.022  21.462  25.178  1.00  0.00     0.163 C 
ATOM     27  O   UNL A   1      36.820  22.517  26.112  1.00  0.00    -0.378 OA
ENDBRANCH  16  18
ENDBRANCH   9  10
ENDBRANCH   8   9
ENDBRANCH   6   8
ENDBRANCH   3   4
ENDBRANCH   2   3
ENDBRANCH   1   2
BRANCH   1  28
ATOM     28  C   UNL A   1      34.599  33.144  29.119  1.00  0.00     0.002 C 
BRANCH  28  29
ATOM     29  C   UNL A   1      33.452  34.089  28.769  1.00  0.00     0.021 C 
BRANCH  29  30
ATOM     30  C   UNL A   1      33.661  35.529  29.226  1.00  0.00     0.116 C 
BRANCH  30  31
ATOM     31  N   UNL A   1      32.690  35.946  30.226  1.00  0.00    -0.352 N 
ATOM     32  C   UNL A   1      32.674  35.697  31.575  1.00  0.00     0.251 C 
ATOM     33  H   UNL A   1      31.937  36.484  29.886  1.00  0.00     0.163 HD
ATOM     34  O   UNL A   1      31.691  35.990  32.251  1.00  0.00    -0.269 OA
BRANCH  32  35
ATOM     35  C   UNL A   1      33.833  35.036  32.211  1.00  0.00     0.039 A 
ATOM     36  C   UNL A   1      33.669  33.760  32.755  1.00  0.00     0.014 A 
ATOM     37  C   UNL A   1      35.086  35.657  32.240  1.00  0.00     0.014 A 
ATOM     38  C   UNL A   1      34.779  33.070  33.248  1.00  0.00     0.010 A 
ATOM     39  C   UNL A   1      36.203  34.939  32.660  1.00  0.00     0.010 A 
ATOM     40  C   UNL A   1      36.063  33.635  33.158  1.00  0.00    -0.014 A 
BRANCH  40  41
ATOM     41  C   UNL A   1      37.271  32.860  33.538  1.00  0.00     0.031 A 
ATOM     42  C   UNL A   1      38.006  33.167  34.811  1.00  0.00     0.074 A 
ATOM     43  C   UNL A   1      37.756  31.931  32.691  1.00  0.00     0.049 A 
ATOM     44  N   UNL A   1      39.121  32.654  35.269  1.00  0.00    -0.248 NA
ATOM     45  C   UNL A   1      37.425  34.207  35.671  1.00  0.00     0.031 C 
ATOM     46  C   UNL A   1      37.165  31.579  31.398  1.00  0.00     0.029 A 
ATOM     47  N   UNL A   1      38.865  31.127  32.779  1.00  0.00    -0.354 N 
ATOM     48  C   UNL A   1      39.375  33.311  36.465  1.00  0.00     0.074 A 
ATOM     49  C   UNL A   1      38.334  34.303  36.630  1.00  0.00     0.031 C 
ATOM     50  C   UNL A   1      37.910  30.626  30.820  1.00  0.00     0.029 A 
ATOM     51  C   UNL A   1      39.054  30.330  31.676  1.00  0.00     0.049 A 
ATOM     52  H   UNL A   1      39.467  31.121  33.558  1.00  0.00     0.167 HD
ATOM     53  C   UNL A   1      40.373  33.092  37.355  1.00  0.00     0.037 A 
ATOM     54  C   UNL A   1      40.049  29.472  31.377  1.00  0.00     0.037 A 
ATOM     55  C   UNL A   1      41.409  32.105  37.185  1.00  0.00     0.049 A 
ATOM     56  C   UNL A   1      41.163  29.264  32.366  1.00  0.00     0.074 A 
ATOM     57  C   UNL A   1      42.431  31.767  38.053  1.00  0.00     0.029 A 
ATOM     58  N   UNL A   1      41.562  31.307  36.059  1.00  0.00    -0.354 N 
ATOM     59  N   UNL A   1      41.351  29.833  33.531  1.00  0.00    -0.248 NA
ATOM     60  C   UNL A   1      42.201  28.292  32.000  1.00  0.00     0.031 C 
ATOM     61  C   UNL A   1      43.237  30.809  37.429  1.00  0.00     0.029 A 
ATOM     62  C   UNL A   1      42.683  30.503  36.198  1.00  0.00     0.049 A 
ATOM     63  H   UNL A   1      40.962  31.310  35.278  1.00  0.00     0.167 HD
ATOM     64  C   UNL A   1      42.515  29.279  34.045  1.00  0.00     0.074 A 
ATOM     65  C   UNL A   1      42.980  28.311  33.073  1.00  0.00     0.031 C 
ATOM     66  C   UNL A   1      43.142  29.549  35.217  1.00  0.00     0.037 A 
BRANCH  53  67
ATOM     67  C   UNL A   1      40.394  33.946  38.592  1.00  0.00     0.064 A 
ATOM     68  C   UNL A   1      41.118  35.148  38.645  1.00  0.00     0.173 A 
ATOM     69  C   UNL A   1      39.671  33.569  39.734  1.00  0.00     0.173 A 
ATOM     70  F   UNL A   1      41.834  35.553  37.586  1.00  0.00    -0.203 F 
ATOM     71  C   UNL A   1      41.155  35.914  39.808  1.00  0.00     0.198 A 
ATOM     72  C   UNL A   1      39.680  34.357  40.883  1.00  0.00     0.198 A 
ATOM     73  F   UNL A   1      38.953  32.436  39.738  1.00  0.00    -0.203 F 
ATOM     74  F   UNL A   1      41.907  37.022  39.854  1.00  0.00    -0.200 F 
ATOM     75  C   UNL A   1      40.432  35.521  40.923  1.00  0.00     0.200 A 
ATOM     76  F   UNL A   1      38.967  33.983  41.954  1.00  0.00    -0.200 F 
ATOM     77  F   UNL A   1      40.466  36.259  42.041  1.00  0.00    -0.200 F 
ENDBRANCH  53  67
BRANCH  54  78
ATOM     78  C   UNL A   1      40.026  28.749  30.079  1.00  0.00     0.064 A 
ATOM     79  C   UNL A   1      40.619  29.297  28.933  1.00  0.00     0.173 A 
ATOM     80  C   UNL A   1      39.431  27.484  29.963  1.00  0.00     0.173 A 
ATOM     81  F   UNL A   1      41.185  30.512  28.988  1.00  0.00    -0.203 F 
ATOM     82  C   UNL A   1      40.607  28.613  27.719  1.00  0.00     0.198 A 
ATOM     83  C   UNL A   1      39.446  26.789  28.756  1.00  0.00     0.198 A 
ATOM     84  F   UNL A   1      38.854  26.912  31.030  1.00  0.00    -0.203 F 
ATOM     85  F   UNL A   1      41.148  29.177  26.630  1.00  0.00    -0.200 F 
ATOM     86  C   UNL A   1      40.028  27.356  27.633  1.00  0.00     0.200 A 
ATOM     87  F   UNL A   1      38.901  25.566  28.684  1.00  0.00    -0.200 F 
ATOM     88  F   UNL A   1      40.028  26.693  26.469  1.00  0.00    -0.200 F 
ENDBRANCH  54  78
BRANCH  66  89
ATOM     89  C   UNL A   1      44.394  28.777  35.523  1.00  0.00     0.064 A 
ATOM     90  C   UNL A   1      45.663  29.263  35.172  1.00  0.00     0.173 A 
ATOM     91  C   UNL A   1      44.329  27.558  36.215  1.00  0.00     0.173 A 
ATOM     92  F   UNL A   1      45.781  30.416  34.495  1.00  0.00    -0.203 F 
ATOM     93  C   UNL A   1      46.816  28.546  35.482  1.00  0.00     0.198 A 
ATOM     94  C   UNL A   1      45.486  26.860  36.552  1.00  0.00     0.198 A 
ATOM     95  F   UNL A   1      43.142  27.050  36.578  1.00  0.00    -0.203 F 
ATOM     96  F   UNL A   1      48.014  29.008  35.094  1.00  0.00    -0.200 F 
ATOM     97  C   UNL A   1      46.727  27.351  36.178  1.00  0.00     0.200 A 
ATOM     98  F   UNL A   1      45.398  25.713  37.239  1.00  0.00    -0.200 F 
ATOM     99  F   UNL A   1      47.839  26.668  36.486  1.00  0.00    -0.200 F 
ENDBRANCH  66  89
ENDBRANCH  40  41
ENDBRANCH  32  35
ENDBRANCH  30  31
ENDBRANCH  29  30
ENDBRANCH  28  29
ENDBRANCH   1  28
TORSDOF 16
ENDMDL
MODEL 3
REMARK VINA RESULT:     -11.1      6.363     11.182
REMARK SMILES O=C(CC[NH+]1CC[NH+]([C@@H]2CCO[C@@]3(CCOC3)C2)CC1)NCCCCCCNC(=O)c1ccc(-c2c3nc(c(-c4c(F)c(F)c(F)c(F)c4F)c4ccc([nH]4)c(-c4c(F)c(F)c(F)c(F)c4F)c4nc(c(-c5c(F)c(F)c(F)c(F)c5F)c5ccc2[nH]5)C=C4)C=C3)cc1
REMARK SMILES IDX 24 1 23 2 22 3 21 4 1 5 2 6 3 8 4 9 5 10 6 11 20 12 7 14
REMARK SMILES IDX 19 15 8 16 9 18 10 19 18 20 11 21 13 22 12 23 14 24 17 25
REMARK SMILES IDX 15 26 16 27 25 28 26 29 27 30 28 31 29 32 30 34 31 35 32 36
REMARK SMILES IDX 93 37 33 38 92 39 34 40 35 41 36 42 86 43 37 44 91 45 85 46
REMARK SMILES IDX 87 47 38 48 90 49 84 50 83 51 39 53 71 54 51 55 70 56 52 57
REMARK SMILES IDX 55 58 69 59 88 60 53 61 54 62 68 64 89 65 56 66 40 67 41 68
REMARK SMILES IDX 49 69 42 70 43 71 47 72 50 73 44 74 45 75 48 76 46 77 72 78
REMARK SMILES IDX 73 79 81 80 74 81 75 82 79 83 82 84 76 85 77 86 80 87 78 88
REMARK SMILES IDX 57 89 58 90 66 91 59 92 60 93 64 94 67 95 61 96 62 97 65 98
REMARK SMILES IDX 63 99
REMARK H PARENT 21 7 5 13 8 17 28 33 87 52 55 63
REMARK Flexibility Score: inf
ROOT
ATOM      1  C   UNL A   1      34.717  29.805  27.211  1.00  0.00     0.002 C 
ENDROOT
BRANCH   1   2
ATOM      2  C   UNL A   1      33.725  28.688  27.566  1.00  0.00     0.021 C 
BRANCH   2   3
ATOM      3  C   UNL A   1      32.260  28.935  27.185  1.00  0.00     0.116 C 
BRANCH   3   4
ATOM      4  N   UNL A   1      32.020  28.670  25.786  1.00  0.00    -0.356 N 
ATOM      5  O   UNL A   1      31.052  30.690  25.331  1.00  0.00    -0.275 OA
ATOM      6  C   UNL A   1      31.341  29.548  24.980  1.00  0.00     0.225 C 
ATOM      7  H   UNL A   1      32.355  27.830  25.398  1.00  0.00     0.163 HD
BRANCH   6   8
ATOM      8  C   UNL A   1      30.809  28.987  23.675  1.00  0.00     0.161 C 
BRANCH   8   9
ATOM      9  C   UNL A   1      31.802  28.389  22.683  1.00  0.00     0.272 C 
BRANCH   9  10
ATOM     10  N   UNL A   1      31.518  27.057  22.113  1.00  0.00    -0.325 N 
ATOM     11  C   UNL A   1      32.653  26.326  21.517  1.00  0.00     0.324 C 
ATOM     12  C   UNL A   1      30.907  26.197  23.146  1.00  0.00     0.324 C 
ATOM     13  H   UNL A   1      30.891  27.258  21.334  1.00  0.00     0.348 HD
ATOM     14  C   UNL A   1      33.632  25.568  22.436  1.00  0.00     0.324 C 
ATOM     15  C   UNL A   1      31.943  25.604  24.121  1.00  0.00     0.324 C 
ATOM     16  N   UNL A   1      33.015  24.804  23.531  1.00  0.00    -0.323 N 
ATOM     17  H   UNL A   1      33.675  24.666  24.297  1.00  0.00     0.348 HD
BRANCH  16  18
ATOM     18  C   UNL A   1      32.803  23.372  23.247  1.00  0.00     0.189 C 
ATOM     19  C   UNL A   1      31.587  22.642  23.830  1.00  0.00     0.093 C 
ATOM     20  C   UNL A   1      34.045  22.493  23.507  1.00  0.00     0.103 C 
ATOM     21  C   UNL A   1      31.839  21.952  25.165  1.00  0.00     0.167 C 
ATOM     22  C   UNL A   1      34.250  22.091  24.984  1.00  0.00     0.099 C 
ATOM     23  O   UNL A   1      33.071  22.319  25.769  1.00  0.00    -0.372 OA
ATOM     24  C   UNL A   1      34.738  20.651  25.133  1.00  0.00     0.066 C 
ATOM     25  C   UNL A   1      35.431  22.859  25.634  1.00  0.00     0.195 C 
ATOM     26  C   UNL A   1      36.241  20.790  25.062  1.00  0.00     0.163 C 
ATOM     27  O   UNL A   1      36.542  21.970  25.800  1.00  0.00    -0.378 OA
ENDBRANCH  16  18
ENDBRANCH   9  10
ENDBRANCH   8   9
ENDBRANCH   6   8
ENDBRANCH   3   4
ENDBRANCH   2   3
ENDBRANCH   1   2
BRANCH   1  28
ATOM     28  C   UNL A   1      34.610  31.094  28.025  1.00  0.00     0.002 C 
BRANCH  28  29
ATOM     29  C   UNL A   1      33.993  32.267  27.268  1.00  0.00     0.021 C 
BRANCH  29  30
ATOM     30  C   UNL A   1      32.593  32.652  27.734  1.00  0.00     0.116 C 
BRANCH  30  31
ATOM     31  N   UNL A   1      32.408  34.092  27.825  1.00  0.00    -0.352 N 
ATOM     32  C   UNL A   1      33.070  35.003  28.611  1.00  0.00     0.251 C 
ATOM     33  H   UNL A   1      31.710  34.467  27.240  1.00  0.00     0.163 HD
ATOM     34  O   UNL A   1      32.679  36.165  28.682  1.00  0.00    -0.269 OA
BRANCH  32  35
ATOM     35  C   UNL A   1      34.238  34.570  29.406  1.00  0.00     0.039 A 
ATOM     36  C   UNL A   1      34.023  33.929  30.629  1.00  0.00     0.014 A 
ATOM     37  C   UNL A   1      35.540  34.764  28.934  1.00  0.00     0.014 A 
ATOM     38  C   UNL A   1      35.108  33.404  31.335  1.00  0.00     0.010 A 
ATOM     39  C   UNL A   1      36.611  34.174  29.598  1.00  0.00     0.010 A 
ATOM     40  C   UNL A   1      36.405  33.478  30.799  1.00  0.00    -0.014 A 
BRANCH  40  41
ATOM     41  C   UNL A   1      37.549  32.798  31.460  1.00  0.00     0.031 A 
ATOM     42  C   UNL A   1      38.210  31.614  30.813  1.00  0.00     0.074 A 
ATOM     43  C   UNL A   1      37.937  33.196  32.687  1.00  0.00     0.049 A 
ATOM     44  N   UNL A   1      39.165  30.845  31.273  1.00  0.00    -0.248 NA
ATOM     45  C   UNL A   1      37.714  31.230  29.484  1.00  0.00     0.031 C 
ATOM     46  C   UNL A   1      37.338  34.296  33.445  1.00  0.00     0.029 A 
ATOM     47  N   UNL A   1      38.914  32.712  33.521  1.00  0.00    -0.354 N 
ATOM     48  C   UNL A   1      39.380  29.886  30.294  1.00  0.00     0.074 A 
ATOM     49  C   UNL A   1      38.415  30.131  29.244  1.00  0.00     0.031 C 
ATOM     50  C   UNL A   1      37.965  34.409  34.625  1.00  0.00     0.029 A 
ATOM     51  C   UNL A   1      38.978  33.363  34.728  1.00  0.00     0.049 A 
ATOM     52  H   UNL A   1      39.511  31.968  33.277  1.00  0.00     0.167 HD
ATOM     53  C   UNL A   1      40.313  28.903  30.263  1.00  0.00     0.037 A 
ATOM     54  C   UNL A   1      39.752  33.133  35.807  1.00  0.00     0.037 A 
ATOM     55  C   UNL A   1      41.270  28.661  31.312  1.00  0.00     0.049 A 
ATOM     56  C   UNL A   1      40.761  32.019  35.763  1.00  0.00     0.074 A 
ATOM     57  C   UNL A   1      42.291  27.729  31.351  1.00  0.00     0.029 A 
ATOM     58  N   UNL A   1      41.313  29.350  32.516  1.00  0.00    -0.354 N 
ATOM     59  N   UNL A   1      41.011  31.167  34.800  1.00  0.00    -0.248 NA
ATOM     60  C   UNL A   1      41.599  31.837  36.956  1.00  0.00     0.031 C 
ATOM     61  C   UNL A   1      42.913  27.812  32.602  1.00  0.00     0.029 A 
ATOM     62  C   UNL A   1      42.321  28.838  33.319  1.00  0.00     0.049 A 
ATOM     63  H   UNL A   1      40.717  30.094  32.763  1.00  0.00     0.167 HD
ATOM     64  C   UNL A   1      42.043  30.360  35.259  1.00  0.00     0.074 A 
ATOM     65  C   UNL A   1      42.388  30.839  36.582  1.00  0.00     0.031 C 
ATOM     66  C   UNL A   1      42.649  29.317  34.641  1.00  0.00     0.037 A 
BRANCH  53  67
ATOM     67  C   UNL A   1      40.334  28.010  29.053  1.00  0.00     0.064 A 
ATOM     68  C   UNL A   1      39.633  26.793  29.024  1.00  0.00     0.173 A 
ATOM     69  C   UNL A   1      41.050  28.379  27.904  1.00  0.00     0.173 A 
ATOM     70  F   UNL A   1      38.938  26.387  30.098  1.00  0.00    -0.203 F 
ATOM     71  C   UNL A   1      39.687  25.960  27.909  1.00  0.00     0.198 A 
ATOM     72  C   UNL A   1      41.071  27.559  26.778  1.00  0.00     0.198 A 
ATOM     73  F   UNL A   1      41.730  29.534  27.872  1.00  0.00    -0.203 F 
ATOM     74  F   UNL A   1      39.064  24.774  27.931  1.00  0.00    -0.200 F 
ATOM     75  C   UNL A   1      40.400  26.346  26.785  1.00  0.00     0.200 A 
ATOM     76  F   UNL A   1      41.748  27.943  25.687  1.00  0.00    -0.200 F 
ATOM     77  F   UNL A   1      40.450  25.545  25.713  1.00  0.00    -0.200 F 
ENDBRANCH  53  67
BRANCH  54  78
ATOM     78  C   UNL A   1      39.593  33.982  37.016  1.00  0.00     0.064 A 
ATOM     79  C   UNL A   1      40.199  35.244  37.100  1.00  0.00     0.173 A 
ATOM     80  C   UNL A   1      38.815  33.559  38.103  1.00  0.00     0.173 A 
ATOM     81  F   UNL A   1      40.969  35.685  36.095  1.00  0.00    -0.203 F 
ATOM     82  C   UNL A   1      40.040  36.043  38.230  1.00  0.00     0.198 A 
ATOM     83  C   UNL A   1      38.633  34.372  39.219  1.00  0.00     0.198 A 
ATOM     84  F   UNL A   1      38.209  32.363  38.071  1.00  0.00    -0.203 F 
ATOM     85  F   UNL A   1      40.660  37.230  38.300  1.00  0.00    -0.200 F 
ATOM     86  C   UNL A   1      39.251  35.611  39.285  1.00  0.00     0.200 A 
ATOM     87  F   UNL A   1      37.853  33.957  40.228  1.00  0.00    -0.200 F 
ATOM     88  F   UNL A   1      39.088  36.387  40.366  1.00  0.00    -0.200 F 
ENDBRANCH  54  78
BRANCH  66  89
ATOM     89  C   UNL A   1      43.759  28.626  35.380  1.00  0.00     0.064 A 
ATOM     90  C   UNL A   1      43.510  27.553  36.248  1.00  0.00     0.173 A 
ATOM     91  C   UNL A   1      45.094  29.014  35.185  1.00  0.00     0.173 A 
ATOM     92  F   UNL A   1      42.250  27.153  36.483  1.00  0.00    -0.203 F 
ATOM     93  C   UNL A   1      44.552  26.909  36.910  1.00  0.00     0.198 A 
ATOM     94  C   UNL A   1      46.137  28.346  35.824  1.00  0.00     0.198 A 
ATOM     95  F   UNL A   1      45.389  30.031  34.363  1.00  0.00    -0.203 F 
ATOM     96  F   UNL A   1      44.285  25.916  37.771  1.00  0.00    -0.200 F 
ATOM     97  C   UNL A   1      45.864  27.300  36.691  1.00  0.00     0.200 A 
ATOM     98  F   UNL A   1      47.404  28.716  35.598  1.00  0.00    -0.200 F 
ATOM     99  F   UNL A   1      46.866  26.672  37.320  1.00  0.00    -0.200 F 
ENDBRANCH  66  89
ENDBRANCH  40  41
ENDBRANCH  32  35
ENDBRANCH  30  31
ENDBRANCH  29  30
ENDBRANCH  28  29
ENDBRANCH   1  28
TORSDOF 16
ENDMDL
