MODEL 1
REMARK VINA RESULT:     -12.3      0.000      0.000
REMARK SMILES CC(=O)N1CCC2(CC1)C[C@H](C(=O)NCCCCCCNC(=O)c1ccc(-c3c4nc(c(-c5c(F)c(F)c(F)c(F)c5F)c5ccc([nH]5)c(-c5c(F)c(F)c(F)c(F)c5F)c5nc(c(-c6c(F)c(F)c(F)c(F)c6F)c6ccc3[nH]6)C=C5)C=C4)cc1)[N@H+](Cc1ncc[nH]1)C2
REMARK SMILES IDX 17 1 16 2 15 3 14 4 12 5 13 6 11 8 1 9 2 10 3 11 4 12 5 13
REMARK SMILES IDX 9 14 6 15 8 16 7 17 10 18 94 19 87 20 88 22 89 23 90 24
REMARK SMILES IDX 93 25 91 26 92 27 18 29 19 30 20 31 21 32 22 33 23 35 24 36
REMARK SMILES IDX 25 37 86 38 26 39 85 40 27 41 28 42 29 43 79 44 30 45 84 46
REMARK SMILES IDX 78 47 80 48 31 49 83 50 77 51 76 52 32 54 64 55 44 56 63 57
REMARK SMILES IDX 45 58 48 59 62 60 81 61 46 62 47 63 61 65 82 66 49 67 33 68
REMARK SMILES IDX 34 69 42 70 35 71 36 72 40 73 43 74 37 75 38 76 41 77 39 78
REMARK SMILES IDX 65 79 66 80 74 81 67 82 68 83 72 84 75 85 69 86 70 87 73 88
REMARK SMILES IDX 71 89 50 90 51 91 59 92 52 93 53 94 57 95 60 96 54 97 55 98
REMARK SMILES IDX 58 99 56 100
REMARK H PARENT 14 7 87 21 93 28 21 34 80 53 48 64
REMARK Flexibility Score: inf
ROOT
ATOM      1  C   UNL A   1      31.855  27.227  24.490  1.00  0.00     0.002 C 
ENDROOT
BRANCH   1   2
ATOM      2  C   UNL A   1      30.713  27.030  25.490  1.00  0.00     0.021 C 
BRANCH   2   3
ATOM      3  C   UNL A   1      29.896  25.757  25.297  1.00  0.00     0.116 C 
BRANCH   3   4
ATOM      4  N   UNL A   1      30.031  24.864  26.420  1.00  0.00    -0.351 N 
ATOM      5  C   UNL A   1      30.968  23.904  26.668  1.00  0.00     0.278 C 
ATOM      6  O   UNL A   1      30.660  23.073  27.530  1.00  0.00    -0.268 OA
ATOM      7  H   UNL A   1      29.341  24.961  27.115  1.00  0.00     0.163 HD
BRANCH   5   8
ATOM      8  C   UNL A   1      32.247  23.808  25.796  1.00  0.00     0.275 C 
ATOM      9  C   UNL A   1      39.348  23.164  26.249  1.00  0.00     0.114 C 
ATOM     10  C   UNL A   1      38.555  21.942  25.884  1.00  0.00     0.219 C 
ATOM     11  O   UNL A   1      38.914  20.837  26.293  1.00  0.00    -0.275 OA
ATOM     12  N   UNL A   1      37.361  22.131  25.208  1.00  0.00    -0.343 N 
ATOM     13  C   UNL A   1      36.313  21.163  25.440  1.00  0.00     0.120 C 
ATOM     14  C   UNL A   1      36.937  23.304  24.449  1.00  0.00     0.120 C 
ATOM     15  C   UNL A   1      35.251  21.854  26.290  1.00  0.00     0.034 C 
ATOM     16  C   UNL A   1      35.754  24.007  25.122  1.00  0.00     0.034 C 
ATOM     17  C   UNL A   1      34.604  23.053  25.565  1.00  0.00     0.029 C 
ATOM     18  C   UNL A   1      33.623  23.829  26.481  1.00  0.00     0.088 C 
ATOM     19  C   UNL A   1      33.695  22.590  24.408  1.00  0.00     0.270 C 
ATOM     20  N   UNL A   1      32.308  22.637  24.885  1.00  0.00    -0.318 N 
ATOM     21  H   UNL A   1      31.654  22.771  24.115  1.00  0.00     0.349 HD
BRANCH  20  22
ATOM     22  C   UNL A   1      31.737  21.359  25.366  1.00  0.00     0.339 C 
BRANCH  22  23
ATOM     23  C   UNL A   1      32.390  20.065  24.955  1.00  0.00     0.161 A 
ATOM     24  N   UNL A   1      32.529  19.563  23.740  1.00  0.00    -0.236 NA
ATOM     25  N   UNL A   1      32.918  19.191  25.882  1.00  0.00    -0.344 N 
ATOM     26  C   UNL A   1      33.048  18.305  23.898  1.00  0.00     0.131 A 
ATOM     27  C   UNL A   1      33.268  18.040  25.227  1.00  0.00     0.104 A 
ATOM     28  H   UNL A   1      33.024  19.363  26.844  1.00  0.00     0.167 HD
ENDBRANCH  22  23
ENDBRANCH  20  22
ENDBRANCH   5   8
ENDBRANCH   3   4
ENDBRANCH   2   3
ENDBRANCH   1   2
BRANCH   1  29
ATOM     29  C   UNL A   1      33.261  27.232  25.094  1.00  0.00     0.002 C 
BRANCH  29  30
ATOM     30  C   UNL A   1      33.741  28.586  25.620  1.00  0.00     0.021 C 
BRANCH  30  31
ATOM     31  C   UNL A   1      33.873  28.678  27.138  1.00  0.00     0.116 C 
BRANCH  31  32
ATOM     32  N   UNL A   1      33.854  30.052  27.614  1.00  0.00    -0.352 N 
ATOM     33  C   UNL A   1      34.795  30.739  28.340  1.00  0.00     0.251 C 
ATOM     34  H   UNL A   1      33.047  30.564  27.382  1.00  0.00     0.163 HD
ATOM     35  O   UNL A   1      34.537  31.841  28.805  1.00  0.00    -0.269 OA
BRANCH  33  36
ATOM     36  C   UNL A   1      36.119  30.128  28.586  1.00  0.00     0.039 A 
ATOM     37  C   UNL A   1      37.094  30.221  27.591  1.00  0.00     0.014 A 
ATOM     38  C   UNL A   1      36.402  29.489  29.795  1.00  0.00     0.014 A 
ATOM     39  C   UNL A   1      38.383  29.747  27.841  1.00  0.00     0.010 A 
ATOM     40  C   UNL A   1      37.703  29.079  30.071  1.00  0.00     0.010 A 
ATOM     41  C   UNL A   1      38.709  29.221  29.102  1.00  0.00    -0.014 A 
BRANCH  41  42
ATOM     42  C   UNL A   1      40.112  28.876  29.447  1.00  0.00     0.031 A 
ATOM     43  C   UNL A   1      40.986  29.854  30.171  1.00  0.00     0.074 A 
ATOM     44  C   UNL A   1      40.621  27.705  29.018  1.00  0.00     0.049 A 
ATOM     45  N   UNL A   1      42.256  29.760  30.479  1.00  0.00    -0.248 NA
ATOM     46  C   UNL A   1      40.358  31.118  30.582  1.00  0.00     0.031 C 
ATOM     47  C   UNL A   1      39.884  26.697  28.254  1.00  0.00     0.029 A 
ATOM     48  N   UNL A   1      41.881  27.176  29.137  1.00  0.00    -0.354 N 
ATOM     49  C   UNL A   1      42.580  30.953  31.109  1.00  0.00     0.074 A 
ATOM     50  C   UNL A   1      41.389  31.775  31.093  1.00  0.00     0.031 C 
ATOM     51  C   UNL A   1      40.701  25.670  27.979  1.00  0.00     0.029 A 
ATOM     52  C   UNL A   1      42.030  25.967  28.504  1.00  0.00     0.049 A 
ATOM     53  H   UNL A   1      42.608  27.621  29.631  1.00  0.00     0.167 HD
ATOM     54  C   UNL A   1      43.761  31.319  31.666  1.00  0.00     0.037 A 
ATOM     55  C   UNL A   1      43.120  25.194  28.341  1.00  0.00     0.037 A 
ATOM     56  C   UNL A   1      44.940  30.491  31.676  1.00  0.00     0.049 A 
ATOM     57  C   UNL A   1      44.427  25.630  28.940  1.00  0.00     0.074 A 
ATOM     58  C   UNL A   1      46.161  30.735  32.283  1.00  0.00     0.029 A 
ATOM     59  N   UNL A   1      45.055  29.268  31.030  1.00  0.00    -0.354 N 
ATOM     60  N   UNL A   1      44.702  26.718  29.617  1.00  0.00    -0.248 NA
ATOM     61  C   UNL A   1      45.574  24.731  28.755  1.00  0.00     0.031 C 
ATOM     62  C   UNL A   1      47.033  29.694  31.944  1.00  0.00     0.029 A 
ATOM     63  C   UNL A   1      46.341  28.768  31.180  1.00  0.00     0.049 A 
ATOM     64  H   UNL A   1      44.331  28.820  30.537  1.00  0.00     0.167 HD
ATOM     65  C   UNL A   1      46.048  26.636  29.945  1.00  0.00     0.074 A 
ATOM     66  C   UNL A   1      46.528  25.376  29.414  1.00  0.00     0.031 C 
ATOM     67  C   UNL A   1      46.814  27.525  30.624  1.00  0.00     0.037 A 
BRANCH  54  68
ATOM     68  C   UNL A   1      43.835  32.684  32.292  1.00  0.00     0.064 A 
ATOM     69  C   UNL A   1      43.509  32.901  33.640  1.00  0.00     0.173 A 
ATOM     70  C   UNL A   1      44.242  33.792  31.533  1.00  0.00     0.173 A 
ATOM     71  F   UNL A   1      43.108  31.879  34.411  1.00  0.00    -0.203 F 
ATOM     72  C   UNL A   1      43.542  34.180  34.190  1.00  0.00     0.198 A 
ATOM     73  C   UNL A   1      44.308  35.064  32.096  1.00  0.00     0.198 A 
ATOM     74  F   UNL A   1      44.574  33.643  30.241  1.00  0.00    -0.203 F 
ATOM     75  F   UNL A   1      43.158  34.371  35.460  1.00  0.00    -0.200 F 
ATOM     76  C   UNL A   1      43.945  35.260  33.419  1.00  0.00     0.200 A 
ATOM     77  F   UNL A   1      44.714  36.103  31.353  1.00  0.00    -0.200 F 
ATOM     78  F   UNL A   1      43.972  36.490  33.949  1.00  0.00    -0.200 F 
ENDBRANCH  54  68
BRANCH  55  79
ATOM     79  C   UNL A   1      43.005  23.934  27.563  1.00  0.00     0.064 A 
ATOM     80  C   UNL A   1      42.541  22.754  28.159  1.00  0.00     0.173 A 
ATOM     81  C   UNL A   1      43.308  23.899  26.193  1.00  0.00     0.173 A 
ATOM     82  F   UNL A   1      42.258  22.733  29.469  1.00  0.00    -0.203 F 
ATOM     83  C   UNL A   1      42.389  21.585  27.415  1.00  0.00     0.198 A 
ATOM     84  C   UNL A   1      43.126  22.738  25.444  1.00  0.00     0.198 A 
ATOM     85  F   UNL A   1      43.749  25.004  25.573  1.00  0.00    -0.203 F 
ATOM     86  F   UNL A   1      41.969  20.463  28.015  1.00  0.00    -0.200 F 
ATOM     87  C   UNL A   1      42.671  21.581  26.057  1.00  0.00     0.200 A 
ATOM     88  F   UNL A   1      43.382  22.745  24.129  1.00  0.00    -0.200 F 
ATOM     89  F   UNL A   1      42.503  20.463  25.339  1.00  0.00    -0.200 F 
ENDBRANCH  55  79
BRANCH  67  90
ATOM     90  C   UNL A   1      48.262  27.173  30.822  1.00  0.00     0.064 A 
ATOM     91  C   UNL A   1      48.684  26.392  31.908  1.00  0.00     0.173 A 
ATOM     92  C   UNL A   1      49.231  27.580  29.892  1.00  0.00     0.173 A 
ATOM     93  F   UNL A   1      47.800  25.991  32.835  1.00  0.00    -0.203 F 
ATOM     94  C   UNL A   1      50.024  26.048  32.067  1.00  0.00     0.198 A 
ATOM     95  C   UNL A   1      50.564  27.208  30.036  1.00  0.00     0.198 A 
ATOM     96  F   UNL A   1      48.881  28.326  28.834  1.00  0.00    -0.203 F 
ATOM     97  F   UNL A   1      50.409  25.337  33.136  1.00  0.00    -0.200 F 
ATOM     98  C   UNL A   1      50.961  26.447  31.126  1.00  0.00     0.200 A 
ATOM     99  F   UNL A   1      51.466  27.583  29.119  1.00  0.00    -0.200 F 
ATOM    100  F   UNL A   1      52.249  26.105  31.274  1.00  0.00    -0.200 F 
ENDBRANCH  67  90
ENDBRANCH  41  42
ENDBRANCH  33  36
ENDBRANCH  31  32
ENDBRANCH  30  31
ENDBRANCH  29  30
ENDBRANCH   1  29
TORSDOF 15
ENDMDL
MODEL 2
REMARK VINA RESULT:     -12.3      0.222      1.565
REMARK SMILES CC(=O)N1CCC2(CC1)C[C@H](C(=O)NCCCCCCNC(=O)c1ccc(-c3c4nc(c(-c5c(F)c(F)c(F)c(F)c5F)c5ccc([nH]5)c(-c5c(F)c(F)c(F)c(F)c5F)c5nc(c(-c6c(F)c(F)c(F)c(F)c6F)c6ccc3[nH]6)C=C5)C=C4)cc1)[N@H+](Cc1ncc[nH]1)C2
REMARK SMILES IDX 17 1 16 2 15 3 14 4 12 5 13 6 11 8 1 9 2 10 3 11 4 12 5 13
REMARK SMILES IDX 9 14 6 15 8 16 7 17 10 18 94 19 87 20 88 22 89 23 90 24
REMARK SMILES IDX 93 25 91 26 92 27 18 29 19 30 20 31 21 32 22 33 23 35 24 36
REMARK SMILES IDX 25 37 86 38 26 39 85 40 27 41 28 42 29 43 79 44 30 45 84 46
REMARK SMILES IDX 78 47 80 48 31 49 83 50 77 51 76 52 32 54 64 55 44 56 63 57
REMARK SMILES IDX 45 58 48 59 62 60 81 61 46 62 47 63 61 65 82 66 49 67 33 68
REMARK SMILES IDX 34 69 42 70 35 71 36 72 40 73 43 74 37 75 38 76 41 77 39 78
REMARK SMILES IDX 65 79 66 80 74 81 67 82 68 83 72 84 75 85 69 86 70 87 73 88
REMARK SMILES IDX 71 89 50 90 51 91 59 92 52 93 53 94 57 95 60 96 54 97 55 98
REMARK SMILES IDX 58 99 56 100
REMARK H PARENT 14 7 87 21 93 28 21 34 80 53 48 64
REMARK Flexibility Score: inf
ROOT
ATOM      1  C   UNL A   1      31.720  27.275  25.802  1.00  0.00     0.002 C 
ENDROOT
BRANCH   1   2
ATOM      2  C   UNL A   1      30.405  27.101  25.039  1.00  0.00     0.021 C 
BRANCH   2   3
ATOM      3  C   UNL A   1      29.922  25.661  24.903  1.00  0.00     0.116 C 
BRANCH   3   4
ATOM      4  N   UNL A   1      30.084  24.928  26.132  1.00  0.00    -0.351 N 
ATOM      5  C   UNL A   1      31.054  24.043  26.504  1.00  0.00     0.278 C 
ATOM      6  O   UNL A   1      30.772  23.321  27.466  1.00  0.00    -0.268 OA
ATOM      7  H   UNL A   1      29.387  25.090  26.809  1.00  0.00     0.163 HD
BRANCH   5   8
ATOM      8  C   UNL A   1      32.339  23.881  25.651  1.00  0.00     0.275 C 
ATOM      9  C   UNL A   1      39.418  23.096  26.213  1.00  0.00     0.114 C 
ATOM     10  C   UNL A   1      38.601  21.877  25.890  1.00  0.00     0.219 C 
ATOM     11  O   UNL A   1      38.930  20.783  26.351  1.00  0.00    -0.275 OA
ATOM     12  N   UNL A   1      37.419  22.064  25.194  1.00  0.00    -0.343 N 
ATOM     13  C   UNL A   1      36.347  21.131  25.454  1.00  0.00     0.120 C 
ATOM     14  C   UNL A   1      37.030  23.213  24.380  1.00  0.00     0.120 C 
ATOM     15  C   UNL A   1      35.292  21.882  26.262  1.00  0.00     0.034 C 
ATOM     16  C   UNL A   1      35.857  23.971  25.009  1.00  0.00     0.034 C 
ATOM     17  C   UNL A   1      34.680  23.064  25.479  1.00  0.00     0.029 C 
ATOM     18  C   UNL A   1      33.708  23.899  26.351  1.00  0.00     0.088 C 
ATOM     19  C   UNL A   1      33.773  22.572  24.332  1.00  0.00     0.270 C 
ATOM     20  N   UNL A   1      32.382  22.671  24.792  1.00  0.00    -0.318 N 
ATOM     21  H   UNL A   1      31.740  22.787  24.008  1.00  0.00     0.349 HD
BRANCH  20  22
ATOM     22  C   UNL A   1      31.778  21.428  25.319  1.00  0.00     0.339 C 
BRANCH  22  23
ATOM     23  C   UNL A   1      32.366  20.100  24.919  1.00  0.00     0.161 A 
ATOM     24  N   UNL A   1      32.451  19.567  23.713  1.00  0.00    -0.236 NA
ATOM     25  N   UNL A   1      32.884  19.225  25.851  1.00  0.00    -0.344 N 
ATOM     26  C   UNL A   1      32.923  18.293  23.886  1.00  0.00     0.131 A 
ATOM     27  C   UNL A   1      33.170  18.048  25.213  1.00  0.00     0.104 A 
ATOM     28  H   UNL A   1      33.024  19.413  26.806  1.00  0.00     0.167 HD
ENDBRANCH  22  23
ENDBRANCH  20  22
ENDBRANCH   5   8
ENDBRANCH   3   4
ENDBRANCH   2   3
ENDBRANCH   1   2
BRANCH   1  29
ATOM     29  C   UNL A   1      32.874  27.870  24.990  1.00  0.00     0.002 C 
BRANCH  29  30
ATOM     30  C   UNL A   1      34.025  28.445  25.817  1.00  0.00     0.021 C 
BRANCH  30  31
ATOM     31  C   UNL A   1      33.714  28.657  27.295  1.00  0.00     0.116 C 
BRANCH  31  32
ATOM     32  N   UNL A   1      33.734  30.062  27.671  1.00  0.00    -0.352 N 
ATOM     33  C   UNL A   1      34.707  30.782  28.318  1.00  0.00     0.251 C 
ATOM     34  H   UNL A   1      32.929  30.572  27.425  1.00  0.00     0.163 HD
ATOM     35  O   UNL A   1      34.482  31.920  28.708  1.00  0.00    -0.269 OA
BRANCH  33  36
ATOM     36  C   UNL A   1      36.027  30.165  28.570  1.00  0.00     0.039 A 
ATOM     37  C   UNL A   1      37.004  30.241  27.574  1.00  0.00     0.014 A 
ATOM     38  C   UNL A   1      36.306  29.535  29.786  1.00  0.00     0.014 A 
ATOM     39  C   UNL A   1      38.289  29.761  27.830  1.00  0.00     0.010 A 
ATOM     40  C   UNL A   1      37.604  29.120  30.066  1.00  0.00     0.010 A 
ATOM     41  C   UNL A   1      38.611  29.245  29.096  1.00  0.00    -0.014 A 
BRANCH  41  42
ATOM     42  C   UNL A   1      40.011  28.894  29.445  1.00  0.00     0.031 A 
ATOM     43  C   UNL A   1      40.883  29.863  30.184  1.00  0.00     0.074 A 
ATOM     44  C   UNL A   1      40.521  27.727  29.006  1.00  0.00     0.049 A 
ATOM     45  N   UNL A   1      42.151  29.764  30.498  1.00  0.00    -0.248 NA
ATOM     46  C   UNL A   1      40.255  31.123  30.605  1.00  0.00     0.031 C 
ATOM     47  C   UNL A   1      39.787  26.729  28.227  1.00  0.00     0.029 A 
ATOM     48  N   UNL A   1      41.780  27.195  29.127  1.00  0.00    -0.354 N 
ATOM     49  C   UNL A   1      42.473  30.949  31.143  1.00  0.00     0.074 A 
ATOM     50  C   UNL A   1      41.284  31.774  31.129  1.00  0.00     0.031 C 
ATOM     51  C   UNL A   1      40.604  25.704  27.946  1.00  0.00     0.029 A 
ATOM     52  C   UNL A   1      41.931  25.993  28.481  1.00  0.00     0.049 A 
ATOM     53  H   UNL A   1      42.505  27.633  29.629  1.00  0.00     0.167 HD
ATOM     54  C   UNL A   1      43.652  31.307  31.710  1.00  0.00     0.037 A 
ATOM     55  C   UNL A   1      43.021  25.219  28.315  1.00  0.00     0.037 A 
ATOM     56  C   UNL A   1      44.830  30.478  31.718  1.00  0.00     0.049 A 
ATOM     57  C   UNL A   1      44.325  25.647  28.927  1.00  0.00     0.074 A 
ATOM     58  C   UNL A   1      46.048  30.713  32.333  1.00  0.00     0.029 A 
ATOM     59  N   UNL A   1      44.947  29.262  31.058  1.00  0.00    -0.354 N 
ATOM     60  N   UNL A   1      44.598  26.727  29.616  1.00  0.00    -0.248 NA
ATOM     61  C   UNL A   1      45.471  24.748  28.738  1.00  0.00     0.031 C 
ATOM     62  C   UNL A   1      46.920  29.674  31.988  1.00  0.00     0.029 A 
ATOM     63  C   UNL A   1      46.231  28.758  31.210  1.00  0.00     0.049 A 
ATOM     64  H   UNL A   1      44.224  28.820  30.557  1.00  0.00     0.167 HD
ATOM     65  C   UNL A   1      45.941  26.639  29.951  1.00  0.00     0.074 A 
ATOM     66  C   UNL A   1      46.423  25.384  29.409  1.00  0.00     0.031 C 
ATOM     67  C   UNL A   1      46.705  27.520  30.643  1.00  0.00     0.037 A 
BRANCH  54  68
ATOM     68  C   UNL A   1      43.725  32.666  32.351  1.00  0.00     0.064 A 
ATOM     69  C   UNL A   1      44.136  33.802  31.635  1.00  0.00     0.173 A 
ATOM     70  C   UNL A   1      43.376  32.835  33.699  1.00  0.00     0.173 A 
ATOM     71  F   UNL A   1      44.487  33.697  30.344  1.00  0.00    -0.203 F 
ATOM     72  C   UNL A   1      44.240  35.043  32.257  1.00  0.00     0.198 A 
ATOM     73  C   UNL A   1      43.447  34.085  34.308  1.00  0.00     0.198 A 
ATOM     74  F   UNL A   1      42.968  31.786  34.429  1.00  0.00    -0.203 F 
ATOM     75  F   UNL A   1      44.702  36.098  31.570  1.00  0.00    -0.200 F 
ATOM     76  C   UNL A   1      43.891  35.185  33.591  1.00  0.00     0.200 A 
ATOM     77  F   UNL A   1      43.094  34.223  35.594  1.00  0.00    -0.200 F 
ATOM     78  F   UNL A   1      43.996  36.380  34.189  1.00  0.00    -0.200 F 
ENDBRANCH  54  68
BRANCH  55  79
ATOM     79  C   UNL A   1      42.908  23.968  27.523  1.00  0.00     0.064 A 
ATOM     80  C   UNL A   1      43.221  23.944  26.158  1.00  0.00     0.173 A 
ATOM     81  C   UNL A   1      42.534  22.759  28.130  1.00  0.00     0.173 A 
ATOM     82  F   UNL A   1      43.563  25.078  25.531  1.00  0.00    -0.203 F 
ATOM     83  C   UNL A   1      43.160  22.759  25.428  1.00  0.00     0.198 A 
ATOM     84  C   UNL A   1      42.504  21.569  27.405  1.00  0.00     0.198 A 
ATOM     85  F   UNL A   1      42.233  22.727  29.436  1.00  0.00    -0.203 F 
ATOM     86  F   UNL A   1      43.438  22.768  24.117  1.00  0.00    -0.200 F 
ATOM     87  C   UNL A   1      42.812  21.571  26.053  1.00  0.00     0.200 A 
ATOM     88  F   UNL A   1      42.186  20.422  28.019  1.00  0.00    -0.200 F 
ATOM     89  F   UNL A   1      42.776  20.428  25.355  1.00  0.00    -0.200 F 
ENDBRANCH  55  79
BRANCH  67  90
ATOM     90  C   UNL A   1      48.151  27.164  30.846  1.00  0.00     0.064 A 
ATOM     91  C   UNL A   1      48.559  26.325  31.894  1.00  0.00     0.173 A 
ATOM     92  C   UNL A   1      49.133  27.626  29.956  1.00  0.00     0.173 A 
ATOM     93  F   UNL A   1      47.663  25.870  32.782  1.00  0.00    -0.203 F 
ATOM     94  C   UNL A   1      49.898  25.978  32.055  1.00  0.00     0.198 A 
ATOM     95  C   UNL A   1      50.466  27.252  30.101  1.00  0.00     0.198 A 
ATOM     96  F   UNL A   1      48.797  28.427  28.935  1.00  0.00    -0.203 F 
ATOM     97  F   UNL A   1      50.270  25.211  33.089  1.00  0.00    -0.200 F 
ATOM     98  C   UNL A   1      50.849  26.433  31.154  1.00  0.00     0.200 A 
ATOM     99  F   UNL A   1      51.381  27.681  29.222  1.00  0.00    -0.200 F 
ATOM    100  F   UNL A   1      52.136  26.089  31.304  1.00  0.00    -0.200 F 
ENDBRANCH  67  90
ENDBRANCH  41  42
ENDBRANCH  33  36
ENDBRANCH  31  32
ENDBRANCH  30  31
ENDBRANCH  29  30
ENDBRANCH   1  29
TORSDOF 15
ENDMDL
MODEL 3
REMARK VINA RESULT:     -12.3      3.558      8.494
REMARK SMILES CC(=O)N1CCC2(CC1)C[C@H](C(=O)NCCCCCCNC(=O)c1ccc(-c3c4nc(c(-c5c(F)c(F)c(F)c(F)c5F)c5ccc([nH]5)c(-c5c(F)c(F)c(F)c(F)c5F)c5nc(c(-c6c(F)c(F)c(F)c(F)c6F)c6ccc3[nH]6)C=C5)C=C4)cc1)[N@H+](Cc1ncc[nH]1)C2
REMARK SMILES IDX 17 1 16 2 15 3 14 4 12 5 13 6 11 8 1 9 2 10 3 11 4 12 5 13
REMARK SMILES IDX 9 14 6 15 8 16 7 17 10 18 94 19 87 20 88 22 89 23 90 24
REMARK SMILES IDX 93 25 91 26 92 27 18 29 19 30 20 31 21 32 22 33 23 35 24 36
REMARK SMILES IDX 25 37 86 38 26 39 85 40 27 41 28 42 29 43 79 44 30 45 84 46
REMARK SMILES IDX 78 47 80 48 31 49 83 50 77 51 76 52 32 54 64 55 44 56 63 57
REMARK SMILES IDX 45 58 48 59 62 60 81 61 46 62 47 63 61 65 82 66 49 67 33 68
REMARK SMILES IDX 34 69 42 70 35 71 36 72 40 73 43 74 37 75 38 76 41 77 39 78
REMARK SMILES IDX 65 79 66 80 74 81 67 82 68 83 72 84 75 85 69 86 70 87 73 88
REMARK SMILES IDX 71 89 50 90 51 91 59 92 52 93 53 94 57 95 60 96 54 97 55 98
REMARK SMILES IDX 58 99 56 100
REMARK H PARENT 14 7 87 21 93 28 21 34 80 53 48 64
REMARK Flexibility Score: inf
ROOT
ATOM      1  C   UNL A   1      31.512  29.067  26.694  1.00  0.00     0.002 C 
ENDROOT
BRANCH   1   2
ATOM      2  C   UNL A   1      32.102  27.753  26.178  1.00  0.00     0.021 C 
BRANCH   2   3
ATOM      3  C   UNL A   1      31.079  26.718  25.722  1.00  0.00     0.116 C 
BRANCH   3   4
ATOM      4  N   UNL A   1      30.955  25.640  26.670  1.00  0.00    -0.351 N 
ATOM      5  C   UNL A   1      31.604  24.441  26.723  1.00  0.00     0.278 C 
ATOM      6  O   UNL A   1      31.073  23.583  27.437  1.00  0.00    -0.268 OA
ATOM      7  H   UNL A   1      30.301  25.792  27.390  1.00  0.00     0.163 HD
BRANCH   5   8
ATOM      8  C   UNL A   1      32.830  24.168  25.813  1.00  0.00     0.275 C 
ATOM      9  C   UNL A   1      39.618  21.951  26.009  1.00  0.00     0.114 C 
ATOM     10  C   UNL A   1      38.576  20.979  25.533  1.00  0.00     0.219 C 
ATOM     11  O   UNL A   1      38.686  19.784  25.809  1.00  0.00    -0.275 OA
ATOM     12  N   UNL A   1      37.452  21.498  24.913  1.00  0.00    -0.343 N 
ATOM     13  C   UNL A   1      36.219  20.760  25.064  1.00  0.00     0.120 C 
ATOM     14  C   UNL A   1      37.294  22.812  24.298  1.00  0.00     0.120 C 
ATOM     15  C   UNL A   1      35.335  21.566  26.012  1.00  0.00     0.034 C 
ATOM     16  C   UNL A   1      36.294  23.675  25.074  1.00  0.00     0.034 C 
ATOM     17  C   UNL A   1      34.964  22.951  25.440  1.00  0.00     0.029 C 
ATOM     18  C   UNL A   1      34.178  23.812  26.461  1.00  0.00     0.088 C 
ATOM     19  C   UNL A   1      33.974  22.829  24.263  1.00  0.00     0.270 C 
ATOM     20  N   UNL A   1      32.631  23.122  24.779  1.00  0.00    -0.318 N 
ATOM     21  H   UNL A   1      32.022  23.481  24.044  1.00  0.00     0.349 HD
BRANCH  20  22
ATOM     22  C   UNL A   1      31.796  21.953  25.131  1.00  0.00     0.339 C 
BRANCH  22  23
ATOM     23  C   UNL A   1      32.243  20.579  24.705  1.00  0.00     0.161 A 
ATOM     24  N   UNL A   1      32.314  20.078  23.484  1.00  0.00    -0.236 NA
ATOM     25  N   UNL A   1      32.619  19.620  25.623  1.00  0.00    -0.344 N 
ATOM     26  C   UNL A   1      32.629  18.752  23.627  1.00  0.00     0.131 A 
ATOM     27  C   UNL A   1      32.792  18.438  24.953  1.00  0.00     0.104 A 
ATOM     28  H   UNL A   1      32.740  19.760  26.588  1.00  0.00     0.167 HD
ENDBRANCH  22  23
ENDBRANCH  20  22
ENDBRANCH   5   8
ENDBRANCH   3   4
ENDBRANCH   2   3
ENDBRANCH   1   2
BRANCH   1  29
ATOM     29  C   UNL A   1      32.075  30.335  26.049  1.00  0.00     0.002 C 
BRANCH  29  30
ATOM     30  C   UNL A   1      31.686  31.646  26.737  1.00  0.00     0.021 C 
BRANCH  30  31
ATOM     31  C   UNL A   1      32.853  32.437  27.320  1.00  0.00     0.116 C 
BRANCH  31  32
ATOM     32  N   UNL A   1      32.506  33.824  27.586  1.00  0.00    -0.352 N 
ATOM     33  C   UNL A   1      33.026  34.695  28.510  1.00  0.00     0.251 C 
ATOM     34  H   UNL A   1      31.791  34.193  27.018  1.00  0.00     0.163 HD
ATOM     35  O   UNL A   1      32.493  35.778  28.713  1.00  0.00    -0.269 OA
BRANCH  33  36
ATOM     36  C   UNL A   1      34.223  34.307  29.288  1.00  0.00     0.039 A 
ATOM     37  C   UNL A   1      34.045  33.710  30.538  1.00  0.00     0.014 A 
ATOM     38  C   UNL A   1      35.508  34.512  28.779  1.00  0.00     0.014 A 
ATOM     39  C   UNL A   1      35.155  33.240  31.242  1.00  0.00     0.010 A 
ATOM     40  C   UNL A   1      36.607  33.981  29.448  1.00  0.00     0.010 A 
ATOM     41  C   UNL A   1      36.438  33.325  30.677  1.00  0.00    -0.014 A 
BRANCH  41  42
ATOM     42  C   UNL A   1      37.604  32.674  31.326  1.00  0.00     0.031 A 
ATOM     43  C   UNL A   1      38.262  31.481  30.702  1.00  0.00     0.074 A 
ATOM     44  C   UNL A   1      38.007  33.112  32.534  1.00  0.00     0.049 A 
ATOM     45  N   UNL A   1      39.232  30.733  31.165  1.00  0.00    -0.248 NA
ATOM     46  C   UNL A   1      37.744  31.054  29.395  1.00  0.00     0.031 C 
ATOM     47  C   UNL A   1      37.408  34.228  33.268  1.00  0.00     0.029 A 
ATOM     48  N   UNL A   1      38.996  32.657  33.370  1.00  0.00    -0.354 N 
ATOM     49  C   UNL A   1      39.434  29.745  30.213  1.00  0.00     0.074 A 
ATOM     50  C   UNL A   1      38.451  29.955  29.172  1.00  0.00     0.031 C 
ATOM     51  C   UNL A   1      38.044  34.375  34.439  1.00  0.00     0.029 A 
ATOM     52  C   UNL A   1      39.063  33.337  34.561  1.00  0.00     0.049 A 
ATOM     53  H   UNL A   1      39.601  31.915  33.136  1.00  0.00     0.167 HD
ATOM     54  C   UNL A   1      40.368  28.761  30.203  1.00  0.00     0.037 A 
ATOM     55  C   UNL A   1      39.838  33.133  35.643  1.00  0.00     0.037 A 
ATOM     56  C   UNL A   1      41.342  28.561  31.245  1.00  0.00     0.049 A 
ATOM     57  C   UNL A   1      40.847  32.020  35.623  1.00  0.00     0.074 A 
ATOM     58  C   UNL A   1      42.380  27.647  31.293  1.00  0.00     0.029 A 
ATOM     59  N   UNL A   1      41.384  29.272  32.437  1.00  0.00    -0.354 N 
ATOM     60  N   UNL A   1      41.095  31.147  34.679  1.00  0.00    -0.248 NA
ATOM     61  C   UNL A   1      41.685  31.865  36.820  1.00  0.00     0.031 C 
ATOM     62  C   UNL A   1      43.005  27.758  32.540  1.00  0.00     0.029 A 
ATOM     63  C   UNL A   1      42.399  28.784  33.247  1.00  0.00     0.049 A 
ATOM     64  H   UNL A   1      40.783  30.015  32.672  1.00  0.00     0.167 HD
ATOM     65  C   UNL A   1      42.118  30.343  35.158  1.00  0.00     0.074 A 
ATOM     66  C   UNL A   1      42.464  30.850  36.471  1.00  0.00     0.031 C 
ATOM     67  C   UNL A   1      42.716  29.280  34.564  1.00  0.00     0.037 A 
BRANCH  54  68
ATOM     68  C   UNL A   1      40.362  27.816  29.033  1.00  0.00     0.064 A 
ATOM     69  C   UNL A   1      41.115  28.066  27.874  1.00  0.00     0.173 A 
ATOM     70  C   UNL A   1      39.595  26.642  29.073  1.00  0.00     0.173 A 
ATOM     71  F   UNL A   1      41.861  29.177  27.780  1.00  0.00    -0.203 F 
ATOM     72  C   UNL A   1      41.062  27.201  26.784  1.00  0.00     0.198 A 
ATOM     73  C   UNL A   1      39.574  25.761  27.994  1.00  0.00     0.198 A 
ATOM     74  F   UNL A   1      38.864  26.347  30.158  1.00  0.00    -0.203 F 
ATOM     75  F   UNL A   1      41.734  27.498  25.663  1.00  0.00    -0.200 F 
ATOM     76  C   UNL A   1      40.295  26.048  26.846  1.00  0.00     0.200 A 
ATOM     77  F   UNL A   1      38.844  24.639  28.063  1.00  0.00    -0.200 F 
ATOM     78  F   UNL A   1      40.243  25.219  25.795  1.00  0.00    -0.200 F 
ENDBRANCH  54  68
BRANCH  55  79
ATOM     79  C   UNL A   1      39.668  34.008  36.831  1.00  0.00     0.064 A 
ATOM     80  C   UNL A   1      38.868  33.614  37.911  1.00  0.00     0.173 A 
ATOM     81  C   UNL A   1      40.347  35.232  36.931  1.00  0.00     0.173 A 
ATOM     82  F   UNL A   1      38.185  32.462  37.853  1.00  0.00    -0.203 F 
ATOM     83  C   UNL A   1      38.749  34.415  39.046  1.00  0.00     0.198 A 
ATOM     84  C   UNL A   1      40.251  36.017  38.078  1.00  0.00     0.198 A 
ATOM     85  F   UNL A   1      41.132  35.650  35.927  1.00  0.00    -0.203 F 
ATOM     86  F   UNL A   1      37.956  34.029  40.054  1.00  0.00    -0.200 F 
ATOM     87  C   UNL A   1      39.448  35.610  39.133  1.00  0.00     0.200 A 
ATOM     88  F   UNL A   1      40.944  37.160  38.165  1.00  0.00    -0.200 F 
ATOM     89  F   UNL A   1      39.350  36.368  40.233  1.00  0.00    -0.200 F 
ENDBRANCH  55  79
BRANCH  67  90
ATOM     90  C   UNL A   1      43.801  28.582  35.335  1.00  0.00     0.064 A 
ATOM     91  C   UNL A   1      45.150  28.936  35.184  1.00  0.00     0.173 A 
ATOM     92  C   UNL A   1      43.486  27.584  36.269  1.00  0.00     0.173 A 
ATOM     93  F   UNL A   1      45.507  29.873  34.291  1.00  0.00    -0.203 F 
ATOM     94  C   UNL A   1      46.145  28.303  35.924  1.00  0.00     0.198 A 
ATOM     95  C   UNL A   1      44.480  26.975  37.031  1.00  0.00     0.198 A 
ATOM     96  F   UNL A   1      42.212  27.210  36.456  1.00  0.00    -0.203 F 
ATOM     97  F   UNL A   1      47.431  28.627  35.731  1.00  0.00    -0.200 F 
ATOM     98  C   UNL A   1      45.809  27.330  36.854  1.00  0.00     0.200 A 
ATOM     99  F   UNL A   1      44.151  26.045  37.938  1.00  0.00    -0.200 F 
ATOM    100  F   UNL A   1      46.766  26.730  37.574  1.00  0.00    -0.200 F 
ENDBRANCH  67  90
ENDBRANCH  41  42
ENDBRANCH  33  36
ENDBRANCH  31  32
ENDBRANCH  30  31
ENDBRANCH  29  30
ENDBRANCH   1  29
TORSDOF 15
ENDMDL
