MODEL 1
REMARK VINA RESULT:     -12.2      0.000      0.000
REMARK SMILES CCc1ccc(C(=O)NCCCCCCNC(=O)c2ccc(-c3c4nc(c(-c5c(F)c(F)c(F)c(F)c5F)c5ccc([nH]5)c(-c5c(F)c(F)c(F)c(F)c5F)c5nc(c(-c6c(F)c(F)c(F)c(F)c6F)c6ccc3[nH]6)C=C5)C=C4)cc2)cc1S(=O)(=O)Nc1ccc(F)c(F)c1F
REMARK SMILES IDX 12 1 11 2 10 3 9 4 7 5 8 6 6 8 3 9 4 10 83 11 5 12 82 13
REMARK SMILES IDX 2 14 1 15 84 16 85 17 86 18 87 19 88 21 89 22 95 23 90 24
REMARK SMILES IDX 93 25 96 26 91 27 94 28 92 29 13 30 14 31 15 32 16 33 17 34
REMARK SMILES IDX 18 36 19 37 20 38 81 39 21 40 80 41 22 42 23 43 24 44 74 45
REMARK SMILES IDX 25 46 79 47 73 48 75 49 26 50 78 51 72 52 71 53 27 55 59 56
REMARK SMILES IDX 39 57 58 58 40 59 43 60 57 61 76 62 41 63 42 64 56 66 77 67
REMARK SMILES IDX 44 68 28 69 29 70 37 71 30 72 31 73 35 74 38 75 32 76 33 77
REMARK SMILES IDX 36 78 34 79 60 80 61 81 69 82 62 83 63 84 67 85 70 86 64 87
REMARK SMILES IDX 65 88 68 89 66 90 45 91 46 92 54 93 47 94 48 95 52 96 55 97
REMARK SMILES IDX 49 98 50 99 53 100 51 101
REMARK H PARENT 9 7 87 20 16 35 75 54 43 65
REMARK Flexibility Score: inf
ROOT
ATOM      1  C   UNL A   1      35.397  33.760  28.846  1.00  0.00     0.002 C 
ENDROOT
BRANCH   1   2
ATOM      2  C   UNL A   1      34.380  32.661  29.190  1.00  0.00     0.021 C 
BRANCH   2   3
ATOM      3  C   UNL A   1      33.940  31.865  27.961  1.00  0.00     0.116 C 
BRANCH   3   4
ATOM      4  N   UNL A   1      35.000  30.936  27.615  1.00  0.00    -0.352 N 
ATOM      5  C   UNL A   1      34.981  29.618  27.248  1.00  0.00     0.251 C 
ATOM      6  O   UNL A   1      36.044  28.999  27.229  1.00  0.00    -0.269 OA
ATOM      7  H   UNL A   1      35.902  31.328  27.649  1.00  0.00     0.163 HD
BRANCH   5   8
ATOM      8  C   UNL A   1      33.760  28.985  26.696  1.00  0.00     0.041 A 
ATOM      9  C   UNL A   1      31.647  27.220  26.032  1.00  0.00    -0.028 A 
ATOM     10  C   UNL A   1      31.727  27.851  27.295  1.00  0.00     0.006 A 
ATOM     11  C   UNL A   1      32.559  27.645  25.038  1.00  0.00     0.091 A 
ATOM     12  C   UNL A   1      32.765  28.713  27.625  1.00  0.00     0.014 A 
ATOM     13  C   UNL A   1      33.594  28.553  25.383  1.00  0.00     0.036 A 
BRANCH   9  14
ATOM     14  C   UNL A   1      30.733  26.018  25.972  1.00  0.00     0.033 C 
ATOM     15  C   UNL A   1      31.347  24.692  26.427  1.00  0.00     0.009 C 
ENDBRANCH   9  14
BRANCH  11  16
ATOM     16  S   UNL A   1      32.700  27.091  23.333  1.00  0.00     0.262 S 
ATOM     17  O   UNL A   1      33.630  27.963  22.659  1.00  0.00    -0.201 OA
ATOM     18  O   UNL A   1      32.992  25.669  23.432  1.00  0.00    -0.201 OA
BRANCH  16  19
ATOM     19  N   UNL A   1      31.249  27.151  22.529  1.00  0.00    -0.277 N 
ATOM     20  H   UNL A   1      31.094  26.448  21.857  1.00  0.00     0.180 HD
BRANCH  19  21
ATOM     21  C   UNL A   1      30.202  28.104  22.696  1.00  0.00     0.088 A 
ATOM     22  C   UNL A   1      30.471  29.377  22.160  1.00  0.00     0.033 A 
ATOM     23  C   UNL A   1      28.914  27.821  23.159  1.00  0.00     0.185 A 
ATOM     24  C   UNL A   1      29.441  30.300  21.978  1.00  0.00     0.045 A 
ATOM     25  C   UNL A   1      27.895  28.754  22.998  1.00  0.00     0.196 A 
ATOM     26  F   UNL A   1      28.607  26.626  23.680  1.00  0.00    -0.201 F 
ATOM     27  C   UNL A   1      28.154  29.972  22.383  1.00  0.00     0.162 A 
ATOM     28  F   UNL A   1      26.646  28.451  23.376  1.00  0.00    -0.200 F 
ATOM     29  F   UNL A   1      27.156  30.831  22.138  1.00  0.00    -0.204 F 
ENDBRANCH  19  21
ENDBRANCH  16  19
ENDBRANCH  11  16
ENDBRANCH   5   8
ENDBRANCH   3   4
ENDBRANCH   2   3
ENDBRANCH   1   2
BRANCH   1  30
ATOM     30  C   UNL A   1      34.780  35.022  28.232  1.00  0.00     0.002 C 
BRANCH  30  31
ATOM     31  C   UNL A   1      33.435  35.427  28.836  1.00  0.00     0.021 C 
BRANCH  31  32
ATOM     32  C   UNL A   1      33.532  36.535  29.878  1.00  0.00     0.116 C 
BRANCH  32  33
ATOM     33  N   UNL A   1      32.513  36.394  30.905  1.00  0.00    -0.352 N 
ATOM     34  C   UNL A   1      32.508  35.581  32.008  1.00  0.00     0.251 C 
ATOM     35  H   UNL A   1      31.717  36.962  30.794  1.00  0.00     0.163 HD
ATOM     36  O   UNL A   1      31.478  35.410  32.652  1.00  0.00    -0.269 OA
BRANCH  34  37
ATOM     37  C   UNL A   1      33.752  34.896  32.413  1.00  0.00     0.039 A 
ATOM     38  C   UNL A   1      33.675  33.597  32.917  1.00  0.00     0.014 A 
ATOM     39  C   UNL A   1      34.988  35.543  32.310  1.00  0.00     0.014 A 
ATOM     40  C   UNL A   1      34.845  32.928  33.279  1.00  0.00     0.010 A 
ATOM     41  C   UNL A   1      36.158  34.850  32.603  1.00  0.00     0.010 A 
ATOM     42  C   UNL A   1      36.097  33.541  33.103  1.00  0.00    -0.014 A 
BRANCH  42  43
ATOM     43  C   UNL A   1      37.350  32.827  33.446  1.00  0.00     0.031 A 
ATOM     44  C   UNL A   1      38.073  33.143  34.725  1.00  0.00     0.074 A 
ATOM     45  C   UNL A   1      37.866  31.937  32.577  1.00  0.00     0.049 A 
ATOM     46  N   UNL A   1      39.199  32.656  35.182  1.00  0.00    -0.248 NA
ATOM     47  C   UNL A   1      37.463  34.161  35.595  1.00  0.00     0.031 C 
ATOM     48  C   UNL A   1      37.286  31.593  31.278  1.00  0.00     0.029 A 
ATOM     49  N   UNL A   1      39.000  31.168  32.651  1.00  0.00    -0.354 N 
ATOM     50  C   UNL A   1      39.440  33.320  36.378  1.00  0.00     0.074 A 
ATOM     51  C   UNL A   1      38.372  34.279  36.551  1.00  0.00     0.031 C 
ATOM     52  C   UNL A   1      38.056  30.666  30.686  1.00  0.00     0.029 A 
ATOM     53  C   UNL A   1      39.198  30.376  31.549  1.00  0.00     0.049 A 
ATOM     54  H   UNL A   1      39.612  31.184  33.421  1.00  0.00     0.167 HD
ATOM     55  C   UNL A   1      40.448  33.128  37.260  1.00  0.00     0.037 A 
ATOM     56  C   UNL A   1      40.193  29.513  31.264  1.00  0.00     0.037 A 
ATOM     57  C   UNL A   1      41.493  32.152  37.095  1.00  0.00     0.049 A 
ATOM     58  C   UNL A   1      41.290  29.304  32.271  1.00  0.00     0.074 A 
ATOM     59  C   UNL A   1      42.519  31.827  37.965  1.00  0.00     0.029 A 
ATOM     60  N   UNL A   1      41.647  31.345  35.976  1.00  0.00    -0.354 N 
ATOM     61  N   UNL A   1      41.464  29.877  33.436  1.00  0.00    -0.248 NA
ATOM     62  C   UNL A   1      42.325  28.321  31.925  1.00  0.00     0.031 C 
ATOM     63  C   UNL A   1      43.321  30.858  37.353  1.00  0.00     0.029 A 
ATOM     64  C   UNL A   1      42.766  30.539  36.124  1.00  0.00     0.049 A 
ATOM     65  H   UNL A   1      41.050  31.344  35.193  1.00  0.00     0.167 HD
ATOM     66  C   UNL A   1      42.611  29.309  33.975  1.00  0.00     0.074 A 
ATOM     67  C   UNL A   1      43.080  28.332  33.014  1.00  0.00     0.031 C 
ATOM     68  C   UNL A   1      43.219  29.572  35.157  1.00  0.00     0.037 A 
BRANCH  55  69
ATOM     69  C   UNL A   1      40.469  33.993  38.489  1.00  0.00     0.064 A 
ATOM     70  C   UNL A   1      41.192  35.196  38.532  1.00  0.00     0.173 A 
ATOM     71  C   UNL A   1      39.735  33.630  39.627  1.00  0.00     0.173 A 
ATOM     72  F   UNL A   1      41.920  35.584  37.474  1.00  0.00    -0.203 F 
ATOM     73  C   UNL A   1      41.204  35.985  39.679  1.00  0.00     0.198 A 
ATOM     74  C   UNL A   1      39.724  34.437  40.762  1.00  0.00     0.198 A 
ATOM     75  F   UNL A   1      39.021  32.493  39.638  1.00  0.00    -0.203 F 
ATOM     76  F   UNL A   1      41.943  37.102  39.714  1.00  0.00    -0.200 F 
ATOM     77  C   UNL A   1      40.465  35.608  40.791  1.00  0.00     0.200 A 
ATOM     78  F   UNL A   1      38.998  34.079  41.829  1.00  0.00    -0.200 F 
ATOM     79  F   UNL A   1      40.473  36.372  41.892  1.00  0.00    -0.200 F 
ENDBRANCH  55  69
BRANCH  56  80
ATOM     80  C   UNL A   1      40.174  28.762  29.982  1.00  0.00     0.064 A 
ATOM     81  C   UNL A   1      39.539  27.516  29.887  1.00  0.00     0.173 A 
ATOM     82  C   UNL A   1      40.780  29.277  28.827  1.00  0.00     0.173 A 
ATOM     83  F   UNL A   1      38.962  26.974  30.970  1.00  0.00    -0.203 F 
ATOM     84  C   UNL A   1      39.527  26.804  28.690  1.00  0.00     0.198 A 
ATOM     85  C   UNL A   1      40.744  28.576  27.623  1.00  0.00     0.198 A 
ATOM     86  F   UNL A   1      41.395  30.467  28.864  1.00  0.00    -0.203 F 
ATOM     87  F   UNL A   1      38.950  25.596  28.637  1.00  0.00    -0.200 F 
ATOM     88  C   UNL A   1      40.124  27.337  27.557  1.00  0.00     0.200 A 
ATOM     89  F   UNL A   1      41.309  29.101  26.528  1.00  0.00    -0.200 F 
ATOM     90  F   UNL A   1      40.108  26.655  26.405  1.00  0.00    -0.200 F 
ENDBRANCH  56  80
BRANCH  68  91
ATOM     91  C   UNL A   1      44.446  28.773  35.489  1.00  0.00     0.064 A 
ATOM     92  C   UNL A   1      45.730  29.213  35.133  1.00  0.00     0.173 A 
ATOM     93  C   UNL A   1      44.337  27.567  36.197  1.00  0.00     0.173 A 
ATOM     94  F   UNL A   1      45.885  30.353  34.440  1.00  0.00    -0.203 F 
ATOM     95  C   UNL A   1      46.857  28.461  35.449  1.00  0.00     0.198 A 
ATOM     96  C   UNL A   1      45.469  26.833  36.540  1.00  0.00     0.198 A 
ATOM     97  F   UNL A   1      43.134  27.106  36.567  1.00  0.00    -0.203 F 
ATOM     98  F   UNL A   1      48.069  28.874  35.054  1.00  0.00    -0.200 F 
ATOM     99  C   UNL A   1      46.727  27.276  36.158  1.00  0.00     0.200 A 
ATOM    100  F   UNL A   1      45.343  25.695  37.236  1.00  0.00    -0.200 F 
ATOM    101  F   UNL A   1      47.814  26.555  36.465  1.00  0.00    -0.200 F 
ENDBRANCH  68  91
ENDBRANCH  42  43
ENDBRANCH  34  37
ENDBRANCH  32  33
ENDBRANCH  31  32
ENDBRANCH  30  31
ENDBRANCH   1  30
TORSDOF 17
ENDMDL
MODEL 2
REMARK VINA RESULT:     -12.2      6.343     10.880
REMARK SMILES CCc1ccc(C(=O)NCCCCCCNC(=O)c2ccc(-c3c4nc(c(-c5c(F)c(F)c(F)c(F)c5F)c5ccc([nH]5)c(-c5c(F)c(F)c(F)c(F)c5F)c5nc(c(-c6c(F)c(F)c(F)c(F)c6F)c6ccc3[nH]6)C=C5)C=C4)cc2)cc1S(=O)(=O)Nc1ccc(F)c(F)c1F
REMARK SMILES IDX 12 1 11 2 10 3 9 4 7 5 8 6 6 8 3 9 4 10 83 11 5 12 82 13
REMARK SMILES IDX 2 14 1 15 84 16 85 17 86 18 87 19 88 21 89 22 95 23 90 24
REMARK SMILES IDX 93 25 96 26 91 27 94 28 92 29 13 30 14 31 15 32 16 33 17 34
REMARK SMILES IDX 18 36 19 37 20 38 81 39 21 40 80 41 22 42 23 43 24 44 74 45
REMARK SMILES IDX 25 46 79 47 73 48 75 49 26 50 78 51 72 52 71 53 27 55 59 56
REMARK SMILES IDX 39 57 58 58 40 59 43 60 57 61 76 62 41 63 42 64 56 66 77 67
REMARK SMILES IDX 44 68 28 69 29 70 37 71 30 72 31 73 35 74 38 75 32 76 33 77
REMARK SMILES IDX 36 78 34 79 60 80 61 81 69 82 62 83 63 84 67 85 70 86 64 87
REMARK SMILES IDX 65 88 68 89 66 90 45 91 46 92 54 93 47 94 48 95 52 96 55 97
REMARK SMILES IDX 49 98 50 99 53 100 51 101
REMARK H PARENT 9 7 87 20 16 35 75 54 43 65
REMARK Flexibility Score: inf
ROOT
ATOM      1  C   UNL A   1      36.027  20.855  24.978  1.00  0.00     0.002 C 
ENDROOT
BRANCH   1   2
ATOM      2  C   UNL A   1      35.523  21.937  25.945  1.00  0.00     0.021 C 
BRANCH   2   3
ATOM      3  C   UNL A   1      34.432  21.422  26.884  1.00  0.00     0.116 C 
BRANCH   3   4
ATOM      4  N   UNL A   1      33.812  20.262  26.270  1.00  0.00    -0.352 N 
ATOM      5  C   UNL A   1      32.637  20.104  25.587  1.00  0.00     0.251 C 
ATOM      6  O   UNL A   1      32.235  18.963  25.366  1.00  0.00    -0.269 OA
ATOM      7  H   UNL A   1      34.335  19.434  26.360  1.00  0.00     0.163 HD
BRANCH   5   8
ATOM      8  C   UNL A   1      31.952  21.253  24.950  1.00  0.00     0.041 A 
ATOM      9  C   UNL A   1      31.314  23.672  23.622  1.00  0.00    -0.028 A 
ATOM     10  C   UNL A   1      31.809  22.544  22.927  1.00  0.00     0.006 A 
ATOM     11  C   UNL A   1      30.967  23.493  24.981  1.00  0.00     0.091 A 
ATOM     12  C   UNL A   1      32.128  21.359  23.577  1.00  0.00     0.014 A 
ATOM     13  C   UNL A   1      31.268  22.263  25.622  1.00  0.00     0.036 A 
BRANCH   9  14
ATOM     14  C   UNL A   1      31.418  24.982  22.875  1.00  0.00     0.033 C 
ATOM     15  C   UNL A   1      32.621  25.120  21.940  1.00  0.00     0.009 C 
ENDBRANCH   9  14
BRANCH  11  16
ATOM     16  S   UNL A   1      30.275  24.690  26.130  1.00  0.00     0.262 S 
ATOM     17  O   UNL A   1      29.376  25.544  25.394  1.00  0.00    -0.201 OA
ATOM     18  O   UNL A   1      29.763  23.889  27.231  1.00  0.00    -0.201 OA
BRANCH  16  19
ATOM     19  N   UNL A   1      31.443  25.640  26.831  1.00  0.00    -0.277 N 
ATOM     20  H   UNL A   1      31.528  25.575  27.810  1.00  0.00     0.180 HD
BRANCH  19  21
ATOM     21  C   UNL A   1      32.336  26.540  26.180  1.00  0.00     0.088 A 
ATOM     22  C   UNL A   1      33.489  25.940  25.641  1.00  0.00     0.033 A 
ATOM     23  C   UNL A   1      32.065  27.879  25.881  1.00  0.00     0.185 A 
ATOM     24  C   UNL A   1      34.285  26.631  24.726  1.00  0.00     0.045 A 
ATOM     25  C   UNL A   1      32.874  28.571  24.987  1.00  0.00     0.196 A 
ATOM     26  F   UNL A   1      30.982  28.496  26.370  1.00  0.00    -0.201 F 
ATOM     27  C   UNL A   1      33.957  27.938  24.391  1.00  0.00     0.162 A 
ATOM     28  F   UNL A   1      32.569  29.831  24.648  1.00  0.00    -0.200 F 
ATOM     29  F   UNL A   1      34.679  28.570  23.456  1.00  0.00    -0.204 F 
ENDBRANCH  19  21
ENDBRANCH  16  19
ENDBRANCH  11  16
ENDBRANCH   5   8
ENDBRANCH   3   4
ENDBRANCH   2   3
ENDBRANCH   1   2
BRANCH   1  30
ATOM     30  C   UNL A   1      37.513  20.971  24.618  1.00  0.00     0.002 C 
BRANCH  30  31
ATOM     31  C   UNL A   1      38.348  19.737  24.967  1.00  0.00     0.021 C 
BRANCH  31  32
ATOM     32  C   UNL A   1      39.346  19.965  26.096  1.00  0.00     0.116 C 
BRANCH  32  33
ATOM     33  N   UNL A   1      40.438  19.005  26.045  1.00  0.00    -0.352 N 
ATOM     34  C   UNL A   1      41.788  19.238  26.032  1.00  0.00     0.251 C 
ATOM     35  H   UNL A   1      40.170  18.059  26.018  1.00  0.00     0.163 HD
ATOM     36  O   UNL A   1      42.573  18.336  25.756  1.00  0.00    -0.269 OA
BRANCH  34  37
ATOM     37  C   UNL A   1      42.297  20.589  26.339  1.00  0.00     0.039 A 
ATOM     38  C   UNL A   1      42.613  21.448  25.285  1.00  0.00     0.014 A 
ATOM     39  C   UNL A   1      42.477  20.999  27.664  1.00  0.00     0.014 A 
ATOM     40  C   UNL A   1      43.069  22.738  25.560  1.00  0.00     0.010 A 
ATOM     41  C   UNL A   1      42.865  22.307  27.937  1.00  0.00     0.010 A 
ATOM     42  C   UNL A   1      43.177  23.184  26.888  1.00  0.00    -0.014 A 
BRANCH  42  43
ATOM     43  C   UNL A   1      43.623  24.565  27.194  1.00  0.00     0.031 A 
ATOM     44  C   UNL A   1      42.646  25.573  27.730  1.00  0.00     0.074 A 
ATOM     45  C   UNL A   1      44.894  24.924  26.933  1.00  0.00     0.049 A 
ATOM     46  N   UNL A   1      42.835  26.835  28.020  1.00  0.00    -0.248 NA
ATOM     47  C   UNL A   1      41.266  25.108  27.942  1.00  0.00     0.031 C 
ATOM     48  C   UNL A   1      45.916  24.050  26.356  1.00  0.00     0.029 A 
ATOM     49  N   UNL A   1      45.540  26.121  27.109  1.00  0.00    -0.354 N 
ATOM     50  C   UNL A   1      41.599  27.317  28.431  1.00  0.00     0.074 A 
ATOM     51  C   UNL A   1      40.657  26.227  28.303  1.00  0.00     0.031 C 
ATOM     52  C   UNL A   1      47.066  24.734  26.245  1.00  0.00     0.029 A 
ATOM     53  C   UNL A   1      46.854  26.100  26.713  1.00  0.00     0.049 A 
ATOM     54  H   UNL A   1      45.102  26.920  27.483  1.00  0.00     0.167 HD
ATOM     55  C   UNL A   1      41.285  28.550  28.894  1.00  0.00     0.037 A 
ATOM     56  C   UNL A   1      47.782  27.076  26.722  1.00  0.00     0.037 A 
ATOM     57  C   UNL A   1      42.234  29.622  29.045  1.00  0.00     0.049 A 
ATOM     58  C   UNL A   1      47.413  28.431  27.260  1.00  0.00     0.074 A 
ATOM     59  C   UNL A   1      42.035  30.885  29.573  1.00  0.00     0.029 A 
ATOM     60  N   UNL A   1      43.566  29.556  28.659  1.00  0.00    -0.354 N 
ATOM     61  N   UNL A   1      46.262  28.852  27.723  1.00  0.00    -0.248 NA
ATOM     62  C   UNL A   1      48.477  29.444  27.286  1.00  0.00     0.031 C 
ATOM     63  C   UNL A   1      43.233  31.599  29.464  1.00  0.00     0.029 A 
ATOM     64  C   UNL A   1      44.194  30.765  28.916  1.00  0.00     0.049 A 
ATOM     65  H   UNL A   1      44.000  28.767  28.261  1.00  0.00     0.167 HD
ATOM     66  C   UNL A   1      46.466  30.168  28.118  1.00  0.00     0.074 A 
ATOM     67  C   UNL A   1      47.858  30.468  27.856  1.00  0.00     0.031 C 
ATOM     68  C   UNL A   1      45.581  31.047  28.648  1.00  0.00     0.037 A 
BRANCH  55  69
ATOM     69  C   UNL A   1      39.854  28.806  29.273  1.00  0.00     0.064 A 
ATOM     70  C   UNL A   1      38.920  29.289  28.343  1.00  0.00     0.173 A 
ATOM     71  C   UNL A   1      39.405  28.538  30.575  1.00  0.00     0.173 A 
ATOM     72  F   UNL A   1      39.300  29.572  27.089  1.00  0.00    -0.203 F 
ATOM     73  C   UNL A   1      37.597  29.524  28.712  1.00  0.00     0.198 A 
ATOM     74  C   UNL A   1      38.075  28.745  30.931  1.00  0.00     0.198 A 
ATOM     75  F   UNL A   1      40.254  28.070  31.501  1.00  0.00    -0.203 F 
ATOM     76  F   UNL A   1      36.737  30.035  27.820  1.00  0.00    -0.200 F 
ATOM     77  C   UNL A   1      37.174  29.246  30.003  1.00  0.00     0.200 A 
ATOM     78  F   UNL A   1      37.664  28.462  32.174  1.00  0.00    -0.200 F 
ATOM     79  F   UNL A   1      35.900  29.467  30.354  1.00  0.00    -0.200 F 
ENDBRANCH  55  69
BRANCH  56  80
ATOM     80  C   UNL A   1      49.156  26.793  26.234  1.00  0.00     0.064 A 
ATOM     81  C   UNL A   1      49.515  27.050  24.904  1.00  0.00     0.173 A 
ATOM     82  C   UNL A   1      50.138  26.269  27.088  1.00  0.00     0.173 A 
ATOM     83  F   UNL A   1      48.605  27.533  24.046  1.00  0.00    -0.203 F 
ATOM     84  C   UNL A   1      50.801  26.777  24.441  1.00  0.00     0.198 A 
ATOM     85  C   UNL A   1      51.431  26.022  26.630  1.00  0.00     0.198 A 
ATOM     86  F   UNL A   1      49.846  26.011  28.370  1.00  0.00    -0.203 F 
ATOM     87  F   UNL A   1      51.106  26.992  23.154  1.00  0.00    -0.200 F 
ATOM     88  C   UNL A   1      51.759  26.269  25.305  1.00  0.00     0.200 A 
ATOM     89  F   UNL A   1      52.358  25.546  27.471  1.00  0.00    -0.200 F 
ATOM     90  F   UNL A   1      52.996  26.012  24.860  1.00  0.00    -0.200 F 
ENDBRANCH  56  80
BRANCH  68  91
ATOM     91  C   UNL A   1      46.099  32.410  29.005  1.00  0.00     0.064 A 
ATOM     92  C   UNL A   1      46.653  32.681  30.265  1.00  0.00     0.173 A 
ATOM     93  C   UNL A   1      46.069  33.449  28.063  1.00  0.00     0.173 A 
ATOM     94  F   UNL A   1      46.691  31.724  31.206  1.00  0.00    -0.203 F 
ATOM     95  C   UNL A   1      47.131  33.950  30.579  1.00  0.00     0.198 A 
ATOM     96  C   UNL A   1      46.576  34.709  28.369  1.00  0.00     0.198 A 
ATOM     97  F   UNL A   1      45.556  33.240  26.841  1.00  0.00    -0.203 F 
ATOM     98  F   UNL A   1      47.607  34.200  31.805  1.00  0.00    -0.200 F 
ATOM     99  C   UNL A   1      47.099  34.961  29.629  1.00  0.00     0.200 A 
ATOM    100  F   UNL A   1      46.556  35.680  27.447  1.00  0.00    -0.200 F 
ATOM    101  F   UNL A   1      47.562  36.181  29.932  1.00  0.00    -0.200 F 
ENDBRANCH  68  91
ENDBRANCH  42  43
ENDBRANCH  34  37
ENDBRANCH  32  33
ENDBRANCH  31  32
ENDBRANCH  30  31
ENDBRANCH   1  30
TORSDOF 17
ENDMDL
MODEL 3
REMARK VINA RESULT:     -12.1      7.239     12.652
REMARK SMILES CCc1ccc(C(=O)NCCCCCCNC(=O)c2ccc(-c3c4nc(c(-c5c(F)c(F)c(F)c(F)c5F)c5ccc([nH]5)c(-c5c(F)c(F)c(F)c(F)c5F)c5nc(c(-c6c(F)c(F)c(F)c(F)c6F)c6ccc3[nH]6)C=C5)C=C4)cc2)cc1S(=O)(=O)Nc1ccc(F)c(F)c1F
REMARK SMILES IDX 12 1 11 2 10 3 9 4 7 5 8 6 6 8 3 9 4 10 83 11 5 12 82 13
REMARK SMILES IDX 2 14 1 15 84 16 85 17 86 18 87 19 88 21 89 22 95 23 90 24
REMARK SMILES IDX 93 25 96 26 91 27 94 28 92 29 13 30 14 31 15 32 16 33 17 34
REMARK SMILES IDX 18 36 19 37 20 38 81 39 21 40 80 41 22 42 23 43 24 44 74 45
REMARK SMILES IDX 25 46 79 47 73 48 75 49 26 50 78 51 72 52 71 53 27 55 59 56
REMARK SMILES IDX 39 57 58 58 40 59 43 60 57 61 76 62 41 63 42 64 56 66 77 67
REMARK SMILES IDX 44 68 28 69 29 70 37 71 30 72 31 73 35 74 38 75 32 76 33 77
REMARK SMILES IDX 36 78 34 79 60 80 61 81 69 82 62 83 63 84 67 85 70 86 64 87
REMARK SMILES IDX 65 88 68 89 66 90 45 91 46 92 54 93 47 94 48 95 52 96 55 97
REMARK SMILES IDX 49 98 50 99 53 100 51 101
REMARK H PARENT 9 7 87 20 16 35 75 54 43 65
REMARK Flexibility Score: inf
ROOT
ATOM      1  C   UNL A   1      41.925  21.329  27.247  1.00  0.00     0.002 C 
ENDROOT
BRANCH   1   2
ATOM      2  C   UNL A   1      41.157  21.806  26.004  1.00  0.00     0.021 C 
BRANCH   2   3
ATOM      3  C   UNL A   1      39.644  21.656  26.157  1.00  0.00     0.116 C 
BRANCH   3   4
ATOM      4  N   UNL A   1      39.119  22.881  26.730  1.00  0.00    -0.352 N 
ATOM      5  C   UNL A   1      38.056  23.673  26.388  1.00  0.00     0.251 C 
ATOM      6  O   UNL A   1      37.963  24.786  26.902  1.00  0.00    -0.269 OA
ATOM      7  H   UNL A   1      39.621  23.205  27.512  1.00  0.00     0.163 HD
BRANCH   5   8
ATOM      8  C   UNL A   1      36.932  23.149  25.577  1.00  0.00     0.041 A 
ATOM      9  C   UNL A   1      34.745  22.829  23.805  1.00  0.00    -0.028 A 
ATOM     10  C   UNL A   1      36.071  22.985  23.338  1.00  0.00     0.006 A 
ATOM     11  C   UNL A   1      34.567  22.649  25.197  1.00  0.00     0.091 A 
ATOM     12  C   UNL A   1      37.144  23.148  24.205  1.00  0.00     0.014 A 
ATOM     13  C   UNL A   1      35.680  22.785  26.066  1.00  0.00     0.036 A 
BRANCH   9  14
ATOM     14  C   UNL A   1      33.669  23.087  22.777  1.00  0.00     0.033 C 
ATOM     15  C   UNL A   1      33.305  24.556  22.550  1.00  0.00     0.009 C 
ENDBRANCH   9  14
BRANCH  11  16
ATOM     16  S   UNL A   1      33.040  22.381  26.107  1.00  0.00     0.262 S 
ATOM     17  O   UNL A   1      33.386  21.987  27.450  1.00  0.00    -0.201 OA
ATOM     18  O   UNL A   1      32.266  23.595  25.893  1.00  0.00    -0.201 OA
BRANCH  16  19
ATOM     19  N   UNL A   1      32.106  21.183  25.435  1.00  0.00    -0.277 N 
ATOM     20  H   UNL A   1      31.131  21.309  25.489  1.00  0.00     0.180 HD
BRANCH  19  21
ATOM     21  C   UNL A   1      32.553  19.995  24.789  1.00  0.00     0.088 A 
ATOM     22  C   UNL A   1      33.077  19.015  25.653  1.00  0.00     0.033 A 
ATOM     23  C   UNL A   1      32.338  19.670  23.446  1.00  0.00     0.185 A 
ATOM     24  C   UNL A   1      33.263  17.705  25.209  1.00  0.00     0.045 A 
ATOM     25  C   UNL A   1      32.548  18.369  23.001  1.00  0.00     0.196 A 
ATOM     26  F   UNL A   1      31.843  20.566  22.584  1.00  0.00    -0.201 F 
ATOM     27  C   UNL A   1      32.977  17.389  23.887  1.00  0.00     0.162 A 
ATOM     28  F   UNL A   1      32.271  18.044  21.732  1.00  0.00    -0.200 F 
ATOM     29  F   UNL A   1      33.085  16.116  23.485  1.00  0.00    -0.204 F 
ENDBRANCH  19  21
ENDBRANCH  16  19
ENDBRANCH  11  16
ENDBRANCH   5   8
ENDBRANCH   3   4
ENDBRANCH   2   3
ENDBRANCH   1   2
BRANCH   1  30
ATOM     30  C   UNL A   1      41.857  19.817  27.490  1.00  0.00     0.002 C 
BRANCH  30  31
ATOM     31  C   UNL A   1      42.284  18.964  26.295  1.00  0.00     0.021 C 
BRANCH  31  32
ATOM     32  C   UNL A   1      43.790  18.753  26.190  1.00  0.00     0.116 C 
BRANCH  32  33
ATOM     33  N   UNL A   1      44.216  18.622  24.806  1.00  0.00    -0.352 N 
ATOM     34  C   UNL A   1      44.585  19.602  23.922  1.00  0.00     0.251 C 
ATOM     35  H   UNL A   1      44.245  17.703  24.455  1.00  0.00     0.163 HD
ATOM     36  O   UNL A   1      44.697  19.352  22.726  1.00  0.00    -0.269 OA
BRANCH  34  37
ATOM     37  C   UNL A   1      44.836  20.971  24.416  1.00  0.00     0.039 A 
ATOM     38  C   UNL A   1      44.421  22.056  23.640  1.00  0.00     0.014 A 
ATOM     39  C   UNL A   1      45.492  21.181  25.632  1.00  0.00     0.014 A 
ATOM     40  C   UNL A   1      44.627  23.354  24.107  1.00  0.00     0.010 A 
ATOM     41  C   UNL A   1      45.633  22.473  26.129  1.00  0.00     0.010 A 
ATOM     42  C   UNL A   1      45.214  23.572  25.365  1.00  0.00    -0.014 A 
BRANCH  42  43
ATOM     43  C   UNL A   1      45.403  24.946  25.890  1.00  0.00     0.031 A 
ATOM     44  C   UNL A   1      46.763  25.583  25.864  1.00  0.00     0.074 A 
ATOM     45  C   UNL A   1      44.360  25.594  26.442  1.00  0.00     0.049 A 
ATOM     46  N   UNL A   1      47.137  26.756  26.310  1.00  0.00    -0.248 NA
ATOM     47  C   UNL A   1      47.856  24.786  25.284  1.00  0.00     0.031 C 
ATOM     48  C   UNL A   1      43.007  25.054  26.579  1.00  0.00     0.029 A 
ATOM     49  N   UNL A   1      44.278  26.844  27.002  1.00  0.00    -0.354 N 
ATOM     50  C   UNL A   1      48.505  26.829  26.081  1.00  0.00     0.074 A 
ATOM     51  C   UNL A   1      48.905  25.564  25.505  1.00  0.00     0.031 C 
ATOM     52  C   UNL A   1      42.224  25.974  27.163  1.00  0.00     0.029 A 
ATOM     53  C   UNL A   1      43.027  27.154  27.471  1.00  0.00     0.049 A 
ATOM     54  H   UNL A   1      45.045  27.460  27.061  1.00  0.00     0.167 HD
ATOM     55  C   UNL A   1      49.344  27.866  26.310  1.00  0.00     0.037 A 
ATOM     56  C   UNL A   1      42.578  28.266  28.085  1.00  0.00     0.037 A 
ATOM     57  C   UNL A   1      48.934  29.132  26.859  1.00  0.00     0.049 A 
ATOM     58  C   UNL A   1      43.527  29.411  28.309  1.00  0.00     0.074 A 
ATOM     59  C   UNL A   1      49.691  30.272  27.062  1.00  0.00     0.029 A 
ATOM     60  N   UNL A   1      47.649  29.421  27.298  1.00  0.00    -0.354 N 
ATOM     61  N   UNL A   1      44.800  29.501  28.014  1.00  0.00    -0.248 NA
ATOM     62  C   UNL A   1      42.972  30.614  28.944  1.00  0.00     0.031 C 
ATOM     63  C   UNL A   1      48.877  31.236  27.666  1.00  0.00     0.029 A 
ATOM     64  C   UNL A   1      47.599  30.716  27.793  1.00  0.00     0.049 A 
ATOM     65  H   UNL A   1      46.887  28.800  27.263  1.00  0.00     0.167 HD
ATOM     66  C   UNL A   1      45.194  30.774  28.403  1.00  0.00     0.074 A 
ATOM     67  C   UNL A   1      44.019  31.428  28.939  1.00  0.00     0.031 C 
ATOM     68  C   UNL A   1      46.419  31.350  28.324  1.00  0.00     0.037 A 
BRANCH  55  69
ATOM     69  C   UNL A   1      50.794  27.674  25.967  1.00  0.00     0.064 A 
ATOM     70  C   UNL A   1      51.736  27.282  26.932  1.00  0.00     0.173 A 
ATOM     71  C   UNL A   1      51.243  27.856  24.650  1.00  0.00     0.173 A 
ATOM     72  F   UNL A   1      51.361  27.105  28.207  1.00  0.00    -0.203 F 
ATOM     73  C   UNL A   1      53.077  27.112  26.597  1.00  0.00     0.198 A 
ATOM     74  C   UNL A   1      52.579  27.655  24.313  1.00  0.00     0.198 A 
ATOM     75  F   UNL A   1      50.384  28.225  23.687  1.00  0.00    -0.203 F 
ATOM     76  F   UNL A   1      53.966  26.789  27.547  1.00  0.00    -0.200 F 
ATOM     77  C   UNL A   1      53.496  27.292  25.288  1.00  0.00     0.200 A 
ATOM     78  F   UNL A   1      52.980  27.814  23.045  1.00  0.00    -0.200 F 
ATOM     79  F   UNL A   1      54.786  27.122  24.966  1.00  0.00    -0.200 F 
ENDBRANCH  55  69
BRANCH  56  80
ATOM     80  C   UNL A   1      41.154  28.357  28.499  1.00  0.00     0.064 A 
ATOM     81  C   UNL A   1      40.746  27.932  29.770  1.00  0.00     0.173 A 
ATOM     82  C   UNL A   1      40.177  28.879  27.639  1.00  0.00     0.173 A 
ATOM     83  F   UNL A   1      41.641  27.409  30.621  1.00  0.00    -0.203 F 
ATOM     84  C   UNL A   1      39.410  28.008  30.159  1.00  0.00     0.198 A 
ATOM     85  C   UNL A   1      38.846  28.978  28.039  1.00  0.00     0.198 A 
ATOM     86  F   UNL A   1      40.518  29.305  26.414  1.00  0.00    -0.203 F 
ATOM     87  F   UNL A   1      39.039  27.554  31.365  1.00  0.00    -0.200 F 
ATOM     88  C   UNL A   1      38.462  28.536  29.295  1.00  0.00     0.200 A 
ATOM     89  F   UNL A   1      37.936  29.504  27.207  1.00  0.00    -0.200 F 
ATOM     90  F   UNL A   1      37.179  28.613  29.672  1.00  0.00    -0.200 F 
ENDBRANCH  56  80
BRANCH  68  91
ATOM     91  C   UNL A   1      46.543  32.766  28.805  1.00  0.00     0.064 A 
ATOM     92  C   UNL A   1      46.320  33.857  27.950  1.00  0.00     0.173 A 
ATOM     93  C   UNL A   1      46.859  33.035  30.145  1.00  0.00     0.173 A 
ATOM     94  F   UNL A   1      46.030  33.651  26.656  1.00  0.00    -0.203 F 
ATOM     95  C   UNL A   1      46.437  35.164  28.413  1.00  0.00     0.198 A 
ATOM     96  C   UNL A   1      46.945  34.344  30.612  1.00  0.00     0.198 A 
ATOM     97  F   UNL A   1      47.075  32.029  31.004  1.00  0.00    -0.203 F 
ATOM     98  F   UNL A   1      46.272  36.190  27.567  1.00  0.00    -0.200 F 
ATOM     99  C   UNL A   1      46.742  35.407  29.744  1.00  0.00     0.200 A 
ATOM    100  F   UNL A   1      47.226  34.577  31.901  1.00  0.00    -0.200 F 
ATOM    101  F   UNL A   1      46.851  36.666  30.189  1.00  0.00    -0.200 F 
ENDBRANCH  68  91
ENDBRANCH  42  43
ENDBRANCH  34  37
ENDBRANCH  32  33
ENDBRANCH  31  32
ENDBRANCH  30  31
ENDBRANCH   1  30
TORSDOF 17
ENDMDL
