MODEL 1
REMARK VINA RESULT:     -11.5      0.000      0.000
REMARK SMILES [NH3+][C@@]1(C(=O)NCCCCCCNC(=O)c2ccc(-c3c4nc(c(-c5c(F)c(F)c(F)c(F)c5F)c5ccc([nH]5)c(-c5c(F)c(F)c(F)c(F)c5F)c5nc(c(-c6c(F)c(F)c(F)c(F)c6F)c6ccc3[nH]6)C=C5)C=C4)cc2)CCC[C@@H](Oc2ccccc2[N+](=O)[O-])C1
REMARK SMILES IDX 8 1 7 2 6 3 5 4 3 5 4 6 2 8 78 9 92 10 79 11 81 12 80 13
REMARK SMILES IDX 1 14 82 18 83 19 84 20 88 21 85 22 87 23 86 24 89 25 90 26
REMARK SMILES IDX 91 27 9 28 10 29 11 30 12 31 13 32 14 34 15 35 16 36 77 37
REMARK SMILES IDX 17 38 76 39 18 40 19 41 20 42 70 43 21 44 75 45 69 46 71 47
REMARK SMILES IDX 22 48 74 49 68 50 67 51 23 53 55 54 35 55 54 56 36 57 39 58
REMARK SMILES IDX 53 59 72 60 37 61 38 62 52 64 73 65 40 66 24 67 25 68 33 69
REMARK SMILES IDX 26 70 27 71 31 72 34 73 28 74 29 75 32 76 30 77 56 78 57 79
REMARK SMILES IDX 65 80 58 81 59 82 63 83 66 84 60 85 61 86 64 87 62 88 41 89
REMARK SMILES IDX 42 90 50 91 43 92 44 93 48 94 51 95 45 96 46 97 49 98 47 99
REMARK H PARENT 5 7 1 15 1 16 1 17 12 33 71 52 39 63
REMARK Flexibility Score: inf
ROOT
ATOM      1  C   UNL A   1      34.354  25.404  25.125  1.00  0.00     0.002 C 
ENDROOT
BRANCH   1   2
ATOM      2  C   UNL A   1      34.119  26.804  25.705  1.00  0.00     0.021 C 
BRANCH   2   3
ATOM      3  C   UNL A   1      32.828  26.922  26.526  1.00  0.00     0.116 C 
BRANCH   3   4
ATOM      4  N   UNL A   1      32.494  28.301  26.831  1.00  0.00    -0.351 N 
ATOM      5  C   UNL A   1      31.967  29.313  26.082  1.00  0.00     0.281 C 
ATOM      6  O   UNL A   1      31.804  30.387  26.672  1.00  0.00    -0.268 OA
ATOM      7  H   UNL A   1      32.685  28.557  27.763  1.00  0.00     0.163 HD
BRANCH   5   8
ATOM      8  C   UNL A   1      31.469  29.126  24.602  1.00  0.00     0.177 C 
ATOM      9  C   UNL A   1      30.364  30.171  24.317  1.00  0.00     0.079 C 
ATOM     10  C   UNL A   1      30.848  27.713  24.496  1.00  0.00     0.124 C 
ATOM     11  C   UNL A   1      29.695  29.988  22.956  1.00  0.00     0.011 C 
ATOM     12  C   UNL A   1      29.924  27.428  23.294  1.00  0.00     0.180 C 
ATOM     13  C   UNL A   1      29.071  28.606  22.797  1.00  0.00     0.046 C 
BRANCH   8  14
ATOM     14  N   UNL A   1      32.572  29.387  23.658  1.00  0.00    -0.345 N 
ATOM     15  H   UNL A   1      33.398  29.688  24.175  1.00  0.00     0.345 HD
ATOM     16  H   UNL A   1      32.294  30.118  23.003  1.00  0.00     0.345 HD
ATOM     17  H   UNL A   1      32.786  28.533  23.142  1.00  0.00     0.345 HD
ENDBRANCH   8  14
BRANCH  12  18
ATOM     18  O   UNL A   1      30.470  26.612  22.232  1.00  0.00    -0.483 OA
BRANCH  18  19
ATOM     19  C   UNL A   1      31.072  25.444  22.577  1.00  0.00     0.197 A 
ATOM     20  C   UNL A   1      30.439  24.603  23.493  1.00  0.00     0.054 A 
ATOM     21  C   UNL A   1      32.343  25.092  22.110  1.00  0.00     0.310 A 
ATOM     22  C   UNL A   1      31.001  23.367  23.822  1.00  0.00     0.004 A 
ATOM     23  C   UNL A   1      32.905  23.843  22.415  1.00  0.00     0.090 A 
ATOM     24  C   UNL A   1      32.217  22.974  23.261  1.00  0.00     0.007 A 
BRANCH  21  25
ATOM     25  N   UNL A   1      33.101  25.987  21.250  1.00  0.00     0.066 N 
ATOM     26  O   UNL A   1      33.102  25.722  20.037  1.00  0.00    -0.258 OA
ATOM     27  O   UNL A   1      33.711  26.927  21.772  1.00  0.00    -0.258 OA
ENDBRANCH  21  25
ENDBRANCH  18  19
ENDBRANCH  12  18
ENDBRANCH   5   8
ENDBRANCH   3   4
ENDBRANCH   2   3
ENDBRANCH   1   2
BRANCH   1  28
ATOM     28  C   UNL A   1      34.162  24.248  26.116  1.00  0.00     0.002 C 
BRANCH  28  29
ATOM     29  C   UNL A   1      35.277  23.197  26.138  1.00  0.00     0.021 C 
BRANCH  29  30
ATOM     30  C   UNL A   1      36.632  23.664  25.607  1.00  0.00     0.116 C 
BRANCH  30  31
ATOM     31  N   UNL A   1      37.695  22.712  25.886  1.00  0.00    -0.352 N 
ATOM     32  C   UNL A   1      38.962  22.892  26.367  1.00  0.00     0.251 C 
ATOM     33  H   UNL A   1      37.462  21.775  25.695  1.00  0.00     0.163 HD
ATOM     34  O   UNL A   1      39.755  21.947  26.338  1.00  0.00    -0.269 OA
BRANCH  32  35
ATOM     35  C   UNL A   1      39.410  24.190  26.918  1.00  0.00     0.039 A 
ATOM     36  C   UNL A   1      39.148  24.463  28.265  1.00  0.00     0.014 A 
ATOM     37  C   UNL A   1      40.010  25.168  26.118  1.00  0.00     0.014 A 
ATOM     38  C   UNL A   1      39.521  25.690  28.815  1.00  0.00     0.010 A 
ATOM     39  C   UNL A   1      40.443  26.368  26.684  1.00  0.00     0.010 A 
ATOM     40  C   UNL A   1      40.194  26.645  28.036  1.00  0.00    -0.014 A 
BRANCH  40  41
ATOM     41  C   UNL A   1      40.647  27.921  28.647  1.00  0.00     0.031 A 
ATOM     42  C   UNL A   1      42.095  28.143  28.989  1.00  0.00     0.074 A 
ATOM     43  C   UNL A   1      39.740  28.881  28.907  1.00  0.00     0.049 A 
ATOM     44  N   UNL A   1      42.673  29.211  29.481  1.00  0.00    -0.248 NA
ATOM     45  C   UNL A   1      43.010  27.013  28.773  1.00  0.00     0.031 C 
ATOM     46  C   UNL A   1      38.298  28.761  28.677  1.00  0.00     0.029 A 
ATOM     47  N   UNL A   1      39.891  30.148  29.412  1.00  0.00    -0.354 N 
ATOM     48  C   UNL A   1      44.013  28.881  29.634  1.00  0.00     0.074 A 
ATOM     49  C   UNL A   1      44.153  27.496  29.238  1.00  0.00     0.031 C 
ATOM     50  C   UNL A   1      37.703  29.918  29.003  1.00  0.00     0.029 A 
ATOM     51  C   UNL A   1      38.715  30.852  29.488  1.00  0.00     0.049 A 
ATOM     52  H   UNL A   1      40.760  30.515  29.693  1.00  0.00     0.167 HD
ATOM     53  C   UNL A   1      45.037  29.668  30.044  1.00  0.00     0.037 A 
ATOM     54  C   UNL A   1      38.480  32.114  29.893  1.00  0.00     0.037 A 
ATOM     55  C   UNL A   1      44.896  31.052  30.421  1.00  0.00     0.049 A 
ATOM     56  C   UNL A   1      39.636  32.973  30.324  1.00  0.00     0.074 A 
ATOM     57  C   UNL A   1      45.880  31.952  30.791  1.00  0.00     0.029 A 
ATOM     58  N   UNL A   1      43.690  31.736  30.480  1.00  0.00    -0.354 N 
ATOM     59  N   UNL A   1      40.911  32.674  30.385  1.00  0.00    -0.248 NA
ATOM     60  C   UNL A   1      39.320  34.349  30.731  1.00  0.00     0.031 C 
ATOM     61  C   UNL A   1      45.265  33.167  31.117  1.00  0.00     0.029 A 
ATOM     62  C   UNL A   1      43.902  33.039  30.903  1.00  0.00     0.049 A 
ATOM     63  H   UNL A   1      42.811  31.352  30.254  1.00  0.00     0.167 HD
ATOM     64  C   UNL A   1      41.552  33.827  30.819  1.00  0.00     0.074 A 
ATOM     65  C   UNL A   1      40.527  34.839  30.977  1.00  0.00     0.031 C 
ATOM     66  C   UNL A   1      42.870  34.030  31.067  1.00  0.00     0.037 A 
BRANCH  53  67
ATOM     67  C   UNL A   1      46.406  29.054  30.102  1.00  0.00     0.064 A 
ATOM     68  C   UNL A   1      46.889  28.441  31.267  1.00  0.00     0.173 A 
ATOM     69  C   UNL A   1      47.231  29.041  28.966  1.00  0.00     0.173 A 
ATOM     70  F   UNL A   1      46.145  28.433  32.384  1.00  0.00    -0.203 F 
ATOM     71  C   UNL A   1      48.156  27.863  31.304  1.00  0.00     0.198 A 
ATOM     72  C   UNL A   1      48.485  28.436  28.997  1.00  0.00     0.198 A 
ATOM     73  F   UNL A   1      46.818  29.608  27.822  1.00  0.00    -0.203 F 
ATOM     74  F   UNL A   1      48.613  27.325  32.443  1.00  0.00    -0.200 F 
ATOM     75  C   UNL A   1      48.950  27.854  30.167  1.00  0.00     0.200 A 
ATOM     76  F   UNL A   1      49.248  28.418  27.895  1.00  0.00    -0.200 F 
ATOM     77  F   UNL A   1      50.165  27.292  30.201  1.00  0.00    -0.200 F 
ENDBRANCH  53  67
BRANCH  54  78
ATOM     78  C   UNL A   1      37.096  32.654  29.866  1.00  0.00     0.064 A 
ATOM     79  C   UNL A   1      36.245  32.509  30.970  1.00  0.00     0.173 A 
ATOM     80  C   UNL A   1      36.597  33.326  28.742  1.00  0.00     0.173 A 
ATOM     81  F   UNL A   1      36.671  31.856  32.061  1.00  0.00    -0.203 F 
ATOM     82  C   UNL A   1      34.941  32.997  30.943  1.00  0.00     0.198 A 
ATOM     83  C   UNL A   1      35.302  33.840  28.725  1.00  0.00     0.198 A 
ATOM     84  F   UNL A   1      37.374  33.498  27.662  1.00  0.00    -0.203 F 
ATOM     85  F   UNL A   1      34.133  32.804  31.994  1.00  0.00    -0.200 F 
ATOM     86  C   UNL A   1      34.472  33.667  29.823  1.00  0.00     0.200 A 
ATOM     87  F   UNL A   1      34.859  34.500  27.647  1.00  0.00    -0.200 F 
ATOM     88  F   UNL A   1      33.219  34.141  29.799  1.00  0.00    -0.200 F 
ENDBRANCH  54  78
BRANCH  66  89
ATOM     89  C   UNL A   1      43.271  35.401  31.528  1.00  0.00     0.064 A 
ATOM     90  C   UNL A   1      43.245  35.756  32.885  1.00  0.00     0.173 A 
ATOM     91  C   UNL A   1      43.690  36.370  30.604  1.00  0.00     0.173 A 
ATOM     92  F   UNL A   1      42.837  34.870  33.807  1.00  0.00    -0.203 F 
ATOM     93  C   UNL A   1      43.590  37.040  33.296  1.00  0.00     0.198 A 
ATOM     94  C   UNL A   1      44.065  37.644  31.022  1.00  0.00     0.198 A 
ATOM     95  F   UNL A   1      43.740  36.080  29.295  1.00  0.00    -0.203 F 
ATOM     96  F   UNL A   1      43.500  37.374  34.591  1.00  0.00    -0.200 F 
ATOM     97  C   UNL A   1      44.004  37.982  32.365  1.00  0.00     0.200 A 
ATOM     98  F   UNL A   1      44.477  38.548  30.122  1.00  0.00    -0.200 F 
ATOM     99  F   UNL A   1      44.333  39.218  32.762  1.00  0.00    -0.200 F 
ENDBRANCH  66  89
ENDBRANCH  40  41
ENDBRANCH  32  35
ENDBRANCH  30  31
ENDBRANCH  29  30
ENDBRANCH  28  29
ENDBRANCH   1  28
TORSDOF 17
ENDMDL
MODEL 2
REMARK VINA RESULT:     -11.4      4.449      9.246
REMARK SMILES [NH3+][C@@]1(C(=O)NCCCCCCNC(=O)c2ccc(-c3c4nc(c(-c5c(F)c(F)c(F)c(F)c5F)c5ccc([nH]5)c(-c5c(F)c(F)c(F)c(F)c5F)c5nc(c(-c6c(F)c(F)c(F)c(F)c6F)c6ccc3[nH]6)C=C5)C=C4)cc2)CCC[C@@H](Oc2ccccc2[N+](=O)[O-])C1
REMARK SMILES IDX 8 1 7 2 6 3 5 4 3 5 4 6 2 8 78 9 92 10 79 11 81 12 80 13
REMARK SMILES IDX 1 14 82 18 83 19 84 20 88 21 85 22 87 23 86 24 89 25 90 26
REMARK SMILES IDX 91 27 9 28 10 29 11 30 12 31 13 32 14 34 15 35 16 36 77 37
REMARK SMILES IDX 17 38 76 39 18 40 19 41 20 42 70 43 21 44 75 45 69 46 71 47
REMARK SMILES IDX 22 48 74 49 68 50 67 51 23 53 55 54 35 55 54 56 36 57 39 58
REMARK SMILES IDX 53 59 72 60 37 61 38 62 52 64 73 65 40 66 24 67 25 68 33 69
REMARK SMILES IDX 26 70 27 71 31 72 34 73 28 74 29 75 32 76 30 77 56 78 57 79
REMARK SMILES IDX 65 80 58 81 59 82 63 83 66 84 60 85 61 86 64 87 62 88 41 89
REMARK SMILES IDX 42 90 50 91 43 92 44 93 48 94 51 95 45 96 46 97 49 98 47 99
REMARK H PARENT 5 7 1 15 1 16 1 17 12 33 71 52 39 63
REMARK Flexibility Score: inf
ROOT
ATOM      1  C   UNL A   1      35.333  33.835  29.009  1.00  0.00     0.002 C 
ENDROOT
BRANCH   1   2
ATOM      2  C   UNL A   1      34.418  32.633  29.277  1.00  0.00     0.021 C 
BRANCH   2   3
ATOM      3  C   UNL A   1      34.106  31.804  28.024  1.00  0.00     0.116 C 
BRANCH   3   4
ATOM      4  N   UNL A   1      35.118  30.796  27.766  1.00  0.00    -0.351 N 
ATOM      5  C   UNL A   1      35.062  29.553  27.205  1.00  0.00     0.281 C 
ATOM      6  O   UNL A   1      36.139  28.949  27.133  1.00  0.00    -0.268 OA
ATOM      7  H   UNL A   1      36.022  31.061  28.051  1.00  0.00     0.163 HD
BRANCH   5   8
ATOM      8  C   UNL A   1      33.759  28.948  26.564  1.00  0.00     0.177 C 
ATOM      9  C   UNL A   1      32.663  28.871  27.653  1.00  0.00     0.079 C 
ATOM     10  C   UNL A   1      34.095  27.510  26.101  1.00  0.00     0.124 C 
ATOM     11  C   UNL A   1      31.396  28.156  27.186  1.00  0.00     0.011 C 
ATOM     12  C   UNL A   1      32.914  26.558  25.822  1.00  0.00     0.180 C 
ATOM     13  C   UNL A   1      31.672  26.734  26.711  1.00  0.00     0.046 C 
BRANCH   8  14
ATOM     14  N   UNL A   1      33.257  29.837  25.499  1.00  0.00    -0.345 N 
ATOM     15  H   UNL A   1      32.793  29.281  24.782  1.00  0.00     0.345 HD
ATOM     16  H   UNL A   1      34.038  30.346  25.084  1.00  0.00     0.345 HD
ATOM     17  H   UNL A   1      32.592  30.502  25.897  1.00  0.00     0.345 HD
ENDBRANCH   8  14
BRANCH  12  18
ATOM     18  O   UNL A   1      32.607  26.289  24.435  1.00  0.00    -0.483 OA
BRANCH  18  19
ATOM     19  C   UNL A   1      31.715  27.104  23.815  1.00  0.00     0.197 A 
ATOM     20  C   UNL A   1      30.356  26.953  24.090  1.00  0.00     0.054 A 
ATOM     21  C   UNL A   1      32.104  28.036  22.846  1.00  0.00     0.310 A 
ATOM     22  C   UNL A   1      29.419  27.816  23.515  1.00  0.00     0.004 A 
ATOM     23  C   UNL A   1      31.175  28.923  22.282  1.00  0.00     0.090 A 
ATOM     24  C   UNL A   1      29.830  28.819  22.637  1.00  0.00     0.007 A 
BRANCH  21  25
ATOM     25  N   UNL A   1      33.493  28.153  22.430  1.00  0.00     0.066 N 
ATOM     26  O   UNL A   1      33.900  27.310  21.615  1.00  0.00    -0.258 OA
ATOM     27  O   UNL A   1      34.182  29.052  22.926  1.00  0.00    -0.258 OA
ENDBRANCH  21  25
ENDBRANCH  18  19
ENDBRANCH  12  18
ENDBRANCH   5   8
ENDBRANCH   3   4
ENDBRANCH   2   3
ENDBRANCH   1   2
BRANCH   1  28
ATOM     28  C   UNL A   1      34.662  35.017  28.296  1.00  0.00     0.002 C 
BRANCH  28  29
ATOM     29  C   UNL A   1      33.280  35.415  28.824  1.00  0.00     0.021 C 
BRANCH  29  30
ATOM     30  C   UNL A   1      33.269  36.542  29.857  1.00  0.00     0.116 C 
BRANCH  30  31
ATOM     31  N   UNL A   1      32.384  36.260  30.976  1.00  0.00    -0.352 N 
ATOM     32  C   UNL A   1      32.538  35.448  32.064  1.00  0.00     0.251 C 
ATOM     33  H   UNL A   1      31.524  36.739  30.944  1.00  0.00     0.163 HD
ATOM     34  O   UNL A   1      31.563  35.220  32.786  1.00  0.00    -0.269 OA
BRANCH  32  35
ATOM     35  C   UNL A   1      33.839  34.828  32.397  1.00  0.00     0.039 A 
ATOM     36  C   UNL A   1      33.840  33.529  32.917  1.00  0.00     0.014 A 
ATOM     37  C   UNL A   1      35.045  35.527  32.281  1.00  0.00     0.014 A 
ATOM     38  C   UNL A   1      35.043  32.921  33.279  1.00  0.00     0.010 A 
ATOM     39  C   UNL A   1      36.254  34.895  32.579  1.00  0.00     0.010 A 
ATOM     40  C   UNL A   1      36.264  33.589  33.090  1.00  0.00    -0.014 A 
BRANCH  40  41
ATOM     41  C   UNL A   1      37.544  32.910  33.415  1.00  0.00     0.031 A 
ATOM     42  C   UNL A   1      38.280  33.217  34.691  1.00  0.00     0.074 A 
ATOM     43  C   UNL A   1      38.053  32.020  32.543  1.00  0.00     0.049 A 
ATOM     44  N   UNL A   1      39.384  32.685  35.157  1.00  0.00    -0.248 NA
ATOM     45  C   UNL A   1      37.718  34.274  35.544  1.00  0.00     0.031 C 
ATOM     46  C   UNL A   1      37.465  31.683  31.245  1.00  0.00     0.029 A 
ATOM     47  N   UNL A   1      39.173  31.230  32.615  1.00  0.00    -0.354 N 
ATOM     48  C   UNL A   1      39.646  33.342  36.351  1.00  0.00     0.074 A 
ATOM     49  C   UNL A   1      38.622  34.351  36.511  1.00  0.00     0.031 C 
ATOM     50  C   UNL A   1      38.205  30.729  30.661  1.00  0.00     0.029 A 
ATOM     51  C   UNL A   1      39.333  30.405  31.530  1.00  0.00     0.049 A 
ATOM     52  H   UNL A   1      39.800  31.253  33.373  1.00  0.00     0.167 HD
ATOM     53  C   UNL A   1      40.638  33.109  37.245  1.00  0.00     0.037 A 
ATOM     54  C   UNL A   1      40.277  29.482  31.269  1.00  0.00     0.037 A 
ATOM     55  C   UNL A   1      41.647  32.091  37.090  1.00  0.00     0.049 A 
ATOM     56  C   UNL A   1      41.355  29.229  32.285  1.00  0.00     0.074 A 
ATOM     57  C   UNL A   1      42.656  31.733  37.967  1.00  0.00     0.029 A 
ATOM     58  N   UNL A   1      41.775  31.268  35.980  1.00  0.00    -0.354 N 
ATOM     59  N   UNL A   1      41.545  29.799  33.450  1.00  0.00    -0.248 NA
ATOM     60  C   UNL A   1      42.343  28.192  31.955  1.00  0.00     0.031 C 
ATOM     61  C   UNL A   1      43.423  30.726  37.368  1.00  0.00     0.029 A 
ATOM     62  C   UNL A   1      42.861  30.421  36.139  1.00  0.00     0.049 A 
ATOM     63  H   UNL A   1      41.181  31.284  35.194  1.00  0.00     0.167 HD
ATOM     64  C   UNL A   1      42.660  29.181  34.000  1.00  0.00     0.074 A 
ATOM     65  C   UNL A   1      43.086  28.172  33.053  1.00  0.00     0.031 C 
ATOM     66  C   UNL A   1      43.279  29.430  35.181  1.00  0.00     0.037 A 
BRANCH  53  67
ATOM     67  C   UNL A   1      40.680  33.966  38.477  1.00  0.00     0.064 A 
ATOM     68  C   UNL A   1      41.437  35.145  38.527  1.00  0.00     0.173 A 
ATOM     69  C   UNL A   1      39.920  33.627  39.609  1.00  0.00     0.173 A 
ATOM     70  F   UNL A   1      42.188  35.511  37.477  1.00  0.00    -0.203 F 
ATOM     71  C   UNL A   1      41.456  35.939  39.672  1.00  0.00     0.198 A 
ATOM     72  C   UNL A   1      39.919  34.439  40.741  1.00  0.00     0.198 A 
ATOM     73  F   UNL A   1      39.173  32.513  39.614  1.00  0.00    -0.203 F 
ATOM     74  F   UNL A   1      42.226  37.036  39.712  1.00  0.00    -0.200 F 
ATOM     75  C   UNL A   1      40.692  35.589  40.775  1.00  0.00     0.200 A 
ATOM     76  F   UNL A   1      39.170  34.105  41.802  1.00  0.00    -0.200 F 
ATOM     77  F   UNL A   1      40.706  36.356  41.873  1.00  0.00    -0.200 F 
ENDBRANCH  53  67
BRANCH  54  78
ATOM     78  C   UNL A   1      40.219  28.699  30.007  1.00  0.00     0.064 A 
ATOM     79  C   UNL A   1      40.833  29.169  28.838  1.00  0.00     0.173 A 
ATOM     80  C   UNL A   1      39.551  27.468  29.944  1.00  0.00     0.173 A 
ATOM     81  F   UNL A   1      41.467  30.351  28.845  1.00  0.00    -0.203 F 
ATOM     82  C   UNL A   1      40.764  28.447  27.649  1.00  0.00     0.198 A 
ATOM     83  C   UNL A   1      39.507  26.733  28.761  1.00  0.00     0.198 A 
ATOM     84  F   UNL A   1      38.952  26.971  31.036  1.00  0.00    -0.203 F 
ATOM     85  F   UNL A   1      41.322  28.941  26.535  1.00  0.00    -0.200 F 
ATOM     86  C   UNL A   1      40.106  27.228  27.612  1.00  0.00     0.200 A 
ATOM     87  F   UNL A   1      38.883  25.547  28.734  1.00  0.00    -0.200 F 
ATOM     88  F   UNL A   1      40.045  26.531  26.470  1.00  0.00    -0.200 F 
ENDBRANCH  54  78
BRANCH  66  89
ATOM     89  C   UNL A   1      44.476  28.586  35.511  1.00  0.00     0.064 A 
ATOM     90  C   UNL A   1      45.773  28.979  35.148  1.00  0.00     0.173 A 
ATOM     91  C   UNL A   1      44.326  27.374  36.203  1.00  0.00     0.173 A 
ATOM     92  F   UNL A   1      45.968  30.122  34.472  1.00  0.00    -0.203 F 
ATOM     93  C   UNL A   1      46.871  28.173  35.433  1.00  0.00     0.198 A 
ATOM     94  C   UNL A   1      45.430  26.586  36.514  1.00  0.00     0.198 A 
ATOM     95  F   UNL A   1      43.109  26.957  36.579  1.00  0.00    -0.203 F 
ATOM     96  F   UNL A   1      48.093  28.539  35.023  1.00  0.00    -0.200 F 
ATOM     97  C   UNL A   1      46.700  26.980  36.120  1.00  0.00     0.200 A 
ATOM     98  F   UNL A   1      45.264  25.440  37.188  1.00  0.00    -0.200 F 
ATOM     99  F   UNL A   1      47.758  26.204  36.391  1.00  0.00    -0.200 F 
ENDBRANCH  66  89
ENDBRANCH  40  41
ENDBRANCH  32  35
ENDBRANCH  30  31
ENDBRANCH  29  30
ENDBRANCH  28  29
ENDBRANCH   1  28
TORSDOF 17
ENDMDL
MODEL 3
REMARK VINA RESULT:     -11.4      3.909      8.735
REMARK SMILES [NH3+][C@@]1(C(=O)NCCCCCCNC(=O)c2ccc(-c3c4nc(c(-c5c(F)c(F)c(F)c(F)c5F)c5ccc([nH]5)c(-c5c(F)c(F)c(F)c(F)c5F)c5nc(c(-c6c(F)c(F)c(F)c(F)c6F)c6ccc3[nH]6)C=C5)C=C4)cc2)CCC[C@@H](Oc2ccccc2[N+](=O)[O-])C1
REMARK SMILES IDX 8 1 7 2 6 3 5 4 3 5 4 6 2 8 78 9 92 10 79 11 81 12 80 13
REMARK SMILES IDX 1 14 82 18 83 19 84 20 88 21 85 22 87 23 86 24 89 25 90 26
REMARK SMILES IDX 91 27 9 28 10 29 11 30 12 31 13 32 14 34 15 35 16 36 77 37
REMARK SMILES IDX 17 38 76 39 18 40 19 41 20 42 70 43 21 44 75 45 69 46 71 47
REMARK SMILES IDX 22 48 74 49 68 50 67 51 23 53 55 54 35 55 54 56 36 57 39 58
REMARK SMILES IDX 53 59 72 60 37 61 38 62 52 64 73 65 40 66 24 67 25 68 33 69
REMARK SMILES IDX 26 70 27 71 31 72 34 73 28 74 29 75 32 76 30 77 56 78 57 79
REMARK SMILES IDX 65 80 58 81 59 82 63 83 66 84 60 85 61 86 64 87 62 88 41 89
REMARK SMILES IDX 42 90 50 91 43 92 44 93 48 94 51 95 45 96 46 97 49 98 47 99
REMARK H PARENT 5 7 1 15 1 16 1 17 12 33 71 52 39 63
REMARK Flexibility Score: inf
ROOT
ATOM      1  C   UNL A   1      31.924  29.536  26.042  1.00  0.00     0.002 C 
ENDROOT
BRANCH   1   2
ATOM      2  C   UNL A   1      33.397  29.460  25.622  1.00  0.00     0.021 C 
BRANCH   2   3
ATOM      3  C   UNL A   1      33.853  28.049  25.224  1.00  0.00     0.116 C 
BRANCH   3   4
ATOM      4  N   UNL A   1      34.017  27.910  23.788  1.00  0.00    -0.351 N 
ATOM      5  C   UNL A   1      33.373  27.153  22.853  1.00  0.00     0.281 C 
ATOM      6  O   UNL A   1      33.773  27.284  21.690  1.00  0.00    -0.268 OA
ATOM      7  H   UNL A   1      34.735  28.472  23.416  1.00  0.00     0.163 HD
BRANCH   5   8
ATOM      8  C   UNL A   1      32.117  26.262  23.174  1.00  0.00     0.177 C 
ATOM      9  C   UNL A   1      30.875  27.178  23.277  1.00  0.00     0.079 C 
ATOM     10  C   UNL A   1      32.358  25.601  24.552  1.00  0.00     0.124 C 
ATOM     11  C   UNL A   1      29.617  26.441  23.737  1.00  0.00     0.011 C 
ATOM     12  C   UNL A   1      31.132  25.018  25.286  1.00  0.00     0.180 C 
ATOM     13  C   UNL A   1      29.803  25.764  25.091  1.00  0.00     0.046 C 
BRANCH   8  14
ATOM     14  N   UNL A   1      31.872  25.314  22.070  1.00  0.00    -0.345 N 
ATOM     15  H   UNL A   1      31.964  24.359  22.416  1.00  0.00     0.345 HD
ATOM     16  H   UNL A   1      32.552  25.474  21.327  1.00  0.00     0.345 HD
ATOM     17  H   UNL A   1      30.930  25.455  21.704  1.00  0.00     0.345 HD
ENDBRANCH   8  14
BRANCH  12  18
ATOM     18  O   UNL A   1      30.999  23.579  25.291  1.00  0.00    -0.483 OA
BRANCH  18  19
ATOM     19  C   UNL A   1      31.986  22.854  25.882  1.00  0.00     0.197 A 
ATOM     20  C   UNL A   1      32.262  23.064  27.233  1.00  0.00     0.054 A 
ATOM     21  C   UNL A   1      32.791  21.964  25.162  1.00  0.00     0.310 A 
ATOM     22  C   UNL A   1      33.228  22.292  27.884  1.00  0.00     0.004 A 
ATOM     23  C   UNL A   1      33.746  21.168  25.811  1.00  0.00     0.090 A 
ATOM     24  C   UNL A   1      33.948  21.324  27.182  1.00  0.00     0.007 A 
BRANCH  21  25
ATOM     25  N   UNL A   1      32.628  21.797  23.726  1.00  0.00     0.066 N 
ATOM     26  O   UNL A   1      32.038  20.772  23.351  1.00  0.00    -0.258 OA
ATOM     27  O   UNL A   1      33.103  22.658  22.977  1.00  0.00    -0.258 OA
ENDBRANCH  21  25
ENDBRANCH  18  19
ENDBRANCH  12  18
ENDBRANCH   5   8
ENDBRANCH   3   4
ENDBRANCH   2   3
ENDBRANCH   1   2
BRANCH   1  28
ATOM     28  C   UNL A   1      31.150  30.741  25.489  1.00  0.00     0.002 C 
BRANCH  28  29
ATOM     29  C   UNL A   1      31.065  31.959  26.415  1.00  0.00     0.021 C 
BRANCH  29  30
ATOM     30  C   UNL A   1      32.404  32.491  26.927  1.00  0.00     0.116 C 
BRANCH  30  31
ATOM     31  N   UNL A   1      32.304  33.852  27.429  1.00  0.00    -0.352 N 
ATOM     32  C   UNL A   1      33.003  34.506  28.404  1.00  0.00     0.251 C 
ATOM     33  H   UNL A   1      31.613  34.398  26.988  1.00  0.00     0.163 HD
ATOM     34  O   UNL A   1      32.607  35.609  28.790  1.00  0.00    -0.269 OA
BRANCH  32  35
ATOM     35  C   UNL A   1      34.219  33.925  29.015  1.00  0.00     0.039 A 
ATOM     36  C   UNL A   1      34.063  32.893  29.946  1.00  0.00     0.014 A 
ATOM     37  C   UNL A   1      35.497  34.428  28.748  1.00  0.00     0.014 A 
ATOM     38  C   UNL A   1      35.181  32.341  30.574  1.00  0.00     0.010 A 
ATOM     39  C   UNL A   1      36.619  33.832  29.324  1.00  0.00     0.010 A 
ATOM     40  C   UNL A   1      36.472  32.789  30.251  1.00  0.00    -0.014 A 
BRANCH  40  41
ATOM     41  C   UNL A   1      37.661  32.151  30.873  1.00  0.00     0.031 A 
ATOM     42  C   UNL A   1      38.110  32.538  32.255  1.00  0.00     0.074 A 
ATOM     43  C   UNL A   1      38.347  31.227  30.176  1.00  0.00     0.049 A 
ATOM     44  N   UNL A   1      39.095  32.051  32.970  1.00  0.00    -0.248 NA
ATOM     45  C   UNL A   1      37.375  33.628  32.913  1.00  0.00     0.031 C 
ATOM     46  C   UNL A   1      38.047  30.811  28.804  1.00  0.00     0.029 A 
ATOM     47  N   UNL A   1      39.432  30.461  30.524  1.00  0.00    -0.354 N 
ATOM     48  C   UNL A   1      39.097  32.774  34.155  1.00  0.00     0.074 A 
ATOM     49  C   UNL A   1      38.054  33.772  34.042  1.00  0.00     0.031 C 
ATOM     50  C   UNL A   1      38.900  29.842  28.441  1.00  0.00     0.029 A 
ATOM     51  C   UNL A   1      39.823  29.584  29.543  1.00  0.00     0.049 A 
ATOM     52  H   UNL A   1      39.887  30.536  31.394  1.00  0.00     0.167 HD
ATOM     53  C   UNL A   1      39.881  32.606  35.248  1.00  0.00     0.037 A 
ATOM     54  C   UNL A   1      40.807  28.666  29.537  1.00  0.00     0.037 A 
ATOM     55  C   UNL A   1      40.906  31.601  35.363  1.00  0.00     0.049 A 
ATOM     56  C   UNL A   1      41.649  28.486  30.769  1.00  0.00     0.074 A 
ATOM     57  C   UNL A   1      41.712  31.308  36.450  1.00  0.00     0.029 A 
ATOM     58  N   UNL A   1      41.270  30.723  34.351  1.00  0.00    -0.354 N 
ATOM     59  N   UNL A   1      41.587  29.120  31.914  1.00  0.00    -0.248 NA
ATOM     60  C   UNL A   1      42.692  27.452  30.710  1.00  0.00     0.031 C 
ATOM     61  C   UNL A   1      42.594  30.285  36.081  1.00  0.00     0.029 A 
ATOM     62  C   UNL A   1      42.305  29.905  34.780  1.00  0.00     0.049 A 
ATOM     63  H   UNL A   1      40.855  30.687  33.459  1.00  0.00     0.167 HD
ATOM     64  C   UNL A   1      42.566  28.552  32.718  1.00  0.00     0.074 A 
ATOM     65  C   UNL A   1      43.188  27.503  31.938  1.00  0.00     0.031 C 
ATOM     66  C   UNL A   1      42.921  28.873  33.987  1.00  0.00     0.037 A 
BRANCH  53  67
ATOM     67  C   UNL A   1      39.657  33.527  36.413  1.00  0.00     0.064 A 
ATOM     68  C   UNL A   1      40.250  34.797  36.470  1.00  0.00     0.173 A 
ATOM     69  C   UNL A   1      38.805  33.154  37.465  1.00  0.00     0.173 A 
ATOM     70  F   UNL A   1      41.079  35.200  35.496  1.00  0.00    -0.203 F 
ATOM     71  C   UNL A   1      40.024  35.648  37.551  1.00  0.00     0.198 A 
ATOM     72  C   UNL A   1      38.558  34.019  38.528  1.00  0.00     0.198 A 
ATOM     73  F   UNL A   1      38.207  31.953  37.458  1.00  0.00    -0.203 F 
ATOM     74  F   UNL A   1      40.640  36.836  37.606  1.00  0.00    -0.200 F 
ATOM     75  C   UNL A   1      39.172  35.261  38.575  1.00  0.00     0.200 A 
ATOM     76  F   UNL A   1      37.726  33.648  39.512  1.00  0.00    -0.200 F 
ATOM     77  F   UNL A   1      38.950  36.082  39.609  1.00  0.00    -0.200 F 
ENDBRANCH  53  67
BRANCH  54  78
ATOM     78  C   UNL A   1      41.019  27.817  28.335  1.00  0.00     0.064 A 
ATOM     79  C   UNL A   1      41.854  28.242  27.292  1.00  0.00     0.173 A 
ATOM     80  C   UNL A   1      40.396  26.568  28.206  1.00  0.00     0.173 A 
ATOM     81  F   UNL A   1      42.456  29.437  27.362  1.00  0.00    -0.203 F 
ATOM     82  C   UNL A   1      42.041  27.458  26.157  1.00  0.00     0.198 A 
ATOM     83  C   UNL A   1      40.606  25.772  27.083  1.00  0.00     0.198 A 
ATOM     84  F   UNL A   1      39.593  26.113  29.180  1.00  0.00    -0.203 F 
ATOM     85  F   UNL A   1      42.808  27.907  25.154  1.00  0.00    -0.200 F 
ATOM     86  C   UNL A   1      41.422  26.221  26.055  1.00  0.00     0.200 A 
ATOM     87  F   UNL A   1      40.018  24.571  26.996  1.00  0.00    -0.200 F 
ATOM     88  F   UNL A   1      41.606  25.465  24.964  1.00  0.00    -0.200 F 
ENDBRANCH  54  78
BRANCH  66  89
ATOM     89  C   UNL A   1      44.028  28.071  34.606  1.00  0.00     0.064 A 
ATOM     90  C   UNL A   1      45.367  28.484  34.528  1.00  0.00     0.173 A 
ATOM     91  C   UNL A   1      43.749  26.877  35.289  1.00  0.00     0.173 A 
ATOM     92  F   UNL A   1      45.689  29.609  33.872  1.00  0.00    -0.203 F 
ATOM     93  C   UNL A   1      46.387  27.714  35.079  1.00  0.00     0.198 A 
ATOM     94  C   UNL A   1      44.768  26.126  35.867  1.00  0.00     0.198 A 
ATOM     95  F   UNL A   1      42.485  26.441  35.399  1.00  0.00    -0.203 F 
ATOM     96  F   UNL A   1      47.663  28.098  34.940  1.00  0.00    -0.200 F 
ATOM     97  C   UNL A   1      46.086  26.539  35.752  1.00  0.00     0.200 A 
ATOM     98  F   UNL A   1      44.475  24.998  36.528  1.00  0.00    -0.200 F 
ATOM     99  F   UNL A   1      47.070  25.798  36.280  1.00  0.00    -0.200 F 
ENDBRANCH  66  89
ENDBRANCH  40  41
ENDBRANCH  32  35
ENDBRANCH  30  31
ENDBRANCH  29  30
ENDBRANCH  28  29
ENDBRANCH   1  28
TORSDOF 17
ENDMDL
