MODEL 1
REMARK VINA RESULT:     -11.4      0.000      0.000
REMARK SMILES O=C(NCCCCCCNC(=O)c1cc(-c2ccc(F)c(C(F)(F)F)c2)cnc1O)c1ccc(-c2c3nc(c(-c4c(F)c(F)c(F)c(F)c4F)c4ccc([nH]4)c(-c4c(F)c(F)c(F)c(F)c4F)c4nc(c(-c5c(F)c(F)c(F)c(F)c5F)c5ccc2[nH]5)C=C4)C=C3)cc1
REMARK SMILES IDX 6 1 5 2 4 3 3 4 1 5 2 6 31 8 32 9 93 10 33 11 92 12 34 13
REMARK SMILES IDX 35 14 36 15 86 16 37 17 91 18 85 19 87 20 38 21 90 22 84 23
REMARK SMILES IDX 83 24 39 26 71 27 51 28 70 29 52 30 55 31 69 32 88 33 53 34
REMARK SMILES IDX 54 35 68 37 89 38 56 39 40 40 41 41 49 42 42 43 43 44 47 45
REMARK SMILES IDX 50 46 44 47 45 48 48 49 46 50 72 51 73 52 81 53 74 54 75 55
REMARK SMILES IDX 79 56 82 57 76 58 77 59 80 60 78 61 57 62 58 63 66 64 59 65
REMARK SMILES IDX 60 66 64 67 67 68 61 69 62 70 65 71 63 72 7 73 8 74 9 75
REMARK SMILES IDX 10 76 11 77 12 79 13 80 14 81 29 82 15 83 28 84 27 85 30 86
REMARK SMILES IDX 16 88 17 89 26 90 18 91 21 92 19 93 20 94 22 95 23 96 24 97
REMARK SMILES IDX 25 98
REMARK H PARENT 3 7 87 25 55 36 10 78 30 87
REMARK Flexibility Score: inf
ROOT
ATOM      1  C   UNL A   1      34.155  34.438  28.752  1.00  0.00     0.002 C 
ENDROOT
BRANCH   1   2
ATOM      2  C   UNL A   1      35.394  33.626  29.137  1.00  0.00     0.021 C 
BRANCH   2   3
ATOM      3  C   UNL A   1      35.120  32.296  29.829  1.00  0.00     0.116 C 
BRANCH   3   4
ATOM      4  N   UNL A   1      34.415  31.358  28.974  1.00  0.00    -0.352 N 
ATOM      5  O   UNL A   1      34.150  29.725  27.453  1.00  0.00    -0.269 OA
ATOM      6  C   UNL A   1      34.896  30.308  28.236  1.00  0.00     0.251 C 
ATOM      7  H   UNL A   1      33.442  31.497  28.917  1.00  0.00     0.163 HD
BRANCH   6   8
ATOM      8  C   UNL A   1      36.306  29.872  28.359  1.00  0.00     0.039 A 
ATOM      9  C   UNL A   1      36.714  29.274  29.555  1.00  0.00     0.014 A 
ATOM     10  C   UNL A   1      37.242  30.110  27.348  1.00  0.00     0.014 A 
ATOM     11  C   UNL A   1      38.048  28.898  29.731  1.00  0.00     0.010 A 
ATOM     12  C   UNL A   1      38.559  29.676  27.497  1.00  0.00     0.010 A 
ATOM     13  C   UNL A   1      38.981  29.091  28.700  1.00  0.00    -0.014 A 
BRANCH  13  14
ATOM     14  C   UNL A   1      40.414  28.757  28.898  1.00  0.00     0.031 A 
ATOM     15  C   UNL A   1      41.318  29.737  29.595  1.00  0.00     0.074 A 
ATOM     16  C   UNL A   1      40.906  27.589  28.447  1.00  0.00     0.049 A 
ATOM     17  N   UNL A   1      42.604  29.659  29.827  1.00  0.00    -0.248 NA
ATOM     18  C   UNL A   1      40.697  30.981  30.077  1.00  0.00     0.031 C 
ATOM     19  C   UNL A   1      40.137  26.563  27.745  1.00  0.00     0.029 A 
ATOM     20  N   UNL A   1      42.174  27.067  28.517  1.00  0.00    -0.354 N 
ATOM     21  C   UNL A   1      42.945  30.843  30.468  1.00  0.00     0.074 A 
ATOM     22  C   UNL A   1      41.744  31.645  30.544  1.00  0.00     0.031 C 
ATOM     23  C   UNL A   1      40.940  25.520  27.476  1.00  0.00     0.029 A 
ATOM     24  C   UNL A   1      42.287  25.818  27.958  1.00  0.00     0.049 A 
ATOM     25  H   UNL A   1      42.932  27.543  28.929  1.00  0.00     0.167 HD
ATOM     26  C   UNL A   1      44.144  31.216  30.973  1.00  0.00     0.037 A 
ATOM     27  C   UNL A   1      43.356  25.005  27.848  1.00  0.00     0.037 A 
ATOM     28  C   UNL A   1      45.329  30.402  30.932  1.00  0.00     0.049 A 
ATOM     29  C   UNL A   1      44.681  25.448  28.405  1.00  0.00     0.074 A 
ATOM     30  C   UNL A   1      46.583  30.677  31.451  1.00  0.00     0.029 A 
ATOM     31  N   UNL A   1      45.404  29.147  30.346  1.00  0.00    -0.354 N 
ATOM     32  N   UNL A   1      44.985  26.559  29.031  1.00  0.00    -0.248 NA
ATOM     33  C   UNL A   1      45.814  24.526  28.238  1.00  0.00     0.031 C 
ATOM     34  C   UNL A   1      47.424  29.602  31.153  1.00  0.00     0.029 A 
ATOM     35  C   UNL A   1      46.686  28.641  30.481  1.00  0.00     0.049 A 
ATOM     36  H   UNL A   1      44.657  28.686  29.901  1.00  0.00     0.167 HD
ATOM     37  C   UNL A   1      46.332  26.460  29.353  1.00  0.00     0.074 A 
ATOM     38  C   UNL A   1      46.787  25.177  28.862  1.00  0.00     0.031 C 
ATOM     39  C   UNL A   1      47.120  27.357  29.994  1.00  0.00     0.037 A 
BRANCH  26  40
ATOM     40  C   UNL A   1      44.234  32.560  31.631  1.00  0.00     0.064 A 
ATOM     41  C   UNL A   1      44.476  33.723  30.885  1.00  0.00     0.173 A 
ATOM     42  C   UNL A   1      44.026  32.694  33.011  1.00  0.00     0.173 A 
ATOM     43  F   UNL A   1      44.693  33.645  29.564  1.00  0.00    -0.203 F 
ATOM     44  C   UNL A   1      44.524  34.971  31.502  1.00  0.00     0.198 A 
ATOM     45  C   UNL A   1      44.050  33.947  33.620  1.00  0.00     0.198 A 
ATOM     46  F   UNL A   1      43.788  31.613  33.768  1.00  0.00    -0.203 F 
ATOM     47  F   UNL A   1      44.794  36.064  30.776  1.00  0.00    -0.200 F 
ATOM     48  C   UNL A   1      44.303  35.082  32.866  1.00  0.00     0.200 A 
ATOM     49  F   UNL A   1      43.825  34.054  34.937  1.00  0.00    -0.200 F 
ATOM     50  F   UNL A   1      44.339  36.285  33.456  1.00  0.00    -0.200 F 
ENDBRANCH  26  40
BRANCH  27  51
ATOM     51  C   UNL A   1      43.203  23.669  27.218  1.00  0.00     0.064 A 
ATOM     52  C   UNL A   1      42.579  22.621  27.907  1.00  0.00     0.173 A 
ATOM     53  C   UNL A   1      43.658  23.417  25.916  1.00  0.00     0.173 A 
ATOM     54  F   UNL A   1      42.148  22.810  29.164  1.00  0.00    -0.203 F 
ATOM     55  C   UNL A   1      42.420  21.367  27.321  1.00  0.00     0.198 A 
ATOM     56  C   UNL A   1      43.479  22.169  25.322  1.00  0.00     0.198 A 
ATOM     57  F   UNL A   1      44.261  24.388  25.215  1.00  0.00    -0.203 F 
ATOM     58  F   UNL A   1      41.847  20.374  28.013  1.00  0.00    -0.200 F 
ATOM     59  C   UNL A   1      42.864  21.145  26.026  1.00  0.00     0.200 A 
ATOM     60  F   UNL A   1      43.898  21.961  24.066  1.00  0.00    -0.200 F 
ATOM     61  F   UNL A   1      42.703  19.942  25.459  1.00  0.00    -0.200 F 
ENDBRANCH  27  51
BRANCH  39  62
ATOM     62  C   UNL A   1      48.553  26.982  30.226  1.00  0.00     0.064 A 
ATOM     63  C   UNL A   1      48.931  26.192  31.321  1.00  0.00     0.173 A 
ATOM     64  C   UNL A   1      49.541  27.346  29.300  1.00  0.00     0.173 A 
ATOM     65  F   UNL A   1      48.022  25.829  32.237  1.00  0.00    -0.203 F 
ATOM     66  C   UNL A   1      50.253  25.787  31.484  1.00  0.00     0.198 A 
ATOM     67  C   UNL A   1      50.857  26.919  29.456  1.00  0.00     0.198 A 
ATOM     68  F   UNL A   1      49.226  28.094  28.232  1.00  0.00    -0.203 F 
ATOM     69  F   UNL A   1      50.599  25.053  32.551  1.00  0.00    -0.200 F 
ATOM     70  C   UNL A   1      51.212  26.142  30.548  1.00  0.00     0.200 A 
ATOM     71  F   UNL A   1      51.780  27.252  28.542  1.00  0.00    -0.200 F 
ATOM     72  F   UNL A   1      52.480  25.736  30.698  1.00  0.00    -0.200 F 
ENDBRANCH  39  62
ENDBRANCH  13  14
ENDBRANCH   6   8
ENDBRANCH   3   4
ENDBRANCH   2   3
ENDBRANCH   1   2
BRANCH   1  73
ATOM     73  C   UNL A   1      34.423  35.791  28.086  1.00  0.00     0.002 C 
BRANCH  73  74
ATOM     74  C   UNL A   1      33.700  36.994  28.702  1.00  0.00     0.021 C 
BRANCH  74  75
ATOM     75  C   UNL A   1      32.979  36.722  30.021  1.00  0.00     0.116 C 
BRANCH  75  76
ATOM     76  N   UNL A   1      33.464  37.574  31.098  1.00  0.00    -0.352 N 
ATOM     77  C   UNL A   1      33.886  37.219  32.351  1.00  0.00     0.256 C 
ATOM     78  H   UNL A   1      33.494  38.537  30.897  1.00  0.00     0.163 HD
ATOM     79  O   UNL A   1      34.093  38.078  33.205  1.00  0.00    -0.269 OA
BRANCH  77  80
ATOM     80  C   UNL A   1      34.111  35.807  32.680  1.00  0.00     0.102 A 
ATOM     81  C   UNL A   1      35.427  35.353  32.821  1.00  0.00     0.029 A 
ATOM     82  C   UNL A   1      33.073  34.892  32.807  1.00  0.00     0.223 A 
ATOM     83  C   UNL A   1      35.671  34.010  33.125  1.00  0.00     0.001 A 
ATOM     84  N   UNL A   1      33.266  33.602  33.134  1.00  0.00    -0.221 NA
ATOM     85  C   UNL A   1      34.549  33.192  33.283  1.00  0.00     0.124 A 
BRANCH  82  86
ATOM     86  O   UNL A   1      31.761  35.214  32.612  1.00  0.00    -0.493 OA
ATOM     87  H   UNL A   1      31.272  34.796  31.930  1.00  0.00     0.295 HD
ENDBRANCH  82  86
BRANCH  83  88
ATOM     88  C   UNL A   1      37.033  33.476  33.248  1.00  0.00    -0.016 A 
ATOM     89  C   UNL A   1      38.139  34.342  33.237  1.00  0.00     0.012 A 
ATOM     90  C   UNL A   1      37.268  32.096  33.378  1.00  0.00     0.025 A 
ATOM     91  C   UNL A   1      39.438  33.846  33.347  1.00  0.00     0.040 A 
ATOM     92  C   UNL A   1      38.576  31.587  33.486  1.00  0.00     0.092 A 
ATOM     93  C   UNL A   1      39.644  32.478  33.467  1.00  0.00     0.135 A 
ATOM     94  F   UNL A   1      40.900  32.020  33.564  1.00  0.00    -0.206 F 
BRANCH  92  95
ATOM     95  C   UNL A   1      38.854  30.119  33.605  1.00  0.00     0.419 C 
ATOM     96  F   UNL A   1      37.719  29.369  33.645  1.00  0.00    -0.166 F 
ATOM     97  F   UNL A   1      39.602  29.631  32.579  1.00  0.00    -0.166 F 
ATOM     98  F   UNL A   1      39.542  29.799  34.740  1.00  0.00    -0.166 F 
ENDBRANCH  92  95
ENDBRANCH  83  88
ENDBRANCH  77  80
ENDBRANCH  75  76
ENDBRANCH  74  75
ENDBRANCH  73  74
ENDBRANCH   1  73
TORSDOF 16
ENDMDL
MODEL 2
REMARK VINA RESULT:     -11.4      5.009     11.079
REMARK SMILES O=C(NCCCCCCNC(=O)c1cc(-c2ccc(F)c(C(F)(F)F)c2)cnc1O)c1ccc(-c2c3nc(c(-c4c(F)c(F)c(F)c(F)c4F)c4ccc([nH]4)c(-c4c(F)c(F)c(F)c(F)c4F)c4nc(c(-c5c(F)c(F)c(F)c(F)c5F)c5ccc2[nH]5)C=C4)C=C3)cc1
REMARK SMILES IDX 6 1 5 2 4 3 3 4 1 5 2 6 31 8 32 9 93 10 33 11 92 12 34 13
REMARK SMILES IDX 35 14 36 15 86 16 37 17 91 18 85 19 87 20 38 21 90 22 84 23
REMARK SMILES IDX 83 24 39 26 71 27 51 28 70 29 52 30 55 31 69 32 88 33 53 34
REMARK SMILES IDX 54 35 68 37 89 38 56 39 40 40 41 41 49 42 42 43 43 44 47 45
REMARK SMILES IDX 50 46 44 47 45 48 48 49 46 50 72 51 73 52 81 53 74 54 75 55
REMARK SMILES IDX 79 56 82 57 76 58 77 59 80 60 78 61 57 62 58 63 66 64 59 65
REMARK SMILES IDX 60 66 64 67 67 68 61 69 62 70 65 71 63 72 7 73 8 74 9 75
REMARK SMILES IDX 10 76 11 77 12 79 13 80 14 81 29 82 15 83 28 84 27 85 30 86
REMARK SMILES IDX 16 88 17 89 26 90 18 91 21 92 19 93 20 94 22 95 23 96 24 97
REMARK SMILES IDX 25 98
REMARK H PARENT 3 7 87 25 55 36 10 78 30 87
REMARK Flexibility Score: inf
ROOT
ATOM      1  C   UNL A   1      31.468  30.773  26.756  1.00  0.00     0.002 C 
ENDROOT
BRANCH   1   2
ATOM      2  C   UNL A   1      31.464  32.301  26.679  1.00  0.00     0.021 C 
BRANCH   2   3
ATOM      3  C   UNL A   1      32.731  32.988  27.175  1.00  0.00     0.116 C 
BRANCH   3   4
ATOM      4  N   UNL A   1      32.487  34.341  27.639  1.00  0.00    -0.352 N 
ATOM      5  O   UNL A   1      32.575  36.115  29.016  1.00  0.00    -0.269 OA
ATOM      6  C   UNL A   1      33.031  35.020  28.698  1.00  0.00     0.251 C 
ATOM      7  H   UNL A   1      31.828  34.850  27.113  1.00  0.00     0.163 HD
BRANCH   6   8
ATOM      8  C   UNL A   1      34.157  34.449  29.473  1.00  0.00     0.039 A 
ATOM      9  C   UNL A   1      35.450  34.568  28.952  1.00  0.00     0.014 A 
ATOM     10  C   UNL A   1      33.949  33.736  30.658  1.00  0.00     0.014 A 
ATOM     11  C   UNL A   1      36.531  33.995  29.625  1.00  0.00     0.010 A 
ATOM     12  C   UNL A   1      35.036  33.221  31.364  1.00  0.00     0.010 A 
ATOM     13  C   UNL A   1      36.333  33.321  30.841  1.00  0.00    -0.014 A 
BRANCH  13  14
ATOM     14  C   UNL A   1      37.463  32.651  31.532  1.00  0.00     0.031 A 
ATOM     15  C   UNL A   1      38.195  31.529  30.848  1.00  0.00     0.074 A 
ATOM     16  C   UNL A   1      37.826  33.036  32.769  1.00  0.00     0.049 A 
ATOM     17  N   UNL A   1      39.176  30.784  31.294  1.00  0.00    -0.248 NA
ATOM     18  C   UNL A   1      37.752  31.182  29.488  1.00  0.00     0.031 C 
ATOM     19  C   UNL A   1      37.189  34.100  33.543  1.00  0.00     0.029 A 
ATOM     20  N   UNL A   1      38.826  32.578  33.591  1.00  0.00    -0.354 N 
ATOM     21  C   UNL A   1      39.456  29.879  30.278  1.00  0.00     0.074 A 
ATOM     22  C   UNL A   1      38.510  30.131  29.213  1.00  0.00     0.031 C 
ATOM     23  C   UNL A   1      37.831  34.236  34.715  1.00  0.00     0.029 A 
ATOM     24  C   UNL A   1      38.904  33.247  34.788  1.00  0.00     0.049 A 
ATOM     25  H   UNL A   1      39.429  31.839  33.347  1.00  0.00     0.167 HD
ATOM     26  C   UNL A   1      40.430  28.942  30.226  1.00  0.00     0.037 A 
ATOM     27  C   UNL A   1      39.748  33.081  35.825  1.00  0.00     0.037 A 
ATOM     28  C   UNL A   1      41.395  28.717  31.268  1.00  0.00     0.049 A 
ATOM     29  C   UNL A   1      40.814  32.023  35.749  1.00  0.00     0.074 A 
ATOM     30  C   UNL A   1      42.445  27.815  31.291  1.00  0.00     0.029 A 
ATOM     31  N   UNL A   1      41.433  29.409  32.469  1.00  0.00    -0.354 N 
ATOM     32  N   UNL A   1      41.085  31.191  34.773  1.00  0.00    -0.248 NA
ATOM     33  C   UNL A   1      41.692  31.878  36.919  1.00  0.00     0.031 C 
ATOM     34  C   UNL A   1      43.101  27.941  32.519  1.00  0.00     0.029 A 
ATOM     35  C   UNL A   1      42.483  28.945  33.246  1.00  0.00     0.049 A 
ATOM     36  H   UNL A   1      40.808  30.122  32.731  1.00  0.00     0.167 HD
ATOM     37  C   UNL A   1      42.173  30.442  35.199  1.00  0.00     0.074 A 
ATOM     38  C   UNL A   1      42.522  30.924  36.518  1.00  0.00     0.031 C 
ATOM     39  C   UNL A   1      42.822  29.443  34.554  1.00  0.00     0.037 A 
BRANCH  26  40
ATOM     40  C   UNL A   1      40.515  28.095  28.991  1.00  0.00     0.064 A 
ATOM     41  C   UNL A   1      39.811  26.887  28.884  1.00  0.00     0.173 A 
ATOM     42  C   UNL A   1      41.267  28.519  27.885  1.00  0.00     0.173 A 
ATOM     43  F   UNL A   1      39.089  26.433  29.919  1.00  0.00    -0.203 F 
ATOM     44  C   UNL A   1      39.870  26.125  27.720  1.00  0.00     0.198 A 
ATOM     45  C   UNL A   1      41.303  27.767  26.714  1.00  0.00     0.198 A 
ATOM     46  F   UNL A   1      41.956  29.669  27.936  1.00  0.00    -0.203 F 
ATOM     47  F   UNL A   1      39.219  24.956  27.655  1.00  0.00    -0.200 F 
ATOM     48  C   UNL A   1      40.609  26.569  26.635  1.00  0.00     0.200 A 
ATOM     49  F   UNL A   1      42.008  28.203  25.661  1.00  0.00    -0.200 F 
ATOM     50  F   UNL A   1      40.656  25.839  25.511  1.00  0.00    -0.200 F 
ENDBRANCH  26  40
BRANCH  27  51
ATOM     51  C   UNL A   1      39.642  33.971  37.010  1.00  0.00     0.064 A 
ATOM     52  C   UNL A   1      38.881  33.591  38.123  1.00  0.00     0.173 A 
ATOM     53  C   UNL A   1      40.307  35.203  37.062  1.00  0.00     0.173 A 
ATOM     54  F   UNL A   1      38.208  32.430  38.109  1.00  0.00    -0.203 F 
ATOM     55  C   UNL A   1      38.783  34.413  39.243  1.00  0.00     0.198 A 
ATOM     56  C   UNL A   1      40.227  36.015  38.192  1.00  0.00     0.198 A 
ATOM     57  F   UNL A   1      41.049  35.611  36.022  1.00  0.00    -0.203 F 
ATOM     58  F   UNL A   1      38.025  34.040  40.283  1.00  0.00    -0.200 F 
ATOM     59  C   UNL A   1      39.462  35.622  39.279  1.00  0.00     0.200 A 
ATOM     60  F   UNL A   1      40.895  37.177  38.228  1.00  0.00    -0.200 F 
ATOM     61  F   UNL A   1      39.377  36.408  40.361  1.00  0.00    -0.200 F 
ENDBRANCH  27  51
BRANCH  39  62
ATOM     62  C   UNL A   1      43.990  28.810  35.248  1.00  0.00     0.064 A 
ATOM     63  C   UNL A   1      43.825  27.701  36.089  1.00  0.00     0.173 A 
ATOM     64  C   UNL A   1      45.294  29.266  35.004  1.00  0.00     0.173 A 
ATOM     65  F   UNL A   1      42.596  27.237  36.360  1.00  0.00    -0.203 F 
ATOM     66  C   UNL A   1      44.925  27.075  36.668  1.00  0.00     0.198 A 
ATOM     67  C   UNL A   1      46.393  28.623  35.567  1.00  0.00     0.198 A 
ATOM     68  F   UNL A   1      45.503  30.320  34.200  1.00  0.00    -0.203 F 
ATOM     69  F   UNL A   1      44.743  26.031  37.489  1.00  0.00    -0.200 F 
ATOM     70  C   UNL A   1      46.207  27.530  36.400  1.00  0.00     0.200 A 
ATOM     71  F   UNL A   1      47.632  29.056  35.296  1.00  0.00    -0.200 F 
ATOM     72  F   UNL A   1      47.266  26.914  36.945  1.00  0.00    -0.200 F 
ENDBRANCH  39  62
ENDBRANCH  13  14
ENDBRANCH   6   8
ENDBRANCH   3   4
ENDBRANCH   2   3
ENDBRANCH   1   2
BRANCH   1  73
ATOM     73  C   UNL A   1      32.831  30.120  27.010  1.00  0.00     0.002 C 
BRANCH  73  74
ATOM     74  C   UNL A   1      33.393  29.276  25.861  1.00  0.00     0.021 C 
BRANCH  74  75
ATOM     75  C   UNL A   1      32.535  29.230  24.599  1.00  0.00     0.116 C 
BRANCH  75  76
ATOM     76  N   UNL A   1      33.339  29.258  23.386  1.00  0.00    -0.352 N 
ATOM     77  C   UNL A   1      33.673  28.224  22.551  1.00  0.00     0.256 C 
ATOM     78  H   UNL A   1      33.692  30.141  23.129  1.00  0.00     0.163 HD
ATOM     79  O   UNL A   1      34.512  28.383  21.669  1.00  0.00    -0.269 OA
BRANCH  77  80
ATOM     80  C   UNL A   1      33.016  26.920  22.695  1.00  0.00     0.102 A 
ATOM     81  C   UNL A   1      33.761  25.846  23.193  1.00  0.00     0.029 A 
ATOM     82  C   UNL A   1      31.699  26.698  22.312  1.00  0.00     0.223 A 
ATOM     83  C   UNL A   1      33.161  24.589  23.333  1.00  0.00     0.001 A 
ATOM     84  N   UNL A   1      31.078  25.515  22.464  1.00  0.00    -0.221 NA
ATOM     85  C   UNL A   1      31.817  24.496  22.965  1.00  0.00     0.124 A 
BRANCH  82  86
ATOM     86  O   UNL A   1      30.911  27.657  21.743  1.00  0.00    -0.493 OA
ATOM     87  H   UNL A   1      29.978  27.565  21.755  1.00  0.00     0.295 HD
ENDBRANCH  82  86
BRANCH  83  88
ATOM     88  C   UNL A   1      33.909  23.422  23.816  1.00  0.00    -0.016 A 
ATOM     89  C   UNL A   1      35.286  23.518  24.076  1.00  0.00     0.012 A 
ATOM     90  C   UNL A   1      33.275  22.186  24.029  1.00  0.00     0.025 A 
ATOM     91  C   UNL A   1      36.008  22.414  24.530  1.00  0.00     0.040 A 
ATOM     92  C   UNL A   1      33.996  21.066  24.484  1.00  0.00     0.092 A 
ATOM     93  C   UNL A   1      35.359  21.201  24.726  1.00  0.00     0.135 A 
ATOM     94  F   UNL A   1      36.072  20.151  25.154  1.00  0.00    -0.206 F 
BRANCH  92  95
ATOM     95  C   UNL A   1      33.347  19.732  24.699  1.00  0.00     0.419 C 
ATOM     96  F   UNL A   1      34.062  18.705  24.162  1.00  0.00    -0.166 F 
ATOM     97  F   UNL A   1      33.166  19.429  26.012  1.00  0.00    -0.166 F 
ATOM     98  F   UNL A   1      32.108  19.647  24.132  1.00  0.00    -0.166 F 
ENDBRANCH  92  95
ENDBRANCH  83  88
ENDBRANCH  77  80
ENDBRANCH  75  76
ENDBRANCH  74  75
ENDBRANCH  73  74
ENDBRANCH   1  73
TORSDOF 16
ENDMDL
MODEL 3
REMARK VINA RESULT:     -11.3      4.674      8.529
REMARK SMILES O=C(NCCCCCCNC(=O)c1cc(-c2ccc(F)c(C(F)(F)F)c2)cnc1O)c1ccc(-c2c3nc(c(-c4c(F)c(F)c(F)c(F)c4F)c4ccc([nH]4)c(-c4c(F)c(F)c(F)c(F)c4F)c4nc(c(-c5c(F)c(F)c(F)c(F)c5F)c5ccc2[nH]5)C=C4)C=C3)cc1
REMARK SMILES IDX 6 1 5 2 4 3 3 4 1 5 2 6 31 8 32 9 93 10 33 11 92 12 34 13
REMARK SMILES IDX 35 14 36 15 86 16 37 17 91 18 85 19 87 20 38 21 90 22 84 23
REMARK SMILES IDX 83 24 39 26 71 27 51 28 70 29 52 30 55 31 69 32 88 33 53 34
REMARK SMILES IDX 54 35 68 37 89 38 56 39 40 40 41 41 49 42 42 43 43 44 47 45
REMARK SMILES IDX 50 46 44 47 45 48 48 49 46 50 72 51 73 52 81 53 74 54 75 55
REMARK SMILES IDX 79 56 82 57 76 58 77 59 80 60 78 61 57 62 58 63 66 64 59 65
REMARK SMILES IDX 60 66 64 67 67 68 61 69 62 70 65 71 63 72 7 73 8 74 9 75
REMARK SMILES IDX 10 76 11 77 12 79 13 80 14 81 29 82 15 83 28 84 27 85 30 86
REMARK SMILES IDX 16 88 17 89 26 90 18 91 21 92 19 93 20 94 22 95 23 96 24 97
REMARK SMILES IDX 25 98
REMARK H PARENT 3 7 87 25 55 36 10 78 30 87
REMARK Flexibility Score: inf
ROOT
ATOM      1  C   UNL A   1      31.560  30.765  26.823  1.00  0.00     0.002 C 
ENDROOT
BRANCH   1   2
ATOM      2  C   UNL A   1      31.394  32.286  26.852  1.00  0.00     0.021 C 
BRANCH   2   3
ATOM      3  C   UNL A   1      32.680  33.084  27.033  1.00  0.00     0.116 C 
BRANCH   3   4
ATOM      4  N   UNL A   1      32.452  34.374  27.659  1.00  0.00    -0.352 N 
ATOM      5  O   UNL A   1      32.590  35.978  29.227  1.00  0.00    -0.269 OA
ATOM      6  C   UNL A   1      33.035  34.929  28.768  1.00  0.00     0.251 C 
ATOM      7  H   UNL A   1      31.775  34.937  27.218  1.00  0.00     0.163 HD
BRANCH   6   8
ATOM      8  C   UNL A   1      34.187  34.276  29.431  1.00  0.00     0.039 A 
ATOM      9  C   UNL A   1      35.475  34.587  28.983  1.00  0.00     0.014 A 
ATOM     10  C   UNL A   1      34.015  33.313  30.430  1.00  0.00     0.014 A 
ATOM     11  C   UNL A   1      36.585  33.953  29.545  1.00  0.00     0.010 A 
ATOM     12  C   UNL A   1      35.126  32.727  31.037  1.00  0.00     0.010 A 
ATOM     13  C   UNL A   1      36.420  33.021  30.581  1.00  0.00    -0.014 A 
BRANCH  13  14
ATOM     14  C   UNL A   1      37.585  32.291  31.141  1.00  0.00     0.031 A 
ATOM     15  C   UNL A   1      38.069  32.613  32.528  1.00  0.00     0.074 A 
ATOM     16  C   UNL A   1      38.213  31.353  30.409  1.00  0.00     0.049 A 
ATOM     17  N   UNL A   1      39.093  32.127  33.184  1.00  0.00    -0.248 NA
ATOM     18  C   UNL A   1      37.314  33.635  33.271  1.00  0.00     0.031 C 
ATOM     19  C   UNL A   1      37.850  30.959  29.049  1.00  0.00     0.029 A 
ATOM     20  N   UNL A   1      39.290  30.556  30.711  1.00  0.00    -0.354 N 
ATOM     21  C   UNL A   1      39.110  32.789  34.404  1.00  0.00     0.074 A 
ATOM     22  C   UNL A   1      38.028  33.749  34.381  1.00  0.00     0.031 C 
ATOM     23  C   UNL A   1      38.668  29.973  28.644  1.00  0.00     0.029 A 
ATOM     24  C   UNL A   1      39.633  29.689  29.703  1.00  0.00     0.049 A 
ATOM     25  H   UNL A   1      39.771  30.602  31.569  1.00  0.00     0.167 HD
ATOM     26  C   UNL A   1      39.935  32.596  35.459  1.00  0.00     0.037 A 
ATOM     27  C   UNL A   1      40.615  28.768  29.642  1.00  0.00     0.037 A 
ATOM     28  C   UNL A   1      40.987  31.615  35.497  1.00  0.00     0.049 A 
ATOM     29  C   UNL A   1      41.528  28.582  30.823  1.00  0.00     0.074 A 
ATOM     30  C   UNL A   1      41.852  31.319  36.536  1.00  0.00     0.029 A 
ATOM     31  N   UNL A   1      41.309  30.764  34.451  1.00  0.00    -0.354 N 
ATOM     32  N   UNL A   1      41.518  29.197  31.980  1.00  0.00    -0.248 NA
ATOM     33  C   UNL A   1      42.591  27.575  30.689  1.00  0.00     0.031 C 
ATOM     34  C   UNL A   1      42.717  30.308  36.108  1.00  0.00     0.029 A 
ATOM     35  C   UNL A   1      42.368  29.950  34.816  1.00  0.00     0.049 A 
ATOM     36  H   UNL A   1      40.853  30.743  33.579  1.00  0.00     0.167 HD
ATOM     37  C   UNL A   1      42.553  28.639  32.718  1.00  0.00     0.074 A 
ATOM     38  C   UNL A   1      43.165  27.628  31.884  1.00  0.00     0.031 C 
ATOM     39  C   UNL A   1      42.960  28.941  33.975  1.00  0.00     0.037 A 
BRANCH  26  40
ATOM     40  C   UNL A   1      39.726  33.453  36.672  1.00  0.00     0.064 A 
ATOM     41  C   UNL A   1      40.400  34.673  36.830  1.00  0.00     0.173 A 
ATOM     42  C   UNL A   1      38.805  33.077  37.661  1.00  0.00     0.173 A 
ATOM     43  F   UNL A   1      41.299  35.069  35.917  1.00  0.00    -0.203 F 
ATOM     44  C   UNL A   1      40.173  35.477  37.944  1.00  0.00     0.198 A 
ATOM     45  C   UNL A   1      38.562  33.896  38.761  1.00  0.00     0.198 A 
ATOM     46  F   UNL A   1      38.133  31.921  37.555  1.00  0.00    -0.203 F 
ATOM     47  F   UNL A   1      40.856  36.619  38.092  1.00  0.00    -0.200 F 
ATOM     48  C   UNL A   1      39.249  35.091  38.903  1.00  0.00     0.200 A 
ATOM     49  F   UNL A   1      37.661  33.527  39.682  1.00  0.00    -0.200 F 
ATOM     50  F   UNL A   1      39.023  35.872  39.970  1.00  0.00    -0.200 F 
ENDBRANCH  26  40
BRANCH  27  51
ATOM     51  C   UNL A   1      40.756  27.922  28.429  1.00  0.00     0.064 A 
ATOM     52  C   UNL A   1      41.549  28.342  27.353  1.00  0.00     0.173 A 
ATOM     53  C   UNL A   1      40.120  26.677  28.327  1.00  0.00     0.173 A 
ATOM     54  F   UNL A   1      42.158  29.537  27.398  1.00  0.00    -0.203 F 
ATOM     55  C   UNL A   1      41.696  27.551  26.216  1.00  0.00     0.198 A 
ATOM     56  C   UNL A   1      40.286  25.876  27.199  1.00  0.00     0.198 A 
ATOM     57  F   UNL A   1      39.352  26.230  29.331  1.00  0.00    -0.203 F 
ATOM     58  F   UNL A   1      42.436  27.990  25.189  1.00  0.00    -0.200 F 
ATOM     59  C   UNL A   1      41.070  26.316  26.143  1.00  0.00     0.200 A 
ATOM     60  F   UNL A   1      39.690  24.678  27.136  1.00  0.00    -0.200 F 
ATOM     61  F   UNL A   1      41.220  25.551  25.053  1.00  0.00    -0.200 F 
ENDBRANCH  27  51
BRANCH  39  62
ATOM     62  C   UNL A   1      44.108  28.161  34.541  1.00  0.00     0.064 A 
ATOM     63  C   UNL A   1      43.906  26.936  35.190  1.00  0.00     0.173 A 
ATOM     64  C   UNL A   1      45.426  28.604  34.358  1.00  0.00     0.173 A 
ATOM     65  F   UNL A   1      42.662  26.478  35.397  1.00  0.00    -0.203 F 
ATOM     66  C   UNL A   1      44.986  26.183  35.644  1.00  0.00     0.198 A 
ATOM     67  C   UNL A   1      46.504  27.837  34.794  1.00  0.00     0.198 A 
ATOM     68  F   UNL A   1      45.670  29.767  33.736  1.00  0.00    -0.203 F 
ATOM     69  F   UNL A   1      44.770  25.026  36.285  1.00  0.00    -0.200 F 
ATOM     70  C   UNL A   1      46.283  26.630  35.438  1.00  0.00     0.200 A 
ATOM     71  F   UNL A   1      47.757  28.264  34.581  1.00  0.00    -0.200 F 
ATOM     72  F   UNL A   1      47.321  25.895  35.860  1.00  0.00    -0.200 F 
ENDBRANCH  39  62
ENDBRANCH  13  14
ENDBRANCH   6   8
ENDBRANCH   3   4
ENDBRANCH   2   3
ENDBRANCH   1   2
BRANCH   1  73
ATOM     73  C   UNL A   1      32.992  30.246  26.979  1.00  0.00     0.002 C 
BRANCH  73  74
ATOM     74  C   UNL A   1      33.529  29.405  25.816  1.00  0.00     0.021 C 
BRANCH  74  75
ATOM     75  C   UNL A   1      32.649  29.372  24.568  1.00  0.00     0.116 C 
BRANCH  75  76
ATOM     76  N   UNL A   1      33.434  29.302  23.344  1.00  0.00    -0.352 N 
ATOM     77  C   UNL A   1      33.649  28.230  22.520  1.00  0.00     0.256 C 
ATOM     78  H   UNL A   1      33.869  30.142  23.070  1.00  0.00     0.163 HD
ATOM     79  O   UNL A   1      34.487  28.292  21.624  1.00  0.00    -0.269 OA
BRANCH  77  80
ATOM     80  C   UNL A   1      32.867  27.001  22.692  1.00  0.00     0.102 A 
ATOM     81  C   UNL A   1      33.520  25.848  23.139  1.00  0.00     0.029 A 
ATOM     82  C   UNL A   1      31.515  26.924  22.381  1.00  0.00     0.223 A 
ATOM     83  C   UNL A   1      32.799  24.660  23.304  1.00  0.00     0.001 A 
ATOM     84  N   UNL A   1      30.781  25.811  22.560  1.00  0.00    -0.221 NA
ATOM     85  C   UNL A   1      31.434  24.713  23.011  1.00  0.00     0.124 A 
BRANCH  82  86
ATOM     86  O   UNL A   1      30.802  27.967  21.865  1.00  0.00    -0.493 OA
ATOM     87  H   UNL A   1      30.963  28.840  22.166  1.00  0.00     0.295 HD
ENDBRANCH  82  86
BRANCH  83  88
ATOM     88  C   UNL A   1      33.444  23.414  23.735  1.00  0.00    -0.016 A 
ATOM     89  C   UNL A   1      32.700  22.226  23.832  1.00  0.00     0.012 A 
ATOM     90  C   UNL A   1      34.811  23.373  24.062  1.00  0.00     0.025 A 
ATOM     91  C   UNL A   1      33.301  21.037  24.247  1.00  0.00     0.040 A 
ATOM     92  C   UNL A   1      35.424  22.179  24.484  1.00  0.00     0.092 A 
ATOM     93  C   UNL A   1      34.652  21.025  24.571  1.00  0.00     0.135 A 
ATOM     94  F   UNL A   1      35.209  19.875  24.975  1.00  0.00    -0.206 F 
BRANCH  92  95
ATOM     95  C   UNL A   1      36.874  22.115  24.858  1.00  0.00     0.419 C 
ATOM     96  F   UNL A   1      37.507  23.312  24.723  1.00  0.00    -0.166 F 
ATOM     97  F   UNL A   1      37.080  21.713  26.141  1.00  0.00    -0.166 F 
ATOM     98  F   UNL A   1      37.583  21.240  24.085  1.00  0.00    -0.166 F 
ENDBRANCH  92  95
ENDBRANCH  83  88
ENDBRANCH  77  80
ENDBRANCH  75  76
ENDBRANCH  74  75
ENDBRANCH  73  74
ENDBRANCH   1  73
TORSDOF 16
ENDMDL
