MODEL 1
REMARK VINA RESULT:     -12.4      0.000      0.000
REMARK SMILES CC1(C)[C@]2(C(=O)NCCCCCCNC(=O)c3ccc(-c4c5nc(c(-c6c(F)c(F)c(F)c(F)c6F)c6ccc([nH]6)c(-c6c(F)c(F)c(F)c(F)c6F)c6nc(c(-c7c(F)c(F)c(F)c(F)c7F)c7ccc4[nH]7)C=C6)C=C5)cc3)CC[C@@]1(C)C(=O)C2
REMARK SMILES IDX 11 1 10 2 9 3 8 4 7 5 5 6 6 7 4 9 1 10 2 11 82 12 3 13 80 14
REMARK SMILES IDX 86 15 81 16 84 17 83 18 85 19 12 20 13 21 14 22 15 23 16 25
REMARK SMILES IDX 17 26 18 27 79 28 19 29 78 30 20 31 21 32 22 33 72 34 23 35
REMARK SMILES IDX 77 36 71 37 73 38 24 39 76 40 70 41 69 42 25 44 57 45 37 46
REMARK SMILES IDX 56 47 38 48 41 49 55 50 74 51 39 52 40 53 54 55 75 56 42 57
REMARK SMILES IDX 26 58 27 59 35 60 28 61 29 62 33 63 36 64 30 65 31 66 34 67
REMARK SMILES IDX 32 68 58 69 59 70 67 71 60 72 61 73 65 74 68 75 62 76 63 77
REMARK SMILES IDX 66 78 64 79 43 80 44 81 52 82 45 83 46 84 50 85 53 86 47 87
REMARK SMILES IDX 48 88 51 89 49 90
REMARK H PARENT 7 8 14 24 73 43 41 54
REMARK Flexibility Score: inf
ROOT
ATOM      1  C   UNL A   1      31.561  30.792  26.075  1.00  0.00     0.002 C 
ENDROOT
BRANCH   1   2
ATOM      2  C   UNL A   1      32.476  29.944  26.967  1.00  0.00     0.002 C 
BRANCH   2   3
ATOM      3  C   UNL A   1      31.915  28.570  27.340  1.00  0.00     0.021 C 
BRANCH   3   4
ATOM      4  C   UNL A   1      31.653  27.677  26.131  1.00  0.00     0.116 C 
BRANCH   4   5
ATOM      5  N   UNL A   1      30.930  26.477  26.501  1.00  0.00    -0.356 N 
ATOM      6  C   UNL A   1      30.853  25.236  25.961  1.00  0.00     0.227 C 
ATOM      7  O   UNL A   1      30.065  24.460  26.510  1.00  0.00    -0.274 OA
ATOM      8  H   UNL A   1      30.381  26.586  27.311  1.00  0.00     0.163 HD
BRANCH   6   9
ATOM      9  C   UNL A   1      31.717  24.769  24.791  1.00  0.00     0.062 C 
ATOM     10  C   UNL A   1      34.157  25.324  25.703  1.00  0.00     0.013 C 
ATOM     11  C   UNL A   1      33.165  24.277  25.161  1.00  0.00    -0.008 C 
ATOM     12  C   UNL A   1      33.474  23.851  23.696  1.00  0.00     0.032 C 
ATOM     13  C   UNL A   1      33.200  23.113  26.180  1.00  0.00     0.013 C 
ATOM     14  C   UNL A   1      31.124  23.477  24.119  1.00  0.00     0.019 C 
ATOM     15  C   UNL A   1      31.884  25.761  23.613  1.00  0.00     0.093 C 
ATOM     16  C   UNL A   1      32.321  22.888  23.340  1.00  0.00     0.016 C 
ATOM     17  C   UNL A   1      33.094  25.139  22.958  1.00  0.00     0.140 C 
ATOM     18  C   UNL A   1      34.859  23.328  23.374  1.00  0.00     0.020 C 
ATOM     19  O   UNL A   1      33.653  25.602  21.975  1.00  0.00    -0.299 OA
ENDBRANCH   6   9
ENDBRANCH   4   5
ENDBRANCH   3   4
ENDBRANCH   2   3
ENDBRANCH   1   2
BRANCH   1  20
ATOM     20  C   UNL A   1      31.403  32.251  26.511  1.00  0.00     0.021 C 
BRANCH  20  21
ATOM     21  C   UNL A   1      32.606  32.815  27.256  1.00  0.00     0.116 C 
BRANCH  21  22
ATOM     22  N   UNL A   1      32.408  34.208  27.626  1.00  0.00    -0.352 N 
ATOM     23  C   UNL A   1      32.978  34.925  28.644  1.00  0.00     0.251 C 
ATOM     24  H   UNL A   1      31.770  34.707  27.065  1.00  0.00     0.163 HD
ATOM     25  O   UNL A   1      32.529  36.030  28.950  1.00  0.00    -0.269 OA
BRANCH  23  26
ATOM     26  C   UNL A   1      34.126  34.368  29.384  1.00  0.00     0.039 A 
ATOM     27  C   UNL A   1      33.894  33.676  30.575  1.00  0.00     0.014 A 
ATOM     28  C   UNL A   1      35.431  34.539  28.910  1.00  0.00     0.014 A 
ATOM     29  C   UNL A   1      34.966  33.109  31.264  1.00  0.00     0.010 A 
ATOM     30  C   UNL A   1      36.488  33.909  29.556  1.00  0.00     0.010 A 
ATOM     31  C   UNL A   1      36.269  33.196  30.744  1.00  0.00    -0.014 A 
BRANCH  31  32
ATOM     32  C   UNL A   1      37.414  32.551  31.430  1.00  0.00     0.031 A 
ATOM     33  C   UNL A   1      38.129  31.397  30.787  1.00  0.00     0.074 A 
ATOM     34  C   UNL A   1      37.769  32.964  32.661  1.00  0.00     0.049 A 
ATOM     35  N   UNL A   1      39.114  30.669  31.250  1.00  0.00    -0.248 NA
ATOM     36  C   UNL A   1      37.652  30.987  29.457  1.00  0.00     0.031 C 
ATOM     37  C   UNL A   1      37.123  34.045  33.408  1.00  0.00     0.029 A 
ATOM     38  N   UNL A   1      38.757  32.521  33.504  1.00  0.00    -0.354 N 
ATOM     39  C   UNL A   1      39.364  29.711  30.276  1.00  0.00     0.074 A 
ATOM     40  C   UNL A   1      38.388  29.911  29.226  1.00  0.00     0.031 C 
ATOM     41  C   UNL A   1      37.750  34.201  34.584  1.00  0.00     0.029 A 
ATOM     42  C   UNL A   1      38.813  33.206  34.693  1.00  0.00     0.049 A 
ATOM     43  H   UNL A   1      39.366  31.782  33.279  1.00  0.00     0.167 HD
ATOM     44  C   UNL A   1      40.335  28.766  30.249  1.00  0.00     0.037 A 
ATOM     45  C   UNL A   1      39.630  33.048  35.751  1.00  0.00     0.037 A 
ATOM     46  C   UNL A   1      41.312  28.584  31.292  1.00  0.00     0.049 A 
ATOM     47  C   UNL A   1      40.687  31.979  35.708  1.00  0.00     0.074 A 
ATOM     48  C   UNL A   1      42.374  27.698  31.336  1.00  0.00     0.029 A 
ATOM     49  N   UNL A   1      41.338  29.297  32.483  1.00  0.00    -0.354 N 
ATOM     50  N   UNL A   1      40.964  31.126  34.752  1.00  0.00    -0.248 NA
ATOM     51  C   UNL A   1      41.548  31.855  36.892  1.00  0.00     0.031 C 
ATOM     52  C   UNL A   1      43.008  27.835  32.575  1.00  0.00     0.029 A 
ATOM     53  C   UNL A   1      42.379  28.849  33.281  1.00  0.00     0.049 A 
ATOM     54  H   UNL A   1      40.709  30.015  32.725  1.00  0.00     0.167 HD
ATOM     55  C   UNL A   1      42.047  30.384  35.204  1.00  0.00     0.074 A 
ATOM     56  C   UNL A   1      42.385  30.898  36.515  1.00  0.00     0.031 C 
ATOM     57  C   UNL A   1      42.705  29.371  34.585  1.00  0.00     0.037 A 
BRANCH  44  58
ATOM     58  C   UNL A   1      40.377  27.854  29.055  1.00  0.00     0.064 A 
ATOM     59  C   UNL A   1      41.144  28.159  27.919  1.00  0.00     0.173 A 
ATOM     60  C   UNL A   1      39.647  26.657  29.049  1.00  0.00     0.173 A 
ATOM     61  F   UNL A   1      41.855  29.296  27.868  1.00  0.00    -0.203 F 
ATOM     62  C   UNL A   1      41.141  27.322  26.806  1.00  0.00     0.198 A 
ATOM     63  C   UNL A   1      39.676  25.804  27.947  1.00  0.00     0.198 A 
ATOM     64  F   UNL A   1      38.903  26.310  30.109  1.00  0.00    -0.203 F 
ATOM     65  F   UNL A   1      41.827  27.669  25.707  1.00  0.00    -0.200 F 
ATOM     66  C   UNL A   1      40.412  26.144  26.822  1.00  0.00     0.200 A 
ATOM     67  F   UNL A   1      38.981  24.658  27.971  1.00  0.00    -0.200 F 
ATOM     68  F   UNL A   1      40.409  25.341  25.750  1.00  0.00    -0.200 F 
ENDBRANCH  44  58
BRANCH  45  69
ATOM     69  C   UNL A   1      39.500  33.952  36.923  1.00  0.00     0.064 A 
ATOM     70  C   UNL A   1      38.749  33.569  38.043  1.00  0.00     0.173 A 
ATOM     71  C   UNL A   1      40.135  35.202  36.958  1.00  0.00     0.173 A 
ATOM     72  F   UNL A   1      38.108  32.391  38.048  1.00  0.00    -0.203 F 
ATOM     73  C   UNL A   1      38.627  34.407  39.149  1.00  0.00     0.198 A 
ATOM     74  C   UNL A   1      40.036  36.028  38.077  1.00  0.00     0.198 A 
ATOM     75  F   UNL A   1      40.871  35.611  35.915  1.00  0.00    -0.203 F 
ATOM     76  F   UNL A   1      37.874  34.032  40.191  1.00  0.00    -0.200 F 
ATOM     77  C   UNL A   1      39.278  35.632  39.168  1.00  0.00     0.200 A 
ATOM     78  F   UNL A   1      40.679  37.203  38.098  1.00  0.00    -0.200 F 
ATOM     79  F   UNL A   1      39.169  36.433  40.237  1.00  0.00    -0.200 F 
ENDBRANCH  45  69
BRANCH  57  80
ATOM     80  C   UNL A   1      43.879  28.773  35.305  1.00  0.00     0.064 A 
ATOM     81  C   UNL A   1      43.735  27.684  36.177  1.00  0.00     0.173 A 
ATOM     82  C   UNL A   1      45.172  29.274  35.089  1.00  0.00     0.173 A 
ATOM     83  F   UNL A   1      42.519  27.178  36.431  1.00  0.00    -0.203 F 
ATOM     84  C   UNL A   1      44.839  27.136  36.826  1.00  0.00     0.198 A 
ATOM     85  C   UNL A   1      46.277  28.702  35.713  1.00  0.00     0.198 A 
ATOM     86  F   UNL A   1      45.367  30.310  34.259  1.00  0.00    -0.203 F 
ATOM     87  F   UNL A   1      44.670  26.129  37.695  1.00  0.00    -0.200 F 
ATOM     88  C   UNL A   1      46.109  27.640  36.588  1.00  0.00     0.200 A 
ATOM     89  F   UNL A   1      47.505  29.180  35.469  1.00  0.00    -0.200 F 
ATOM     90  F   UNL A   1      47.170  27.105  37.207  1.00  0.00    -0.200 F 
ENDBRANCH  57  80
ENDBRANCH  31  32
ENDBRANCH  23  26
ENDBRANCH  21  22
ENDBRANCH  20  21
ENDBRANCH   1  20
TORSDOF 13
ENDMDL
MODEL 2
REMARK VINA RESULT:     -12.3      0.293      1.645
REMARK SMILES CC1(C)[C@]2(C(=O)NCCCCCCNC(=O)c3ccc(-c4c5nc(c(-c6c(F)c(F)c(F)c(F)c6F)c6ccc([nH]6)c(-c6c(F)c(F)c(F)c(F)c6F)c6nc(c(-c7c(F)c(F)c(F)c(F)c7F)c7ccc4[nH]7)C=C6)C=C5)cc3)CC[C@@]1(C)C(=O)C2
REMARK SMILES IDX 11 1 10 2 9 3 8 4 7 5 5 6 6 7 4 9 1 10 2 11 82 12 3 13 80 14
REMARK SMILES IDX 86 15 81 16 84 17 83 18 85 19 12 20 13 21 14 22 15 23 16 25
REMARK SMILES IDX 17 26 18 27 79 28 19 29 78 30 20 31 21 32 22 33 72 34 23 35
REMARK SMILES IDX 77 36 71 37 73 38 24 39 76 40 70 41 69 42 25 44 57 45 37 46
REMARK SMILES IDX 56 47 38 48 41 49 55 50 74 51 39 52 40 53 54 55 75 56 42 57
REMARK SMILES IDX 26 58 27 59 35 60 28 61 29 62 33 63 36 64 30 65 31 66 34 67
REMARK SMILES IDX 32 68 58 69 59 70 67 71 60 72 61 73 65 74 68 75 62 76 63 77
REMARK SMILES IDX 66 78 64 79 43 80 44 81 52 82 45 83 46 84 50 85 53 86 47 87
REMARK SMILES IDX 48 88 51 89 49 90
REMARK H PARENT 7 8 14 24 73 43 41 54
REMARK Flexibility Score: inf
ROOT
ATOM      1  C   UNL A   1      31.461  30.788  26.134  1.00  0.00     0.002 C 
ENDROOT
BRANCH   1   2
ATOM      2  C   UNL A   1      32.632  30.040  26.783  1.00  0.00     0.002 C 
BRANCH   2   3
ATOM      3  C   UNL A   1      32.337  28.585  27.153  1.00  0.00     0.021 C 
BRANCH   3   4
ATOM      4  C   UNL A   1      31.616  27.816  26.050  1.00  0.00     0.116 C 
BRANCH   4   5
ATOM      5  N   UNL A   1      31.029  26.590  26.551  1.00  0.00    -0.356 N 
ATOM      6  C   UNL A   1      31.051  25.305  26.118  1.00  0.00     0.227 C 
ATOM      7  O   UNL A   1      30.366  24.508  26.766  1.00  0.00    -0.274 OA
ATOM      8  H   UNL A   1      30.507  26.715  27.376  1.00  0.00     0.163 HD
BRANCH   6   9
ATOM      9  C   UNL A   1      31.907  24.824  24.947  1.00  0.00     0.062 C 
ATOM     10  C   UNL A   1      34.319  25.673  25.693  1.00  0.00     0.013 C 
ATOM     11  C   UNL A   1      33.409  24.498  25.285  1.00  0.00    -0.008 C 
ATOM     12  C   UNL A   1      33.697  23.982  23.845  1.00  0.00     0.032 C 
ATOM     13  C   UNL A   1      33.596  23.431  26.389  1.00  0.00     0.013 C 
ATOM     14  C   UNL A   1      31.412  23.432  24.409  1.00  0.00     0.019 C 
ATOM     15  C   UNL A   1      31.931  25.726  23.688  1.00  0.00     0.093 C 
ATOM     16  C   UNL A   1      32.627  22.892  23.622  1.00  0.00     0.016 C 
ATOM     17  C   UNL A   1      33.167  25.164  23.027  1.00  0.00     0.140 C 
ATOM     18  C   UNL A   1      35.111  23.563  23.498  1.00  0.00     0.020 C 
ATOM     19  O   UNL A   1      33.638  25.593  21.984  1.00  0.00    -0.299 OA
ENDBRANCH   6   9
ENDBRANCH   4   5
ENDBRANCH   3   4
ENDBRANCH   2   3
ENDBRANCH   1   2
BRANCH   1  20
ATOM     20  C   UNL A   1      31.359  32.272  26.496  1.00  0.00     0.021 C 
BRANCH  20  21
ATOM     21  C   UNL A   1      32.557  32.811  27.268  1.00  0.00     0.116 C 
BRANCH  21  22
ATOM     22  N   UNL A   1      32.387  34.212  27.619  1.00  0.00    -0.352 N 
ATOM     23  C   UNL A   1      32.998  34.940  28.605  1.00  0.00     0.251 C 
ATOM     24  H   UNL A   1      31.739  34.709  27.069  1.00  0.00     0.163 HD
ATOM     25  O   UNL A   1      32.572  36.056  28.905  1.00  0.00    -0.269 OA
BRANCH  23  26
ATOM     26  C   UNL A   1      34.162  34.382  29.318  1.00  0.00     0.039 A 
ATOM     27  C   UNL A   1      33.960  33.720  30.532  1.00  0.00     0.014 A 
ATOM     28  C   UNL A   1      35.453  34.522  28.799  1.00  0.00     0.014 A 
ATOM     29  C   UNL A   1      35.046  33.152  31.198  1.00  0.00     0.010 A 
ATOM     30  C   UNL A   1      36.522  33.890  29.423  1.00  0.00     0.010 A 
ATOM     31  C   UNL A   1      36.331  33.207  30.633  1.00  0.00    -0.014 A 
BRANCH  31  32
ATOM     32  C   UNL A   1      37.489  32.558  31.296  1.00  0.00     0.031 A 
ATOM     33  C   UNL A   1      38.222  31.440  30.613  1.00  0.00     0.074 A 
ATOM     34  C   UNL A   1      37.840  32.937  32.539  1.00  0.00     0.049 A 
ATOM     35  N   UNL A   1      39.221  30.714  31.049  1.00  0.00    -0.248 NA
ATOM     36  C   UNL A   1      37.749  31.066  29.271  1.00  0.00     0.031 C 
ATOM     37  C   UNL A   1      37.177  33.981  33.323  1.00  0.00     0.029 A 
ATOM     38  N   UNL A   1      38.837  32.483  33.365  1.00  0.00    -0.354 N 
ATOM     39  C   UNL A   1      39.486  29.794  30.044  1.00  0.00     0.074 A 
ATOM     40  C   UNL A   1      38.504  30.011  29.002  1.00  0.00     0.031 C 
ATOM     41  C   UNL A   1      37.804  34.108  34.502  1.00  0.00     0.029 A 
ATOM     42  C   UNL A   1      38.884  33.129  34.575  1.00  0.00     0.049 A 
ATOM     43  H   UNL A   1      39.459  31.763  33.114  1.00  0.00     0.167 HD
ATOM     44  C   UNL A   1      40.473  28.867  29.984  1.00  0.00     0.037 A 
ATOM     45  C   UNL A   1      39.706  32.950  35.627  1.00  0.00     0.037 A 
ATOM     46  C   UNL A   1      41.455  28.667  31.018  1.00  0.00     0.049 A 
ATOM     47  C   UNL A   1      40.782  31.901  35.546  1.00  0.00     0.074 A 
ATOM     48  C   UNL A   1      42.532  27.799  31.030  1.00  0.00     0.029 A 
ATOM     49  N   UNL A   1      41.471  29.340  32.232  1.00  0.00    -0.354 N 
ATOM     50  N   UNL A   1      41.071  31.085  34.562  1.00  0.00    -0.248 NA
ATOM     51  C   UNL A   1      41.647  31.753  36.724  1.00  0.00     0.031 C 
ATOM     52  C   UNL A   1      43.166  27.905  32.272  1.00  0.00     0.029 A 
ATOM     53  C   UNL A   1      42.522  28.885  33.012  1.00  0.00     0.049 A 
ATOM     54  H   UNL A   1      40.831  30.039  32.498  1.00  0.00     0.167 HD
ATOM     55  C   UNL A   1      42.168  30.348  34.986  1.00  0.00     0.074 A 
ATOM     56  C   UNL A   1      42.500  30.824  36.313  1.00  0.00     0.031 C 
ATOM     57  C   UNL A   1      42.842  29.368  34.333  1.00  0.00     0.037 A 
BRANCH  44  58
ATOM     58  C   UNL A   1      40.528  27.997  28.759  1.00  0.00     0.064 A 
ATOM     59  C   UNL A   1      39.840  26.775  28.690  1.00  0.00     0.173 A 
ATOM     60  C   UNL A   1      41.272  28.392  27.638  1.00  0.00     0.173 A 
ATOM     61  F   UNL A   1      39.119  26.344  29.736  1.00  0.00    -0.203 F 
ATOM     62  C   UNL A   1      39.933  25.962  27.563  1.00  0.00     0.198 A 
ATOM     63  C   UNL A   1      41.333  27.593  26.499  1.00  0.00     0.198 A 
ATOM     64  F   UNL A   1      41.944  29.553  27.645  1.00  0.00    -0.203 F 
ATOM     65  F   UNL A   1      39.322  24.769  27.547  1.00  0.00    -0.200 F 
ATOM     66  C   UNL A   1      40.674  26.373  26.467  1.00  0.00     0.200 A 
ATOM     67  F   UNL A   1      42.039  27.999  25.435  1.00  0.00    -0.200 F 
ATOM     68  F   UNL A   1      40.764  25.590  25.384  1.00  0.00    -0.200 F 
ENDBRANCH  44  58
BRANCH  45  69
ATOM     69  C   UNL A   1      39.564  33.812  36.829  1.00  0.00     0.064 A 
ATOM     70  C   UNL A   1      40.196  35.061  36.892  1.00  0.00     0.173 A 
ATOM     71  C   UNL A   1      38.782  33.419  37.924  1.00  0.00     0.173 A 
ATOM     72  F   UNL A   1      40.970  35.472  35.875  1.00  0.00    -0.203 F 
ATOM     73  C   UNL A   1      40.063  35.879  38.011  1.00  0.00     0.198 A 
ATOM     74  C   UNL A   1      38.626  34.251  39.032  1.00  0.00     0.198 A 
ATOM     75  F   UNL A   1      38.150  32.236  37.909  1.00  0.00    -0.203 F 
ATOM     76  F   UNL A   1      40.708  37.053  38.060  1.00  0.00    -0.200 F 
ATOM     77  C   UNL A   1      39.272  35.477  39.076  1.00  0.00     0.200 A 
ATOM     78  F   UNL A   1      37.848  33.866  40.052  1.00  0.00    -0.200 F 
ATOM     79  F   UNL A   1      39.135  36.270  40.148  1.00  0.00    -0.200 F 
ENDBRANCH  45  69
BRANCH  57  80
ATOM     80  C   UNL A   1      44.028  28.766  35.031  1.00  0.00     0.064 A 
ATOM     81  C   UNL A   1      43.909  27.630  35.844  1.00  0.00     0.173 A 
ATOM     82  C   UNL A   1      45.307  29.314  34.850  1.00  0.00     0.173 A 
ATOM     83  F   UNL A   1      42.707  27.078  36.061  1.00  0.00    -0.203 F 
ATOM     84  C   UNL A   1      45.024  27.081  36.473  1.00  0.00     0.198 A 
ATOM     85  C   UNL A   1      46.424  28.742  35.453  1.00  0.00     0.198 A 
ATOM     86  F   UNL A   1      45.478  30.397  34.077  1.00  0.00    -0.203 F 
ATOM     87  F   UNL A   1      44.878  26.026  37.287  1.00  0.00    -0.200 F 
ATOM     88  C   UNL A   1      46.280  27.632  36.271  1.00  0.00     0.200 A 
ATOM     89  F   UNL A   1      47.639  29.267  35.244  1.00  0.00    -0.200 F 
ATOM     90  F   UNL A   1      47.353  27.096  36.870  1.00  0.00    -0.200 F 
ENDBRANCH  57  80
ENDBRANCH  31  32
ENDBRANCH  23  26
ENDBRANCH  21  22
ENDBRANCH  20  21
ENDBRANCH   1  20
TORSDOF 13
ENDMDL
MODEL 3
REMARK VINA RESULT:     -12.2      5.774     11.145
REMARK SMILES CC1(C)[C@]2(C(=O)NCCCCCCNC(=O)c3ccc(-c4c5nc(c(-c6c(F)c(F)c(F)c(F)c6F)c6ccc([nH]6)c(-c6c(F)c(F)c(F)c(F)c6F)c6nc(c(-c7c(F)c(F)c(F)c(F)c7F)c7ccc4[nH]7)C=C6)C=C5)cc3)CC[C@@]1(C)C(=O)C2
REMARK SMILES IDX 11 1 10 2 9 3 8 4 7 5 5 6 6 7 4 9 1 10 2 11 82 12 3 13 80 14
REMARK SMILES IDX 86 15 81 16 84 17 83 18 85 19 12 20 13 21 14 22 15 23 16 25
REMARK SMILES IDX 17 26 18 27 79 28 19 29 78 30 20 31 21 32 22 33 72 34 23 35
REMARK SMILES IDX 77 36 71 37 73 38 24 39 76 40 70 41 69 42 25 44 57 45 37 46
REMARK SMILES IDX 56 47 38 48 41 49 55 50 74 51 39 52 40 53 54 55 75 56 42 57
REMARK SMILES IDX 26 58 27 59 35 60 28 61 29 62 33 63 36 64 30 65 31 66 34 67
REMARK SMILES IDX 32 68 58 69 59 70 67 71 60 72 61 73 65 74 68 75 62 76 63 77
REMARK SMILES IDX 66 78 64 79 43 80 44 81 52 82 45 83 46 84 50 85 53 86 47 87
REMARK SMILES IDX 48 88 51 89 49 90
REMARK H PARENT 7 8 14 24 73 43 41 54
REMARK Flexibility Score: inf
ROOT
ATOM      1  C   UNL A   1      36.899  20.474  24.983  1.00  0.00     0.002 C 
ENDROOT
BRANCH   1   2
ATOM      2  C   UNL A   1      37.071  21.837  24.300  1.00  0.00     0.002 C 
BRANCH   2   3
ATOM      3  C   UNL A   1      37.447  22.984  25.241  1.00  0.00     0.021 C 
BRANCH   3   4
ATOM      4  C   UNL A   1      36.238  23.742  25.781  1.00  0.00     0.116 C 
BRANCH   4   5
ATOM      5  N   UNL A   1      35.478  22.937  26.714  1.00  0.00    -0.356 N 
ATOM      6  C   UNL A   1      34.157  22.853  27.007  1.00  0.00     0.227 C 
ATOM      7  O   UNL A   1      33.858  22.090  27.931  1.00  0.00    -0.274 OA
ATOM      8  H   UNL A   1      36.035  22.324  27.246  1.00  0.00     0.163 HD
BRANCH   6   9
ATOM      9  C   UNL A   1      33.071  23.590  26.224  1.00  0.00     0.062 C 
ATOM     10  C   UNL A   1      33.586  22.774  23.742  1.00  0.00     0.013 C 
ATOM     11  C   UNL A   1      32.581  22.887  24.904  1.00  0.00    -0.008 C 
ATOM     12  C   UNL A   1      31.483  23.962  24.653  1.00  0.00     0.032 C 
ATOM     13  C   UNL A   1      32.030  21.456  25.112  1.00  0.00     0.013 C 
ATOM     14  C   UNL A   1      31.728  23.667  27.039  1.00  0.00     0.019 C 
ATOM     15  C   UNL A   1      33.365  25.064  25.847  1.00  0.00     0.093 C 
ATOM     16  C   UNL A   1      30.663  23.966  25.961  1.00  0.00     0.016 C 
ATOM     17  C   UNL A   1      32.326  25.236  24.765  1.00  0.00     0.140 C 
ATOM     18  C   UNL A   1      30.657  23.866  23.386  1.00  0.00     0.020 C 
ATOM     19  O   UNL A   1      32.187  26.258  24.109  1.00  0.00    -0.299 OA
ENDBRANCH   6   9
ENDBRANCH   4   5
ENDBRANCH   3   4
ENDBRANCH   2   3
ENDBRANCH   1   2
BRANCH   1  20
ATOM     20  C   UNL A   1      38.136  19.573  24.950  1.00  0.00     0.021 C 
BRANCH  20  21
ATOM     21  C   UNL A   1      39.299  20.074  25.796  1.00  0.00     0.116 C 
BRANCH  21  22
ATOM     22  N   UNL A   1      40.347  19.074  25.921  1.00  0.00    -0.352 N 
ATOM     23  C   UNL A   1      41.698  19.246  26.063  1.00  0.00     0.251 C 
ATOM     24  H   UNL A   1      40.042  18.137  25.898  1.00  0.00     0.163 HD
ATOM     25  O   UNL A   1      42.462  18.289  25.929  1.00  0.00    -0.269 OA
BRANCH  23  26
ATOM     26  C   UNL A   1      42.242  20.583  26.366  1.00  0.00     0.039 A 
ATOM     27  C   UNL A   1      42.661  21.399  25.312  1.00  0.00     0.014 A 
ATOM     28  C   UNL A   1      42.352  21.026  27.687  1.00  0.00     0.014 A 
ATOM     29  C   UNL A   1      43.141  22.681  25.580  1.00  0.00     0.010 A 
ATOM     30  C   UNL A   1      42.757  22.330  27.948  1.00  0.00     0.010 A 
ATOM     31  C   UNL A   1      43.164  23.167  26.898  1.00  0.00    -0.014 A 
BRANCH  31  32
ATOM     32  C   UNL A   1      43.614  24.548  27.199  1.00  0.00     0.031 A 
ATOM     33  C   UNL A   1      42.647  25.557  27.748  1.00  0.00     0.074 A 
ATOM     34  C   UNL A   1      44.880  24.910  26.918  1.00  0.00     0.049 A 
ATOM     35  N   UNL A   1      42.835  26.823  28.025  1.00  0.00    -0.248 NA
ATOM     36  C   UNL A   1      41.274  25.087  27.992  1.00  0.00     0.031 C 
ATOM     37  C   UNL A   1      45.901  24.033  26.341  1.00  0.00     0.029 A 
ATOM     38  N   UNL A   1      45.524  26.112  27.072  1.00  0.00    -0.354 N 
ATOM     39  C   UNL A   1      41.606  27.300  28.460  1.00  0.00     0.074 A 
ATOM     40  C   UNL A   1      40.665  26.206  28.353  1.00  0.00     0.031 C 
ATOM     41  C   UNL A   1      47.049  24.716  26.219  1.00  0.00     0.029 A 
ATOM     42  C   UNL A   1      46.836  26.088  26.669  1.00  0.00     0.049 A 
ATOM     43  H   UNL A   1      45.086  26.914  27.438  1.00  0.00     0.167 HD
ATOM     44  C   UNL A   1      41.296  28.533  28.930  1.00  0.00     0.037 A 
ATOM     45  C   UNL A   1      47.762  27.066  26.661  1.00  0.00     0.037 A 
ATOM     46  C   UNL A   1      42.242  29.613  29.046  1.00  0.00     0.049 A 
ATOM     47  C   UNL A   1      47.389  28.432  27.168  1.00  0.00     0.074 A 
ATOM     48  C   UNL A   1      42.046  30.880  29.565  1.00  0.00     0.029 A 
ATOM     49  N   UNL A   1      43.564  29.553  28.627  1.00  0.00    -0.354 N 
ATOM     50  N   UNL A   1      46.245  28.855  27.647  1.00  0.00    -0.248 NA
ATOM     51  C   UNL A   1      48.442  29.457  27.135  1.00  0.00     0.031 C 
ATOM     52  C   UNL A   1      43.232  31.606  29.408  1.00  0.00     0.029 A 
ATOM     53  C   UNL A   1      44.187  30.772  28.847  1.00  0.00     0.049 A 
ATOM     54  H   UNL A   1      43.995  28.762  28.231  1.00  0.00     0.167 HD
ATOM     55  C   UNL A   1      46.445  30.183  28.000  1.00  0.00     0.074 A 
ATOM     56  C   UNL A   1      47.826  30.491  27.692  1.00  0.00     0.031 C 
ATOM     57  C   UNL A   1      45.564  31.065  28.536  1.00  0.00     0.037 A 
BRANCH  44  58
ATOM     58  C   UNL A   1      39.871  28.776  29.342  1.00  0.00     0.064 A 
ATOM     59  C   UNL A   1      39.427  28.526  30.650  1.00  0.00     0.173 A 
ATOM     60  C   UNL A   1      38.938  29.272  28.419  1.00  0.00     0.173 A 
ATOM     61  F   UNL A   1      40.275  28.043  31.571  1.00  0.00    -0.203 F 
ATOM     62  C   UNL A   1      38.094  28.719  31.005  1.00  0.00     0.198 A 
ATOM     63  C   UNL A   1      37.614  29.498  28.788  1.00  0.00     0.198 A 
ATOM     64  F   UNL A   1      39.307  29.536  27.157  1.00  0.00    -0.203 F 
ATOM     65  F   UNL A   1      37.680  28.409  32.241  1.00  0.00    -0.200 F 
ATOM     66  C   UNL A   1      37.191  29.210  30.076  1.00  0.00     0.200 A 
ATOM     67  F   UNL A   1      36.745  29.986  27.892  1.00  0.00    -0.200 F 
ATOM     68  F   UNL A   1      35.909  29.394  30.418  1.00  0.00    -0.200 F 
ENDBRANCH  44  58
BRANCH  45  69
ATOM     69  C   UNL A   1      49.140  26.771  26.192  1.00  0.00     0.064 A 
ATOM     70  C   UNL A   1      50.099  26.247  27.070  1.00  0.00     0.173 A 
ATOM     71  C   UNL A   1      49.522  26.985  24.859  1.00  0.00     0.173 A 
ATOM     72  F   UNL A   1      49.785  26.044  28.359  1.00  0.00    -0.203 F 
ATOM     73  C   UNL A   1      51.391  25.961  26.638  1.00  0.00     0.198 A 
ATOM     74  C   UNL A   1      50.808  26.671  24.421  1.00  0.00     0.198 A 
ATOM     75  F   UNL A   1      48.640  27.477  23.978  1.00  0.00    -0.203 F 
ATOM     76  F   UNL A   1      52.298  25.496  27.508  1.00  0.00    -0.200 F 
ATOM     77  C   UNL A   1      51.742  26.165  25.312  1.00  0.00     0.200 A 
ATOM     78  F   UNL A   1      51.138  26.855  23.136  1.00  0.00    -0.200 F 
ATOM     79  F   UNL A   1      52.983  25.880  24.894  1.00  0.00    -0.200 F 
ENDBRANCH  45  69
BRANCH  57  80
ATOM     80  C   UNL A   1      46.076  32.440  28.855  1.00  0.00     0.064 A 
ATOM     81  C   UNL A   1      46.668  32.741  30.090  1.00  0.00     0.173 A 
ATOM     82  C   UNL A   1      46.007  33.461  27.894  1.00  0.00     0.173 A 
ATOM     83  F   UNL A   1      46.745  31.806  31.047  1.00  0.00    -0.203 F 
ATOM     84  C   UNL A   1      47.147  34.021  30.361  1.00  0.00     0.198 A 
ATOM     85  C   UNL A   1      46.518  34.729  28.156  1.00  0.00     0.198 A 
ATOM     86  F   UNL A   1      45.456  33.225  26.693  1.00  0.00    -0.203 F 
ATOM     87  F   UNL A   1      47.661  34.299  31.567  1.00  0.00    -0.200 F 
ATOM     88  C   UNL A   1      47.079  35.011  29.392  1.00  0.00     0.200 A 
ATOM     89  F   UNL A   1      46.464  35.680  27.213  1.00  0.00    -0.200 F 
ATOM     90  F   UNL A   1      47.548  36.239  29.653  1.00  0.00    -0.200 F 
ENDBRANCH  57  80
ENDBRANCH  31  32
ENDBRANCH  23  26
ENDBRANCH  21  22
ENDBRANCH  20  21
ENDBRANCH   1  20
TORSDOF 13
ENDMDL
