MODEL 1
REMARK VINA RESULT:     -12.6      0.000      0.000
REMARK SMILES COc1c(N)cc(-c2ccccc2)cc1C(=O)NCCCCCCNC(=O)c1ccc(-c2c3nc(c(-c4c(F)c(F)c(F)c(F)c4F)c4ccc([nH]4)c(-c4c(F)c(F)c(F)c(F)c4F)c4nc(c(-c5c(F)c(F)c(F)c(F)c5F)c5ccc2[nH]5)C=C4)C=C3)cc1
REMARK SMILES IDX 22 1 21 2 20 3 19 4 18 5 16 6 17 7 15 9 3 10 4 11 6 12 14 13
REMARK SMILES IDX 7 14 2 15 1 16 5 17 8 20 9 21 13 22 10 23 12 24 11 25 23 26
REMARK SMILES IDX 24 27 25 28 26 29 27 31 28 32 29 33 90 34 30 35 89 36 31 37
REMARK SMILES IDX 32 38 33 39 83 40 34 41 88 42 82 43 84 44 35 45 87 46 81 47
REMARK SMILES IDX 80 48 36 50 68 51 48 52 67 53 49 54 52 55 66 56 85 57 50 58
REMARK SMILES IDX 51 59 65 61 86 62 53 63 37 64 38 65 46 66 39 67 40 68 44 69
REMARK SMILES IDX 47 70 41 71 42 72 45 73 43 74 69 75 70 76 78 77 71 78 72 79
REMARK SMILES IDX 76 80 79 81 73 82 74 83 77 84 75 85 54 86 55 87 63 88 56 89
REMARK SMILES IDX 57 90 61 91 64 92 58 93 59 94 62 95 60 96
REMARK H PARENT 18 8 5 18 5 19 25 30 84 49 52 60
REMARK Flexibility Score: inf
ROOT
ATOM      1  C   UNL A   1      31.422  30.702  26.245  1.00  0.00     0.002 C 
ENDROOT
BRANCH   1   2
ATOM      2  C   UNL A   1      32.801  30.057  26.077  1.00  0.00     0.002 C 
BRANCH   2   3
ATOM      3  C   UNL A   1      33.100  28.803  26.891  1.00  0.00     0.021 C 
BRANCH   3   4
ATOM      4  C   UNL A   1      32.800  27.451  26.264  1.00  0.00     0.116 C 
BRANCH   4   5
ATOM      5  N   UNL A   1      33.304  27.201  24.948  1.00  0.00    -0.352 N 
ATOM      6  C   UNL A   1      32.631  27.227  23.746  1.00  0.00     0.255 C 
ATOM      7  O   UNL A   1      33.324  27.025  22.743  1.00  0.00    -0.269 OA
ATOM      8  H   UNL A   1      34.262  26.982  24.895  1.00  0.00     0.163 HD
BRANCH   6   9
ATOM      9  C   UNL A   1      31.140  27.401  23.558  1.00  0.00     0.084 A 
ATOM     10  C   UNL A   1      30.086  26.506  23.867  1.00  0.00     0.154 A 
ATOM     11  C   UNL A   1      28.737  26.927  23.745  1.00  0.00     0.076 A 
ATOM     12  C   UNL A   1      28.449  28.179  23.204  1.00  0.00     0.038 A 
ATOM     13  C   UNL A   1      30.787  28.694  23.083  1.00  0.00     0.026 A 
ATOM     14  C   UNL A   1      29.455  29.101  22.908  1.00  0.00    -0.015 A 
BRANCH  10  15
ATOM     15  O   UNL A   1      30.321  25.260  24.411  1.00  0.00    -0.494 OA
ATOM     16  C   UNL A   1      30.605  24.263  23.410  1.00  0.00     0.278 C 
ENDBRANCH  10  15
BRANCH  11  17
ATOM     17  N   UNL A   1      27.657  26.114  24.101  1.00  0.00    -0.396 N 
ATOM     18  H   UNL A   1      27.780  25.140  24.181  1.00  0.00     0.156 HD
ATOM     19  H   UNL A   1      26.774  26.515  24.274  1.00  0.00     0.156 HD
ENDBRANCH  11  17
BRANCH  14  20
ATOM     20  C   UNL A   1      29.076  30.462  22.497  1.00  0.00    -0.018 A 
ATOM     21  C   UNL A   1      29.120  31.515  23.433  1.00  0.00     0.009 A 
ATOM     22  C   UNL A   1      28.595  30.744  21.212  1.00  0.00     0.009 A 
ATOM     23  C   UNL A   1      28.665  32.793  23.111  1.00  0.00     0.001 A 
ATOM     24  C   UNL A   1      28.139  32.027  20.887  1.00  0.00     0.001 A 
ATOM     25  C   UNL A   1      28.164  33.046  21.839  1.00  0.00     0.000 A 
ENDBRANCH  14  20
ENDBRANCH   6   9
ENDBRANCH   4   5
ENDBRANCH   3   4
ENDBRANCH   2   3
ENDBRANCH   1   2
BRANCH   1  26
ATOM     26  C   UNL A   1      31.374  32.209  26.502  1.00  0.00     0.021 C 
BRANCH  26  27
ATOM     27  C   UNL A   1      32.556  32.814  27.250  1.00  0.00     0.116 C 
BRANCH  27  28
ATOM     28  N   UNL A   1      32.347  34.200  27.627  1.00  0.00    -0.352 N 
ATOM     29  C   UNL A   1      32.985  34.968  28.569  1.00  0.00     0.251 C 
ATOM     30  H   UNL A   1      31.635  34.663  27.128  1.00  0.00     0.163 HD
ATOM     31  O   UNL A   1      32.563  36.088  28.834  1.00  0.00    -0.269 OA
BRANCH  29  32
ATOM     32  C   UNL A   1      34.167  34.446  29.290  1.00  0.00     0.039 A 
ATOM     33  C   UNL A   1      33.975  33.827  30.529  1.00  0.00     0.014 A 
ATOM     34  C   UNL A   1      35.458  34.581  28.771  1.00  0.00     0.014 A 
ATOM     35  C   UNL A   1      35.065  33.285  31.214  1.00  0.00     0.010 A 
ATOM     36  C   UNL A   1      36.534  33.977  29.419  1.00  0.00     0.010 A 
ATOM     37  C   UNL A   1      36.349  33.321  30.646  1.00  0.00    -0.014 A 
BRANCH  37  38
ATOM     38  C   UNL A   1      37.503  32.664  31.315  1.00  0.00     0.031 A 
ATOM     39  C   UNL A   1      38.224  31.526  30.647  1.00  0.00     0.074 A 
ATOM     40  C   UNL A   1      37.863  33.057  32.551  1.00  0.00     0.049 A 
ATOM     41  N   UNL A   1      39.205  30.788  31.100  1.00  0.00    -0.248 NA
ATOM     42  C   UNL A   1      37.764  31.152  29.301  1.00  0.00     0.031 C 
ATOM     43  C   UNL A   1      37.220  34.124  33.320  1.00  0.00     0.029 A 
ATOM     44  N   UNL A   1      38.854  32.600  33.385  1.00  0.00    -0.354 N 
ATOM     45  C   UNL A   1      39.476  29.862  30.101  1.00  0.00     0.074 A 
ATOM     46  C   UNL A   1      38.516  30.093  29.043  1.00  0.00     0.031 C 
ATOM     47  C   UNL A   1      37.847  34.256  34.500  1.00  0.00     0.029 A 
ATOM     48  C   UNL A   1      38.904  33.256  34.592  1.00  0.00     0.049 A 
ATOM     49  H   UNL A   1      39.469  31.871  33.142  1.00  0.00     0.167 HD
ATOM     50  C   UNL A   1      40.449  28.921  30.061  1.00  0.00     0.037 A 
ATOM     51  C   UNL A   1      39.706  33.064  35.658  1.00  0.00     0.037 A 
ATOM     52  C   UNL A   1      41.409  28.702  31.113  1.00  0.00     0.049 A 
ATOM     53  C   UNL A   1      40.757  31.987  35.600  1.00  0.00     0.074 A 
ATOM     54  C   UNL A   1      42.463  27.806  31.148  1.00  0.00     0.029 A 
ATOM     55  N   UNL A   1      41.426  29.385  32.321  1.00  0.00    -0.354 N 
ATOM     56  N   UNL A   1      41.043  31.159  34.625  1.00  0.00    -0.248 NA
ATOM     57  C   UNL A   1      41.598  31.821  36.793  1.00  0.00     0.031 C 
ATOM     58  C   UNL A   1      43.083  27.907  32.397  1.00  0.00     0.029 A 
ATOM     59  C   UNL A   1      42.455  28.909  33.119  1.00  0.00     0.049 A 
ATOM     60  H   UNL A   1      40.801  30.102  32.575  1.00  0.00     0.167 HD
ATOM     61  C   UNL A   1      42.114  30.398  35.072  1.00  0.00     0.074 A 
ATOM     62  C   UNL A   1      42.437  30.872  36.401  1.00  0.00     0.031 C 
ATOM     63  C   UNL A   1      42.771  29.395  34.438  1.00  0.00     0.037 A 
BRANCH  50  64
ATOM     64  C   UNL A   1      40.526  28.051  28.839  1.00  0.00     0.064 A 
ATOM     65  C   UNL A   1      39.822  26.839  28.750  1.00  0.00     0.173 A 
ATOM     66  C   UNL A   1      41.277  28.452  27.724  1.00  0.00     0.173 A 
ATOM     67  F   UNL A   1      39.095  26.404  29.791  1.00  0.00    -0.203 F 
ATOM     68  C   UNL A   1      39.894  26.048  27.607  1.00  0.00     0.198 A 
ATOM     69  C   UNL A   1      41.320  27.675  26.569  1.00  0.00     0.198 A 
ATOM     70  F   UNL A   1      41.964  29.605  27.749  1.00  0.00    -0.203 F 
ATOM     71  F   UNL A   1      39.255  24.871  27.567  1.00  0.00    -0.200 F 
ATOM     72  C   UNL A   1      40.636  26.471  26.513  1.00  0.00     0.200 A 
ATOM     73  F   UNL A   1      42.025  28.092  25.507  1.00  0.00    -0.200 F 
ATOM     74  F   UNL A   1      40.697  25.713  25.410  1.00  0.00    -0.200 F 
ENDBRANCH  50  64
BRANCH  51  75
ATOM     75  C   UNL A   1      39.558  33.920  36.864  1.00  0.00     0.064 A 
ATOM     76  C   UNL A   1      38.787  33.496  37.957  1.00  0.00     0.173 A 
ATOM     77  C   UNL A   1      40.169  35.179  36.948  1.00  0.00     0.173 A 
ATOM     78  F   UNL A   1      38.164  32.310  37.916  1.00  0.00    -0.203 F 
ATOM     79  C   UNL A   1      38.616  34.308  39.076  1.00  0.00     0.198 A 
ATOM     80  C   UNL A   1      40.024  35.977  38.082  1.00  0.00     0.198 A 
ATOM     81  F   UNL A   1      40.920  35.631  35.933  1.00  0.00    -0.203 F 
ATOM     82  F   UNL A   1      37.832  33.900  40.083  1.00  0.00    -0.200 F 
ATOM     83  C   UNL A   1      39.239  35.546  39.139  1.00  0.00     0.200 A 
ATOM     84  F   UNL A   1      40.641  37.164  38.145  1.00  0.00    -0.200 F 
ATOM     85  F   UNL A   1      39.078  36.325  40.218  1.00  0.00    -0.200 F 
ENDBRANCH  51  75
BRANCH  63  86
ATOM     86  C   UNL A   1      43.929  28.766  35.159  1.00  0.00     0.064 A 
ATOM     87  C   UNL A   1      43.765  27.649  35.990  1.00  0.00     0.173 A 
ATOM     88  C   UNL A   1      45.229  29.265  34.980  1.00  0.00     0.173 A 
ATOM     89  F   UNL A   1      42.540  27.143  36.207  1.00  0.00    -0.203 F 
ATOM     90  C   UNL A   1      44.853  27.071  36.638  1.00  0.00     0.198 A 
ATOM     91  C   UNL A   1      46.320  28.663  35.602  1.00  0.00     0.198 A 
ATOM     92  F   UNL A   1      45.445  30.326  34.190  1.00  0.00    -0.203 F 
ATOM     93  F   UNL A   1      44.664  26.036  37.469  1.00  0.00    -0.200 F 
ATOM     94  C   UNL A   1      46.130  27.573  36.437  1.00  0.00     0.200 A 
ATOM     95  F   UNL A   1      47.555  29.140  35.393  1.00  0.00    -0.200 F 
ATOM     96  F   UNL A   1      47.178  27.008  37.053  1.00  0.00    -0.200 F 
ENDBRANCH  63  86
ENDBRANCH  37  38
ENDBRANCH  29  32
ENDBRANCH  27  28
ENDBRANCH  26  27
ENDBRANCH   1  26
TORSDOF 16
ENDMDL
MODEL 2
REMARK VINA RESULT:     -12.6      0.103      1.587
REMARK SMILES COc1c(N)cc(-c2ccccc2)cc1C(=O)NCCCCCCNC(=O)c1ccc(-c2c3nc(c(-c4c(F)c(F)c(F)c(F)c4F)c4ccc([nH]4)c(-c4c(F)c(F)c(F)c(F)c4F)c4nc(c(-c5c(F)c(F)c(F)c(F)c5F)c5ccc2[nH]5)C=C4)C=C3)cc1
REMARK SMILES IDX 22 1 21 2 20 3 19 4 18 5 16 6 17 7 15 9 3 10 4 11 6 12 14 13
REMARK SMILES IDX 7 14 2 15 1 16 5 17 8 20 9 21 13 22 10 23 12 24 11 25 23 26
REMARK SMILES IDX 24 27 25 28 26 29 27 31 28 32 29 33 90 34 30 35 89 36 31 37
REMARK SMILES IDX 32 38 33 39 83 40 34 41 88 42 82 43 84 44 35 45 87 46 81 47
REMARK SMILES IDX 80 48 36 50 68 51 48 52 67 53 49 54 52 55 66 56 85 57 50 58
REMARK SMILES IDX 51 59 65 61 86 62 53 63 37 64 38 65 46 66 39 67 40 68 44 69
REMARK SMILES IDX 47 70 41 71 42 72 45 73 43 74 69 75 70 76 78 77 71 78 72 79
REMARK SMILES IDX 76 80 79 81 73 82 74 83 77 84 75 85 54 86 55 87 63 88 56 89
REMARK SMILES IDX 57 90 61 91 64 92 58 93 59 94 62 95 60 96
REMARK H PARENT 18 8 5 18 5 19 25 30 84 49 52 60
REMARK Flexibility Score: inf
ROOT
ATOM      1  C   UNL A   1      31.422  30.742  26.116  1.00  0.00     0.002 C 
ENDROOT
BRANCH   1   2
ATOM      2  C   UNL A   1      32.788  30.064  26.249  1.00  0.00     0.002 C 
BRANCH   2   3
ATOM      3  C   UNL A   1      32.877  28.811  27.113  1.00  0.00     0.021 C 
BRANCH   3   4
ATOM      4  C   UNL A   1      32.622  27.466  26.453  1.00  0.00     0.116 C 
BRANCH   4   5
ATOM      5  N   UNL A   1      33.185  27.242  25.157  1.00  0.00    -0.352 N 
ATOM      6  C   UNL A   1      32.564  27.276  23.927  1.00  0.00     0.255 C 
ATOM      7  O   UNL A   1      33.302  27.098  22.953  1.00  0.00    -0.269 OA
ATOM      8  H   UNL A   1      34.148  27.036  25.142  1.00  0.00     0.163 HD
BRANCH   6   9
ATOM      9  C   UNL A   1      31.080  27.433  23.678  1.00  0.00     0.084 A 
ATOM     10  C   UNL A   1      30.022  26.535  23.964  1.00  0.00     0.154 A 
ATOM     11  C   UNL A   1      28.675  26.942  23.780  1.00  0.00     0.076 A 
ATOM     12  C   UNL A   1      28.398  28.180  23.204  1.00  0.00     0.038 A 
ATOM     13  C   UNL A   1      30.735  28.714  23.164  1.00  0.00     0.026 A 
ATOM     14  C   UNL A   1      29.408  29.105  22.930  1.00  0.00    -0.015 A 
BRANCH  10  15
ATOM     15  O   UNL A   1      30.246  25.302  24.540  1.00  0.00    -0.494 OA
ATOM     16  C   UNL A   1      30.605  24.295  23.574  1.00  0.00     0.278 C 
ENDBRANCH  10  15
BRANCH  11  17
ATOM     17  N   UNL A   1      27.589  26.125  24.110  1.00  0.00    -0.396 N 
ATOM     18  H   UNL A   1      26.696  26.324  23.747  1.00  0.00     0.156 HD
ATOM     19  H   UNL A   1      27.718  25.351  24.705  1.00  0.00     0.156 HD
ENDBRANCH  11  17
BRANCH  14  20
ATOM     20  C   UNL A   1      29.034  30.455  22.478  1.00  0.00    -0.018 A 
ATOM     21  C   UNL A   1      29.060  31.531  23.387  1.00  0.00     0.009 A 
ATOM     22  C   UNL A   1      28.575  30.703  21.178  1.00  0.00     0.009 A 
ATOM     23  C   UNL A   1      28.609  32.800  23.024  1.00  0.00     0.001 A 
ATOM     24  C   UNL A   1      28.122  31.976  20.813  1.00  0.00     0.001 A 
ATOM     25  C   UNL A   1      28.130  33.019  21.738  1.00  0.00     0.000 A 
ENDBRANCH  14  20
ENDBRANCH   6   9
ENDBRANCH   4   5
ENDBRANCH   3   4
ENDBRANCH   2   3
ENDBRANCH   1   2
BRANCH   1  26
ATOM     26  C   UNL A   1      31.329  32.226  26.478  1.00  0.00     0.021 C 
BRANCH  26  27
ATOM     27  C   UNL A   1      32.505  32.816  27.248  1.00  0.00     0.116 C 
BRANCH  27  28
ATOM     28  N   UNL A   1      32.304  34.203  27.625  1.00  0.00    -0.352 N 
ATOM     29  C   UNL A   1      32.953  34.970  28.560  1.00  0.00     0.251 C 
ATOM     30  H   UNL A   1      31.589  34.668  27.132  1.00  0.00     0.163 HD
ATOM     31  O   UNL A   1      32.537  36.092  28.827  1.00  0.00    -0.269 OA
BRANCH  29  32
ATOM     32  C   UNL A   1      34.139  34.445  29.271  1.00  0.00     0.039 A 
ATOM     33  C   UNL A   1      33.955  33.812  30.504  1.00  0.00     0.014 A 
ATOM     34  C   UNL A   1      35.428  34.591  28.749  1.00  0.00     0.014 A 
ATOM     35  C   UNL A   1      35.049  33.267  31.179  1.00  0.00     0.010 A 
ATOM     36  C   UNL A   1      36.509  33.985  29.387  1.00  0.00     0.010 A 
ATOM     37  C   UNL A   1      36.332  33.315  30.607  1.00  0.00    -0.014 A 
BRANCH  37  38
ATOM     38  C   UNL A   1      37.490  32.656  31.264  1.00  0.00     0.031 A 
ATOM     39  C   UNL A   1      38.207  31.522  30.586  1.00  0.00     0.074 A 
ATOM     40  C   UNL A   1      37.859  33.043  32.500  1.00  0.00     0.049 A 
ATOM     41  N   UNL A   1      39.193  30.782  31.029  1.00  0.00    -0.248 NA
ATOM     42  C   UNL A   1      37.738  31.154  29.241  1.00  0.00     0.031 C 
ATOM     43  C   UNL A   1      37.220  34.105  33.278  1.00  0.00     0.029 A 
ATOM     44  N   UNL A   1      38.856  32.582  33.325  1.00  0.00    -0.354 N 
ATOM     45  C   UNL A   1      39.457  29.861  30.023  1.00  0.00     0.074 A 
ATOM     46  C   UNL A   1      38.490  30.097  28.972  1.00  0.00     0.031 C 
ATOM     47  C   UNL A   1      37.855  34.232  34.455  1.00  0.00     0.029 A 
ATOM     48  C   UNL A   1      38.914  33.232  34.535  1.00  0.00     0.049 A 
ATOM     49  H   UNL A   1      39.470  31.855  33.074  1.00  0.00     0.167 HD
ATOM     50  C   UNL A   1      40.431  28.921  29.972  1.00  0.00     0.037 A 
ATOM     51  C   UNL A   1      39.723  33.035  35.594  1.00  0.00     0.037 A 
ATOM     52  C   UNL A   1      41.397  28.698  31.015  1.00  0.00     0.049 A 
ATOM     53  C   UNL A   1      40.774  31.959  35.524  1.00  0.00     0.074 A 
ATOM     54  C   UNL A   1      42.452  27.802  31.038  1.00  0.00     0.029 A 
ATOM     55  N   UNL A   1      41.423  29.375  32.227  1.00  0.00    -0.354 N 
ATOM     56  N   UNL A   1      41.054  31.137  34.542  1.00  0.00    -0.248 NA
ATOM     57  C   UNL A   1      41.624  31.788  36.710  1.00  0.00     0.031 C 
ATOM     58  C   UNL A   1      43.082  27.897  32.284  1.00  0.00     0.029 A 
ATOM     59  C   UNL A   1      42.458  28.895  33.015  1.00  0.00     0.049 A 
ATOM     60  H   UNL A   1      40.799  30.089  32.488  1.00  0.00     0.167 HD
ATOM     61  C   UNL A   1      42.129  30.374  34.978  1.00  0.00     0.074 A 
ATOM     62  C   UNL A   1      42.461  30.842  36.307  1.00  0.00     0.031 C 
ATOM     63  C   UNL A   1      42.782  29.375  34.335  1.00  0.00     0.037 A 
BRANCH  50  64
ATOM     64  C   UNL A   1      40.499  28.057  28.744  1.00  0.00     0.064 A 
ATOM     65  C   UNL A   1      41.273  28.418  27.631  1.00  0.00     0.173 A 
ATOM     66  C   UNL A   1      39.818  26.831  28.695  1.00  0.00     0.173 A 
ATOM     67  F   UNL A   1      41.939  29.584  27.621  1.00  0.00    -0.203 F 
ATOM     68  C   UNL A   1      41.337  27.603  26.504  1.00  0.00     0.198 A 
ATOM     69  C   UNL A   1      39.910  26.002  27.580  1.00  0.00     0.198 A 
ATOM     70  F   UNL A   1      39.069  26.431  29.734  1.00  0.00    -0.203 F 
ATOM     71  F   UNL A   1      42.040  27.995  25.433  1.00  0.00    -0.200 F 
ATOM     72  C   UNL A   1      40.662  26.391  26.483  1.00  0.00     0.200 A 
ATOM     73  F   UNL A   1      39.270  24.824  27.568  1.00  0.00    -0.200 F 
ATOM     74  F   UNL A   1      40.731  25.603  25.401  1.00  0.00    -0.200 F 
ENDBRANCH  50  64
BRANCH  51  75
ATOM     75  C   UNL A   1      39.582  33.885  36.805  1.00  0.00     0.064 A 
ATOM     76  C   UNL A   1      38.795  33.469  37.889  1.00  0.00     0.173 A 
ATOM     77  C   UNL A   1      40.218  35.131  36.904  1.00  0.00     0.173 A 
ATOM     78  F   UNL A   1      38.148  32.295  37.834  1.00  0.00    -0.203 F 
ATOM     79  C   UNL A   1      38.631  34.276  39.013  1.00  0.00     0.198 A 
ATOM     80  C   UNL A   1      40.080  35.924  38.042  1.00  0.00     0.198 A 
ATOM     81  F   UNL A   1      40.986  35.575  35.898  1.00  0.00    -0.203 F 
ATOM     82  F   UNL A   1      37.831  33.876  40.011  1.00  0.00    -0.200 F 
ATOM     83  C   UNL A   1      39.279  35.500  39.090  1.00  0.00     0.200 A 
ATOM     84  F   UNL A   1      40.720  37.098  38.120  1.00  0.00    -0.200 F 
ATOM     85  F   UNL A   1      39.124  36.274  40.173  1.00  0.00    -0.200 F 
ENDBRANCH  51  75
BRANCH  63  86
ATOM     86  C   UNL A   1      43.946  28.743  35.044  1.00  0.00     0.064 A 
ATOM     87  C   UNL A   1      45.250  29.242  34.916  1.00  0.00     0.173 A 
ATOM     88  C   UNL A   1      43.745  27.647  35.897  1.00  0.00     0.173 A 
ATOM     89  F   UNL A   1      45.499  30.279  34.100  1.00  0.00    -0.203 F 
ATOM     90  C   UNL A   1      46.314  28.652  35.592  1.00  0.00     0.198 A 
ATOM     91  C   UNL A   1      44.805  27.081  36.600  1.00  0.00     0.198 A 
ATOM     92  F   UNL A   1      42.517  27.134  36.063  1.00  0.00    -0.203 F 
ATOM     93  F   UNL A   1      47.559  29.114  35.414  1.00  0.00    -0.200 F 
ATOM     94  C   UNL A   1      46.089  27.578  36.440  1.00  0.00     0.200 A 
ATOM     95  F   UNL A   1      44.582  26.053  37.432  1.00  0.00    -0.200 F 
ATOM     96  F   UNL A   1      47.113  27.017  37.100  1.00  0.00    -0.200 F 
ENDBRANCH  63  86
ENDBRANCH  37  38
ENDBRANCH  29  32
ENDBRANCH  27  28
ENDBRANCH  26  27
ENDBRANCH   1  26
TORSDOF 16
ENDMDL
MODEL 3
REMARK VINA RESULT:     -12.5      6.169     11.764
REMARK SMILES COc1c(N)cc(-c2ccccc2)cc1C(=O)NCCCCCCNC(=O)c1ccc(-c2c3nc(c(-c4c(F)c(F)c(F)c(F)c4F)c4ccc([nH]4)c(-c4c(F)c(F)c(F)c(F)c4F)c4nc(c(-c5c(F)c(F)c(F)c(F)c5F)c5ccc2[nH]5)C=C4)C=C3)cc1
REMARK SMILES IDX 22 1 21 2 20 3 19 4 18 5 16 6 17 7 15 9 3 10 4 11 6 12 14 13
REMARK SMILES IDX 7 14 2 15 1 16 5 17 8 20 9 21 13 22 10 23 12 24 11 25 23 26
REMARK SMILES IDX 24 27 25 28 26 29 27 31 28 32 29 33 90 34 30 35 89 36 31 37
REMARK SMILES IDX 32 38 33 39 83 40 34 41 88 42 82 43 84 44 35 45 87 46 81 47
REMARK SMILES IDX 80 48 36 50 68 51 48 52 67 53 49 54 52 55 66 56 85 57 50 58
REMARK SMILES IDX 51 59 65 61 86 62 53 63 37 64 38 65 46 66 39 67 40 68 44 69
REMARK SMILES IDX 47 70 41 71 42 72 45 73 43 74 69 75 70 76 78 77 71 78 72 79
REMARK SMILES IDX 76 80 79 81 73 82 74 83 77 84 75 85 54 86 55 87 63 88 56 89
REMARK SMILES IDX 57 90 61 91 64 92 58 93 59 94 62 95 60 96
REMARK H PARENT 18 8 5 18 5 19 25 30 84 49 52 60
REMARK Flexibility Score: inf
ROOT
ATOM      1  C   UNL A   1      36.700  20.474  24.992  1.00  0.00     0.002 C 
ENDROOT
BRANCH   1   2
ATOM      2  C   UNL A   1      36.817  21.896  24.437  1.00  0.00     0.002 C 
BRANCH   2   3
ATOM      3  C   UNL A   1      36.445  23.050  25.361  1.00  0.00     0.021 C 
BRANCH   3   4
ATOM      4  C   UNL A   1      35.223  23.884  25.012  1.00  0.00     0.116 C 
BRANCH   4   5
ATOM      5  N   UNL A   1      34.113  23.850  25.914  1.00  0.00    -0.352 N 
ATOM      6  C   UNL A   1      33.035  22.991  25.927  1.00  0.00     0.255 C 
ATOM      7  O   UNL A   1      32.239  23.149  26.859  1.00  0.00    -0.269 OA
ATOM      8  H   UNL A   1      34.122  24.532  26.624  1.00  0.00     0.163 HD
BRANCH   6   9
ATOM      9  C   UNL A   1      32.709  21.949  24.880  1.00  0.00     0.084 A 
ATOM     10  C   UNL A   1      32.226  22.122  23.560  1.00  0.00     0.154 A 
ATOM     11  C   UNL A   1      32.124  21.008  22.687  1.00  0.00     0.076 A 
ATOM     12  C   UNL A   1      32.383  19.726  23.169  1.00  0.00     0.038 A 
ATOM     13  C   UNL A   1      33.032  20.626  25.294  1.00  0.00     0.026 A 
ATOM     14  C   UNL A   1      32.884  19.511  24.455  1.00  0.00    -0.015 A 
BRANCH  10  15
ATOM     15  O   UNL A   1      31.963  23.371  23.036  1.00  0.00    -0.494 OA
ATOM     16  C   UNL A   1      30.691  23.895  23.465  1.00  0.00     0.278 C 
ENDBRANCH  10  15
BRANCH  11  17
ATOM     17  N   UNL A   1      31.721  21.128  21.354  1.00  0.00    -0.396 N 
ATOM     18  H   UNL A   1      31.744  20.343  20.760  1.00  0.00     0.156 HD
ATOM     19  H   UNL A   1      31.414  21.998  21.009  1.00  0.00     0.156 HD
ENDBRANCH  11  17
BRANCH  14  20
ATOM     20  C   UNL A   1      33.292  18.152  24.842  1.00  0.00    -0.018 A 
ATOM     21  C   UNL A   1      34.536  17.645  24.415  1.00  0.00     0.009 A 
ATOM     22  C   UNL A   1      32.449  17.301  25.568  1.00  0.00     0.009 A 
ATOM     23  C   UNL A   1      34.909  16.325  24.670  1.00  0.00     0.001 A 
ATOM     24  C   UNL A   1      32.823  15.976  25.825  1.00  0.00     0.001 A 
ATOM     25  C   UNL A   1      34.046  15.488  25.368  1.00  0.00     0.000 A 
ENDBRANCH  14  20
ENDBRANCH   6   9
ENDBRANCH   4   5
ENDBRANCH   3   4
ENDBRANCH   2   3
ENDBRANCH   1   2
BRANCH   1  26
ATOM     26  C   UNL A   1      37.944  19.586  24.934  1.00  0.00     0.021 C 
BRANCH  26  27
ATOM     27  C   UNL A   1      39.157  20.055  25.730  1.00  0.00     0.116 C 
BRANCH  27  28
ATOM     28  N   UNL A   1      40.197  19.048  25.835  1.00  0.00    -0.352 N 
ATOM     29  C   UNL A   1      41.542  19.186  26.073  1.00  0.00     0.251 C 
ATOM     30  H   UNL A   1      39.890  18.120  25.717  1.00  0.00     0.163 HD
ATOM     31  O   UNL A   1      42.282  18.212  25.984  1.00  0.00    -0.269 OA
BRANCH  29  32
ATOM     32  C   UNL A   1      42.115  20.508  26.411  1.00  0.00     0.039 A 
ATOM     33  C   UNL A   1      42.626  21.299  25.378  1.00  0.00     0.014 A 
ATOM     34  C   UNL A   1      42.173  20.962  27.732  1.00  0.00     0.014 A 
ATOM     35  C   UNL A   1      43.133  22.569  25.659  1.00  0.00     0.010 A 
ATOM     36  C   UNL A   1      42.613  22.257  28.002  1.00  0.00     0.010 A 
ATOM     37  C   UNL A   1      43.096  23.075  26.969  1.00  0.00    -0.014 A 
BRANCH  37  38
ATOM     38  C   UNL A   1      43.541  24.461  27.270  1.00  0.00     0.031 A 
ATOM     39  C   UNL A   1      42.567  25.477  27.797  1.00  0.00     0.074 A 
ATOM     40  C   UNL A   1      44.814  24.818  27.012  1.00  0.00     0.049 A 
ATOM     41  N   UNL A   1      42.752  26.747  28.054  1.00  0.00    -0.248 NA
ATOM     42  C   UNL A   1      41.194  25.010  28.043  1.00  0.00     0.031 C 
ATOM     43  C   UNL A   1      45.845  23.935  26.467  1.00  0.00     0.029 A 
ATOM     44  N   UNL A   1      45.457  26.022  27.167  1.00  0.00    -0.354 N 
ATOM     45  C   UNL A   1      41.524  27.230  28.486  1.00  0.00     0.074 A 
ATOM     46  C   UNL A   1      40.586  26.132  28.400  1.00  0.00     0.031 C 
ATOM     47  C   UNL A   1      46.996  24.617  26.355  1.00  0.00     0.029 A 
ATOM     48  C   UNL A   1      46.775  25.996  26.777  1.00  0.00     0.049 A 
ATOM     49  H   UNL A   1      45.016  26.827  27.523  1.00  0.00     0.167 HD
ATOM     50  C   UNL A   1      41.213  28.470  28.935  1.00  0.00     0.037 A 
ATOM     51  C   UNL A   1      47.697  26.978  26.751  1.00  0.00     0.037 A 
ATOM     52  C   UNL A   1      42.153  29.557  29.029  1.00  0.00     0.049 A 
ATOM     53  C   UNL A   1      47.315  28.356  27.222  1.00  0.00     0.074 A 
ATOM     54  C   UNL A   1      41.948  30.837  29.515  1.00  0.00     0.029 A 
ATOM     55  N   UNL A   1      43.479  29.493  28.622  1.00  0.00    -0.354 N 
ATOM     56  N   UNL A   1      46.167  28.784  27.687  1.00  0.00    -0.248 NA
ATOM     57  C   UNL A   1      48.361  29.386  27.167  1.00  0.00     0.031 C 
ATOM     58  C   UNL A   1      43.131  31.564  29.350  1.00  0.00     0.029 A 
ATOM     59  C   UNL A   1      44.094  30.720  28.819  1.00  0.00     0.049 A 
ATOM     60  H   UNL A   1      43.918  28.695  28.249  1.00  0.00     0.167 HD
ATOM     61  C   UNL A   1      46.359  30.121  28.009  1.00  0.00     0.074 A 
ATOM     62  C   UNL A   1      47.739  30.429  27.700  1.00  0.00     0.031 C 
ATOM     63  C   UNL A   1      45.471  31.012  28.514  1.00  0.00     0.037 A 
BRANCH  50  64
ATOM     64  C   UNL A   1      39.793  28.721  29.358  1.00  0.00     0.064 A 
ATOM     65  C   UNL A   1      39.369  28.511  30.679  1.00  0.00     0.173 A 
ATOM     66  C   UNL A   1      38.853  29.218  28.442  1.00  0.00     0.173 A 
ATOM     67  F   UNL A   1      40.225  28.028  31.594  1.00  0.00    -0.203 F 
ATOM     68  C   UNL A   1      38.053  28.758  31.060  1.00  0.00     0.198 A 
ATOM     69  C   UNL A   1      37.546  29.496  28.834  1.00  0.00     0.198 A 
ATOM     70  F   UNL A   1      39.205  29.446  27.167  1.00  0.00    -0.203 F 
ATOM     71  F   UNL A   1      37.661  28.499  32.315  1.00  0.00    -0.200 F 
ATOM     72  C   UNL A   1      37.144  29.258  30.140  1.00  0.00     0.200 A 
ATOM     73  F   UNL A   1      36.673  29.995  27.947  1.00  0.00    -0.200 F 
ATOM     74  F   UNL A   1      35.880  29.504  30.509  1.00  0.00    -0.200 F 
ENDBRANCH  50  64
BRANCH  51  75
ATOM     75  C   UNL A   1      49.076  26.690  26.277  1.00  0.00     0.064 A 
ATOM     76  C   UNL A   1      50.042  26.166  27.149  1.00  0.00     0.173 A 
ATOM     77  C   UNL A   1      49.463  26.941  24.953  1.00  0.00     0.173 A 
ATOM     78  F   UNL A   1      49.728  25.929  28.431  1.00  0.00    -0.203 F 
ATOM     79  C   UNL A   1      51.346  25.926  26.719  1.00  0.00     0.198 A 
ATOM     80  C   UNL A   1      50.758  26.670  24.515  1.00  0.00     0.198 A 
ATOM     81  F   UNL A   1      48.577  27.438  24.076  1.00  0.00    -0.203 F 
ATOM     82  F   UNL A   1      52.261  25.474  27.587  1.00  0.00    -0.200 F 
ATOM     83  C   UNL A   1      51.701  26.174  25.402  1.00  0.00     0.200 A 
ATOM     84  F   UNL A   1      51.092  26.896  23.238  1.00  0.00    -0.200 F 
ATOM     85  F   UNL A   1      52.954  25.939  24.988  1.00  0.00    -0.200 F 
ENDBRANCH  51  75
BRANCH  63  86
ATOM     86  C   UNL A   1      45.974  32.399  28.800  1.00  0.00     0.064 A 
ATOM     87  C   UNL A   1      45.927  33.416  27.836  1.00  0.00     0.173 A 
ATOM     88  C   UNL A   1      46.471  32.723  30.072  1.00  0.00     0.173 A 
ATOM     89  F   UNL A   1      45.475  33.155  26.600  1.00  0.00    -0.203 F 
ATOM     90  C   UNL A   1      46.384  34.699  28.125  1.00  0.00     0.198 A 
ATOM     91  C   UNL A   1      46.895  34.016  30.368  1.00  0.00     0.198 A 
ATOM     92  F   UNL A   1      46.532  31.791  31.034  1.00  0.00    -0.203 F 
ATOM     93  F   UNL A   1      46.377  35.642  27.172  1.00  0.00    -0.200 F 
ATOM     94  C   UNL A   1      46.860  35.000  29.392  1.00  0.00     0.200 A 
ATOM     95  F   UNL A   1      47.339  34.308  31.599  1.00  0.00    -0.200 F 
ATOM     96  F   UNL A   1      47.289  36.238  29.672  1.00  0.00    -0.200 F 
ENDBRANCH  63  86
ENDBRANCH  37  38
ENDBRANCH  29  32
ENDBRANCH  27  28
ENDBRANCH  26  27
ENDBRANCH   1  26
TORSDOF 16
ENDMDL
