MODEL 1
REMARK VINA RESULT:     -11.7      0.000      0.000
REMARK SMILES O=C(NCCCCCCNC(=O)[C@H]1C[C@H](O)CN1C(=O)CS[C@H]1CCS(=O)(=O)C1)c1ccc(-c2c3nc(c(-c4c(F)c(F)c(F)c(F)c4F)c4ccc([nH]4)c(-c4c(F)c(F)c(F)c(F)c4F)c4nc(c(-c5c(F)c(F)c(F)c(F)c5F)c5ccc2[nH]5)C=C4)C=C3)cc1
REMARK SMILES IDX 7 1 6 2 5 3 4 4 3 5 1 6 2 7 30 9 31 10 92 11 32 12 91 13
REMARK SMILES IDX 33 14 34 15 35 16 85 17 36 18 90 19 84 20 86 21 37 22 89 23
REMARK SMILES IDX 83 24 82 25 38 27 70 28 50 29 69 30 51 31 54 32 68 33 87 34
REMARK SMILES IDX 52 35 53 36 67 38 88 39 55 40 39 41 40 42 48 43 41 44 42 45
REMARK SMILES IDX 46 46 49 47 43 48 44 49 47 50 45 51 71 52 72 53 80 54 73 55
REMARK SMILES IDX 74 56 78 57 81 58 75 59 76 60 79 61 77 62 56 63 57 64 65 65
REMARK SMILES IDX 58 66 59 67 63 68 66 69 60 70 61 71 64 72 62 73 8 74 9 75
REMARK SMILES IDX 10 76 11 77 12 79 13 80 14 81 18 82 15 83 17 84 19 85 20 86
REMARK SMILES IDX 21 87 22 88 23 89 24 90 29 91 25 92 26 93 27 94 28 95 16 96
REMARK H PARENT 3 8 86 26 54 37 10 78 16 97
REMARK Flexibility Score: inf
ROOT
ATOM      1  C   UNL A   1      36.882  21.977  24.550  1.00  0.00     0.002 C 
ENDROOT
BRANCH   1   2
ATOM      2  C   UNL A   1      36.744  20.510  24.975  1.00  0.00     0.002 C 
BRANCH   2   3
ATOM      3  C   UNL A   1      38.040  19.702  24.885  1.00  0.00     0.021 C 
BRANCH   3   4
ATOM      4  C   UNL A   1      39.105  20.163  25.870  1.00  0.00     0.116 C 
BRANCH   4   5
ATOM      5  N   UNL A   1      40.176  19.184  25.975  1.00  0.00    -0.352 N 
ATOM      6  O   UNL A   1      42.315  18.488  25.793  1.00  0.00    -0.269 OA
ATOM      7  C   UNL A   1      41.528  19.396  26.030  1.00  0.00     0.251 C 
ATOM      8  H   UNL A   1      39.890  18.243  26.013  1.00  0.00     0.163 HD
BRANCH   7   9
ATOM      9  C   UNL A   1      42.019  20.738  26.388  1.00  0.00     0.039 A 
ATOM     10  C   UNL A   1      42.228  21.687  25.383  1.00  0.00     0.014 A 
ATOM     11  C   UNL A   1      42.251  21.054  27.727  1.00  0.00     0.014 A 
ATOM     12  C   UNL A   1      42.787  22.913  25.701  1.00  0.00     0.010 A 
ATOM     13  C   UNL A   1      42.717  22.327  28.056  1.00  0.00     0.010 A 
ATOM     14  C   UNL A   1      42.999  23.258  27.044  1.00  0.00    -0.014 A 
BRANCH  14  15
ATOM     15  C   UNL A   1      43.420  24.640  27.369  1.00  0.00     0.031 A 
ATOM     16  C   UNL A   1      42.455  25.634  27.936  1.00  0.00     0.074 A 
ATOM     17  C   UNL A   1      44.702  24.981  27.137  1.00  0.00     0.049 A 
ATOM     18  N   UNL A   1      42.656  26.888  28.251  1.00  0.00    -0.248 NA
ATOM     19  C   UNL A   1      41.081  25.166  28.170  1.00  0.00     0.031 C 
ATOM     20  C   UNL A   1      45.719  24.091  26.570  1.00  0.00     0.029 A 
ATOM     21  N   UNL A   1      45.372  26.157  27.345  1.00  0.00    -0.354 N 
ATOM     22  C   UNL A   1      41.433  27.366  28.702  1.00  0.00     0.074 A 
ATOM     23  C   UNL A   1      40.488  26.275  28.590  1.00  0.00     0.031 C 
ATOM     24  C   UNL A   1      46.887  24.741  26.503  1.00  0.00     0.029 A 
ATOM     25  C   UNL A   1      46.685  26.114  26.948  1.00  0.00     0.049 A 
ATOM     26  H   UNL A   1      44.952  26.955  27.741  1.00  0.00     0.167 HD
ATOM     27  C   UNL A   1      41.138  28.604  29.166  1.00  0.00     0.037 A 
ATOM     28  C   UNL A   1      47.616  27.083  26.909  1.00  0.00     0.037 A 
ATOM     29  C   UNL A   1      42.094  29.678  29.264  1.00  0.00     0.049 A 
ATOM     30  C   UNL A   1      47.250  28.455  27.394  1.00  0.00     0.074 A 
ATOM     31  C   UNL A   1      41.910  30.954  29.764  1.00  0.00     0.029 A 
ATOM     32  N   UNL A   1      43.415  29.605  28.836  1.00  0.00    -0.354 N 
ATOM     33  N   UNL A   1      46.106  28.884  27.869  1.00  0.00    -0.248 NA
ATOM     34  C   UNL A   1      48.301  29.476  27.339  1.00  0.00     0.031 C 
ATOM     35  C   UNL A   1      43.094  31.674  29.573  1.00  0.00     0.029 A 
ATOM     36  C   UNL A   1      44.043  30.826  29.025  1.00  0.00     0.049 A 
ATOM     37  H   UNL A   1      43.840  28.803  28.454  1.00  0.00     0.167 HD
ATOM     38  C   UNL A   1      46.303  30.219  28.188  1.00  0.00     0.074 A 
ATOM     39  C   UNL A   1      47.684  30.522  27.869  1.00  0.00     0.031 C 
ATOM     40  C   UNL A   1      45.419  31.112  28.698  1.00  0.00     0.037 A 
BRANCH  27  41
ATOM     41  C   UNL A   1      39.714  28.875  29.568  1.00  0.00     0.064 A 
ATOM     42  C   UNL A   1      39.252  28.643  30.873  1.00  0.00     0.173 A 
ATOM     43  C   UNL A   1      38.803  29.398  28.637  1.00  0.00     0.173 A 
ATOM     44  F   UNL A   1      40.075  28.133  31.802  1.00  0.00    -0.203 F 
ATOM     45  C   UNL A   1      37.924  28.887  31.219  1.00  0.00     0.198 A 
ATOM     46  C   UNL A   1      37.486  29.676  28.996  1.00  0.00     0.198 A 
ATOM     47  F   UNL A   1      39.190  29.648  27.377  1.00  0.00    -0.203 F 
ATOM     48  F   UNL A   1      37.493  28.599  32.455  1.00  0.00    -0.200 F 
ATOM     49  C   UNL A   1      37.044  29.410  30.282  1.00  0.00     0.200 A 
ATOM     50  F   UNL A   1      36.643  30.196  28.094  1.00  0.00    -0.200 F 
ATOM     51  F   UNL A   1      35.769  29.646  30.618  1.00  0.00    -0.200 F 
ENDBRANCH  27  41
BRANCH  28  52
ATOM     52  C   UNL A   1      48.965  26.777  26.368  1.00  0.00     0.064 A 
ATOM     53  C   UNL A   1      49.964  26.225  27.179  1.00  0.00     0.173 A 
ATOM     54  C   UNL A   1      49.270  27.003  25.016  1.00  0.00     0.173 A 
ATOM     55  F   UNL A   1      49.725  26.004  28.480  1.00  0.00    -0.203 F 
ATOM     56  C   UNL A   1      51.222  25.922  26.663  1.00  0.00     0.198 A 
ATOM     57  C   UNL A   1      50.516  26.667  24.493  1.00  0.00     0.198 A 
ATOM     58  F   UNL A   1      48.344  27.518  24.195  1.00  0.00    -0.203 F 
ATOM     59  F   UNL A   1      52.174  25.431  27.468  1.00  0.00    -0.200 F 
ATOM     60  C   UNL A   1      51.494  26.135  25.319  1.00  0.00     0.200 A 
ATOM     61  F   UNL A   1      50.764  26.853  23.190  1.00  0.00    -0.200 F 
ATOM     62  F   UNL A   1      52.700  25.831  24.820  1.00  0.00    -0.200 F 
ENDBRANCH  28  52
BRANCH  40  63
ATOM     63  C   UNL A   1      45.930  32.497  28.973  1.00  0.00     0.064 A 
ATOM     64  C   UNL A   1      46.540  32.832  30.191  1.00  0.00     0.173 A 
ATOM     65  C   UNL A   1      45.841  33.494  27.989  1.00  0.00     0.173 A 
ATOM     66  F   UNL A   1      46.635  31.921  31.172  1.00  0.00    -0.203 F 
ATOM     67  C   UNL A   1      47.018  34.119  30.422  1.00  0.00     0.198 A 
ATOM     68  C   UNL A   1      46.352  34.769  28.209  1.00  0.00     0.198 A 
ATOM     69  F   UNL A   1      45.270  33.225  26.805  1.00  0.00    -0.203 F 
ATOM     70  F   UNL A   1      47.549  34.431  31.612  1.00  0.00    -0.200 F 
ATOM     71  C   UNL A   1      46.932  35.083  29.429  1.00  0.00     0.200 A 
ATOM     72  F   UNL A   1      46.282  35.693  27.242  1.00  0.00    -0.200 F 
ATOM     73  F   UNL A   1      47.403  36.318  29.649  1.00  0.00    -0.200 F 
ENDBRANCH  40  63
ENDBRANCH  14  15
ENDBRANCH   7   9
ENDBRANCH   4   5
ENDBRANCH   3   4
ENDBRANCH   2   3
ENDBRANCH   1   2
BRANCH   1  74
ATOM     74  C   UNL A   1      36.519  22.976  25.646  1.00  0.00     0.021 C 
BRANCH  74  75
ATOM     75  C   UNL A   1      35.643  24.116  25.133  1.00  0.00     0.116 C 
BRANCH  75  76
ATOM     76  N   UNL A   1      35.134  23.814  23.820  1.00  0.00    -0.354 N 
ATOM     77  C   UNL A   1      34.116  24.355  23.102  1.00  0.00     0.242 C 
ATOM     78  H   UNL A   1      35.610  23.085  23.360  1.00  0.00     0.163 HD
ATOM     79  O   UNL A   1      33.778  23.734  22.087  1.00  0.00    -0.273 OA
BRANCH  77  80
ATOM     80  C   UNL A   1      33.272  25.556  23.584  1.00  0.00     0.177 C 
ATOM     81  C   UNL A   1      33.061  26.593  22.480  1.00  0.00     0.069 C 
ATOM     82  N   UNL A   1      31.931  25.306  24.121  1.00  0.00    -0.327 N 
ATOM     83  C   UNL A   1      31.625  26.378  22.014  1.00  0.00     0.136 C 
ATOM     84  C   UNL A   1      30.897  25.864  23.254  1.00  0.00     0.152 C 
BRANCH  82  85
ATOM     85  C   UNL A   1      31.802  24.757  25.382  1.00  0.00     0.233 C 
ATOM     86  O   UNL A   1      32.029  25.431  26.389  1.00  0.00    -0.274 OA
BRANCH  85  87
ATOM     87  C   UNL A   1      31.338  23.314  25.511  1.00  0.00     0.169 C 
BRANCH  87  88
ATOM     88  S   UNL A   1      32.643  22.247  26.250  1.00  0.00    -0.148 SA
BRANCH  88  89
ATOM     89  C   UNL A   1      32.394  20.725  25.296  1.00  0.00     0.063 C 
ATOM     90  C   UNL A   1      32.577  20.892  23.783  1.00  0.00     0.031 C 
ATOM     91  C   UNL A   1      33.375  19.616  25.659  1.00  0.00     0.151 C 
ATOM     92  C   UNL A   1      32.429  19.480  23.194  1.00  0.00     0.138 C 
ATOM     93  S   UNL A   1      32.971  18.353  24.478  1.00  0.00     0.151 S 
ATOM     94  O   UNL A   1      31.823  17.634  24.998  1.00  0.00    -0.229 OA
ATOM     95  O   UNL A   1      34.183  17.676  24.072  1.00  0.00    -0.229 OA
ENDBRANCH  88  89
ENDBRANCH  87  88
ENDBRANCH  85  87
ENDBRANCH  82  85
BRANCH  83  96
ATOM     96  O   UNL A   1      31.050  27.570  21.506  1.00  0.00    -0.391 OA
ATOM     97  H   UNL A   1      30.580  28.033  22.217  1.00  0.00     0.211 HD
ENDBRANCH  83  96
ENDBRANCH  77  80
ENDBRANCH  75  76
ENDBRANCH  74  75
ENDBRANCH   1  74
TORSDOF 18
ENDMDL
MODEL 2
REMARK VINA RESULT:     -11.5      5.522      9.566
REMARK SMILES O=C(NCCCCCCNC(=O)[C@H]1C[C@H](O)CN1C(=O)CS[C@H]1CCS(=O)(=O)C1)c1ccc(-c2c3nc(c(-c4c(F)c(F)c(F)c(F)c4F)c4ccc([nH]4)c(-c4c(F)c(F)c(F)c(F)c4F)c4nc(c(-c5c(F)c(F)c(F)c(F)c5F)c5ccc2[nH]5)C=C4)C=C3)cc1
REMARK SMILES IDX 7 1 6 2 5 3 4 4 3 5 1 6 2 7 30 9 31 10 92 11 32 12 91 13
REMARK SMILES IDX 33 14 34 15 35 16 85 17 36 18 90 19 84 20 86 21 37 22 89 23
REMARK SMILES IDX 83 24 82 25 38 27 70 28 50 29 69 30 51 31 54 32 68 33 87 34
REMARK SMILES IDX 52 35 53 36 67 38 88 39 55 40 39 41 40 42 48 43 41 44 42 45
REMARK SMILES IDX 46 46 49 47 43 48 44 49 47 50 45 51 71 52 72 53 80 54 73 55
REMARK SMILES IDX 74 56 78 57 81 58 75 59 76 60 79 61 77 62 56 63 57 64 65 65
REMARK SMILES IDX 58 66 59 67 63 68 66 69 60 70 61 71 64 72 62 73 8 74 9 75
REMARK SMILES IDX 10 76 11 77 12 79 13 80 14 81 18 82 15 83 17 84 19 85 20 86
REMARK SMILES IDX 21 87 22 88 23 89 24 90 29 91 25 92 26 93 27 94 28 95 16 96
REMARK H PARENT 3 8 86 26 54 37 10 78 16 97
REMARK Flexibility Score: inf
ROOT
ATOM      1  C   UNL A   1      32.930  30.338  27.251  1.00  0.00     0.002 C 
ENDROOT
BRANCH   1   2
ATOM      2  C   UNL A   1      31.713  30.980  26.574  1.00  0.00     0.002 C 
BRANCH   2   3
ATOM      3  C   UNL A   1      31.535  32.469  26.875  1.00  0.00     0.021 C 
BRANCH   3   4
ATOM      4  C   UNL A   1      32.846  33.181  27.178  1.00  0.00     0.116 C 
BRANCH   4   5
ATOM      5  N   UNL A   1      32.603  34.488  27.770  1.00  0.00    -0.352 N 
ATOM      6  O   UNL A   1      32.529  35.960  29.480  1.00  0.00    -0.269 OA
ATOM      7  C   UNL A   1      33.063  34.988  28.959  1.00  0.00     0.251 C 
ATOM      8  H   UNL A   1      32.032  35.094  27.245  1.00  0.00     0.163 HD
BRANCH   7   9
ATOM      9  C   UNL A   1      34.220  34.339  29.599  1.00  0.00     0.039 A 
ATOM     10  C   UNL A   1      34.017  33.477  30.681  1.00  0.00     0.014 A 
ATOM     11  C   UNL A   1      35.504  34.574  29.105  1.00  0.00     0.014 A 
ATOM     12  C   UNL A   1      35.107  32.947  31.351  1.00  0.00     0.010 A 
ATOM     13  C   UNL A   1      36.594  33.955  29.718  1.00  0.00     0.010 A 
ATOM     14  C   UNL A   1      36.402  33.149  30.851  1.00  0.00    -0.014 A 
BRANCH  14  15
ATOM     15  C   UNL A   1      37.530  32.419  31.473  1.00  0.00     0.031 A 
ATOM     16  C   UNL A   1      38.047  32.795  32.828  1.00  0.00     0.074 A 
ATOM     17  C   UNL A   1      38.086  31.405  30.782  1.00  0.00     0.049 A 
ATOM     18  N   UNL A   1      39.041  32.277  33.502  1.00  0.00    -0.248 NA
ATOM     19  C   UNL A   1      37.368  33.906  33.512  1.00  0.00     0.031 C 
ATOM     20  C   UNL A   1      37.667  30.971  29.447  1.00  0.00     0.029 A 
ATOM     21  N   UNL A   1      39.113  30.557  31.100  1.00  0.00    -0.354 N 
ATOM     22  C   UNL A   1      39.121  33.007  34.680  1.00  0.00     0.074 A 
ATOM     23  C   UNL A   1      38.094  34.025  34.614  1.00  0.00     0.031 C 
ATOM     24  C   UNL A   1      38.410  29.921  29.072  1.00  0.00     0.029 A 
ATOM     25  C   UNL A   1      39.404  29.658  30.104  1.00  0.00     0.049 A 
ATOM     26  H   UNL A   1      39.594  30.589  31.959  1.00  0.00     0.167 HD
ATOM     27  C   UNL A   1      39.977  32.833  35.716  1.00  0.00     0.037 A 
ATOM     28  C   UNL A   1      40.389  28.747  30.014  1.00  0.00     0.037 A 
ATOM     29  C   UNL A   1      40.996  31.814  35.758  1.00  0.00     0.049 A 
ATOM     30  C   UNL A   1      41.345  28.603  31.160  1.00  0.00     0.074 A 
ATOM     31  C   UNL A   1      41.883  31.523  36.778  1.00  0.00     0.029 A 
ATOM     32  N   UNL A   1      41.276  30.930  34.723  1.00  0.00    -0.354 N 
ATOM     33  N   UNL A   1      41.381  29.261  32.293  1.00  0.00    -0.248 NA
ATOM     34  C   UNL A   1      42.397  27.590  31.018  1.00  0.00     0.031 C 
ATOM     35  C   UNL A   1      42.744  30.513  36.335  1.00  0.00     0.029 A 
ATOM     36  C   UNL A   1      42.347  30.120  35.066  1.00  0.00     0.049 A 
ATOM     37  H   UNL A   1      40.785  30.887  33.870  1.00  0.00     0.167 HD
ATOM     38  C   UNL A   1      42.444  28.731  33.008  1.00  0.00     0.074 A 
ATOM     39  C   UNL A   1      43.016  27.683  32.186  1.00  0.00     0.031 C 
ATOM     40  C   UNL A   1      42.906  29.083  34.234  1.00  0.00     0.037 A 
BRANCH  27  41
ATOM     41  C   UNL A   1      39.872  33.789  36.873  1.00  0.00     0.064 A 
ATOM     42  C   UNL A   1      39.043  33.534  37.975  1.00  0.00     0.173 A 
ATOM     43  C   UNL A   1      40.634  34.968  36.887  1.00  0.00     0.173 A 
ATOM     44  F   UNL A   1      38.285  32.427  38.012  1.00  0.00    -0.203 F 
ATOM     45  C   UNL A   1      38.951  34.441  39.029  1.00  0.00     0.198 A 
ATOM     46  C   UNL A   1      40.566  35.855  37.958  1.00  0.00     0.198 A 
ATOM     47  F   UNL A   1      41.450  35.260  35.863  1.00  0.00    -0.203 F 
ATOM     48  F   UNL A   1      38.105  34.204  40.042  1.00  0.00    -0.200 F 
ATOM     49  C   UNL A   1      39.717  35.597  39.023  1.00  0.00     0.200 A 
ATOM     50  F   UNL A   1      41.320  36.963  37.958  1.00  0.00    -0.200 F 
ATOM     51  F   UNL A   1      39.629  36.467  40.039  1.00  0.00    -0.200 F 
ENDBRANCH  27  41
BRANCH  28  52
ATOM     52  C   UNL A   1      40.516  27.931  28.779  1.00  0.00     0.064 A 
ATOM     53  C   UNL A   1      41.310  28.355  27.707  1.00  0.00     0.173 A 
ATOM     54  C   UNL A   1      39.868  26.691  28.663  1.00  0.00     0.173 A 
ATOM     55  F   UNL A   1      41.938  29.538  27.766  1.00  0.00    -0.203 F 
ATOM     56  C   UNL A   1      41.441  27.577  26.559  1.00  0.00     0.198 A 
ATOM     57  C   UNL A   1      40.027  25.898  27.530  1.00  0.00     0.198 A 
ATOM     58  F   UNL A   1      39.105  26.234  29.667  1.00  0.00    -0.203 F 
ATOM     59  F   UNL A   1      42.175  28.023  25.530  1.00  0.00    -0.200 F 
ATOM     60  C   UNL A   1      40.807  26.345  26.475  1.00  0.00     0.200 A 
ATOM     61  F   UNL A   1      39.432  24.700  27.465  1.00  0.00    -0.200 F 
ATOM     62  F   UNL A   1      40.944  25.592  25.375  1.00  0.00    -0.200 F 
ENDBRANCH  28  52
BRANCH  40  63
ATOM     63  C   UNL A   1      44.070  28.302  34.774  1.00  0.00     0.064 A 
ATOM     64  C   UNL A   1      43.892  27.108  35.487  1.00  0.00     0.173 A 
ATOM     65  C   UNL A   1      45.384  28.739  34.543  1.00  0.00     0.173 A 
ATOM     66  F   UNL A   1      42.657  26.656  35.752  1.00  0.00    -0.203 F 
ATOM     67  C   UNL A   1      44.986  26.394  35.970  1.00  0.00     0.198 A 
ATOM     68  C   UNL A   1      46.475  28.004  34.995  1.00  0.00     0.198 A 
ATOM     69  F   UNL A   1      45.609  29.874  33.862  1.00  0.00    -0.203 F 
ATOM     70  F   UNL A   1      44.791  25.283  36.695  1.00  0.00    -0.200 F 
ATOM     71  C   UNL A   1      46.275  26.836  35.716  1.00  0.00     0.200 A 
ATOM     72  F   UNL A   1      47.719  28.426  34.734  1.00  0.00    -0.200 F 
ATOM     73  F   UNL A   1      47.326  26.142  36.172  1.00  0.00    -0.200 F 
ENDBRANCH  40  63
ENDBRANCH  14  15
ENDBRANCH   7   9
ENDBRANCH   4   5
ENDBRANCH   3   4
ENDBRANCH   2   3
ENDBRANCH   1   2
BRANCH   1  74
ATOM     74  C   UNL A   1      32.915  28.811  27.234  1.00  0.00     0.021 C 
BRANCH  74  75
ATOM     75  C   UNL A   1      34.030  28.223  26.374  1.00  0.00     0.116 C 
BRANCH  75  76
ATOM     76  N   UNL A   1      34.010  28.798  25.055  1.00  0.00    -0.354 N 
ATOM     77  C   UNL A   1      33.361  28.428  23.920  1.00  0.00     0.242 C 
ATOM     78  H   UNL A   1      34.566  29.605  24.957  1.00  0.00     0.163 HD
ATOM     79  O   UNL A   1      33.716  28.997  22.881  1.00  0.00    -0.273 OA
BRANCH  77  80
ATOM     80  C   UNL A   1      32.377  27.239  23.846  1.00  0.00     0.177 C 
ATOM     81  C   UNL A   1      31.006  27.587  24.428  1.00  0.00     0.069 C 
ATOM     82  N   UNL A   1      32.086  26.643  22.539  1.00  0.00    -0.327 N 
ATOM     83  C   UNL A   1      30.108  27.791  23.213  1.00  0.00     0.136 C 
ATOM     84  C   UNL A   1      30.697  26.871  22.147  1.00  0.00     0.152 C 
BRANCH  82  85
ATOM     85  C   UNL A   1      33.038  25.845  21.935  1.00  0.00     0.233 C 
ATOM     86  O   UNL A   1      33.279  25.952  20.732  1.00  0.00    -0.274 OA
BRANCH  85  87
ATOM     87  C   UNL A   1      33.815  24.855  22.791  1.00  0.00     0.169 C 
BRANCH  87  88
ATOM     88  S   UNL A   1      32.998  23.206  22.827  1.00  0.00    -0.148 SA
BRANCH  88  89
ATOM     89  C   UNL A   1      32.261  23.247  24.483  1.00  0.00     0.063 C 
ATOM     90  C   UNL A   1      33.049  24.075  25.503  1.00  0.00     0.031 C 
ATOM     91  C   UNL A   1      30.869  23.868  24.510  1.00  0.00     0.151 C 
ATOM     92  C   UNL A   1      32.201  24.061  26.785  1.00  0.00     0.138 C 
ATOM     93  S   UNL A   1      30.499  23.891  26.247  1.00  0.00     0.151 S 
ATOM     94  O   UNL A   1      30.018  22.569  26.598  1.00  0.00    -0.229 OA
ATOM     95  O   UNL A   1      29.753  25.091  26.559  1.00  0.00    -0.229 OA
ENDBRANCH  88  89
ENDBRANCH  87  88
ENDBRANCH  85  87
ENDBRANCH  82  85
BRANCH  83  96
ATOM     96  O   UNL A   1      28.754  27.489  23.500  1.00  0.00    -0.391 OA
ATOM     97  H   UNL A   1      28.682  26.567  23.792  1.00  0.00     0.211 HD
ENDBRANCH  83  96
ENDBRANCH  77  80
ENDBRANCH  75  76
ENDBRANCH  74  75
ENDBRANCH   1  74
TORSDOF 18
ENDMDL
MODEL 3
REMARK VINA RESULT:     -11.4      1.656      3.492
REMARK SMILES O=C(NCCCCCCNC(=O)[C@H]1C[C@H](O)CN1C(=O)CS[C@H]1CCS(=O)(=O)C1)c1ccc(-c2c3nc(c(-c4c(F)c(F)c(F)c(F)c4F)c4ccc([nH]4)c(-c4c(F)c(F)c(F)c(F)c4F)c4nc(c(-c5c(F)c(F)c(F)c(F)c5F)c5ccc2[nH]5)C=C4)C=C3)cc1
REMARK SMILES IDX 7 1 6 2 5 3 4 4 3 5 1 6 2 7 30 9 31 10 92 11 32 12 91 13
REMARK SMILES IDX 33 14 34 15 35 16 85 17 36 18 90 19 84 20 86 21 37 22 89 23
REMARK SMILES IDX 83 24 82 25 38 27 70 28 50 29 69 30 51 31 54 32 68 33 87 34
REMARK SMILES IDX 52 35 53 36 67 38 88 39 55 40 39 41 40 42 48 43 41 44 42 45
REMARK SMILES IDX 46 46 49 47 43 48 44 49 47 50 45 51 71 52 72 53 80 54 73 55
REMARK SMILES IDX 74 56 78 57 81 58 75 59 76 60 79 61 77 62 56 63 57 64 65 65
REMARK SMILES IDX 58 66 59 67 63 68 66 69 60 70 61 71 64 72 62 73 8 74 9 75
REMARK SMILES IDX 10 76 11 77 12 79 13 80 14 81 18 82 15 83 17 84 19 85 20 86
REMARK SMILES IDX 21 87 22 88 23 89 24 90 29 91 25 92 26 93 27 94 28 95 16 96
REMARK H PARENT 3 8 86 26 54 37 10 78 16 97
REMARK Flexibility Score: inf
ROOT
ATOM      1  C   UNL A   1      37.785  22.039  25.281  1.00  0.00     0.002 C 
ENDROOT
BRANCH   1   2
ATOM      2  C   UNL A   1      37.425  20.693  24.642  1.00  0.00     0.002 C 
BRANCH   2   3
ATOM      3  C   UNL A   1      38.375  19.549  25.001  1.00  0.00     0.021 C 
BRANCH   3   4
ATOM      4  C   UNL A   1      39.366  19.913  26.097  1.00  0.00     0.116 C 
BRANCH   4   5
ATOM      5  N   UNL A   1      40.478  18.975  26.126  1.00  0.00    -0.352 N 
ATOM      6  O   UNL A   1      42.621  18.355  25.781  1.00  0.00    -0.269 OA
ATOM      7  C   UNL A   1      41.822  19.237  26.070  1.00  0.00     0.251 C 
ATOM      8  H   UNL A   1      40.232  18.025  26.196  1.00  0.00     0.163 HD
BRANCH   7   9
ATOM      9  C   UNL A   1      42.289  20.600  26.374  1.00  0.00     0.039 A 
ATOM     10  C   UNL A   1      42.513  21.502  25.330  1.00  0.00     0.014 A 
ATOM     11  C   UNL A   1      42.485  20.984  27.701  1.00  0.00     0.014 A 
ATOM     12  C   UNL A   1      43.050  22.749  25.601  1.00  0.00     0.010 A 
ATOM     13  C   UNL A   1      42.929  22.276  27.980  1.00  0.00     0.010 A 
ATOM     14  C   UNL A   1      43.225  23.161  26.931  1.00  0.00    -0.014 A 
BRANCH  14  15
ATOM     15  C   UNL A   1      43.624  24.562  27.198  1.00  0.00     0.031 A 
ATOM     16  C   UNL A   1      42.644  25.560  27.733  1.00  0.00     0.074 A 
ATOM     17  C   UNL A   1      44.897  24.917  26.943  1.00  0.00     0.049 A 
ATOM     18  N   UNL A   1      42.824  26.829  27.996  1.00  0.00    -0.248 NA
ATOM     19  C   UNL A   1      41.280  25.077  27.995  1.00  0.00     0.031 C 
ATOM     20  C   UNL A   1      45.927  24.023  26.405  1.00  0.00     0.029 A 
ATOM     21  N   UNL A   1      45.547  26.112  27.100  1.00  0.00    -0.354 N 
ATOM     22  C   UNL A   1      41.596  27.302  28.436  1.00  0.00     0.074 A 
ATOM     23  C   UNL A   1      40.670  26.191  28.375  1.00  0.00     0.031 C 
ATOM     24  C   UNL A   1      47.082  24.691  26.304  1.00  0.00     0.029 A 
ATOM     25  C   UNL A   1      46.858  26.077  26.696  1.00  0.00     0.049 A 
ATOM     26  H   UNL A   1      45.115  26.918  27.468  1.00  0.00     0.167 HD
ATOM     27  C   UNL A   1      41.280  28.553  28.854  1.00  0.00     0.037 A 
ATOM     28  C   UNL A   1      47.771  27.060  26.612  1.00  0.00     0.037 A 
ATOM     29  C   UNL A   1      42.218  29.646  28.903  1.00  0.00     0.049 A 
ATOM     30  C   UNL A   1      47.383  28.443  27.046  1.00  0.00     0.074 A 
ATOM     31  C   UNL A   1      42.014  30.938  29.353  1.00  0.00     0.029 A 
ATOM     32  N   UNL A   1      43.537  29.580  28.469  1.00  0.00    -0.354 N 
ATOM     33  N   UNL A   1      46.234  28.870  27.511  1.00  0.00    -0.248 NA
ATOM     34  C   UNL A   1      48.415  29.480  26.943  1.00  0.00     0.031 C 
ATOM     35  C   UNL A   1      43.183  31.671  29.126  1.00  0.00     0.029 A 
ATOM     36  C   UNL A   1      44.144  30.819  28.604  1.00  0.00     0.049 A 
ATOM     37  H   UNL A   1      43.974  28.772  28.115  1.00  0.00     0.167 HD
ATOM     38  C   UNL A   1      46.409  30.220  27.776  1.00  0.00     0.074 A 
ATOM     39  C   UNL A   1      47.782  30.535  27.436  1.00  0.00     0.031 C 
ATOM     40  C   UNL A   1      45.512  31.117  28.257  1.00  0.00     0.037 A 
BRANCH  27  41
ATOM     41  C   UNL A   1      39.854  28.813  29.255  1.00  0.00     0.064 A 
ATOM     42  C   UNL A   1      39.405  28.622  30.570  1.00  0.00     0.173 A 
ATOM     43  C   UNL A   1      38.929  29.285  28.311  1.00  0.00     0.173 A 
ATOM     44  F   UNL A   1      40.243  28.163  31.513  1.00  0.00    -0.203 F 
ATOM     45  C   UNL A   1      38.075  28.856  30.916  1.00  0.00     0.198 A 
ATOM     46  C   UNL A   1      37.610  29.553  28.668  1.00  0.00     0.198 A 
ATOM     47  F   UNL A   1      39.304  29.494  27.041  1.00  0.00    -0.203 F 
ATOM     48  F   UNL A   1      37.656  28.607  32.165  1.00  0.00    -0.200 F 
ATOM     49  C   UNL A   1      37.181  29.328  29.967  1.00  0.00     0.200 A 
ATOM     50  F   UNL A   1      36.752  30.024  27.753  1.00  0.00    -0.200 F 
ATOM     51  F   UNL A   1      35.903  29.554  30.302  1.00  0.00    -0.200 F 
ENDBRANCH  27  41
BRANCH  28  52
ATOM     52  C   UNL A   1      49.122  26.758  26.075  1.00  0.00     0.064 A 
ATOM     53  C   UNL A   1      49.431  26.972  24.726  1.00  0.00     0.173 A 
ATOM     54  C   UNL A   1      50.142  26.277  26.912  1.00  0.00     0.173 A 
ATOM     55  F   UNL A   1      48.487  27.417  23.885  1.00  0.00    -0.203 F 
ATOM     56  C   UNL A   1      50.706  26.704  24.230  1.00  0.00     0.198 A 
ATOM     57  C   UNL A   1      51.424  26.043  26.423  1.00  0.00     0.198 A 
ATOM     58  F   UNL A   1      49.900  26.068  28.214  1.00  0.00    -0.203 F 
ATOM     59  F   UNL A   1      50.966  26.879  22.928  1.00  0.00    -0.200 F 
ATOM     60  C   UNL A   1      51.703  26.249  25.081  1.00  0.00     0.200 A 
ATOM     61  F   UNL A   1      52.389  25.627  27.254  1.00  0.00    -0.200 F 
ATOM     62  F   UNL A   1      52.932  26.004  24.606  1.00  0.00    -0.200 F 
ENDBRANCH  28  52
BRANCH  40  63
ATOM     63  C   UNL A   1      46.000  32.520  28.474  1.00  0.00     0.064 A 
ATOM     64  C   UNL A   1      46.590  32.920  29.682  1.00  0.00     0.173 A 
ATOM     65  C   UNL A   1      45.909  33.469  27.443  1.00  0.00     0.173 A 
ATOM     66  F   UNL A   1      46.685  32.057  30.706  1.00  0.00    -0.203 F 
ATOM     67  C   UNL A   1      47.046  34.224  29.859  1.00  0.00     0.198 A 
ATOM     68  C   UNL A   1      46.398  34.760  27.610  1.00  0.00     0.198 A 
ATOM     69  F   UNL A   1      45.357  33.137  26.266  1.00  0.00    -0.203 F 
ATOM     70  F   UNL A   1      47.557  34.598  31.040  1.00  0.00    -0.200 F 
ATOM     71  C   UNL A   1      46.959  35.139  28.821  1.00  0.00     0.200 A 
ATOM     72  F   UNL A   1      46.328  35.638  26.601  1.00  0.00    -0.200 F 
ATOM     73  F   UNL A   1      47.409  36.390  28.990  1.00  0.00    -0.200 F 
ENDBRANCH  40  63
ENDBRANCH  14  15
ENDBRANCH   7   9
ENDBRANCH   4   5
ENDBRANCH   3   4
ENDBRANCH   2   3
ENDBRANCH   1   2
BRANCH   1  74
ATOM     74  C   UNL A   1      37.029  23.227  24.691  1.00  0.00     0.021 C 
BRANCH  74  75
ATOM     75  C   UNL A   1      36.288  24.036  25.751  1.00  0.00     0.116 C 
BRANCH  75  76
ATOM     76  N   UNL A   1      35.665  23.164  26.712  1.00  0.00    -0.354 N 
ATOM     77  C   UNL A   1      34.498  22.469  26.674  1.00  0.00     0.242 C 
ATOM     78  H   UNL A   1      36.176  23.049  27.545  1.00  0.00     0.163 HD
ATOM     79  O   UNL A   1      34.124  21.977  27.746  1.00  0.00    -0.273 OA
BRANCH  77  80
ATOM     80  C   UNL A   1      33.561  22.434  25.445  1.00  0.00     0.177 C 
ATOM     81  C   UNL A   1      33.822  21.219  24.555  1.00  0.00     0.069 C 
ATOM     82  N   UNL A   1      32.112  22.433  25.662  1.00  0.00    -0.327 N 
ATOM     83  C   UNL A   1      32.676  20.260  24.861  1.00  0.00     0.136 C 
ATOM     84  C   UNL A   1      31.511  21.170  25.240  1.00  0.00     0.152 C 
BRANCH  82  85
ATOM     85  C   UNL A   1      31.489  23.601  26.057  1.00  0.00     0.233 C 
ATOM     86  O   UNL A   1      31.299  23.841  27.251  1.00  0.00    -0.274 OA
BRANCH  85  87
ATOM     87  C   UNL A   1      31.073  24.607  24.995  1.00  0.00     0.169 C 
BRANCH  87  88
ATOM     88  S   UNL A   1      30.242  26.072  25.739  1.00  0.00    -0.148 SA
BRANCH  88  89
ATOM     89  C   UNL A   1      31.599  27.273  25.688  1.00  0.00     0.063 C 
ATOM     90  C   UNL A   1      31.425  28.377  24.639  1.00  0.00     0.031 C 
ATOM     91  C   UNL A   1      31.778  28.040  26.994  1.00  0.00     0.151 C 
ATOM     92  C   UNL A   1      32.616  29.328  24.843  1.00  0.00     0.138 C 
ATOM     93  S   UNL A   1      33.052  29.204  26.578  1.00  0.00     0.151 S 
ATOM     94  O   UNL A   1      34.320  28.511  26.703  1.00  0.00    -0.229 OA
ATOM     95  O   UNL A   1      32.789  30.458  27.251  1.00  0.00    -0.229 OA
ENDBRANCH  88  89
ENDBRANCH  87  88
ENDBRANCH  85  87
ENDBRANCH  82  85
BRANCH  83  96
ATOM     96  O   UNL A   1      32.374  19.427  23.755  1.00  0.00    -0.391 OA
ATOM     97  H   UNL A   1      31.435  19.185  23.778  1.00  0.00     0.211 HD
ENDBRANCH  83  96
ENDBRANCH  77  80
ENDBRANCH  75  76
ENDBRANCH  74  75
ENDBRANCH   1  74
TORSDOF 18
ENDMDL
