MODEL 1
REMARK VINA RESULT:     -13.2      0.000      0.000
REMARK SMILES CC(=O)Nc1cccc(-c2cc(F)ccc2C(=O)NCCCCCCNC(=O)c2ccc(-c3c4nc(c(-c5c(F)c(F)c(F)c(F)c5F)c5ccc([nH]5)c(-c5c(F)c(F)c(F)c(F)c5F)c5nc(c(-c6c(F)c(F)c(F)c(F)c6F)c6ccc3[nH]6)C=C5)C=C4)cc2)c1
REMARK SMILES IDX 22 1 21 2 20 3 19 4 17 5 18 6 16 8 10 9 11 10 12 11 15 12
REMARK SMILES IDX 13 13 14 14 9 15 5 16 6 17 92 18 7 19 8 20 4 21 1 22 2 23
REMARK SMILES IDX 3 24 23 26 24 27 25 28 26 29 27 30 28 32 29 33 30 34 91 35
REMARK SMILES IDX 31 36 90 37 32 38 33 39 34 40 84 41 35 42 89 43 83 44 85 45
REMARK SMILES IDX 36 46 88 47 82 48 81 49 37 51 69 52 49 53 68 54 50 55 53 56
REMARK SMILES IDX 67 57 86 58 51 59 52 60 66 62 87 63 54 64 38 65 39 66 47 67
REMARK SMILES IDX 40 68 41 69 45 70 48 71 42 72 43 73 46 74 44 75 70 76 71 77
REMARK SMILES IDX 79 78 72 79 73 80 77 81 80 82 74 83 75 84 78 85 76 86 55 87
REMARK SMILES IDX 56 88 64 89 57 90 58 91 62 92 65 93 59 94 60 95 63 96 61 97
REMARK H PARENT 19 7 4 25 26 31 85 50 53 61
REMARK Flexibility Score: inf
ROOT
ATOM      1  C   UNL A   1      31.801  29.938  27.133  1.00  0.00     0.002 C 
ENDROOT
BRANCH   1   2
ATOM      2  C   UNL A   1      32.557  28.695  26.646  1.00  0.00     0.021 C 
BRANCH   2   3
ATOM      3  C   UNL A   1      33.823  28.888  25.818  1.00  0.00     0.116 C 
BRANCH   3   4
ATOM      4  N   UNL A   1      33.640  29.161  24.416  1.00  0.00    -0.352 N 
ATOM      5  C   UNL A   1      32.831  28.580  23.470  1.00  0.00     0.251 C 
ATOM      6  O   UNL A   1      32.792  29.151  22.374  1.00  0.00    -0.269 OA
ATOM      7  H   UNL A   1      34.195  29.899  24.073  1.00  0.00     0.163 HD
BRANCH   5   8
ATOM      8  C   UNL A   1      32.057  27.293  23.600  1.00  0.00     0.047 A 
ATOM      9  C   UNL A   1      30.659  27.068  23.531  1.00  0.00    -0.003 A 
ATOM     10  C   UNL A   1      30.190  25.727  23.572  1.00  0.00     0.048 A 
ATOM     11  C   UNL A   1      31.057  24.648  23.667  1.00  0.00     0.123 A 
ATOM     12  C   UNL A   1      32.910  26.158  23.697  1.00  0.00     0.017 A 
ATOM     13  F   UNL A   1      30.564  23.402  23.684  1.00  0.00    -0.207 F 
ATOM     14  C   UNL A   1      32.419  24.851  23.731  1.00  0.00     0.040 A 
BRANCH   9  15
ATOM     15  C   UNL A   1      29.614  28.093  23.397  1.00  0.00    -0.015 A 
ATOM     16  C   UNL A   1      28.894  30.421  23.374  1.00  0.00     0.041 A 
ATOM     17  C   UNL A   1      27.562  29.992  23.264  1.00  0.00     0.026 A 
ATOM     18  C   UNL A   1      29.915  29.465  23.415  1.00  0.00     0.034 A 
ATOM     19  C   UNL A   1      27.249  28.638  23.187  1.00  0.00     0.003 A 
ATOM     20  C   UNL A   1      28.269  27.696  23.249  1.00  0.00     0.009 A 
BRANCH  16  21
ATOM     21  N   UNL A   1      29.086  31.796  23.577  1.00  0.00    -0.326 N 
ATOM     22  C   UNL A   1      28.076  32.813  21.536  1.00  0.00     0.114 C 
ATOM     23  C   UNL A   1      28.911  32.887  22.780  1.00  0.00     0.221 C 
ATOM     24  O   UNL A   1      29.415  33.955  23.139  1.00  0.00    -0.275 OA
ATOM     25  H   UNL A   1      29.415  32.018  24.478  1.00  0.00     0.169 HD
ENDBRANCH  16  21
ENDBRANCH   9  15
ENDBRANCH   5   8
ENDBRANCH   3   4
ENDBRANCH   2   3
ENDBRANCH   1   2
BRANCH   1  26
ATOM     26  C   UNL A   1      31.389  31.020  26.127  1.00  0.00     0.002 C 
BRANCH  26  27
ATOM     27  C   UNL A   1      31.346  32.479  26.587  1.00  0.00     0.021 C 
BRANCH  27  28
ATOM     28  C   UNL A   1      32.608  33.076  27.199  1.00  0.00     0.116 C 
BRANCH  28  29
ATOM     29  N   UNL A   1      32.419  34.412  27.726  1.00  0.00    -0.352 N 
ATOM     30  C   UNL A   1      33.019  35.073  28.771  1.00  0.00     0.251 C 
ATOM     31  H   UNL A   1      31.738  34.941  27.250  1.00  0.00     0.163 HD
ATOM     32  O   UNL A   1      32.605  36.190  29.073  1.00  0.00    -0.269 OA
BRANCH  30  33
ATOM     33  C   UNL A   1      34.140  34.490  29.560  1.00  0.00     0.039 A 
ATOM     34  C   UNL A   1      35.417  34.498  28.981  1.00  0.00     0.014 A 
ATOM     35  C   UNL A   1      33.962  33.856  30.792  1.00  0.00     0.014 A 
ATOM     36  C   UNL A   1      36.502  33.900  29.634  1.00  0.00     0.010 A 
ATOM     37  C   UNL A   1      35.058  33.313  31.476  1.00  0.00     0.010 A 
ATOM     38  C   UNL A   1      36.336  33.309  30.895  1.00  0.00    -0.014 A 
BRANCH  38  39
ATOM     39  C   UNL A   1      37.479  32.644  31.582  1.00  0.00     0.031 A 
ATOM     40  C   UNL A   1      38.187  31.483  30.934  1.00  0.00     0.074 A 
ATOM     41  C   UNL A   1      37.867  33.053  32.805  1.00  0.00     0.049 A 
ATOM     42  N   UNL A   1      39.178  30.756  31.387  1.00  0.00    -0.248 NA
ATOM     43  C   UNL A   1      37.699  31.071  29.610  1.00  0.00     0.031 C 
ATOM     44  C   UNL A   1      37.244  34.131  33.571  1.00  0.00     0.029 A 
ATOM     45  N   UNL A   1      38.873  32.598  33.623  1.00  0.00    -0.354 N 
ATOM     46  C   UNL A   1      39.415  29.789  30.418  1.00  0.00     0.074 A 
ATOM     47  C   UNL A   1      38.438  29.997  29.371  1.00  0.00     0.031 C 
ATOM     48  C   UNL A   1      37.885  34.260  34.745  1.00  0.00     0.029 A 
ATOM     49  C   UNL A   1      38.949  33.262  34.823  1.00  0.00     0.049 A 
ATOM     50  H   UNL A   1      39.482  31.866  33.373  1.00  0.00     0.167 HD
ATOM     51  C   UNL A   1      40.372  28.829  30.390  1.00  0.00     0.037 A 
ATOM     52  C   UNL A   1      39.780  33.088  35.869  1.00  0.00     0.037 A 
ATOM     53  C   UNL A   1      41.374  28.642  31.406  1.00  0.00     0.049 A 
ATOM     54  C   UNL A   1      40.861  32.044  35.800  1.00  0.00     0.074 A 
ATOM     55  C   UNL A   1      42.431  27.749  31.424  1.00  0.00     0.029 A 
ATOM     56  N   UNL A   1      41.443  29.364  32.588  1.00  0.00    -0.354 N 
ATOM     57  N   UNL A   1      41.119  31.186  34.845  1.00  0.00    -0.248 NA
ATOM     58  C   UNL A   1      41.775  31.957  36.949  1.00  0.00     0.031 C 
ATOM     59  C   UNL A   1      43.119  27.905  32.633  1.00  0.00     0.029 A 
ATOM     60  C   UNL A   1      42.513  28.923  33.351  1.00  0.00     0.049 A 
ATOM     61  H   UNL A   1      40.824  30.084  32.847  1.00  0.00     0.167 HD
ATOM     62  C   UNL A   1      42.231  30.469  35.266  1.00  0.00     0.074 A 
ATOM     63  C   UNL A   1      42.610  31.003  36.558  1.00  0.00     0.031 C 
ATOM     64  C   UNL A   1      42.880  29.458  34.636  1.00  0.00     0.037 A 
BRANCH  51  65
ATOM     65  C   UNL A   1      40.376  27.897  29.213  1.00  0.00     0.064 A 
ATOM     66  C   UNL A   1      39.599  26.728  29.196  1.00  0.00     0.173 A 
ATOM     67  C   UNL A   1      41.151  28.186  28.080  1.00  0.00     0.173 A 
ATOM     68  F   UNL A   1      38.848  26.401  30.259  1.00  0.00    -0.203 F 
ATOM     69  C   UNL A   1      39.629  25.864  28.105  1.00  0.00     0.198 A 
ATOM     70  C   UNL A   1      41.156  27.334  26.978  1.00  0.00     0.198 A 
ATOM     71  F   UNL A   1      41.905  29.294  28.042  1.00  0.00    -0.203 F 
ATOM     72  F   UNL A   1      38.923  24.725  28.135  1.00  0.00    -0.200 F 
ATOM     73  C   UNL A   1      40.403  26.169  26.996  1.00  0.00     0.200 A 
ATOM     74  F   UNL A   1      41.897  27.636  25.903  1.00  0.00    -0.200 F 
ATOM     75  F   UNL A   1      40.432  25.336  25.947  1.00  0.00    -0.200 F 
ENDBRANCH  51  65
BRANCH  52  76
ATOM     76  C   UNL A   1      39.631  33.949  37.068  1.00  0.00     0.064 A 
ATOM     77  C   UNL A   1      40.242  35.209  37.133  1.00  0.00     0.173 A 
ATOM     78  C   UNL A   1      38.855  33.540  38.162  1.00  0.00     0.173 A 
ATOM     79  F   UNL A   1      41.011  35.632  36.120  1.00  0.00    -0.203 F 
ATOM     80  C   UNL A   1      40.089  36.026  38.252  1.00  0.00     0.198 A 
ATOM     81  C   UNL A   1      38.685  34.366  39.272  1.00  0.00     0.198 A 
ATOM     82  F   UNL A   1      38.249  32.345  38.146  1.00  0.00    -0.203 F 
ATOM     83  F   UNL A   1      40.707  37.213  38.302  1.00  0.00    -0.200 F 
ATOM     84  C   UNL A   1      39.305  35.607  39.317  1.00  0.00     0.200 A 
ATOM     85  F   UNL A   1      37.918  33.963  40.293  1.00  0.00    -0.200 F 
ATOM     86  F   UNL A   1      39.150  36.396  40.388  1.00  0.00    -0.200 F 
ENDBRANCH  52  76
BRANCH  64  87
ATOM     87  C   UNL A   1      44.076  28.872  35.327  1.00  0.00     0.064 A 
ATOM     88  C   UNL A   1      45.367  29.377  35.111  1.00  0.00     0.173 A 
ATOM     89  C   UNL A   1      43.926  27.819  36.242  1.00  0.00     0.173 A 
ATOM     90  F   UNL A   1      45.564  30.373  34.234  1.00  0.00    -0.203 F 
ATOM     91  C   UNL A   1      46.467  28.835  35.772  1.00  0.00     0.198 A 
ATOM     92  C   UNL A   1      45.025  27.296  36.918  1.00  0.00     0.198 A 
ATOM     93  F   UNL A   1      42.712  27.305  36.486  1.00  0.00    -0.203 F 
ATOM     94  F   UNL A   1      47.696  29.308  35.522  1.00  0.00    -0.200 F 
ATOM     95  C   UNL A   1      46.294  27.801  36.679  1.00  0.00     0.200 A 
ATOM     96  F   UNL A   1      44.856  26.302  37.802  1.00  0.00    -0.200 F 
ATOM     97  F   UNL A   1      47.353  27.284  37.317  1.00  0.00    -0.200 F 
ENDBRANCH  64  87
ENDBRANCH  38  39
ENDBRANCH  30  33
ENDBRANCH  28  29
ENDBRANCH  27  28
ENDBRANCH  26  27
ENDBRANCH   1  26
TORSDOF 15
ENDMDL
MODEL 2
REMARK VINA RESULT:     -13.2      6.633     11.951
REMARK SMILES CC(=O)Nc1cccc(-c2cc(F)ccc2C(=O)NCCCCCCNC(=O)c2ccc(-c3c4nc(c(-c5c(F)c(F)c(F)c(F)c5F)c5ccc([nH]5)c(-c5c(F)c(F)c(F)c(F)c5F)c5nc(c(-c6c(F)c(F)c(F)c(F)c6F)c6ccc3[nH]6)C=C5)C=C4)cc2)c1
REMARK SMILES IDX 22 1 21 2 20 3 19 4 17 5 18 6 16 8 10 9 11 10 12 11 15 12
REMARK SMILES IDX 13 13 14 14 9 15 5 16 6 17 92 18 7 19 8 20 4 21 1 22 2 23
REMARK SMILES IDX 3 24 23 26 24 27 25 28 26 29 27 30 28 32 29 33 30 34 91 35
REMARK SMILES IDX 31 36 90 37 32 38 33 39 34 40 84 41 35 42 89 43 83 44 85 45
REMARK SMILES IDX 36 46 88 47 82 48 81 49 37 51 69 52 49 53 68 54 50 55 53 56
REMARK SMILES IDX 67 57 86 58 51 59 52 60 66 62 87 63 54 64 38 65 39 66 47 67
REMARK SMILES IDX 40 68 41 69 45 70 48 71 42 72 43 73 46 74 44 75 70 76 71 77
REMARK SMILES IDX 79 78 72 79 73 80 77 81 80 82 74 83 75 84 78 85 76 86 55 87
REMARK SMILES IDX 56 88 64 89 57 90 58 91 62 92 65 93 59 94 60 95 63 96 61 97
REMARK H PARENT 19 7 4 25 26 31 85 50 53 61
REMARK Flexibility Score: inf
ROOT
ATOM      1  C   UNL A   1      36.461  21.055  25.391  1.00  0.00     0.002 C 
ENDROOT
BRANCH   1   2
ATOM      2  C   UNL A   1      36.900  22.474  25.772  1.00  0.00     0.021 C 
BRANCH   2   3
ATOM      3  C   UNL A   1      36.394  23.645  24.936  1.00  0.00     0.116 C 
BRANCH   3   4
ATOM      4  N   UNL A   1      35.764  23.317  23.683  1.00  0.00    -0.352 N 
ATOM      5  C   UNL A   1      34.448  23.107  23.350  1.00  0.00     0.251 C 
ATOM      6  O   UNL A   1      34.212  22.992  22.142  1.00  0.00    -0.269 OA
ATOM      7  H   UNL A   1      36.390  23.229  22.928  1.00  0.00     0.163 HD
BRANCH   5   8
ATOM      8  C   UNL A   1      33.287  22.924  24.295  1.00  0.00     0.047 A 
ATOM      9  C   UNL A   1      32.591  21.742  24.654  1.00  0.00    -0.003 A 
ATOM     10  C   UNL A   1      31.597  21.828  25.665  1.00  0.00     0.048 A 
ATOM     11  C   UNL A   1      31.301  23.022  26.306  1.00  0.00     0.123 A 
ATOM     12  C   UNL A   1      32.952  24.127  24.977  1.00  0.00     0.017 A 
ATOM     13  F   UNL A   1      30.366  23.044  27.265  1.00  0.00    -0.207 F 
ATOM     14  C   UNL A   1      31.972  24.178  25.971  1.00  0.00     0.040 A 
BRANCH   9  15
ATOM     15  C   UNL A   1      32.805  20.399  24.097  1.00  0.00    -0.015 A 
ATOM     16  C   UNL A   1      33.905  18.224  24.123  1.00  0.00     0.041 A 
ATOM     17  C   UNL A   1      33.267  17.903  22.916  1.00  0.00     0.026 A 
ATOM     18  C   UNL A   1      33.650  19.464  24.719  1.00  0.00     0.034 A 
ATOM     19  C   UNL A   1      32.382  18.793  22.314  1.00  0.00     0.003 A 
ATOM     20  C   UNL A   1      32.151  20.030  22.904  1.00  0.00     0.009 A 
BRANCH  16  21
ATOM     21  N   UNL A   1      34.875  17.313  24.572  1.00  0.00    -0.326 N 
ATOM     22  C   UNL A   1      33.508  15.387  25.373  1.00  0.00     0.114 C 
ATOM     23  C   UNL A   1      34.800  16.141  25.262  1.00  0.00     0.221 C 
ATOM     24  O   UNL A   1      35.839  15.688  25.751  1.00  0.00    -0.275 OA
ATOM     25  H   UNL A   1      35.795  17.575  24.342  1.00  0.00     0.169 HD
ENDBRANCH  16  21
ENDBRANCH   9  15
ENDBRANCH   5   8
ENDBRANCH   3   4
ENDBRANCH   2   3
ENDBRANCH   1   2
BRANCH   1  26
ATOM     26  C   UNL A   1      37.416  20.149  24.603  1.00  0.00     0.002 C 
BRANCH  26  27
ATOM     27  C   UNL A   1      38.342  19.204  25.373  1.00  0.00     0.021 C 
BRANCH  27  28
ATOM     28  C   UNL A   1      39.558  19.802  26.070  1.00  0.00     0.116 C 
BRANCH  28  29
ATOM     29  N   UNL A   1      40.708  18.921  26.084  1.00  0.00    -0.352 N 
ATOM     30  C   UNL A   1      42.055  19.183  26.154  1.00  0.00     0.251 C 
ATOM     31  H   UNL A   1      40.484  17.963  26.031  1.00  0.00     0.163 HD
ATOM     32  O   UNL A   1      42.841  18.243  26.055  1.00  0.00    -0.269 OA
BRANCH  30  33
ATOM     33  C   UNL A   1      42.605  20.555  26.335  1.00  0.00     0.039 A 
ATOM     34  C   UNL A   1      42.593  21.097  27.628  1.00  0.00     0.014 A 
ATOM     35  C   UNL A   1      43.034  21.356  25.273  1.00  0.00     0.014 A 
ATOM     36  C   UNL A   1      43.024  22.409  27.859  1.00  0.00     0.010 A 
ATOM     37  C   UNL A   1      43.525  22.647  25.511  1.00  0.00     0.010 A 
ATOM     38  C   UNL A   1      43.505  23.196  26.802  1.00  0.00    -0.014 A 
BRANCH  38  39
ATOM     39  C   UNL A   1      43.936  24.603  27.034  1.00  0.00     0.031 A 
ATOM     40  C   UNL A   1      42.952  25.631  27.528  1.00  0.00     0.074 A 
ATOM     41  C   UNL A   1      45.203  24.978  26.771  1.00  0.00     0.049 A 
ATOM     42  N   UNL A   1      43.129  26.909  27.758  1.00  0.00    -0.248 NA
ATOM     43  C   UNL A   1      41.580  25.163  27.773  1.00  0.00     0.031 C 
ATOM     44  C   UNL A   1      46.249  24.102  26.246  1.00  0.00     0.029 A 
ATOM     45  N   UNL A   1      45.821  26.199  26.900  1.00  0.00    -0.354 N 
ATOM     46  C   UNL A   1      41.890  27.400  28.151  1.00  0.00     0.074 A 
ATOM     47  C   UNL A   1      40.961  26.292  28.087  1.00  0.00     0.031 C 
ATOM     48  C   UNL A   1      47.382  24.811  26.102  1.00  0.00     0.029 A 
ATOM     49  C   UNL A   1      47.136  26.194  26.506  1.00  0.00     0.049 A 
ATOM     50  H   UNL A   1      45.364  27.000  27.242  1.00  0.00     0.167 HD
ATOM     51  C   UNL A   1      41.558  28.653  28.547  1.00  0.00     0.037 A 
ATOM     52  C   UNL A   1      48.043  27.189  26.471  1.00  0.00     0.037 A 
ATOM     53  C   UNL A   1      42.485  29.750  28.653  1.00  0.00     0.049 A 
ATOM     54  C   UNL A   1      47.666  28.562  26.955  1.00  0.00     0.074 A 
ATOM     55  C   UNL A   1      42.256  31.032  29.122  1.00  0.00     0.029 A 
ATOM     56  N   UNL A   1      43.820  29.693  28.284  1.00  0.00    -0.354 N 
ATOM     57  N   UNL A   1      46.509  28.994  27.392  1.00  0.00    -0.248 NA
ATOM     58  C   UNL A   1      48.726  29.581  26.955  1.00  0.00     0.031 C 
ATOM     59  C   UNL A   1      43.445  31.762  29.003  1.00  0.00     0.029 A 
ATOM     60  C   UNL A   1      44.423  30.924  28.496  1.00  0.00     0.049 A 
ATOM     61  H   UNL A   1      44.274  28.897  27.924  1.00  0.00     0.167 HD
ATOM     62  C   UNL A   1      46.704  30.325  27.735  1.00  0.00     0.074 A 
ATOM     63  C   UNL A   1      48.094  30.628  27.469  1.00  0.00     0.031 C 
ATOM     64  C   UNL A   1      45.807  31.217  28.226  1.00  0.00     0.037 A 
BRANCH  51  65
ATOM     65  C   UNL A   1      40.120  28.906  28.895  1.00  0.00     0.064 A 
ATOM     66  C   UNL A   1      39.646  28.775  30.209  1.00  0.00     0.173 A 
ATOM     67  C   UNL A   1      39.209  29.304  27.905  1.00  0.00     0.173 A 
ATOM     68  F   UNL A   1      40.474  28.387  31.190  1.00  0.00    -0.203 F 
ATOM     69  C   UNL A   1      38.304  28.995  30.511  1.00  0.00     0.198 A 
ATOM     70  C   UNL A   1      37.874  29.551  28.216  1.00  0.00     0.198 A 
ATOM     71  F   UNL A   1      39.613  29.452  26.634  1.00  0.00    -0.203 F 
ATOM     72  F   UNL A   1      37.862  28.808  31.763  1.00  0.00    -0.200 F 
ATOM     73  C   UNL A   1      37.421  29.387  29.517  1.00  0.00     0.200 A 
ATOM     74  F   UNL A   1      37.024  29.940  27.256  1.00  0.00    -0.200 F 
ATOM     75  F   UNL A   1      36.130  29.596  29.810  1.00  0.00    -0.200 F 
ENDBRANCH  51  65
BRANCH  52  76
ATOM     76  C   UNL A   1      49.414  26.907  25.977  1.00  0.00     0.064 A 
ATOM     77  C   UNL A   1      49.750  27.094  24.629  1.00  0.00     0.173 A 
ATOM     78  C   UNL A   1      50.422  26.469  26.849  1.00  0.00     0.173 A 
ATOM     79  F   UNL A   1      48.813  27.490  23.757  1.00  0.00    -0.203 F 
ATOM     80  C   UNL A   1      51.042  26.845  24.169  1.00  0.00     0.198 A 
ATOM     81  C   UNL A   1      51.718  26.241  26.392  1.00  0.00     0.198 A 
ATOM     82  F   UNL A   1      50.150  26.278  28.147  1.00  0.00    -0.203 F 
ATOM     83  F   UNL A   1      51.329  27.002  22.870  1.00  0.00    -0.200 F 
ATOM     84  C   UNL A   1      52.026  26.427  25.052  1.00  0.00     0.200 A 
ATOM     85  F   UNL A   1      52.669  25.848  27.249  1.00  0.00    -0.200 F 
ATOM     86  F   UNL A   1      53.270  26.197  24.611  1.00  0.00    -0.200 F 
ENDBRANCH  52  76
BRANCH  64  87
ATOM     87  C   UNL A   1      46.303  32.601  28.523  1.00  0.00     0.064 A 
ATOM     88  C   UNL A   1      46.246  33.621  27.562  1.00  0.00     0.173 A 
ATOM     89  C   UNL A   1      46.807  32.920  29.793  1.00  0.00     0.173 A 
ATOM     90  F   UNL A   1      45.786  33.362  26.328  1.00  0.00    -0.203 F 
ATOM     91  C   UNL A   1      46.694  34.907  27.856  1.00  0.00     0.198 A 
ATOM     92  C   UNL A   1      47.232  34.212  30.090  1.00  0.00     0.198 A 
ATOM     93  F   UNL A   1      46.878  31.980  30.747  1.00  0.00    -0.203 F 
ATOM     94  F   UNL A   1      46.665  35.857  26.911  1.00  0.00    -0.200 F 
ATOM     95  C   UNL A   1      47.179  35.203  29.121  1.00  0.00     0.200 A 
ATOM     96  F   UNL A   1      47.693  34.499  31.315  1.00  0.00    -0.200 F 
ATOM     97  F   UNL A   1      47.606  36.441  29.404  1.00  0.00    -0.200 F 
ENDBRANCH  64  87
ENDBRANCH  38  39
ENDBRANCH  30  33
ENDBRANCH  28  29
ENDBRANCH  27  28
ENDBRANCH  26  27
ENDBRANCH   1  26
TORSDOF 15
ENDMDL
MODEL 3
REMARK VINA RESULT:     -13.1      3.692      7.466
REMARK SMILES CC(=O)Nc1cccc(-c2cc(F)ccc2C(=O)NCCCCCCNC(=O)c2ccc(-c3c4nc(c(-c5c(F)c(F)c(F)c(F)c5F)c5ccc([nH]5)c(-c5c(F)c(F)c(F)c(F)c5F)c5nc(c(-c6c(F)c(F)c(F)c(F)c6F)c6ccc3[nH]6)C=C5)C=C4)cc2)c1
REMARK SMILES IDX 22 1 21 2 20 3 19 4 17 5 18 6 16 8 10 9 11 10 12 11 15 12
REMARK SMILES IDX 13 13 14 14 9 15 5 16 6 17 92 18 7 19 8 20 4 21 1 22 2 23
REMARK SMILES IDX 3 24 23 26 24 27 25 28 26 29 27 30 28 32 29 33 30 34 91 35
REMARK SMILES IDX 31 36 90 37 32 38 33 39 34 40 84 41 35 42 89 43 83 44 85 45
REMARK SMILES IDX 36 46 88 47 82 48 81 49 37 51 69 52 49 53 68 54 50 55 53 56
REMARK SMILES IDX 67 57 86 58 51 59 52 60 66 62 87 63 54 64 38 65 39 66 47 67
REMARK SMILES IDX 40 68 41 69 45 70 48 71 42 72 43 73 46 74 44 75 70 76 71 77
REMARK SMILES IDX 79 78 72 79 73 80 77 81 80 82 74 83 75 84 78 85 76 86 55 87
REMARK SMILES IDX 56 88 64 89 57 90 58 91 62 92 65 93 59 94 60 95 63 96 61 97
REMARK H PARENT 19 7 4 25 26 31 85 50 53 61
REMARK Flexibility Score: inf
ROOT
ATOM      1  C   UNL A   1      33.113  23.854  24.965  1.00  0.00     0.002 C 
ENDROOT
BRANCH   1   2
ATOM      2  C   UNL A   1      31.830  24.694  24.953  1.00  0.00     0.021 C 
BRANCH   2   3
ATOM      3  C   UNL A   1      31.159  24.984  23.614  1.00  0.00     0.116 C 
BRANCH   3   4
ATOM      4  N   UNL A   1      31.965  25.639  22.617  1.00  0.00    -0.352 N 
ATOM      5  C   UNL A   1      32.710  26.793  22.659  1.00  0.00     0.251 C 
ATOM      6  O   UNL A   1      33.420  27.008  21.671  1.00  0.00    -0.269 OA
ATOM      7  H   UNL A   1      31.988  25.176  21.749  1.00  0.00     0.163 HD
BRANCH   5   8
ATOM      8  C   UNL A   1      32.692  27.850  23.733  1.00  0.00     0.047 A 
ATOM      9  C   UNL A   1      31.657  28.745  24.104  1.00  0.00    -0.003 A 
ATOM     10  C   UNL A   1      31.858  29.574  25.240  1.00  0.00     0.048 A 
ATOM     11  C   UNL A   1      33.024  29.524  25.989  1.00  0.00     0.123 A 
ATOM     12  C   UNL A   1      33.871  27.831  24.529  1.00  0.00     0.017 A 
ATOM     13  F   UNL A   1      33.157  30.316  27.061  1.00  0.00    -0.207 F 
ATOM     14  C   UNL A   1      34.039  28.657  25.643  1.00  0.00     0.040 A 
BRANCH   9  15
ATOM     15  C   UNL A   1      30.354  28.898  23.440  1.00  0.00    -0.015 A 
ATOM     16  C   UNL A   1      28.814  30.135  22.012  1.00  0.00     0.041 A 
ATOM     17  C   UNL A   1      27.811  29.200  22.308  1.00  0.00     0.026 A 
ATOM     18  C   UNL A   1      30.089  29.963  22.563  1.00  0.00     0.034 A 
ATOM     19  C   UNL A   1      28.071  28.106  23.129  1.00  0.00     0.003 A 
ATOM     20  C   UNL A   1      29.335  27.955  23.687  1.00  0.00     0.009 A 
BRANCH  16  21
ATOM     21  N   UNL A   1      28.411  31.266  21.285  1.00  0.00    -0.326 N 
ATOM     22  C   UNL A   1      28.764  33.130  22.904  1.00  0.00     0.114 C 
ATOM     23  C   UNL A   1      28.208  32.569  21.628  1.00  0.00     0.221 C 
ATOM     24  O   UNL A   1      27.596  33.289  20.835  1.00  0.00    -0.275 OA
ATOM     25  H   UNL A   1      28.241  31.081  20.333  1.00  0.00     0.169 HD
ENDBRANCH  16  21
ENDBRANCH   9  15
ENDBRANCH   5   8
ENDBRANCH   3   4
ENDBRANCH   2   3
ENDBRANCH   1   2
BRANCH   1  26
ATOM     26  C   UNL A   1      34.402  24.444  25.551  1.00  0.00     0.002 C 
BRANCH  26  27
ATOM     27  C   UNL A   1      35.596  23.517  25.792  1.00  0.00     0.021 C 
BRANCH  27  28
ATOM     28  C   UNL A   1      36.879  23.782  25.013  1.00  0.00     0.116 C 
BRANCH  28  29
ATOM     29  N   UNL A   1      37.957  22.876  25.349  1.00  0.00    -0.352 N 
ATOM     30  C   UNL A   1      39.085  23.046  26.116  1.00  0.00     0.251 C 
ATOM     31  H   UNL A   1      37.867  21.976  24.957  1.00  0.00     0.163 HD
ATOM     32  O   UNL A   1      39.902  22.130  26.170  1.00  0.00    -0.269 OA
BRANCH  30  33
ATOM     33  C   UNL A   1      39.366  24.296  26.876  1.00  0.00     0.039 A 
ATOM     34  C   UNL A   1      40.128  25.287  26.241  1.00  0.00     0.014 A 
ATOM     35  C   UNL A   1      38.995  24.483  28.210  1.00  0.00     0.014 A 
ATOM     36  C   UNL A   1      40.494  26.455  26.921  1.00  0.00     0.010 A 
ATOM     37  C   UNL A   1      39.305  25.679  28.872  1.00  0.00     0.010 A 
ATOM     38  C   UNL A   1      40.078  26.668  28.243  1.00  0.00    -0.014 A 
BRANCH  38  39
ATOM     39  C   UNL A   1      40.489  27.894  28.984  1.00  0.00     0.031 A 
ATOM     40  C   UNL A   1      41.881  28.014  29.546  1.00  0.00     0.074 A 
ATOM     41  C   UNL A   1      39.608  28.891  29.188  1.00  0.00     0.049 A 
ATOM     42  N   UNL A   1      42.414  28.985  30.247  1.00  0.00    -0.248 NA
ATOM     43  C   UNL A   1      42.786  26.880  29.310  1.00  0.00     0.031 C 
ATOM     44  C   UNL A   1      38.215  28.892  28.742  1.00  0.00     0.029 A 
ATOM     45  N   UNL A   1      39.752  30.095  29.836  1.00  0.00    -0.354 N 
ATOM     46  C   UNL A   1      43.704  28.569  30.553  1.00  0.00     0.074 A 
ATOM     47  C   UNL A   1      43.859  27.241  29.998  1.00  0.00     0.031 C 
ATOM     48  C   UNL A   1      37.634  30.042  29.123  1.00  0.00     0.029 A 
ATOM     49  C   UNL A   1      38.606  30.850  29.856  1.00  0.00     0.049 A 
ATOM     50  H   UNL A   1      40.598  30.388  30.245  1.00  0.00     0.167 HD
ATOM     51  C   UNL A   1      44.678  29.238  31.217  1.00  0.00     0.037 A 
ATOM     52  C   UNL A   1      38.361  32.056  30.404  1.00  0.00     0.037 A 
ATOM     53  C   UNL A   1      44.546  30.575  31.734  1.00  0.00     0.049 A 
ATOM     54  C   UNL A   1      39.468  32.800  31.099  1.00  0.00     0.074 A 
ATOM     55  C   UNL A   1      45.504  31.363  32.349  1.00  0.00     0.029 A 
ATOM     56  N   UNL A   1      43.379  31.324  31.698  1.00  0.00    -0.354 N 
ATOM     57  N   UNL A   1      40.704  32.425  31.317  1.00  0.00    -0.248 NA
ATOM     58  C   UNL A   1      39.148  34.141  31.611  1.00  0.00     0.031 C 
ATOM     59  C   UNL A   1      44.907  32.575  32.717  1.00  0.00     0.029 A 
ATOM     60  C   UNL A   1      43.588  32.556  32.297  1.00  0.00     0.049 A 
ATOM     61  H   UNL A   1      42.528  31.024  31.304  1.00  0.00     0.167 HD
ATOM     62  C   UNL A   1      41.314  33.486  31.974  1.00  0.00     0.074 A 
ATOM     63  C   UNL A   1      40.317  34.527  32.107  1.00  0.00     0.031 C 
ATOM     64  C   UNL A   1      42.589  33.585  32.427  1.00  0.00     0.037 A 
BRANCH  51  65
ATOM     65  C   UNL A   1      45.983  28.525  31.425  1.00  0.00     0.064 A 
ATOM     66  C   UNL A   1      46.223  27.746  32.567  1.00  0.00     0.173 A 
ATOM     67  C   UNL A   1      46.999  28.607  30.461  1.00  0.00     0.173 A 
ATOM     68  F   UNL A   1      45.287  27.644  33.523  1.00  0.00    -0.203 F 
ATOM     69  C   UNL A   1      47.445  27.107  32.753  1.00  0.00     0.198 A 
ATOM     70  C   UNL A   1      48.210  27.943  30.637  1.00  0.00     0.198 A 
ATOM     71  F   UNL A   1      46.818  29.332  29.347  1.00  0.00    -0.203 F 
ATOM     72  F   UNL A   1      47.672  26.414  33.878  1.00  0.00    -0.200 F 
ATOM     73  C   UNL A   1      48.436  27.201  31.787  1.00  0.00     0.200 A 
ATOM     74  F   UNL A   1      49.162  28.027  29.698  1.00  0.00    -0.200 F 
ATOM     75  F   UNL A   1      49.612  26.587  31.970  1.00  0.00    -0.200 F 
ENDBRANCH  51  65
BRANCH  52  76
ATOM     76  C   UNL A   1      37.004  32.647  30.289  1.00  0.00     0.064 A 
ATOM     77  C   UNL A   1      36.060  32.491  31.313  1.00  0.00     0.173 A 
ATOM     78  C   UNL A   1      36.634  33.397  29.164  1.00  0.00     0.173 A 
ATOM     79  F   UNL A   1      36.362  31.762  32.396  1.00  0.00    -0.203 F 
ATOM     80  C   UNL A   1      34.790  33.059  31.212  1.00  0.00     0.198 A 
ATOM     81  C   UNL A   1      35.373  33.983  29.074  1.00  0.00     0.198 A 
ATOM     82  F   UNL A   1      37.504  33.576  28.160  1.00  0.00    -0.203 F 
ATOM     83  F   UNL A   1      33.896  32.871  32.191  1.00  0.00    -0.200 F 
ATOM     84  C   UNL A   1      34.451  33.811  30.097  1.00  0.00     0.200 A 
ATOM     85  F   UNL A   1      35.052  34.718  28.001  1.00  0.00    -0.200 F 
ATOM     86  F   UNL A   1      33.235  34.365  30.005  1.00  0.00    -0.200 F 
ENDBRANCH  52  76
BRANCH  64  87
ATOM     87  C   UNL A   1      42.984  34.869  33.094  1.00  0.00     0.064 A 
ATOM     88  C   UNL A   1      43.449  35.966  32.354  1.00  0.00     0.173 A 
ATOM     89  C   UNL A   1      42.862  35.017  34.484  1.00  0.00     0.173 A 
ATOM     90  F   UNL A   1      43.597  35.869  31.024  1.00  0.00    -0.203 F 
ATOM     91  C   UNL A   1      43.796  37.159  32.984  1.00  0.00     0.198 A 
ATOM     92  C   UNL A   1      43.188  36.218  35.108  1.00  0.00     0.198 A 
ATOM     93  F   UNL A   1      42.418  33.999  35.235  1.00  0.00    -0.203 F 
ATOM     94  F   UNL A   1      44.275  38.182  32.262  1.00  0.00    -0.200 F 
ATOM     95  C   UNL A   1      43.658  37.286  34.359  1.00  0.00     0.200 A 
ATOM     96  F   UNL A   1      43.046  36.344  36.434  1.00  0.00    -0.200 F 
ATOM     97  F   UNL A   1      43.989  38.436  34.963  1.00  0.00    -0.200 F 
ENDBRANCH  64  87
ENDBRANCH  38  39
ENDBRANCH  30  33
ENDBRANCH  28  29
ENDBRANCH  27  28
ENDBRANCH  26  27
ENDBRANCH   1  26
TORSDOF 15
ENDMDL
